MODEL 1
REMARK VINA RESULT:    -4.244      0.000      0.000
REMARK INTER + INTRA:          -9.315
REMARK INTER:                  -7.966
REMARK INTRA:                  -1.349
REMARK UNBOUND:                -1.349
REMARK SMILES CCCCCCCCC=CCCCCCCCC(=O)[O-]
REMARK SMILES IDX 10 1 9 2 11 3 12 4 13 5 14 6 15 7 16 8 17 9 18 10 19 11
REMARK SMILES IDX 20 12 8 13 7 14 6 15 5 16 4 17 3 18 2 19 1 20
REMARK H PARENT
REMARK Flexibility Score: inf
ROOT
ATOM      1  C   UNL     1      12.572  16.012  27.143  1.00  0.00    -0.031 C 
ATOM      2  C   UNL     1      13.857  15.711  27.382  1.00  0.00    -0.031 C 
ENDROOT
BRANCH   1   3
ATOM      3  C   UNL     1      12.017  16.040  25.745  1.00  0.00     0.027 C 
BRANCH   3   4
ATOM      4  C   UNL     1      11.691  17.473  25.309  1.00  0.00     0.004 C 
BRANCH   4   5
ATOM      5  C   UNL     1      11.920  17.654  23.802  1.00  0.00     0.000 C 
BRANCH   5   6
ATOM      6  C   UNL     1      13.391  17.944  23.457  1.00  0.00     0.000 C 
BRANCH   6   7
ATOM      7  C   UNL     1      14.268  18.122  24.705  1.00  0.00     0.000 C 
BRANCH   7   8
ATOM      8  C   UNL     1      15.759  18.106  24.332  1.00  0.00     0.006 C 
BRANCH   8   9
ATOM      9  C   UNL     1      16.651  17.738  25.525  1.00  0.00     0.053 C 
BRANCH   9  10
ATOM     10  C   UNL     1      18.102  17.727  25.151  1.00  0.00     0.041 C 
ATOM     11  O   UNL     1      18.983  17.545  26.032  1.00  0.00    -0.550 OA
ATOM     12  O   UNL     1      18.479  17.884  23.824  1.00  0.00    -0.550 OA
ENDBRANCH   9  10
ENDBRANCH   8   9
ENDBRANCH   7   8
ENDBRANCH   6   7
ENDBRANCH   5   6
ENDBRANCH   4   5
ENDBRANCH   3   4
ENDBRANCH   1   3
BRANCH   2  13
ATOM     13  C   UNL     1      14.409  15.667  28.780  1.00  0.00     0.027 C 
BRANCH  13  14
ATOM     14  C   UNL     1      13.315  15.296  29.793  1.00  0.00     0.004 C 
BRANCH  14  15
ATOM     15  C   UNL     1      13.886  14.758  31.117  1.00  0.00     0.000 C 
BRANCH  15  16
ATOM     16  C   UNL     1      15.278  14.105  31.008  1.00  0.00     0.000 C 
BRANCH  16  17
ATOM     17  C   UNL     1      15.328  12.602  31.349  1.00  0.00    -0.000 C 
BRANCH  17  18
ATOM     18  C   UNL     1      15.060  11.658  30.163  1.00  0.00    -0.000 C 
BRANCH  18  19
ATOM     19  C   UNL     1      15.560  12.224  28.827  1.00  0.00    -0.003 C 
ATOM     20  C   UNL     1      15.677  11.125  27.773  1.00  0.00     0.004 C 
ENDBRANCH  18  19
ENDBRANCH  17  18
ENDBRANCH  16  17
ENDBRANCH  15  16
ENDBRANCH  14  15
ENDBRANCH  13  14
ENDBRANCH   2  13
TORSDOF 15
ENDMDL
MODEL 2
REMARK VINA RESULT:    -3.864      3.022      6.059
REMARK INTER + INTRA:          -8.601
REMARK INTER:                  -7.000
REMARK INTRA:                  -1.601
REMARK UNBOUND:                -1.349
REMARK SMILES CCCCCCCCC=CCCCCCCCC(=O)[O-]
REMARK SMILES IDX 10 1 9 2 11 3 12 4 13 5 14 6 15 7 16 8 17 9 18 10 19 11
REMARK SMILES IDX 20 12 8 13 7 14 6 15 5 16 4 17 3 18 2 19 1 20
REMARK H PARENT
REMARK Flexibility Score: inf
ROOT
ATOM      1  C   UNL     1      12.091  17.956  24.348  1.00  0.00    -0.031 C 
ATOM      2  C   UNL     1      13.413  17.804  24.512  1.00  0.00    -0.031 C 
ENDROOT
BRANCH   1   3
ATOM      3  C   UNL     1      11.120  17.650  25.456  1.00  0.00     0.027 C 
BRANCH   3   4
ATOM      4  C   UNL     1      11.856  17.344  26.766  1.00  0.00     0.004 C 
BRANCH   4   5
ATOM      5  C   UNL     1      11.844  15.837  27.063  1.00  0.00     0.000 C 
BRANCH   5   6
ATOM      6  C   UNL     1      13.210  15.316  27.538  1.00  0.00     0.000 C 
BRANCH   6   7
ATOM      7  C   UNL     1      14.108  16.430  28.097  1.00  0.00     0.000 C 
BRANCH   7   8
ATOM      8  C   UNL     1      15.338  15.839  28.803  1.00  0.00     0.006 C 
BRANCH   8   9
ATOM      9  C   UNL     1      15.195  14.332  29.053  1.00  0.00     0.053 C 
BRANCH   9  10
ATOM     10  C   UNL     1      14.785  14.040  30.465  1.00  0.00     0.041 C 
ATOM     11  O   UNL     1      15.364  13.134  31.120  1.00  0.00    -0.550 OA
ATOM     12  O   UNL     1      13.784  14.792  31.068  1.00  0.00    -0.550 OA
ENDBRANCH   9  10
ENDBRANCH   8   9
ENDBRANCH   7   8
ENDBRANCH   6   7
ENDBRANCH   5   6
ENDBRANCH   4   5
ENDBRANCH   3   4
ENDBRANCH   1   3
BRANCH   2  13
ATOM     13  C   UNL     1      14.386  18.125  23.410  1.00  0.00     0.027 C 
BRANCH  13  14
ATOM     14  C   UNL     1      15.831  18.118  23.931  1.00  0.00     0.004 C 
BRANCH  14  15
ATOM     15  C   UNL     1      15.920  17.811  25.437  1.00  0.00     0.000 C 
BRANCH  15  16
ATOM     16  C   UNL     1      17.201  17.075  25.876  1.00  0.00     0.000 C 
BRANCH  16  17
ATOM     17  C   UNL     1      18.499  17.903  25.786  1.00  0.00    -0.000 C 
BRANCH  17  18
ATOM     18  C   UNL     1      19.707  17.298  26.523  1.00  0.00    -0.000 C 
BRANCH  18  19
ATOM     19  C   UNL     1      19.825  17.786  27.973  1.00  0.00    -0.003 C 
ATOM     20  C   UNL     1      20.125  16.627  28.921  1.00  0.00     0.004 C 
ENDBRANCH  18  19
ENDBRANCH  17  18
ENDBRANCH  16  17
ENDBRANCH  15  16
ENDBRANCH  14  15
ENDBRANCH  13  14
ENDBRANCH   2  13
TORSDOF 15
ENDMDL
MODEL 3
REMARK VINA RESULT:    -3.795      2.987      6.206
REMARK INTER + INTRA:          -8.472
REMARK INTER:                  -7.681
REMARK INTRA:                  -0.791
REMARK UNBOUND:                -1.349
REMARK SMILES CCCCCCCCC=CCCCCCCCC(=O)[O-]
REMARK SMILES IDX 10 1 9 2 11 3 12 4 13 5 14 6 15 7 16 8 17 9 18 10 19 11
REMARK SMILES IDX 20 12 8 13 7 14 6 15 5 16 4 17 3 18 2 19 1 20
REMARK H PARENT
REMARK Flexibility Score: inf
ROOT
ATOM      1  C   UNL     1      13.806  16.422  24.933  1.00  0.00    -0.031 C 
ATOM      2  C   UNL     1      13.801  17.500  24.135  1.00  0.00    -0.031 C 
ENDROOT
BRANCH   1   3
ATOM      3  C   UNL     1      12.526  15.789  25.408  1.00  0.00     0.027 C 
BRANCH   3   4
ATOM      4  C   UNL     1      11.939  16.556  26.598  1.00  0.00     0.004 C 
BRANCH   4   5
ATOM      5  C   UNL     1      12.995  17.469  27.238  1.00  0.00     0.000 C 
BRANCH   5   6
ATOM      6  C   UNL     1      13.404  17.005  28.646  1.00  0.00     0.000 C 
BRANCH   6   7
ATOM      7  C   UNL     1      13.066  15.529  28.905  1.00  0.00     0.000 C 
BRANCH   7   8
ATOM      8  C   UNL     1      14.346  14.683  28.996  1.00  0.00     0.006 C 
BRANCH   8   9
ATOM      9  C   UNL     1      14.667  14.272  30.439  1.00  0.00     0.053 C 
BRANCH   9  10
ATOM     10  C   UNL     1      15.267  12.900  30.505  1.00  0.00     0.041 C 
ATOM     11  O   UNL     1      16.151  12.634  31.362  1.00  0.00    -0.550 OA
ATOM     12  O   UNL     1      14.826  11.906  29.640  1.00  0.00    -0.550 OA
ENDBRANCH   9  10
ENDBRANCH   8   9
ENDBRANCH   7   8
ENDBRANCH   6   7
ENDBRANCH   5   6
ENDBRANCH   4   5
ENDBRANCH   3   4
ENDBRANCH   1   3
BRANCH   2  13
ATOM     13  C   UNL     1      15.080  18.125  23.647  1.00  0.00     0.027 C 
BRANCH  13  14
ATOM     14  C   UNL     1      16.171  18.062  24.726  1.00  0.00     0.004 C 
BRANCH  14  15
ATOM     15  C   UNL     1      17.593  18.124  24.140  1.00  0.00     0.000 C 
BRANCH  15  16
ATOM     16  C   UNL     1      18.600  17.143  24.772  1.00  0.00     0.000 C 
BRANCH  16  17
ATOM     17  C   UNL     1      19.516  17.748  25.855  1.00  0.00    -0.000 C 
BRANCH  17  18
ATOM     18  C   UNL     1      19.713  16.869  27.103  1.00  0.00    -0.000 C 
BRANCH  18  19
ATOM     19  C   UNL     1      18.513  16.915  28.059  1.00  0.00    -0.003 C 
ATOM     20  C   UNL     1      17.247  16.397  27.380  1.00  0.00     0.004 C 
ENDBRANCH  18  19
ENDBRANCH  17  18
ENDBRANCH  16  17
ENDBRANCH  15  16
ENDBRANCH  14  15
ENDBRANCH  13  14
ENDBRANCH   2  13
TORSDOF 15
ENDMDL
MODEL 4
REMARK VINA RESULT:    -3.790      2.386      6.708
REMARK INTER + INTRA:          -8.462
REMARK INTER:                  -7.260
REMARK INTRA:                  -1.202
REMARK UNBOUND:                -1.349
REMARK SMILES CCCCCCCCC=CCCCCCCCC(=O)[O-]
REMARK SMILES IDX 10 1 9 2 11 3 12 4 13 5 14 6 15 7 16 8 17 9 18 10 19 11
REMARK SMILES IDX 20 12 8 13 7 14 6 15 5 16 4 17 3 18 2 19 1 20
REMARK H PARENT
REMARK Flexibility Score: inf
ROOT
ATOM      1  C   UNL     1      12.715  15.594  27.180  1.00  0.00    -0.031 C 
ATOM      2  C   UNL     1      11.933  16.230  26.295  1.00  0.00    -0.031 C 
ENDROOT
BRANCH   1   3
ATOM      3  C   UNL     1      12.720  15.968  28.637  1.00  0.00     0.027 C 
BRANCH   3   4
ATOM      4  C   UNL     1      13.651  15.053  29.440  1.00  0.00     0.004 C 
BRANCH   4   5
ATOM      5  C   UNL     1      13.370  15.167  30.945  1.00  0.00     0.000 C 
BRANCH   5   6
ATOM      6  C   UNL     1      14.539  14.660  31.806  1.00  0.00     0.000 C 
BRANCH   6   7
ATOM      7  C   UNL     1      14.664  13.130  31.794  1.00  0.00     0.000 C 
BRANCH   7   8
ATOM      8  C   UNL     1      15.663  12.670  30.721  1.00  0.00     0.006 C 
BRANCH   8   9
ATOM      9  C   UNL     1      15.089  11.561  29.830  1.00  0.00     0.053 C 
BRANCH   9  10
ATOM     10  C   UNL     1      15.568  11.680  28.415  1.00  0.00     0.041 C 
ATOM     11  O   UNL     1      15.932  10.655  27.780  1.00  0.00    -0.550 OA
ATOM     12  O   UNL     1      15.582  12.919  27.788  1.00  0.00    -0.550 OA
ENDBRANCH   9  10
ENDBRANCH   8   9
ENDBRANCH   7   8
ENDBRANCH   6   7
ENDBRANCH   5   6
ENDBRANCH   4   5
ENDBRANCH   3   4
ENDBRANCH   1   3
BRANCH   2  13
ATOM     13  C   UNL     1      11.916  15.847  24.841  1.00  0.00     0.027 C 
BRANCH  13  14
ATOM     14  C   UNL     1      12.469  16.982  23.965  1.00  0.00     0.004 C 
BRANCH  14  15
ATOM     15  C   UNL     1      13.392  17.938  24.742  1.00  0.00     0.000 C 
BRANCH  15  16
ATOM     16  C   UNL     1      14.796  18.125  24.133  1.00  0.00     0.000 C 
BRANCH  16  17
ATOM     17  C   UNL     1      15.968  17.968  25.123  1.00  0.00    -0.000 C 
BRANCH  17  18
ATOM     18  C   UNL     1      15.685  17.044  26.322  1.00  0.00    -0.000 C 
BRANCH  18  19
ATOM     19  C   UNL     1      16.955  16.672  27.100  1.00  0.00    -0.003 C 
ATOM     20  C   UNL     1      18.185  16.710  26.195  1.00  0.00     0.004 C 
ENDBRANCH  18  19
ENDBRANCH  17  18
ENDBRANCH  16  17
ENDBRANCH  15  16
ENDBRANCH  14  15
ENDBRANCH  13  14
ENDBRANCH   2  13
TORSDOF 15
ENDMDL
MODEL 5
REMARK VINA RESULT:    -3.681      3.054      6.520
REMARK INTER + INTRA:          -8.257
REMARK INTER:                  -6.889
REMARK INTRA:                  -1.368
REMARK UNBOUND:                -1.349
REMARK SMILES CCCCCCCCC=CCCCCCCCC(=O)[O-]
REMARK SMILES IDX 10 1 9 2 11 3 12 4 13 5 14 6 15 7 16 8 17 9 18 10 19 11
REMARK SMILES IDX 20 12 8 13 7 14 6 15 5 16 4 17 3 18 2 19 1 20
REMARK H PARENT
REMARK Flexibility Score: inf
ROOT
ATOM      1  C   UNL     1      12.636  15.608  26.634  1.00  0.00    -0.031 C 
ATOM      2  C   UNL     1      11.671  15.805  25.722  1.00  0.00    -0.031 C 
ENDROOT
BRANCH   1   3
ATOM      3  C   UNL     1      12.332  15.575  28.106  1.00  0.00     0.027 C 
BRANCH   3   4
ATOM      4  C   UNL     1      13.092  16.677  28.853  1.00  0.00     0.004 C 
BRANCH   4   5
ATOM      5  C   UNL     1      14.206  17.266  27.975  1.00  0.00     0.000 C 
BRANCH   5   6
ATOM      6  C   UNL     1      15.502  16.440  28.030  1.00  0.00     0.000 C 
BRANCH   6   7
ATOM      7  C   UNL     1      15.580  15.541  29.273  1.00  0.00     0.000 C 
BRANCH   7   8
ATOM      8  C   UNL     1      15.390  14.064  28.892  1.00  0.00     0.006 C 
BRANCH   8   9
ATOM      9  C   UNL     1      14.449  13.332  29.858  1.00  0.00     0.053 C 
BRANCH   9  10
ATOM     10  C   UNL     1      15.075  13.143  31.206  1.00  0.00     0.041 C 
ATOM     11  O   UNL     1      14.520  13.612  32.235  1.00  0.00    -0.550 OA
ATOM     12  O   UNL     1      16.253  12.419  31.330  1.00  0.00    -0.550 OA
ENDBRANCH   9  10
ENDBRANCH   8   9
ENDBRANCH   7   8
ENDBRANCH   6   7
ENDBRANCH   5   6
ENDBRANCH   4   5
ENDBRANCH   3   4
ENDBRANCH   1   3
BRANCH   2  13
ATOM     13  C   UNL     1      11.971  15.823  24.248  1.00  0.00     0.027 C 
BRANCH  13  14
ATOM     14  C   UNL     1      11.902  17.252  23.690  1.00  0.00     0.004 C 
BRANCH  14  15
ATOM     15  C   UNL     1      13.290  17.833  23.368  1.00  0.00     0.000 C 
BRANCH  15  16
ATOM     16  C   UNL     1      14.176  18.122  24.596  1.00  0.00     0.000 C 
BRANCH  16  17
ATOM     17  C   UNL     1      15.479  17.301  24.673  1.00  0.00    -0.000 C 
BRANCH  17  18
ATOM     18  C   UNL     1      16.749  18.125  24.953  1.00  0.00    -0.000 C 
BRANCH  18  19
ATOM     19  C   UNL     1      17.983  17.249  25.208  1.00  0.00    -0.003 C 
ATOM     20  C   UNL     1      18.485  17.409  26.641  1.00  0.00     0.004 C 
ENDBRANCH  18  19
ENDBRANCH  17  18
ENDBRANCH  16  17
ENDBRANCH  15  16
ENDBRANCH  14  15
ENDBRANCH  13  14
ENDBRANCH   2  13
TORSDOF 15
ENDMDL
MODEL 6
REMARK VINA RESULT:    -3.570      1.175      2.039
REMARK INTER + INTRA:          -8.050
REMARK INTER:                  -7.215
REMARK INTRA:                  -0.835
REMARK UNBOUND:                -1.349
REMARK SMILES CCCCCCCCC=CCCCCCCCC(=O)[O-]
REMARK SMILES IDX 10 1 9 2 11 3 12 4 13 5 14 6 15 7 16 8 17 9 18 10 19 11
REMARK SMILES IDX 20 12 8 13 7 14 6 15 5 16 4 17 3 18 2 19 1 20
REMARK H PARENT
REMARK Flexibility Score: inf
ROOT
ATOM      1  C   UNL     1      12.055  16.038  26.303  1.00  0.00    -0.031 C 
ATOM      2  C   UNL     1      12.457  17.179  26.882  1.00  0.00    -0.031 C 
ENDROOT
BRANCH   1   3
ATOM      3  C   UNL     1      11.788  15.958  24.825  1.00  0.00     0.027 C 
BRANCH   3   4
ATOM      4  C   UNL     1      11.406  17.329  24.257  1.00  0.00     0.004 C 
BRANCH   4   5
ATOM      5  C   UNL     1      12.653  18.106  23.809  1.00  0.00     0.000 C 
BRANCH   5   6
ATOM      6  C   UNL     1      13.911  17.223  23.752  1.00  0.00     0.000 C 
BRANCH   6   7
ATOM      7  C   UNL     1      15.202  18.015  24.005  1.00  0.00     0.000 C 
BRANCH   7   8
ATOM      8  C   UNL     1      15.776  17.697  25.394  1.00  0.00     0.006 C 
BRANCH   8   9
ATOM      9  C   UNL     1      17.248  18.111  25.523  1.00  0.00     0.053 C 
BRANCH   9  10
ATOM     10  C   UNL     1      18.158  16.921  25.563  1.00  0.00     0.041 C 
ATOM     11  O   UNL     1      18.027  16.052  26.465  1.00  0.00    -0.550 OA
ATOM     12  O   UNL     1      19.129  16.755  24.585  1.00  0.00    -0.550 OA
ENDBRANCH   9  10
ENDBRANCH   8   9
ENDBRANCH   7   8
ENDBRANCH   6   7
ENDBRANCH   5   6
ENDBRANCH   4   5
ENDBRANCH   3   4
ENDBRANCH   1   3
BRANCH   2  13
ATOM     13  C   UNL     1      12.739  17.257  28.358  1.00  0.00     0.027 C 
BRANCH  13  14
ATOM     14  C   UNL     1      13.407  15.969  28.860  1.00  0.00     0.004 C 
BRANCH  14  15
ATOM     15  C   UNL     1      14.779  15.716  28.209  1.00  0.00     0.000 C 
BRANCH  15  16
ATOM     16  C   UNL     1      15.642  14.646  28.906  1.00  0.00     0.000 C 
BRANCH  16  17
ATOM     17  C   UNL     1      14.937  13.299  29.164  1.00  0.00    -0.000 C 
BRANCH  17  18
ATOM     18  C   UNL     1      15.473  12.506  30.370  1.00  0.00    -0.000 C 
BRANCH  18  19
ATOM     19  C   UNL     1      15.305  13.257  31.698  1.00  0.00    -0.003 C 
ATOM     20  C   UNL     1      14.018  14.079  31.706  1.00  0.00     0.004 C 
ENDBRANCH  18  19
ENDBRANCH  17  18
ENDBRANCH  16  17
ENDBRANCH  15  16
ENDBRANCH  14  15
ENDBRANCH  13  14
ENDBRANCH   2  13
TORSDOF 15
ENDMDL
MODEL 7
REMARK VINA RESULT:    -3.547      2.291      3.618
REMARK INTER + INTRA:          -8.007
REMARK INTER:                  -6.866
REMARK INTRA:                  -1.141
REMARK UNBOUND:                -1.349
REMARK SMILES CCCCCCCCC=CCCCCCCCC(=O)[O-]
REMARK SMILES IDX 10 1 9 2 11 3 12 4 13 5 14 6 15 7 16 8 17 9 18 10 19 11
REMARK SMILES IDX 20 12 8 13 7 14 6 15 5 16 4 17 3 18 2 19 1 20
REMARK H PARENT
REMARK Flexibility Score: inf
ROOT
ATOM      1  C   UNL     1      15.612  16.030  27.656  1.00  0.00    -0.031 C 
ATOM      2  C   UNL     1      14.798  16.811  28.382  1.00  0.00    -0.031 C 
ENDROOT
BRANCH   1   3
ATOM      3  C   UNL     1      17.021  16.446  27.335  1.00  0.00     0.027 C 
BRANCH   3   4
ATOM      4  C   UNL     1      17.042  17.735  26.506  1.00  0.00     0.004 C 
BRANCH   4   5
ATOM      5  C   UNL     1      17.046  17.421  25.003  1.00  0.00     0.000 C 
BRANCH   5   6
ATOM      6  C   UNL     1      15.902  18.117  24.248  1.00  0.00     0.000 C 
BRANCH   6   7
ATOM      7  C   UNL     1      14.515  17.694  24.755  1.00  0.00     0.000 C 
BRANCH   7   8
ATOM      8  C   UNL     1      13.472  17.778  23.629  1.00  0.00     0.006 C 
BRANCH   8   9
ATOM      9  C   UNL     1      12.251  16.890  23.902  1.00  0.00     0.053 C 
BRANCH   9  10
ATOM     10  C   UNL     1      12.428  16.070  25.144  1.00  0.00     0.041 C 
ATOM     11  O   UNL     1      11.694  16.272  26.148  1.00  0.00    -0.550 OA
ATOM     12  O   UNL     1      13.380  15.061  25.182  1.00  0.00    -0.550 OA
ENDBRANCH   9  10
ENDBRANCH   8   9
ENDBRANCH   7   8
ENDBRANCH   6   7
ENDBRANCH   5   6
ENDBRANCH   4   5
ENDBRANCH   3   4
ENDBRANCH   1   3
BRANCH   2  13
ATOM     13  C   UNL     1      13.394  16.391  28.718  1.00  0.00     0.027 C 
BRANCH  13  14
ATOM     14  C   UNL     1      13.368  14.967  29.295  1.00  0.00     0.004 C 
BRANCH  14  15
ATOM     15  C   UNL     1      13.777  14.917  30.777  1.00  0.00     0.000 C 
BRANCH  15  16
ATOM     16  C   UNL     1      15.183  14.346  31.046  1.00  0.00     0.000 C 
BRANCH  16  17
ATOM     17  C   UNL     1      15.222  12.855  31.438  1.00  0.00    -0.000 C 
BRANCH  17  18
ATOM     18  C   UNL     1      14.973  11.873  30.279  1.00  0.00    -0.000 C 
BRANCH  18  19
ATOM     19  C   UNL     1      15.650  12.309  28.972  1.00  0.00    -0.003 C 
ATOM     20  C   UNL     1      15.706  11.158  27.970  1.00  0.00     0.004 C 
ENDBRANCH  18  19
ENDBRANCH  17  18
ENDBRANCH  16  17
ENDBRANCH  15  16
ENDBRANCH  14  15
ENDBRANCH  13  14
ENDBRANCH   2  13
TORSDOF 15
ENDMDL
MODEL 8
REMARK VINA RESULT:    -3.503      2.432      7.167
REMARK INTER + INTRA:          -7.925
REMARK INTER:                  -6.785
REMARK INTRA:                  -1.140
REMARK UNBOUND:                -1.349
REMARK SMILES CCCCCCCCC=CCCCCCCCC(=O)[O-]
REMARK SMILES IDX 10 1 9 2 11 3 12 4 13 5 14 6 15 7 16 8 17 9 18 10 19 11
REMARK SMILES IDX 20 12 8 13 7 14 6 15 5 16 4 17 3 18 2 19 1 20
REMARK H PARENT
REMARK Flexibility Score: inf
ROOT
ATOM      1  C   UNL     1      14.226  16.061  27.657  1.00  0.00    -0.031 C 
ATOM      2  C   UNL     1      15.167  17.013  27.563  1.00  0.00    -0.031 C 
ENDROOT
BRANCH   1   3
ATOM      3  C   UNL     1      12.905  16.324  28.327  1.00  0.00     0.027 C 
BRANCH   3   4
ATOM      4  C   UNL     1      12.833  15.635  29.695  1.00  0.00     0.004 C 
BRANCH   4   5
ATOM      5  C   UNL     1      14.198  15.055  30.090  1.00  0.00     0.000 C 
BRANCH   5   6
ATOM      6  C   UNL     1      14.281  14.701  31.584  1.00  0.00     0.000 C 
BRANCH   6   7
ATOM      7  C   UNL     1      14.532  13.205  31.826  1.00  0.00     0.000 C 
BRANCH   7   8
ATOM      8  C   UNL     1      15.571  12.657  30.835  1.00  0.00     0.006 C 
BRANCH   8   9
ATOM      9  C   UNL     1      14.983  11.580  29.914  1.00  0.00     0.053 C 
BRANCH   9  10
ATOM     10  C   UNL     1      15.526  11.683  28.521  1.00  0.00     0.041 C 
ATOM     11  O   UNL     1      15.621  12.805  27.958  1.00  0.00    -0.550 OA
ATOM     12  O   UNL     1      15.959  10.542  27.858  1.00  0.00    -0.550 OA
ENDBRANCH   9  10
ENDBRANCH   8   9
ENDBRANCH   7   8
ENDBRANCH   6   7
ENDBRANCH   5   6
ENDBRANCH   4   5
ENDBRANCH   3   4
ENDBRANCH   1   3
BRANCH   2  13
ATOM     13  C   UNL     1      16.482  16.756  26.879  1.00  0.00     0.027 C 
BRANCH  13  14
ATOM     14  C   UNL     1      16.516  17.406  25.488  1.00  0.00     0.004 C 
BRANCH  14  15
ATOM     15  C   UNL     1      15.197  18.113  25.128  1.00  0.00     0.000 C 
BRANCH  15  16
ATOM     16  C   UNL     1      14.832  18.085  23.630  1.00  0.00     0.000 C 
BRANCH  16  17
ATOM     17  C   UNL     1      13.321  18.034  23.324  1.00  0.00    -0.000 C 
BRANCH  17  18
ATOM     18  C   UNL     1      12.406  18.111  24.559  1.00  0.00    -0.000 C 
BRANCH  18  19
ATOM     19  C   UNL     1      11.155  17.232  24.429  1.00  0.00    -0.003 C 
ATOM     20  C   UNL     1      10.028  17.743  25.324  1.00  0.00     0.004 C 
ENDBRANCH  18  19
ENDBRANCH  17  18
ENDBRANCH  16  17
ENDBRANCH  15  16
ENDBRANCH  14  15
ENDBRANCH  13  14
ENDBRANCH   2  13
TORSDOF 15
ENDMDL
MODEL 9
REMARK VINA RESULT:    -3.483      2.811      7.092
REMARK INTER + INTRA:          -7.887
REMARK INTER:                  -7.347
REMARK INTRA:                  -0.540
REMARK UNBOUND:                -1.349
REMARK SMILES CCCCCCCCC=CCCCCCCCC(=O)[O-]
REMARK SMILES IDX 10 1 9 2 11 3 12 4 13 5 14 6 15 7 16 8 17 9 18 10 19 11
REMARK SMILES IDX 20 12 8 13 7 14 6 15 5 16 4 17 3 18 2 19 1 20
REMARK H PARENT
REMARK Flexibility Score: inf
ROOT
ATOM      1  C   UNL     1      16.689  18.063  25.487  1.00  0.00    -0.031 C 
ATOM      2  C   UNL     1      15.576  17.405  25.132  1.00  0.00    -0.031 C 
ENDROOT
BRANCH   1   3
ATOM      3  C   UNL     1      17.890  17.340  26.034  1.00  0.00     0.027 C 
BRANCH   3   4
ATOM      4  C   UNL     1      17.481  16.320  27.102  1.00  0.00     0.004 C 
BRANCH   4   5
ATOM      5  C   UNL     1      16.093  16.648  27.672  1.00  0.00     0.000 C 
BRANCH   5   6
ATOM      6  C   UNL     1      15.487  15.478  28.464  1.00  0.00     0.000 C 
BRANCH   6   7
ATOM      7  C   UNL     1      14.502  15.943  29.547  1.00  0.00     0.000 C 
BRANCH   7   8
ATOM      8  C   UNL     1      13.817  14.742  30.217  1.00  0.00     0.006 C 
BRANCH   8   9
ATOM      9  C   UNL     1      14.730  14.048  31.237  1.00  0.00     0.053 C 
BRANCH   9  10
ATOM     10  C   UNL     1      15.303  12.774  30.693  1.00  0.00     0.041 C 
ATOM     11  O   UNL     1      16.070  12.070  31.402  1.00  0.00    -0.550 OA
ATOM     12  O   UNL     1      14.963  12.349  29.416  1.00  0.00    -0.550 OA
ENDBRANCH   9  10
ENDBRANCH   8   9
ENDBRANCH   7   8
ENDBRANCH   6   7
ENDBRANCH   5   6
ENDBRANCH   4   5
ENDBRANCH   3   4
ENDBRANCH   1   3
BRANCH   2  13
ATOM     13  C   UNL     1      14.380  18.125  24.571  1.00  0.00     0.027 C 
BRANCH  13  14
ATOM     14  C   UNL     1      13.722  17.308  23.449  1.00  0.00     0.004 C 
BRANCH  14  15
ATOM     15  C   UNL     1      12.681  18.116  22.654  1.00  0.00     0.000 C 
BRANCH  15  16
ATOM     16  C   UNL     1      11.237  18.019  23.187  1.00  0.00     0.000 C 
BRANCH  16  17
ATOM     17  C   UNL     1      11.075  17.243  24.509  1.00  0.00    -0.000 C 
BRANCH  17  18
ATOM     18  C   UNL     1      10.949  18.123  25.766  1.00  0.00    -0.000 C 
BRANCH  18  19
ATOM     19  C   UNL     1      11.902  17.694  26.891  1.00  0.00    -0.003 C 
ATOM     20  C   UNL     1      12.301  16.228  26.746  1.00  0.00     0.004 C 
ENDBRANCH  18  19
ENDBRANCH  17  18
ENDBRANCH  16  17
ENDBRANCH  15  16
ENDBRANCH  14  15
ENDBRANCH  13  14
ENDBRANCH   2  13
TORSDOF 15
ENDMDL
