MODEL 1
REMARK VINA RESULT:    -4.649      0.000      0.000
REMARK INTER + INTRA:         -10.323
REMARK INTER:                  -8.454
REMARK INTRA:                  -1.869
REMARK UNBOUND:                -1.869
REMARK SMILES CCCCCCCCCCCCCCCC(=O)[O-]
REMARK SMILES IDX 9 1 10 2 11 3 12 4 13 5 14 6 15 7 16 8 17 9 18 10 8 11 7 12
REMARK SMILES IDX 6 13 5 14 4 15 3 16 2 17 1 18
REMARK H PARENT
REMARK Flexibility Score: inf
ROOT
ATOM      1  C   UNL     1      17.652 -31.577  20.620  1.00  0.00     0.000 C 
ENDROOT
BRANCH   1   2
ATOM      2  C   UNL     1      17.621 -30.196  21.298  1.00  0.00     0.000 C 
BRANCH   2   3
ATOM      3  C   UNL     1      17.202 -30.244  22.782  1.00  0.00     0.000 C 
BRANCH   3   4
ATOM      4  C   UNL     1      15.743 -29.807  22.988  1.00  0.00     0.000 C 
BRANCH   4   5
ATOM      5  C   UNL     1      14.896 -30.962  23.544  1.00  0.00     0.000 C 
BRANCH   5   6
ATOM      6  C   UNL     1      13.426 -30.568  23.771  1.00  0.00     0.006 C 
BRANCH   6   7
ATOM      7  C   UNL     1      13.082 -29.131  23.345  1.00  0.00     0.053 C 
BRANCH   7   8
ATOM      8  C   UNL     1      11.683 -29.022  22.821  1.00  0.00     0.041 C 
ATOM      9  O   UNL     1      10.918 -28.113  23.238  1.00  0.00    -0.550 OA
ATOM     10  O   UNL     1      11.234 -29.905  21.847  1.00  0.00    -0.550 OA
ENDBRANCH   7   8
ENDBRANCH   6   7
ENDBRANCH   5   6
ENDBRANCH   4   5
ENDBRANCH   3   4
ENDBRANCH   2   3
ENDBRANCH   1   2
BRANCH   1  11
ATOM     11  C   UNL     1      18.005 -32.711  21.590  1.00  0.00     0.000 C 
BRANCH  11  12
ATOM     12  C   UNL     1      18.654 -33.887  20.851  1.00  0.00    -0.000 C 
BRANCH  12  13
ATOM     13  C   UNL     1      18.019 -34.083  19.467  1.00  0.00    -0.000 C 
BRANCH  13  14
ATOM     14  C   UNL     1      17.171 -35.364  19.372  1.00  0.00    -0.000 C 
BRANCH  14  15
ATOM     15  C   UNL     1      15.772 -35.271  20.014  1.00  0.00    -0.000 C 
BRANCH  15  16
ATOM     16  C   UNL     1      14.954 -34.028  19.618  1.00  0.00    -0.000 C 
BRANCH  16  17
ATOM     17  C   UNL     1      14.454 -33.233  20.832  1.00  0.00    -0.003 C 
ATOM     18  C   UNL     1      13.509 -32.113  20.403  1.00  0.00     0.004 C 
ENDBRANCH  16  17
ENDBRANCH  15  16
ENDBRANCH  14  15
ENDBRANCH  13  14
ENDBRANCH  12  13
ENDBRANCH  11  12
ENDBRANCH   1  11
TORSDOF 14
ENDMDL
MODEL 2
REMARK VINA RESULT:    -4.604      2.418      6.014
REMARK INTER + INTRA:         -10.241
REMARK INTER:                  -8.811
REMARK INTRA:                  -1.430
REMARK UNBOUND:                -1.869
REMARK SMILES CCCCCCCCCCCCCCCC(=O)[O-]
REMARK SMILES IDX 9 1 10 2 11 3 12 4 13 5 14 6 15 7 16 8 17 9 18 10 8 11 7 12
REMARK SMILES IDX 6 13 5 14 4 15 3 16 2 17 1 18
REMARK H PARENT
REMARK Flexibility Score: inf
ROOT
ATOM      1  C   UNL     1      14.965 -34.049  21.305  1.00  0.00     0.000 C 
ENDROOT
BRANCH   1   2
ATOM      2  C   UNL     1      15.889 -34.911  20.427  1.00  0.00     0.000 C 
BRANCH   2   3
ATOM      3  C   UNL     1      16.439 -34.168  19.191  1.00  0.00     0.000 C 
BRANCH   3   4
ATOM      4  C   UNL     1      17.973 -34.066  19.209  1.00  0.00     0.000 C 
BRANCH   4   5
ATOM      5  C   UNL     1      18.445 -33.083  20.291  1.00  0.00     0.000 C 
BRANCH   5   6
ATOM      6  C   UNL     1      17.687 -31.744  20.254  1.00  0.00     0.006 C 
BRANCH   6   7
ATOM      7  C   UNL     1      17.668 -30.990  21.593  1.00  0.00     0.053 C 
BRANCH   7   8
ATOM      8  C   UNL     1      17.428 -29.523  21.406  1.00  0.00     0.041 C 
ATOM      9  O   UNL     1      16.305 -29.024  21.682  1.00  0.00    -0.550 OA
ATOM     10  O   UNL     1      18.455 -28.702  20.958  1.00  0.00    -0.550 OA
ENDBRANCH   7   8
ENDBRANCH   6   7
ENDBRANCH   5   6
ENDBRANCH   4   5
ENDBRANCH   3   4
ENDBRANCH   2   3
ENDBRANCH   1   2
BRANCH   1  11
ATOM     11  C   UNL     1      14.231 -32.961  20.511  1.00  0.00     0.000 C 
BRANCH  11  12
ATOM     12  C   UNL     1      13.967 -31.727  21.382  1.00  0.00    -0.000 C 
BRANCH  12  13
ATOM     13  C   UNL     1      12.570 -31.150  21.108  1.00  0.00    -0.000 C 
BRANCH  13  14
ATOM     14  C   UNL     1      12.164 -30.060  22.117  1.00  0.00    -0.000 C 
BRANCH  14  15
ATOM     15  C   UNL     1      13.115 -29.894  23.319  1.00  0.00    -0.000 C 
BRANCH  15  16
ATOM     16  C   UNL     1      12.742 -28.764  24.295  1.00  0.00    -0.000 C 
BRANCH  16  17
ATOM     17  C   UNL     1      12.103 -27.558  23.593  1.00  0.00    -0.003 C 
ATOM     18  C   UNL     1      12.979 -26.315  23.729  1.00  0.00     0.004 C 
ENDBRANCH  16  17
ENDBRANCH  15  16
ENDBRANCH  14  15
ENDBRANCH  13  14
ENDBRANCH  12  13
ENDBRANCH  11  12
ENDBRANCH   1  11
TORSDOF 14
ENDMDL
MODEL 3
REMARK VINA RESULT:    -4.601      1.185      3.234
REMARK INTER + INTRA:         -10.235
REMARK INTER:                  -8.109
REMARK INTRA:                  -2.126
REMARK UNBOUND:                -1.869
REMARK SMILES CCCCCCCCCCCCCCCC(=O)[O-]
REMARK SMILES IDX 9 1 10 2 11 3 12 4 13 5 14 6 15 7 16 8 17 9 18 10 8 11 7 12
REMARK SMILES IDX 6 13 5 14 4 15 3 16 2 17 1 18
REMARK H PARENT
REMARK Flexibility Score: inf
ROOT
ATOM      1  C   UNL     1      14.935 -33.794  19.968  1.00  0.00     0.000 C 
ENDROOT
BRANCH   1   2
ATOM      2  C   UNL     1      14.385 -32.797  21.001  1.00  0.00     0.000 C 
BRANCH   2   3
ATOM      3  C   UNL     1      14.687 -33.191  22.463  1.00  0.00     0.000 C 
BRANCH   3   4
ATOM      4  C   UNL     1      14.993 -31.969  23.343  1.00  0.00     0.000 C 
BRANCH   4   5
ATOM      5  C   UNL     1      15.498 -30.793  22.494  1.00  0.00     0.000 C 
BRANCH   5   6
ATOM      6  C   UNL     1      14.681 -29.506  22.712  1.00  0.00     0.006 C 
BRANCH   6   7
ATOM      7  C   UNL     1      13.408 -29.699  23.551  1.00  0.00     0.053 C 
BRANCH   7   8
ATOM      8  C   UNL     1      12.166 -29.465  22.747  1.00  0.00     0.041 C 
ATOM      9  O   UNL     1      11.827 -30.284  21.852  1.00  0.00    -0.550 OA
ATOM     10  O   UNL     1      11.365 -28.361  23.007  1.00  0.00    -0.550 OA
ENDBRANCH   7   8
ENDBRANCH   6   7
ENDBRANCH   5   6
ENDBRANCH   4   5
ENDBRANCH   3   4
ENDBRANCH   2   3
ENDBRANCH   1   2
BRANCH   1  11
ATOM     11  C   UNL     1      15.481 -35.078  20.607  1.00  0.00     0.000 C 
BRANCH  11  12
ATOM     12  C   UNL     1      16.320 -35.879  19.605  1.00  0.00    -0.000 C 
BRANCH  12  13
ATOM     13  C   UNL     1      17.509 -36.557  20.302  1.00  0.00    -0.000 C 
BRANCH  13  14
ATOM     14  C   UNL     1      17.884 -35.887  21.636  1.00  0.00    -0.000 C 
BRANCH  14  15
ATOM     15  C   UNL     1      19.349 -35.415  21.741  1.00  0.00    -0.000 C 
BRANCH  15  16
ATOM     16  C   UNL     1      19.531 -33.931  22.106  1.00  0.00    -0.000 C 
BRANCH  16  17
ATOM     17  C   UNL     1      18.321 -33.069  21.720  1.00  0.00    -0.003 C 
ATOM     18  C   UNL     1      18.458 -32.537  20.295  1.00  0.00     0.004 C 
ENDBRANCH  16  17
ENDBRANCH  15  16
ENDBRANCH  14  15
ENDBRANCH  13  14
ENDBRANCH  12  13
ENDBRANCH  11  12
ENDBRANCH   1  11
TORSDOF 14
ENDMDL
MODEL 4
REMARK VINA RESULT:    -4.560      2.041      3.287
REMARK INTER + INTRA:         -10.161
REMARK INTER:                  -8.082
REMARK INTRA:                  -2.079
REMARK UNBOUND:                -1.869
REMARK SMILES CCCCCCCCCCCCCCCC(=O)[O-]
REMARK SMILES IDX 9 1 10 2 11 3 12 4 13 5 14 6 15 7 16 8 17 9 18 10 8 11 7 12
REMARK SMILES IDX 6 13 5 14 4 15 3 16 2 17 1 18
REMARK H PARENT
REMARK Flexibility Score: inf
ROOT
ATOM      1  C   UNL     1      18.470 -35.796  23.117  1.00  0.00     0.000 C 
ENDROOT
BRANCH   1   2
ATOM      2  C   UNL     1      17.249 -34.860  23.136  1.00  0.00     0.000 C 
BRANCH   2   3
ATOM      3  C   UNL     1      17.367 -33.709  24.159  1.00  0.00     0.000 C 
BRANCH   3   4
ATOM      4  C   UNL     1      16.498 -32.501  23.776  1.00  0.00     0.000 C 
BRANCH   4   5
ATOM      5  C   UNL     1      15.174 -32.954  23.143  1.00  0.00     0.000 C 
BRANCH   5   6
ATOM      6  C   UNL     1      13.941 -32.354  23.844  1.00  0.00     0.006 C 
BRANCH   6   7
ATOM      7  C   UNL     1      13.599 -30.921  23.405  1.00  0.00     0.053 C 
BRANCH   7   8
ATOM      8  C   UNL     1      13.675 -30.758  21.918  1.00  0.00     0.041 C 
ATOM      9  O   UNL     1      12.802 -31.283  21.177  1.00  0.00    -0.550 OA
ATOM     10  O   UNL     1      14.691 -29.998  21.353  1.00  0.00    -0.550 OA
ENDBRANCH   7   8
ENDBRANCH   6   7
ENDBRANCH   5   6
ENDBRANCH   4   5
ENDBRANCH   3   4
ENDBRANCH   2   3
ENDBRANCH   1   2
BRANCH   1  11
ATOM     11  C   UNL     1      18.917 -36.167  21.697  1.00  0.00     0.000 C 
BRANCH  11  12
ATOM     12  C   UNL     1      17.917 -37.123  21.037  1.00  0.00    -0.000 C 
BRANCH  12  13
ATOM     13  C   UNL     1      17.396 -36.546  19.713  1.00  0.00    -0.000 C 
BRANCH  13  14
ATOM     14  C   UNL     1      16.088 -35.749  19.879  1.00  0.00    -0.000 C 
BRANCH  14  15
ATOM     15  C   UNL     1      16.191 -34.247  19.545  1.00  0.00    -0.000 C 
BRANCH  15  16
ATOM     16  C   UNL     1      17.586 -33.772  19.100  1.00  0.00    -0.000 C 
BRANCH  16  17
ATOM     17  C   UNL     1      18.314 -32.965  20.184  1.00  0.00    -0.003 C 
ATOM     18  C   UNL     1      17.618 -31.629  20.433  1.00  0.00     0.004 C 
ENDBRANCH  16  17
ENDBRANCH  15  16
ENDBRANCH  14  15
ENDBRANCH  13  14
ENDBRANCH  12  13
ENDBRANCH  11  12
ENDBRANCH   1  11
TORSDOF 14
ENDMDL
MODEL 5
REMARK VINA RESULT:    -4.555      2.287      5.506
REMARK INTER + INTRA:         -10.152
REMARK INTER:                  -8.150
REMARK INTRA:                  -2.002
REMARK UNBOUND:                -1.869
REMARK SMILES CCCCCCCCCCCCCCCC(=O)[O-]
REMARK SMILES IDX 9 1 10 2 11 3 12 4 13 5 14 6 15 7 16 8 17 9 18 10 8 11 7 12
REMARK SMILES IDX 6 13 5 14 4 15 3 16 2 17 1 18
REMARK H PARENT
REMARK Flexibility Score: inf
ROOT
ATOM      1  C   UNL     1      15.340 -35.205  20.273  1.00  0.00     0.000 C 
ENDROOT
BRANCH   1   2
ATOM      2  C   UNL     1      16.623 -35.742  19.616  1.00  0.00     0.000 C 
BRANCH   2   3
ATOM      3  C   UNL     1      17.650 -36.298  20.626  1.00  0.00     0.000 C 
BRANCH   3   4
ATOM      4  C   UNL     1      18.839 -35.346  20.830  1.00  0.00     0.000 C 
BRANCH   4   5
ATOM      5  C   UNL     1      18.452 -34.169  21.738  1.00  0.00     0.000 C 
BRANCH   5   6
ATOM      6  C   UNL     1      18.995 -32.821  21.232  1.00  0.00     0.006 C 
BRANCH   6   7
ATOM      7  C   UNL     1      17.938 -31.920  20.573  1.00  0.00     0.053 C 
BRANCH   7   8
ATOM      8  C   UNL     1      17.497 -30.815  21.484  1.00  0.00     0.041 C 
ATOM      9  O   UNL     1      18.170 -30.533  22.510  1.00  0.00    -0.550 OA
ATOM     10  O   UNL     1      16.361 -30.076  21.181  1.00  0.00    -0.550 OA
ENDBRANCH   7   8
ENDBRANCH   6   7
ENDBRANCH   5   6
ENDBRANCH   4   5
ENDBRANCH   3   4
ENDBRANCH   2   3
ENDBRANCH   1   2
BRANCH   1  11
ATOM     11  C   UNL     1      15.016 -33.763  19.861  1.00  0.00     0.000 C 
BRANCH  11  12
ATOM     12  C   UNL     1      14.399 -32.982  21.027  1.00  0.00    -0.000 C 
BRANCH  12  13
ATOM     13  C   UNL     1      14.978 -33.450  22.370  1.00  0.00    -0.000 C 
BRANCH  13  14
ATOM     14  C   UNL     1      14.907 -32.368  23.463  1.00  0.00    -0.000 C 
BRANCH  14  15
ATOM     15  C   UNL     1      13.560 -31.623  23.559  1.00  0.00    -0.000 C 
BRANCH  15  16
ATOM     16  C   UNL     1      13.656 -30.089  23.485  1.00  0.00    -0.000 C 
BRANCH  16  17
ATOM     17  C   UNL     1      12.437 -29.447  22.808  1.00  0.00    -0.003 C 
ATOM     18  C   UNL     1      11.842 -30.377  21.753  1.00  0.00     0.004 C 
ENDBRANCH  16  17
ENDBRANCH  15  16
ENDBRANCH  14  15
ENDBRANCH  13  14
ENDBRANCH  12  13
ENDBRANCH  11  12
ENDBRANCH   1  11
TORSDOF 14
ENDMDL
MODEL 6
REMARK VINA RESULT:    -4.554      3.380      6.028
REMARK INTER + INTRA:         -10.150
REMARK INTER:                  -8.007
REMARK INTRA:                  -2.142
REMARK UNBOUND:                -1.869
REMARK SMILES CCCCCCCCCCCCCCCC(=O)[O-]
REMARK SMILES IDX 9 1 10 2 11 3 12 4 13 5 14 6 15 7 16 8 17 9 18 10 8 11 7 12
REMARK SMILES IDX 6 13 5 14 4 15 3 16 2 17 1 18
REMARK H PARENT
REMARK Flexibility Score: inf
ROOT
ATOM      1  C   UNL     1      16.995 -31.668  24.067  1.00  0.00     0.000 C 
ENDROOT
BRANCH   1   2
ATOM      2  C   UNL     1      18.160 -31.412  23.096  1.00  0.00     0.000 C 
BRANCH   2   3
ATOM      3  C   UNL     1      17.833 -30.384  21.993  1.00  0.00     0.000 C 
BRANCH   3   4
ATOM      4  C   UNL     1      17.931 -30.991  20.585  1.00  0.00     0.000 C 
BRANCH   4   5
ATOM      5  C   UNL     1      18.246 -32.493  20.654  1.00  0.00     0.000 C 
BRANCH   5   6
ATOM      6  C   UNL     1      17.390 -33.328  19.686  1.00  0.00     0.006 C 
BRANCH   6   7
ATOM      7  C   UNL     1      18.093 -34.580  19.136  1.00  0.00     0.053 C 
BRANCH   7   8
ATOM      8  C   UNL     1      17.454 -35.842  19.627  1.00  0.00     0.041 C 
ATOM      9  O   UNL     1      17.264 -36.805  18.838  1.00  0.00    -0.550 OA
ATOM     10  O   UNL     1      17.097 -35.967  20.964  1.00  0.00    -0.550 OA
ENDBRANCH   7   8
ENDBRANCH   6   7
ENDBRANCH   5   6
ENDBRANCH   4   5
ENDBRANCH   3   4
ENDBRANCH   2   3
ENDBRANCH   1   2
BRANCH   1  11
ATOM     11  C   UNL     1      16.322 -33.029  23.848  1.00  0.00     0.000 C 
BRANCH  11  12
ATOM     12  C   UNL     1      14.840 -32.860  23.494  1.00  0.00    -0.000 C 
BRANCH  12  13
ATOM     13  C   UNL     1      14.640 -32.811  21.972  1.00  0.00    -0.000 C 
BRANCH  13  14
ATOM     14  C   UNL     1      13.648 -31.718  21.532  1.00  0.00    -0.000 C 
BRANCH  14  15
ATOM     15  C   UNL     1      14.262 -30.316  21.342  1.00  0.00    -0.000 C 
BRANCH  15  16
ATOM     16  C   UNL     1      14.193 -29.401  22.577  1.00  0.00    -0.000 C 
BRANCH  16  17
ATOM     17  C   UNL     1      12.865 -29.525  23.337  1.00  0.00    -0.003 C 
ATOM     18  C   UNL     1      12.663 -28.346  24.286  1.00  0.00     0.004 C 
ENDBRANCH  16  17
ENDBRANCH  15  16
ENDBRANCH  14  15
ENDBRANCH  13  14
ENDBRANCH  12  13
ENDBRANCH  11  12
ENDBRANCH   1  11
TORSDOF 14
ENDMDL
MODEL 7
REMARK VINA RESULT:    -4.541      3.151      4.831
REMARK INTER + INTRA:         -10.126
REMARK INTER:                  -7.997
REMARK INTRA:                  -2.129
REMARK UNBOUND:                -1.869
REMARK SMILES CCCCCCCCCCCCCCCC(=O)[O-]
REMARK SMILES IDX 9 1 10 2 11 3 12 4 13 5 14 6 15 7 16 8 17 9 18 10 8 11 7 12
REMARK SMILES IDX 6 13 5 14 4 15 3 16 2 17 1 18
REMARK H PARENT
REMARK Flexibility Score: inf
ROOT
ATOM      1  C   UNL     1      17.716 -33.834  19.314  1.00  0.00     0.000 C 
ENDROOT
BRANCH   1   2
ATOM      2  C   UNL     1      18.436 -33.347  20.583  1.00  0.00     0.000 C 
BRANCH   2   3
ATOM      3  C   UNL     1      18.651 -31.819  20.625  1.00  0.00     0.000 C 
BRANCH   3   4
ATOM      4  C   UNL     1      17.409 -31.072  21.136  1.00  0.00     0.000 C 
BRANCH   4   5
ATOM      5  C   UNL     1      17.585 -30.650  22.602  1.00  0.00     0.000 C 
BRANCH   5   6
ATOM      6  C   UNL     1      16.549 -31.298  23.538  1.00  0.00     0.006 C 
BRANCH   6   7
ATOM      7  C   UNL     1      16.875 -32.746  23.938  1.00  0.00     0.053 C 
BRANCH   7   8
ATOM      8  C   UNL     1      18.220 -32.858  24.588  1.00  0.00     0.041 C 
ATOM      9  O   UNL     1      19.171 -33.424  23.985  1.00  0.00    -0.550 OA
ATOM     10  O   UNL     1      18.433 -32.309  25.846  1.00  0.00    -0.550 OA
ENDBRANCH   7   8
ENDBRANCH   6   7
ENDBRANCH   5   6
ENDBRANCH   4   5
ENDBRANCH   3   4
ENDBRANCH   2   3
ENDBRANCH   1   2
BRANCH   1  11
ATOM     11  C   UNL     1      17.129 -35.244  19.463  1.00  0.00     0.000 C 
BRANCH  11  12
ATOM     12  C   UNL     1      15.760 -35.201  20.151  1.00  0.00    -0.000 C 
BRANCH  12  13
ATOM     13  C   UNL     1      14.982 -33.940  19.749  1.00  0.00    -0.000 C 
BRANCH  13  14
ATOM     14  C   UNL     1      14.465 -33.142  20.961  1.00  0.00    -0.000 C 
BRANCH  14  15
ATOM     15  C   UNL     1      13.451 -32.029  20.627  1.00  0.00    -0.000 C 
BRANCH  15  16
ATOM     16  C   UNL     1      13.584 -30.750  21.473  1.00  0.00    -0.000 C 
BRANCH  16  17
ATOM     17  C   UNL     1      12.933 -30.880  22.856  1.00  0.00    -0.003 C 
ATOM     18  C   UNL     1      13.152 -29.619  23.687  1.00  0.00     0.004 C 
ENDBRANCH  16  17
ENDBRANCH  15  16
ENDBRANCH  14  15
ENDBRANCH  13  14
ENDBRANCH  12  13
ENDBRANCH  11  12
ENDBRANCH   1  11
TORSDOF 14
ENDMDL
MODEL 8
REMARK VINA RESULT:    -4.517      1.841      3.184
REMARK INTER + INTRA:         -10.082
REMARK INTER:                  -7.488
REMARK INTRA:                  -2.594
REMARK UNBOUND:                -1.869
REMARK SMILES CCCCCCCCCCCCCCCC(=O)[O-]
REMARK SMILES IDX 9 1 10 2 11 3 12 4 13 5 14 6 15 7 16 8 17 9 18 10 8 11 7 12
REMARK SMILES IDX 6 13 5 14 4 15 3 16 2 17 1 18
REMARK H PARENT
REMARK Flexibility Score: inf
ROOT
ATOM      1  C   UNL     1      18.436 -32.019  21.006  1.00  0.00     0.000 C 
ENDROOT
BRANCH   1   2
ATOM      2  C   UNL     1      17.507 -30.794  21.000  1.00  0.00     0.000 C 
BRANCH   2   3
ATOM      3  C   UNL     1      17.103 -30.316  22.411  1.00  0.00     0.000 C 
BRANCH   3   4
ATOM      4  C   UNL     1      15.837 -29.446  22.390  1.00  0.00     0.000 C 
BRANCH   4   5
ATOM      5  C   UNL     1      14.786 -30.027  21.433  1.00  0.00     0.000 C 
BRANCH   5   6
ATOM      6  C   UNL     1      13.451 -30.342  22.132  1.00  0.00     0.006 C 
BRANCH   6   7
ATOM      7  C   UNL     1      13.378 -29.877  23.595  1.00  0.00     0.053 C 
BRANCH   7   8
ATOM      8  C   UNL     1      12.479 -28.690  23.760  1.00  0.00     0.041 C 
ATOM      9  O   UNL     1      11.504 -28.519  22.981  1.00  0.00    -0.550 OA
ATOM     10  O   UNL     1      12.698 -27.789  24.795  1.00  0.00    -0.550 OA
ENDBRANCH   7   8
ENDBRANCH   6   7
ENDBRANCH   5   6
ENDBRANCH   4   5
ENDBRANCH   3   4
ENDBRANCH   2   3
ENDBRANCH   1   2
BRANCH   1  11
ATOM     11  C   UNL     1      17.916 -33.169  20.133  1.00  0.00     0.000 C 
BRANCH  11  12
ATOM     12  C   UNL     1      16.397 -33.320  20.268  1.00  0.00    -0.000 C 
BRANCH  12  13
ATOM     13  C   UNL     1      16.038 -34.215  21.463  1.00  0.00    -0.000 C 
BRANCH  13  14
ATOM     14  C   UNL     1      15.030 -33.557  22.423  1.00  0.00    -0.000 C 
BRANCH  14  15
ATOM     15  C   UNL     1      15.565 -33.281  23.843  1.00  0.00    -0.000 C 
BRANCH  15  16
ATOM     16  C   UNL     1      16.815 -34.088  24.238  1.00  0.00    -0.000 C 
BRANCH  16  17
ATOM     17  C   UNL     1      18.024 -33.197  24.557  1.00  0.00    -0.003 C 
ATOM     18  C   UNL     1      19.327 -33.866  24.127  1.00  0.00     0.004 C 
ENDBRANCH  16  17
ENDBRANCH  15  16
ENDBRANCH  14  15
ENDBRANCH  13  14
ENDBRANCH  12  13
ENDBRANCH  11  12
ENDBRANCH   1  11
TORSDOF 14
ENDMDL
MODEL 9
REMARK VINA RESULT:    -4.482      1.309      2.092
REMARK INTER + INTRA:         -10.018
REMARK INTER:                  -7.866
REMARK INTRA:                  -2.153
REMARK UNBOUND:                -1.869
REMARK SMILES CCCCCCCCCCCCCCCC(=O)[O-]
REMARK SMILES IDX 9 1 10 2 11 3 12 4 13 5 14 6 15 7 16 8 17 9 18 10 8 11 7 12
REMARK SMILES IDX 6 13 5 14 4 15 3 16 2 17 1 18
REMARK H PARENT
REMARK Flexibility Score: inf
ROOT
ATOM      1  C   UNL     1      18.532 -31.513  22.066  1.00  0.00     0.000 C 
ENDROOT
BRANCH   1   2
ATOM      2  C   UNL     1      17.613 -31.048  20.923  1.00  0.00     0.000 C 
BRANCH   2   3
ATOM      3  C   UNL     1      16.188 -30.676  21.386  1.00  0.00     0.000 C 
BRANCH   3   4
ATOM      4  C   UNL     1      16.010 -30.834  22.904  1.00  0.00     0.000 C 
BRANCH   4   5
ATOM      5  C   UNL     1      15.051 -31.988  23.228  1.00  0.00     0.000 C 
BRANCH   5   6
ATOM      6  C   UNL     1      13.660 -31.500  23.673  1.00  0.00     0.006 C 
BRANCH   6   7
ATOM      7  C   UNL     1      13.485 -29.973  23.643  1.00  0.00     0.053 C 
BRANCH   7   8
ATOM      8  C   UNL     1      12.329 -29.560  22.784  1.00  0.00     0.041 C 
ATOM      9  O   UNL     1      12.020 -30.236  21.767  1.00  0.00    -0.550 OA
ATOM     10  O   UNL     1      11.573 -28.445  23.124  1.00  0.00    -0.550 OA
ENDBRANCH   7   8
ENDBRANCH   6   7
ENDBRANCH   5   6
ENDBRANCH   4   5
ENDBRANCH   3   4
ENDBRANCH   2   3
ENDBRANCH   1   2
BRANCH   1  11
ATOM     11  C   UNL     1      18.872 -33.007  21.989  1.00  0.00     0.000 C 
BRANCH  11  12
ATOM     12  C   UNL     1      18.372 -33.751  23.233  1.00  0.00    -0.000 C 
BRANCH  12  13
ATOM     13  C   UNL     1      17.381 -34.859  22.849  1.00  0.00    -0.000 C 
BRANCH  13  14
ATOM     14  C   UNL     1      17.931 -35.808  21.769  1.00  0.00    -0.000 C 
BRANCH  14  15
ATOM     15  C   UNL     1      17.020 -35.997  20.539  1.00  0.00    -0.000 C 
BRANCH  15  16
ATOM     16  C   UNL     1      15.774 -35.095  20.505  1.00  0.00    -0.000 C 
BRANCH  16  17
ATOM     17  C   UNL     1      15.904 -33.936  19.507  1.00  0.00    -0.003 C 
ATOM     18  C   UNL     1      17.236 -34.000  18.763  1.00  0.00     0.004 C 
ENDBRANCH  16  17
ENDBRANCH  15  16
ENDBRANCH  14  15
ENDBRANCH  13  14
ENDBRANCH  12  13
ENDBRANCH  11  12
ENDBRANCH   1  11
TORSDOF 14
ENDMDL
