MODEL 1
REMARK VINA RESULT:    -4.782      0.000      0.000
REMARK INTER + INTRA:          -6.406
REMARK INTER:                  -6.739
REMARK INTRA:                   0.333
REMARK UNBOUND:                 0.333
REMARK SMILES CC1=CCC(=C(C)C)C(=O)CC(C)=CCC1
REMARK SMILES IDX 12 1 14 2 13 3 15 4 16 5 2 6 1 7 3 8 11 10 9 11 10 12 5 13
REMARK SMILES IDX 6 14 7 15 8 16 4 17
REMARK H PARENT
REMARK Flexibility Score: 60.00
ROOT
ATOM      1  C   UNL     1      25.745  52.082   8.779  1.00  0.00    -0.070 C 
ATOM      2  C   UNL     1      25.015  52.516   7.726  1.00  0.00    -0.027 C 
ATOM      3  C   UNL     1      27.137  51.565   8.517  1.00  0.00     0.039 C 
ENDROOT
BRANCH   2   4
ATOM      4  C   UNL     1      23.661  53.180   7.811  1.00  0.00     0.032 C 
BRANCH   4   5
ATOM      5  C   UNL     1      23.544  54.297   8.860  1.00  0.00     0.034 C 
BRANCH   5   6
ATOM      6  C   UNL     1      24.545  55.422   8.678  1.00  0.00    -0.077 C 
ATOM      7  C   UNL     1      24.450  56.250   7.421  1.00  0.00     0.039 C 
ATOM      8  C   UNL     1      25.566  55.692   9.529  1.00  0.00    -0.023 CG0
ATOM      9  G   UNL     1      25.818  55.123  10.913  1.00  0.00     0.000 G0
ENDBRANCH   5   6
ENDBRANCH   4   5
ENDBRANCH   2   4
BRANCH   1  10
ATOM     10  C   UNL     1      25.209  52.010  10.193  1.00  0.00     0.111 C 
BRANCH  10  11
ATOM     11  C   UNL     1      26.191  52.595  11.176  1.00  0.00     0.163 C 
ATOM     12  O   UNL     1      26.506  51.923  12.195  1.00  0.00    -0.294 OA
BRANCH  11  13
ATOM     13  C   UNL     1      26.794  53.941  10.989  1.00  0.00    -0.002 C 
ATOM     14  C   UNL     1      28.144  54.105  11.050  1.00  0.00    -0.069 C 
ATOM     15  C   UNL     1      28.777  55.475  10.996  1.00  0.00     0.039 C 
ATOM     16  C   UNL     1      29.061  52.907  11.150  1.00  0.00     0.039 C 
BRANCH  13  17
ATOM     17  C   UNL     1      25.837  55.116  10.910  1.00  0.00     0.066 CG0
ATOM     18  G   UNL     1      25.559  55.690   9.533  1.00  0.00     0.000 G0
ENDBRANCH  13  17
ENDBRANCH  11  13
ENDBRANCH  10  11
ENDBRANCH   1  10
TORSDOF 0
ENDMDL
MODEL 2
REMARK VINA RESULT:    -4.768      2.039      5.377
REMARK INTER + INTRA:          -6.386
REMARK INTER:                  -6.414
REMARK INTRA:                   0.028
REMARK UNBOUND:                 0.333
REMARK SMILES CC1=CCC(=C(C)C)C(=O)CC(C)=CCC1
REMARK SMILES IDX 12 1 14 2 13 3 15 4 16 5 2 6 1 7 3 8 11 10 9 11 10 12 5 13
REMARK SMILES IDX 6 14 7 15 8 16 4 17
REMARK H PARENT
REMARK Flexibility Score: 60.00
ROOT
ATOM      1  C   UNL     1      28.952  57.058  11.470  1.00  0.00    -0.070 C 
ATOM      2  C   UNL     1      29.939  56.148  11.634  1.00  0.00    -0.027 C 
ATOM      3  C   UNL     1      29.116  58.412  12.111  1.00  0.00     0.039 C 
ENDROOT
BRANCH   2   4
ATOM      4  C   UNL     1      30.006  54.795  10.965  1.00  0.00     0.032 C 
BRANCH   4   5
ATOM      5  C   UNL     1      29.674  53.599  11.871  1.00  0.00     0.034 C 
BRANCH   5   6
ATOM      6  C   UNL     1      28.889  52.501  11.180  1.00  0.00    -0.077 C 
ATOM      7  C   UNL     1      29.667  51.404  10.497  1.00  0.00     0.039 C 
ATOM      8  C   UNL     1      27.537  52.472  11.068  1.00  0.00    -0.023 CG0
ATOM      9  G   UNL     1      26.512  53.352  11.761  1.00  0.00     0.000 G0
ENDBRANCH   5   6
ENDBRANCH   4   5
ENDBRANCH   2   4
BRANCH   1  10
ATOM     10  C   UNL     1      27.655  56.761  10.748  1.00  0.00     0.111 C 
BRANCH  10  11
ATOM     11  C   UNL     1      26.750  55.899  11.591  1.00  0.00     0.163 C 
ATOM     12  O   UNL     1      26.523  56.239  12.784  1.00  0.00    -0.294 OA
BRANCH  11  13
ATOM     13  C   UNL     1      26.124  54.657  11.067  1.00  0.00    -0.002 C 
ATOM     14  C   UNL     1      25.145  54.724  10.124  1.00  0.00    -0.069 C 
ATOM     15  C   UNL     1      24.400  53.492   9.668  1.00  0.00     0.039 C 
ATOM     16  C   UNL     1      24.788  56.044   9.479  1.00  0.00     0.039 C 
BRANCH  13  17
ATOM     17  C   UNL     1      26.499  53.357  11.755  1.00  0.00     0.066 CG0
ATOM     18  G   UNL     1      27.531  52.482  11.066  1.00  0.00     0.000 G0
ENDBRANCH  13  17
ENDBRANCH  11  13
ENDBRANCH  10  11
ENDBRANCH   1  10
TORSDOF 0
ENDMDL
MODEL 3
REMARK VINA RESULT:    -4.725      7.051      8.570
REMARK INTER + INTRA:          -6.326
REMARK INTER:                  -6.293
REMARK INTRA:                  -0.033
REMARK UNBOUND:                 0.333
REMARK SMILES CC1=CCC(=C(C)C)C(=O)CC(C)=CCC1
REMARK SMILES IDX 12 1 14 2 13 3 15 4 16 5 2 6 1 7 3 8 11 10 9 11 10 12 5 13
REMARK SMILES IDX 6 14 7 15 8 16 4 17
REMARK H PARENT
REMARK Flexibility Score: 60.00
ROOT
ATOM      1  C   UNL     1      24.840  50.467  18.044  1.00  0.00    -0.070 C 
ATOM      2  C   UNL     1      25.424  49.484  17.322  1.00  0.00    -0.027 C 
ATOM      3  C   UNL     1      24.937  50.403  19.548  1.00  0.00     0.039 C 
ENDROOT
BRANCH   2   4
ATOM      4  C   UNL     1      25.538  49.450  15.816  1.00  0.00     0.032 C 
BRANCH   4   5
ATOM      5  C   UNL     1      26.738  50.211  15.233  1.00  0.00     0.034 C 
BRANCH   5   6
ATOM      6  C   UNL     1      27.886  50.395  16.208  1.00  0.00    -0.077 C 
ATOM      7  C   UNL     1      28.795  49.217  16.453  1.00  0.00     0.039 C 
ATOM      8  C   UNL     1      28.111  51.521  16.931  1.00  0.00    -0.023 CG0
ATOM      9  G   UNL     1      27.454  52.881  16.791  1.00  0.00     0.000 G0
ENDBRANCH   5   6
ENDBRANCH   4   5
ENDBRANCH   2   4
BRANCH   1  10
ATOM     10  C   UNL     1      24.022  51.581  17.428  1.00  0.00     0.111 C 
BRANCH  10  11
ATOM     11  C   UNL     1      24.911  52.639  16.827  1.00  0.00     0.163 C 
ATOM     12  O   UNL     1      24.608  53.125  15.703  1.00  0.00    -0.294 OA
BRANCH  11  13
ATOM     13  C   UNL     1      26.140  53.124  17.509  1.00  0.00    -0.002 C 
ATOM     14  C   UNL     1      26.048  53.878  18.639  1.00  0.00    -0.069 C 
ATOM     15  C   UNL     1      27.269  54.493  19.280  1.00  0.00     0.039 C 
ATOM     16  C   UNL     1      24.711  54.103  19.306  1.00  0.00     0.039 C 
BRANCH  13  17
ATOM     17  C   UNL     1      27.458  52.889  16.795  1.00  0.00     0.066 CG0
ATOM     18  G   UNL     1      28.099  51.523  16.955  1.00  0.00     0.000 G0
ENDBRANCH  13  17
ENDBRANCH  11  13
ENDBRANCH  10  11
ENDBRANCH   1  10
TORSDOF 0
ENDMDL
MODEL 4
REMARK VINA RESULT:    -4.725      1.726      4.089
REMARK INTER + INTRA:          -6.326
REMARK INTER:                  -6.170
REMARK INTRA:                  -0.155
REMARK UNBOUND:                 0.333
REMARK SMILES CC1=CCC(=C(C)C)C(=O)CC(C)=CCC1
REMARK SMILES IDX 12 1 14 2 13 3 15 4 16 5 2 6 1 7 3 8 11 10 9 11 10 12 5 13
REMARK SMILES IDX 6 14 7 15 8 16 4 17
REMARK H PARENT
REMARK Flexibility Score: 60.00
ROOT
ATOM      1  C   UNL     1      27.610  52.700  10.539  1.00  0.00    -0.070 C 
ATOM      2  C   UNL     1      28.332  53.729  11.039  1.00  0.00    -0.027 C 
ATOM      3  C   UNL     1      28.347  51.574   9.861  1.00  0.00     0.039 C 
ENDROOT
BRANCH   2   4
ATOM      4  C   UNL     1      27.781  54.874  11.856  1.00  0.00     0.032 C 
BRANCH   4   5
ATOM      5  C   UNL     1      27.450  56.146  11.060  1.00  0.00     0.034 C 
BRANCH   5   6
ATOM      6  C   UNL     1      26.078  56.720  11.357  1.00  0.00    -0.077 C 
ATOM      7  C   UNL     1      25.929  57.590  12.581  1.00  0.00     0.039 C 
ATOM      8  C   UNL     1      24.956  56.449  10.642  1.00  0.00    -0.023 CG0
ATOM      9  G   UNL     1      24.835  55.732   9.310  1.00  0.00     0.000 G0
ENDBRANCH   5   6
ENDBRANCH   4   5
ENDBRANCH   2   4
BRANCH   1  10
ATOM     10  C   UNL     1      26.097  52.661  10.550  1.00  0.00     0.111 C 
BRANCH  10  11
ATOM     11  C   UNL     1      25.530  53.264   9.289  1.00  0.00     0.163 C 
ATOM     12  O   UNL     1      26.008  52.910   8.177  1.00  0.00    -0.294 OA
BRANCH  11  13
ATOM     13  C   UNL     1      24.433  54.267   9.314  1.00  0.00    -0.002 C 
ATOM     14  C   UNL     1      23.136  53.872   9.194  1.00  0.00    -0.069 C 
ATOM     15  C   UNL     1      22.011  54.873   9.083  1.00  0.00     0.039 C 
ATOM     16  C   UNL     1      22.776  52.403   9.194  1.00  0.00     0.039 C 
BRANCH  13  17
ATOM     17  C   UNL     1      24.841  55.728   9.297  1.00  0.00     0.066 CG0
ATOM     18  G   UNL     1      24.965  56.427  10.638  1.00  0.00     0.000 G0
ENDBRANCH  13  17
ENDBRANCH  11  13
ENDBRANCH  10  11
ENDBRANCH   1  10
TORSDOF 0
ENDMDL
MODEL 5
REMARK VINA RESULT:    -4.673      7.189      8.357
REMARK INTER + INTRA:          -6.253
REMARK INTER:                  -6.135
REMARK INTRA:                  -0.117
REMARK UNBOUND:                 0.333
REMARK SMILES CC1=CCC(=C(C)C)C(=O)CC(C)=CCC1
REMARK SMILES IDX 12 1 14 2 13 3 15 4 16 5 2 6 1 7 3 8 11 10 9 11 10 12 5 13
REMARK SMILES IDX 6 14 7 15 8 16 4 17
REMARK H PARENT
REMARK Flexibility Score: 60.00
ROOT
ATOM      1  C   UNL     1      28.374  49.432  16.003  1.00  0.00    -0.070 C 
ATOM      2  C   UNL     1      29.263  50.297  15.464  1.00  0.00    -0.027 C 
ATOM      3  C   UNL     1      28.049  48.174  15.240  1.00  0.00     0.039 C 
ENDROOT
BRANCH   2   4
ATOM      4  C   UNL     1      29.802  51.537  16.138  1.00  0.00     0.032 C 
BRANCH   4   5
ATOM      5  C   UNL     1      29.223  52.865  15.627  1.00  0.00     0.034 C 
BRANCH   5   6
ATOM      6  C   UNL     1      28.734  53.789  16.726  1.00  0.00    -0.077 C 
ATOM      7  C   UNL     1      29.709  54.796  17.282  1.00  0.00     0.039 C 
ATOM      8  C   UNL     1      27.504  53.728  17.295  1.00  0.00    -0.023 CG0
ATOM      9  G   UNL     1      26.296  52.923  16.852  1.00  0.00     0.000 G0
ENDBRANCH   5   6
ENDBRANCH   4   5
ENDBRANCH   2   4
BRANCH   1  10
ATOM     10  C   UNL     1      27.625  49.701  17.291  1.00  0.00     0.111 C 
BRANCH  10  11
ATOM     11  C   UNL     1      26.301  50.370  17.019  1.00  0.00     0.163 C 
ATOM     12  O   UNL     1      25.483  49.807  16.243  1.00  0.00    -0.294 OA
BRANCH  11  13
ATOM     13  C   UNL     1      25.933  51.675  17.628  1.00  0.00    -0.002 C 
ATOM     14  C   UNL     1      25.180  51.718  18.761  1.00  0.00    -0.069 C 
ATOM     15  C   UNL     1      24.679  53.024  19.329  1.00  0.00     0.039 C 
ATOM     16  C   UNL     1      24.839  50.448  19.507  1.00  0.00     0.039 C 
BRANCH  13  17
ATOM     17  C   UNL     1      26.279  52.923  16.837  1.00  0.00     0.066 CG0
ATOM     18  G   UNL     1      27.482  53.724  17.300  1.00  0.00     0.000 G0
ENDBRANCH  13  17
ENDBRANCH  11  13
ENDBRANCH  10  11
ENDBRANCH   1  10
TORSDOF 0
ENDMDL
MODEL 6
REMARK VINA RESULT:    -4.659      7.494      8.925
REMARK INTER + INTRA:          -6.233
REMARK INTER:                  -6.082
REMARK INTRA:                  -0.150
REMARK UNBOUND:                 0.333
REMARK SMILES CC1=CCC(=C(C)C)C(=O)CC(C)=CCC1
REMARK SMILES IDX 12 1 14 2 13 3 15 4 16 5 2 6 1 7 3 8 11 10 9 11 10 12 5 13
REMARK SMILES IDX 6 14 7 15 8 16 4 17
REMARK H PARENT
REMARK Flexibility Score: 60.00
ROOT
ATOM      1  C   UNL     1      28.893  53.572  16.735  1.00  0.00    -0.070 C 
ATOM      2  C   UNL     1      29.630  52.470  16.467  1.00  0.00    -0.027 C 
ATOM      3  C   UNL     1      29.592  54.774  17.317  1.00  0.00     0.039 C 
ENDROOT
BRANCH   2   4
ATOM      4  C   UNL     1      29.129  51.227  15.771  1.00  0.00     0.032 C 
BRANCH   4   5
ATOM      5  C   UNL     1      28.637  50.108  16.702  1.00  0.00     0.034 C 
BRANCH   5   6
ATOM      6  C   UNL     1      27.272  49.556  16.337  1.00  0.00    -0.077 C 
ATOM      7  C   UNL     1      27.198  48.544  15.221  1.00  0.00     0.039 C 
ATOM      8  C   UNL     1      26.102  49.961  16.892  1.00  0.00    -0.023 CG0
ATOM      9  G   UNL     1      25.889  50.846  18.107  1.00  0.00     0.000 G0
ENDBRANCH   5   6
ENDBRANCH   4   5
ENDBRANCH   2   4
BRANCH   1  10
ATOM     10  C   UNL     1      27.390  53.633  16.561  1.00  0.00     0.111 C 
BRANCH  10  11
ATOM     11  C   UNL     1      26.681  53.276  17.842  1.00  0.00     0.163 C 
ATOM     12  O   UNL     1      27.067  53.804  18.920  1.00  0.00    -0.294 OA
BRANCH  11  13
ATOM     13  C   UNL     1      25.547  52.315  17.880  1.00  0.00    -0.002 C 
ATOM     14  C   UNL     1      24.262  52.765  17.854  1.00  0.00    -0.069 C 
ATOM     15  C   UNL     1      23.092  51.826  18.023  1.00  0.00     0.039 C 
ATOM     16  C   UNL     1      23.965  54.230  17.629  1.00  0.00     0.039 C 
BRANCH  13  17
ATOM     17  C   UNL     1      25.891  50.858  18.124  1.00  0.00     0.066 CG0
ATOM     18  G   UNL     1      26.102  49.982  16.903  1.00  0.00     0.000 G0
ENDBRANCH  13  17
ENDBRANCH  11  13
ENDBRANCH  10  11
ENDBRANCH   1  10
TORSDOF 0
ENDMDL
MODEL 7
REMARK VINA RESULT:    -4.637      6.993      8.102
REMARK INTER + INTRA:          -6.202
REMARK INTER:                  -6.393
REMARK INTRA:                   0.191
REMARK UNBOUND:                 0.333
REMARK SMILES CC1=CCC(=C(C)C)C(=O)CC(C)=CCC1
REMARK SMILES IDX 12 1 14 2 13 3 15 4 16 5 2 6 1 7 3 8 11 10 9 11 10 12 5 13
REMARK SMILES IDX 6 14 7 15 8 16 4 17
REMARK H PARENT
REMARK Flexibility Score: 60.00
ROOT
ATOM      1  C   UNL     1      25.808  49.601  16.576  1.00  0.00    -0.070 C 
ATOM      2  C   UNL     1      24.755  49.621  17.425  1.00  0.00    -0.027 C 
ATOM      3  C   UNL     1      25.714  48.738  15.343  1.00  0.00     0.039 C 
ENDROOT
BRANCH   2   4
ATOM      4  C   UNL     1      24.620  50.516  18.634  1.00  0.00     0.032 C 
BRANCH   4   5
ATOM      5  C   UNL     1      24.302  51.988  18.328  1.00  0.00     0.034 C 
BRANCH   5   6
ATOM      6  C   UNL     1      25.274  52.972  18.951  1.00  0.00    -0.077 C 
ATOM      7  C   UNL     1      25.248  53.131  20.451  1.00  0.00     0.039 C 
ATOM      8  C   UNL     1      26.116  53.773  18.251  1.00  0.00    -0.023 CG0
ATOM      9  G   UNL     1      26.448  53.731  16.771  1.00  0.00     0.000 G0
ENDBRANCH   5   6
ENDBRANCH   4   5
ENDBRANCH   2   4
BRANCH   1  10
ATOM     10  C   UNL     1      27.107  50.331  16.841  1.00  0.00     0.111 C 
BRANCH  10  11
ATOM     11  C   UNL     1      27.286  51.484  15.887  1.00  0.00     0.163 C 
ATOM     12  O   UNL     1      27.145  51.279  14.651  1.00  0.00    -0.294 OA
BRANCH  11  13
ATOM     13  C   UNL     1      27.633  52.853  16.353  1.00  0.00    -0.002 C 
ATOM     14  C   UNL     1      28.934  53.207  16.540  1.00  0.00    -0.069 C 
ATOM     15  C   UNL     1      29.312  54.542  17.136  1.00  0.00     0.039 C 
ATOM     16  C   UNL     1      30.052  52.275  16.130  1.00  0.00     0.039 C 
BRANCH  13  17
ATOM     17  C   UNL     1      26.480  53.748  16.769  1.00  0.00     0.066 CG0
ATOM     18  G   UNL     1      26.121  53.774  18.243  1.00  0.00     0.000 G0
ENDBRANCH  13  17
ENDBRANCH  11  13
ENDBRANCH  10  11
ENDBRANCH   1  10
TORSDOF 0
ENDMDL
MODEL 8
REMARK VINA RESULT:    -4.558      1.265      2.224
REMARK INTER + INTRA:          -6.091
REMARK INTER:                  -6.431
REMARK INTRA:                   0.341
REMARK UNBOUND:                 0.333
REMARK SMILES CC1=CCC(=C(C)C)C(=O)CC(C)=CCC1
REMARK SMILES IDX 12 1 14 2 13 3 15 4 16 5 2 6 1 7 3 8 11 10 9 11 10 12 5 13
REMARK SMILES IDX 6 14 7 15 8 16 4 17
REMARK H PARENT
REMARK Flexibility Score: 60.00
ROOT
ATOM      1  C   UNL     1      27.406  52.106  10.173  1.00  0.00    -0.070 C 
ATOM      2  C   UNL     1      27.298  51.846   8.850  1.00  0.00    -0.027 C 
ATOM      3  C   UNL     1      28.757  52.496  10.717  1.00  0.00     0.039 C 
ENDROOT
BRANCH   2   4
ATOM      4  C   UNL     1      26.011  51.567   8.112  1.00  0.00     0.032 C 
BRANCH   4   5
ATOM      5  C   UNL     1      25.366  52.786   7.435  1.00  0.00     0.034 C 
BRANCH   5   6
ATOM      6  C   UNL     1      24.260  53.431   8.248  1.00  0.00    -0.077 C 
ATOM      7  C   UNL     1      22.848  52.953   8.017  1.00  0.00     0.039 C 
ATOM      8  C   UNL     1      24.438  54.457   9.118  1.00  0.00    -0.023 CG0
ATOM      9  G   UNL     1      25.740  55.036   9.642  1.00  0.00     0.000 G0
ENDBRANCH   5   6
ENDBRANCH   4   5
ENDBRANCH   2   4
BRANCH   1  10
ATOM     10  C   UNL     1      26.261  51.943  11.150  1.00  0.00     0.111 C 
BRANCH  10  11
ATOM     11  C   UNL     1      25.660  53.279  11.509  1.00  0.00     0.163 C 
ATOM     12  O   UNL     1      24.641  53.308  12.252  1.00  0.00    -0.294 OA
BRANCH  11  13
ATOM     13  C   UNL     1      26.222  54.561  11.009  1.00  0.00    -0.002 C 
ATOM     14  C   UNL     1      27.003  55.331  11.815  1.00  0.00    -0.069 C 
ATOM     15  C   UNL     1      27.480  56.697  11.384  1.00  0.00     0.039 C 
ATOM     16  C   UNL     1      27.444  54.825  13.170  1.00  0.00     0.039 C 
BRANCH  13  17
ATOM     17  C   UNL     1      25.740  55.038   9.652  1.00  0.00     0.066 CG0
ATOM     18  G   UNL     1      24.441  54.450   9.132  1.00  0.00     0.000 G0
ENDBRANCH  13  17
ENDBRANCH  11  13
ENDBRANCH  10  11
ENDBRANCH   1  10
TORSDOF 0
ENDMDL
MODEL 9
REMARK VINA RESULT:    -4.378      6.831      8.345
REMARK INTER + INTRA:          -5.837
REMARK INTER:                  -5.698
REMARK INTRA:                  -0.139
REMARK UNBOUND:                 0.333
REMARK SMILES CC1=CCC(=C(C)C)C(=O)CC(C)=CCC1
REMARK SMILES IDX 12 1 14 2 13 3 15 4 16 5 2 6 1 7 3 8 11 10 9 11 10 12 5 13
REMARK SMILES IDX 6 14 7 15 8 16 4 17
REMARK H PARENT
REMARK Flexibility Score: 60.00
ROOT
ATOM      1  C   UNL     1      24.701  52.628  19.960  1.00  0.00    -0.070 C 
ATOM      2  C   UNL     1      23.605  53.416  20.054  1.00  0.00    -0.027 C 
ATOM      3  C   UNL     1      25.699  52.658  21.090  1.00  0.00     0.039 C 
ENDROOT
BRANCH   2   4
ATOM      4  C   UNL     1      22.444  53.424  19.087  1.00  0.00     0.032 C 
BRANCH   4   5
ATOM      5  C   UNL     1      22.576  54.407  17.914  1.00  0.00     0.034 C 
BRANCH   5   6
ATOM      6  C   UNL     1      22.269  53.797  16.559  1.00  0.00    -0.077 C 
ATOM      7  C   UNL     1      20.821  53.562  16.206  1.00  0.00     0.039 C 
ATOM      8  C   UNL     1      23.206  53.380  15.670  1.00  0.00    -0.023 CG0
ATOM      9  G   UNL     1      24.705  53.613  15.699  1.00  0.00     0.000 G0
ENDBRANCH   5   6
ENDBRANCH   4   5
ENDBRANCH   2   4
BRANCH   1  10
ATOM     10  C   UNL     1      25.020  51.784  18.745  1.00  0.00     0.111 C 
BRANCH  10  11
ATOM     11  C   UNL     1      25.837  52.561  17.744  1.00  0.00     0.163 C 
ATOM     12  O   UNL     1      26.777  53.292  18.161  1.00  0.00    -0.294 OA
BRANCH  11  13
ATOM     13  C   UNL     1      25.567  52.503  16.284  1.00  0.00    -0.002 C 
ATOM     14  C   UNL     1      26.200  51.585  15.503  1.00  0.00    -0.069 C 
ATOM     15  C   UNL     1      26.048  51.585  14.001  1.00  0.00     0.039 C 
ATOM     16  C   UNL     1      27.063  50.510  16.124  1.00  0.00     0.039 C 
BRANCH  13  17
ATOM     17  C   UNL     1      24.710  53.610  15.700  1.00  0.00     0.066 CG0
ATOM     18  G   UNL     1      23.210  53.379  15.665  1.00  0.00     0.000 G0
ENDBRANCH  13  17
ENDBRANCH  11  13
ENDBRANCH  10  11
ENDBRANCH   1  10
TORSDOF 0
ENDMDL
