MODEL 1
REMARK VINA RESULT:    -5.105      0.000      0.000
REMARK INTER + INTRA:          -6.869
REMARK INTER:                  -6.597
REMARK INTRA:                  -0.272
REMARK UNBOUND:                -0.272
REMARK SMILES CCO[C@H]1O[C@H](CO)[C@H](O)[C@@H](O)[C@H]1O
REMARK SMILES IDX 4 1 13 2 11 3 9 4 6 5 5 6 3 7 2 8 1 9 14 10 12 12 7 14 8 15
REMARK SMILES IDX 10 17
REMARK H PARENT 14 11 12 13 8 16 10 18
REMARK Flexibility Score: inf
ROOT
ATOM      1  C   UNL     1     -17.176   5.587 -40.678  1.00  0.00     0.281 C 
ATOM      2  C   UNL     1     -17.437   7.001 -40.118  1.00  0.00     0.202 C 
ATOM      3  C   UNL     1     -17.511   8.044 -41.249  1.00  0.00     0.179 C 
ATOM      4  C   UNL     1     -16.294   7.894 -42.183  1.00  0.00     0.177 C 
ATOM      5  C   UNL     1     -16.162   6.421 -42.626  1.00  0.00     0.178 C 
ATOM      6  O   UNL     1     -16.016   5.569 -41.500  1.00  0.00    -0.341 OA
ENDROOT
BRANCH   1   7
ATOM      7  O   UNL     1     -18.316   5.114 -41.380  1.00  0.00    -0.350 OA
BRANCH   7   8
ATOM      8  C   UNL     1     -18.161   3.756 -41.750  1.00  0.00     0.160 C 
ATOM      9  C   UNL     1     -17.830   2.912 -40.527  1.00  0.00     0.035 C 
ENDBRANCH   7   8
ENDBRANCH   1   7
BRANCH   2  10
ATOM     10  O   UNL     1     -18.625   6.999 -39.369  1.00  0.00    -0.385 OA
ATOM     11  H   UNL     1     -18.396   7.353 -38.470  1.00  0.00     0.211 HD
ENDBRANCH   2  10
BRANCH   3  12
ATOM     12  O   UNL     1     -18.704   7.881 -41.974  1.00  0.00    -0.387 OA
ATOM     13  H   UNL     1     -19.298   8.636 -41.722  1.00  0.00     0.211 HD
ENDBRANCH   3  12
BRANCH   5  14
ATOM     14  C   UNL     1     -14.953   6.232 -43.555  1.00  0.00     0.191 C 
BRANCH  14  15
ATOM     15  O   UNL     1     -13.804   5.942 -42.805  1.00  0.00    -0.394 OA
ATOM     16  H   UNL     1     -13.077   5.764 -43.457  1.00  0.00     0.210 HD
ENDBRANCH  14  15
ENDBRANCH   5  14
BRANCH   4  17
ATOM     17  O   UNL     1     -15.125   8.298 -41.514  1.00  0.00    -0.387 OA
ATOM     18  H   UNL     1     -15.342   9.147 -41.046  1.00  0.00     0.211 HD
ENDBRANCH   4  17
TORSDOF 7
ENDMDL
MODEL 2
REMARK VINA RESULT:    -4.933      8.997     10.610
REMARK INTER + INTRA:          -6.646
REMARK INTER:                  -6.312
REMARK INTRA:                  -0.335
REMARK UNBOUND:                -0.272
REMARK SMILES CCO[C@H]1O[C@H](CO)[C@H](O)[C@@H](O)[C@H]1O
REMARK SMILES IDX 4 1 13 2 11 3 9 4 6 5 5 6 3 7 2 8 1 9 14 10 12 12 7 14 8 15
REMARK SMILES IDX 10 17
REMARK H PARENT 14 11 12 13 8 16 10 18
REMARK Flexibility Score: inf
ROOT
ATOM      1  C   UNL     1     -10.519  -1.012 -41.316  1.00  0.00     0.281 C 
ATOM      2  C   UNL     1      -9.248  -1.696 -41.863  1.00  0.00     0.202 C 
ATOM      3  C   UNL     1      -8.135  -1.737 -40.799  1.00  0.00     0.179 C 
ATOM      4  C   UNL     1      -7.945  -0.338 -40.181  1.00  0.00     0.177 C 
ATOM      5  C   UNL     1      -9.311   0.209 -39.713  1.00  0.00     0.178 C 
ATOM      6  O   UNL     1     -10.222   0.280 -40.799  1.00  0.00    -0.341 OA
ENDROOT
BRANCH   1   7
ATOM      7  O   UNL     1     -11.140  -1.832 -40.337  1.00  0.00    -0.350 OA
BRANCH   7   8
ATOM      8  C   UNL     1     -12.468  -1.410 -40.085  1.00  0.00     0.160 C 
ATOM      9  C   UNL     1     -13.232  -2.497 -39.340  1.00  0.00     0.035 C 
ENDBRANCH   7   8
ENDBRANCH   1   7
BRANCH   2  10
ATOM     10  O   UNL     1      -9.562  -2.993 -42.301  1.00  0.00    -0.385 OA
ATOM     11  H   UNL     1     -10.346  -3.291 -41.770  1.00  0.00     0.211 HD
ENDBRANCH   2  10
BRANCH   3  12
ATOM     12  O   UNL     1      -8.462  -2.670 -39.800  1.00  0.00    -0.387 OA
ATOM     13  H   UNL     1      -8.192  -2.269 -38.933  1.00  0.00     0.211 HD
ENDBRANCH   3  12
BRANCH   5  14
ATOM     14  C   UNL     1      -9.162   1.608 -39.098  1.00  0.00     0.191 C 
BRANCH  14  15
ATOM     15  O   UNL     1      -9.224   2.591 -40.097  1.00  0.00    -0.394 OA
ATOM     16  H   UNL     1      -9.500   3.433 -39.651  1.00  0.00     0.210 HD
ENDBRANCH  14  15
ENDBRANCH   5  14
BRANCH   4  17
ATOM     17  O   UNL     1      -7.382   0.532 -41.133  1.00  0.00    -0.387 OA
ATOM     18  H   UNL     1      -8.058   1.237 -41.311  1.00  0.00     0.211 HD
ENDBRANCH   4  17
TORSDOF 7
ENDMDL
MODEL 3
REMARK VINA RESULT:    -4.871      1.559      3.911
REMARK INTER + INTRA:          -6.566
REMARK INTER:                  -6.104
REMARK INTRA:                  -0.462
REMARK UNBOUND:                -0.272
REMARK SMILES CCO[C@H]1O[C@H](CO)[C@H](O)[C@@H](O)[C@H]1O
REMARK SMILES IDX 4 1 13 2 11 3 9 4 6 5 5 6 3 7 2 8 1 9 14 10 12 12 7 14 8 15
REMARK SMILES IDX 10 17
REMARK H PARENT 14 11 12 13 8 16 10 18
REMARK Flexibility Score: inf
ROOT
ATOM      1  C   UNL     1     -16.603   7.546 -42.273  1.00  0.00     0.281 C 
ATOM      2  C   UNL     1     -18.077   7.154 -42.507  1.00  0.00     0.202 C 
ATOM      3  C   UNL     1     -18.604   6.257 -41.371  1.00  0.00     0.179 C 
ATOM      4  C   UNL     1     -17.622   5.096 -41.118  1.00  0.00     0.177 C 
ATOM      5  C   UNL     1     -16.196   5.659 -40.933  1.00  0.00     0.178 C 
ATOM      6  O   UNL     1     -15.793   6.392 -42.079  1.00  0.00    -0.341 OA
ENDROOT
BRANCH   1   7
ATOM      7  O   UNL     1     -16.497   8.443 -41.177  1.00  0.00    -0.350 OA
BRANCH   7   8
ATOM      8  C   UNL     1     -15.596   9.496 -41.465  1.00  0.00     0.160 C 
ATOM      9  C   UNL     1     -15.648   9.843 -42.947  1.00  0.00     0.035 C 
ENDBRANCH   7   8
ENDBRANCH   1   7
BRANCH   2  10
ATOM     10  O   UNL     1     -18.859   8.314 -42.625  1.00  0.00    -0.385 OA
ATOM     11  H   UNL     1     -18.906   8.720 -41.720  1.00  0.00     0.211 HD
ENDBRANCH   2  10
BRANCH   3  12
ATOM     12  O   UNL     1     -18.772   7.017 -40.201  1.00  0.00    -0.387 OA
ATOM     13  H   UNL     1     -17.890   7.041 -39.745  1.00  0.00     0.211 HD
ENDBRANCH   3  12
BRANCH   5  14
ATOM     14  C   UNL     1     -15.186   4.528 -40.685  1.00  0.00     0.191 C 
BRANCH  14  15
ATOM     15  O   UNL     1     -15.815   3.442 -40.058  1.00  0.00    -0.394 OA
ATOM     16  H   UNL     1     -16.138   3.769 -39.179  1.00  0.00     0.210 HD
ENDBRANCH  14  15
ENDBRANCH   5  14
BRANCH   4  17
ATOM     17  O   UNL     1     -17.646   4.204 -42.205  1.00  0.00    -0.387 OA
ATOM     18  H   UNL     1     -18.225   4.616 -42.900  1.00  0.00     0.211 HD
ENDBRANCH   4  17
TORSDOF 7
ENDMDL
MODEL 4
REMARK VINA RESULT:    -4.856      1.690      2.534
REMARK INTER + INTRA:          -6.547
REMARK INTER:                  -6.156
REMARK INTRA:                  -0.391
REMARK UNBOUND:                -0.272
REMARK SMILES CCO[C@H]1O[C@H](CO)[C@H](O)[C@@H](O)[C@H]1O
REMARK SMILES IDX 4 1 13 2 11 3 9 4 6 5 5 6 3 7 2 8 1 9 14 10 12 12 7 14 8 15
REMARK SMILES IDX 10 17
REMARK H PARENT 14 11 12 13 8 16 10 18
REMARK Flexibility Score: inf
ROOT
ATOM      1  C   UNL     1     -17.101   5.392 -41.917  1.00  0.00     0.281 C 
ATOM      2  C   UNL     1     -16.499   6.292 -40.818  1.00  0.00     0.202 C 
ATOM      3  C   UNL     1     -17.393   7.517 -40.548  1.00  0.00     0.179 C 
ATOM      4  C   UNL     1     -17.752   8.210 -41.877  1.00  0.00     0.177 C 
ATOM      5  C   UNL     1     -18.311   7.167 -42.868  1.00  0.00     0.178 C 
ATOM      6  O   UNL     1     -17.363   6.136 -43.100  1.00  0.00    -0.341 OA
ENDROOT
BRANCH   1   7
ATOM      7  O   UNL     1     -18.272   4.745 -41.441  1.00  0.00    -0.350 OA
BRANCH   7   8
ATOM      8  C   UNL     1     -18.220   3.351 -41.681  1.00  0.00     0.160 C 
ATOM      9  C   UNL     1     -17.809   2.614 -40.413  1.00  0.00     0.035 C 
ENDBRANCH   7   8
ENDBRANCH   1   7
BRANCH   2  10
ATOM     10  O   UNL     1     -16.317   5.544 -39.643  1.00  0.00    -0.385 OA
ATOM     11  H   UNL     1     -16.918   5.937 -38.958  1.00  0.00     0.211 HD
ENDBRANCH   2  10
BRANCH   3  12
ATOM     12  O   UNL     1     -18.561   7.117 -39.876  1.00  0.00    -0.387 OA
ATOM     13  H   UNL     1     -18.562   6.125 -39.867  1.00  0.00     0.211 HD
ENDBRANCH   3  12
BRANCH   5  14
ATOM     14  C   UNL     1     -18.674   7.821 -44.209  1.00  0.00     0.191 C 
BRANCH  14  15
ATOM     15  O   UNL     1     -19.176   9.114 -44.001  1.00  0.00    -0.394 OA
ATOM     16  H   UNL     1     -19.014   9.332 -43.046  1.00  0.00     0.210 HD
ENDBRANCH  14  15
ENDBRANCH   5  14
BRANCH   4  17
ATOM     17  O   UNL     1     -16.608   8.821 -42.421  1.00  0.00    -0.387 OA
ATOM     18  H   UNL     1     -16.903   9.309 -43.233  1.00  0.00     0.211 HD
ENDBRANCH   4  17
TORSDOF 7
ENDMDL
MODEL 5
REMARK VINA RESULT:    -4.791      1.522      3.124
REMARK INTER + INTRA:          -6.464
REMARK INTER:                  -6.063
REMARK INTRA:                  -0.401
REMARK UNBOUND:                -0.272
REMARK SMILES CCO[C@H]1O[C@H](CO)[C@H](O)[C@@H](O)[C@H]1O
REMARK SMILES IDX 4 1 13 2 11 3 9 4 6 5 5 6 3 7 2 8 1 9 14 10 12 12 7 14 8 15
REMARK SMILES IDX 10 17
REMARK H PARENT 14 11 12 13 8 16 10 18
REMARK Flexibility Score: inf
ROOT
ATOM      1  C   UNL     1     -16.701   5.349 -41.877  1.00  0.00     0.281 C 
ATOM      2  C   UNL     1     -17.957   5.180 -40.997  1.00  0.00     0.202 C 
ATOM      3  C   UNL     1     -18.836   6.446 -41.030  1.00  0.00     0.179 C 
ATOM      4  C   UNL     1     -17.973   7.693 -40.756  1.00  0.00     0.177 C 
ATOM      5  C   UNL     1     -16.750   7.691 -41.698  1.00  0.00     0.178 C 
ATOM      6  O   UNL     1     -15.975   6.516 -41.512  1.00  0.00    -0.341 OA
ENDROOT
BRANCH   1   7
ATOM      7  O   UNL     1     -17.058   5.368 -43.251  1.00  0.00    -0.350 OA
BRANCH   7   8
ATOM      8  C   UNL     1     -15.985   4.929 -44.064  1.00  0.00     0.160 C 
ATOM      9  C   UNL     1     -15.540   6.049 -44.996  1.00  0.00     0.035 C 
ENDBRANCH   7   8
ENDBRANCH   1   7
BRANCH   2  10
ATOM     10  O   UNL     1     -18.687   4.060 -41.427  1.00  0.00    -0.385 OA
ATOM     11  H   UNL     1     -18.037   3.315 -41.523  1.00  0.00     0.211 HD
ENDBRANCH   2  10
BRANCH   3  12
ATOM     12  O   UNL     1     -19.468   6.556 -42.281  1.00  0.00    -0.387 OA
ATOM     13  H   UNL     1     -18.752   6.532 -42.968  1.00  0.00     0.211 HD
ENDBRANCH   3  12
BRANCH   5  14
ATOM     14  C   UNL     1     -15.861   8.918 -41.448  1.00  0.00     0.191 C 
BRANCH  14  15
ATOM     15  O   UNL     1     -16.558   9.882 -40.706  1.00  0.00    -0.394 OA
ATOM     16  H   UNL     1     -17.181   9.389 -40.112  1.00  0.00     0.210 HD
ENDBRANCH  14  15
ENDBRANCH   5  14
BRANCH   4  17
ATOM     17  O   UNL     1     -17.545   7.692 -39.417  1.00  0.00    -0.387 OA
ATOM     18  H   UNL     1     -17.314   8.631 -39.189  1.00  0.00     0.211 HD
ENDBRANCH   4  17
TORSDOF 7
ENDMDL
MODEL 6
REMARK VINA RESULT:    -4.777      9.066     10.788
REMARK INTER + INTRA:          -6.445
REMARK INTER:                  -6.000
REMARK INTRA:                  -0.445
REMARK UNBOUND:                -0.272
REMARK SMILES CCO[C@H]1O[C@H](CO)[C@H](O)[C@@H](O)[C@H]1O
REMARK SMILES IDX 4 1 13 2 11 3 9 4 6 5 5 6 3 7 2 8 1 9 14 10 12 12 7 14 8 15
REMARK SMILES IDX 10 17
REMARK H PARENT 14 11 12 13 8 16 10 18
REMARK Flexibility Score: inf
ROOT
ATOM      1  C   UNL     1     -11.063  -0.838 -39.672  1.00  0.00     0.281 C 
ATOM      2  C   UNL     1     -10.367  -0.224 -40.904  1.00  0.00     0.202 C 
ATOM      3  C   UNL     1      -9.272  -1.159 -41.451  1.00  0.00     0.179 C 
ATOM      4  C   UNL     1      -8.350  -1.617 -40.304  1.00  0.00     0.177 C 
ATOM      5  C   UNL     1      -9.205  -2.177 -39.147  1.00  0.00     0.178 C 
ATOM      6  O   UNL     1     -10.115  -1.195 -38.674  1.00  0.00    -0.341 OA
ENDROOT
BRANCH   1   7
ATOM      7  O   UNL     1     -11.856  -1.953 -40.056  1.00  0.00    -0.350 OA
BRANCH   7   8
ATOM      8  C   UNL     1     -13.084  -1.973 -39.352  1.00  0.00     0.160 C 
ATOM      9  C   UNL     1     -14.186  -1.350 -40.199  1.00  0.00     0.035 C 
ENDBRANCH   7   8
ENDBRANCH   1   7
BRANCH   2  10
ATOM     10  O   UNL     1     -11.322   0.053 -41.897  1.00  0.00    -0.385 OA
ATOM     11  H   UNL     1     -10.822   0.187 -42.744  1.00  0.00     0.211 HD
ENDBRANCH   2  10
BRANCH   3  12
ATOM     12  O   UNL     1      -9.861  -2.271 -42.077  1.00  0.00    -0.387 OA
ATOM     13  H   UNL     1     -10.422  -2.721 -41.392  1.00  0.00     0.211 HD
ENDBRANCH   3  12
BRANCH   5  14
ATOM     14  C   UNL     1      -8.319  -2.638 -37.981  1.00  0.00     0.191 C 
BRANCH  14  15
ATOM     15  O   UNL     1      -7.040  -2.978 -38.445  1.00  0.00    -0.394 OA
ATOM     16  H   UNL     1      -6.405  -2.344 -38.020  1.00  0.00     0.210 HD
ENDBRANCH  14  15
ENDBRANCH   5  14
BRANCH   4  17
ATOM     17  O   UNL     1      -7.580  -0.532 -39.848  1.00  0.00    -0.387 OA
ATOM     18  H   UNL     1      -7.276  -0.762 -38.931  1.00  0.00     0.211 HD
ENDBRANCH   4  17
TORSDOF 7
ENDMDL
MODEL 7
REMARK VINA RESULT:    -4.761      1.539      3.619
REMARK INTER + INTRA:          -6.425
REMARK INTER:                  -6.039
REMARK INTRA:                  -0.386
REMARK UNBOUND:                -0.272
REMARK SMILES CCO[C@H]1O[C@H](CO)[C@H](O)[C@@H](O)[C@H]1O
REMARK SMILES IDX 4 1 13 2 11 3 9 4 6 5 5 6 3 7 2 8 1 9 14 10 12 12 7 14 8 15
REMARK SMILES IDX 10 17
REMARK H PARENT 14 11 12 13 8 16 10 18
REMARK Flexibility Score: inf
ROOT
ATOM      1  C   UNL     1     -17.795   6.611 -43.104  1.00  0.00     0.281 C 
ATOM      2  C   UNL     1     -17.813   7.865 -42.205  1.00  0.00     0.202 C 
ATOM      3  C   UNL     1     -16.812   7.732 -41.041  1.00  0.00     0.179 C 
ATOM      4  C   UNL     1     -17.008   6.379 -40.330  1.00  0.00     0.177 C 
ATOM      5  C   UNL     1     -16.992   5.241 -41.373  1.00  0.00     0.178 C 
ATOM      6  O   UNL     1     -18.013   5.432 -42.340  1.00  0.00    -0.341 OA
ENDROOT
BRANCH   1   7
ATOM      7  O   UNL     1     -16.577   6.541 -43.831  1.00  0.00    -0.350 OA
BRANCH   7   8
ATOM      8  C   UNL     1     -16.718   5.738 -44.988  1.00  0.00     0.160 C 
ATOM      9  C   UNL     1     -15.478   4.875 -45.184  1.00  0.00     0.035 C 
ENDBRANCH   7   8
ENDBRANCH   1   7
BRANCH   2  10
ATOM     10  O   UNL     1     -17.527   9.003 -42.977  1.00  0.00    -0.385 OA
ATOM     11  H   UNL     1     -17.161   8.677 -43.841  1.00  0.00     0.211 HD
ENDBRANCH   2  10
BRANCH   3  12
ATOM     12  O   UNL     1     -15.497   7.841 -41.527  1.00  0.00    -0.387 OA
ATOM     13  H   UNL     1     -15.138   8.704 -41.191  1.00  0.00     0.211 HD
ENDBRANCH   3  12
BRANCH   5  14
ATOM     14  C   UNL     1     -17.192   3.875 -40.700  1.00  0.00     0.191 C 
BRANCH  14  15
ATOM     15  O   UNL     1     -18.540   3.493 -40.764  1.00  0.00    -0.394 OA
ATOM     16  H   UNL     1     -18.584   2.705 -41.366  1.00  0.00     0.210 HD
ENDBRANCH  14  15
ENDBRANCH   5  14
BRANCH   4  17
ATOM     17  O   UNL     1     -18.233   6.377 -39.639  1.00  0.00    -0.387 OA
ATOM     18  H   UNL     1     -18.328   7.272 -39.220  1.00  0.00     0.211 HD
ENDBRANCH   4  17
TORSDOF 7
ENDMDL
MODEL 8
REMARK VINA RESULT:    -4.709      1.698      3.755
REMARK INTER + INTRA:          -6.358
REMARK INTER:                  -5.959
REMARK INTRA:                  -0.399
REMARK UNBOUND:                -0.272
REMARK SMILES CCO[C@H]1O[C@H](CO)[C@H](O)[C@@H](O)[C@H]1O
REMARK SMILES IDX 4 1 13 2 11 3 9 4 6 5 5 6 3 7 2 8 1 9 14 10 12 12 7 14 8 15
REMARK SMILES IDX 10 17
REMARK H PARENT 14 11 12 13 8 16 10 18
REMARK Flexibility Score: inf
ROOT
ATOM      1  C   UNL     1     -15.792   6.056 -42.141  1.00  0.00     0.281 C 
ATOM      2  C   UNL     1     -16.429   5.520 -40.842  1.00  0.00     0.202 C 
ATOM      3  C   UNL     1     -17.866   5.022 -41.089  1.00  0.00     0.179 C 
ATOM      4  C   UNL     1     -18.670   6.092 -41.853  1.00  0.00     0.177 C 
ATOM      5  C   UNL     1     -17.880   6.536 -43.103  1.00  0.00     0.178 C 
ATOM      6  O   UNL     1     -16.610   7.054 -42.738  1.00  0.00    -0.341 OA
ENDROOT
BRANCH   1   7
ATOM      7  O   UNL     1     -15.534   4.989 -43.043  1.00  0.00    -0.350 OA
BRANCH   7   8
ATOM      8  C   UNL     1     -14.489   5.319 -43.939  1.00  0.00     0.160 C 
ATOM      9  C   UNL     1     -14.882   4.950 -45.364  1.00  0.00     0.035 C 
ENDBRANCH   7   8
ENDBRANCH   1   7
BRANCH   2  10
ATOM     10  O   UNL     1     -15.632   4.490 -40.316  1.00  0.00    -0.385 OA
ATOM     11  H   UNL     1     -16.069   4.192 -39.475  1.00  0.00     0.211 HD
ENDBRANCH   2  10
BRANCH   3  12
ATOM     12  O   UNL     1     -17.837   3.821 -41.820  1.00  0.00    -0.387 OA
ATOM     13  H   UNL     1     -17.924   4.066 -42.778  1.00  0.00     0.211 HD
ENDBRANCH   3  12
BRANCH   5  14
ATOM     14  C   UNL     1     -18.649   7.610 -43.887  1.00  0.00     0.191 C 
BRANCH  14  15
ATOM     15  O   UNL     1     -18.589   8.840 -43.216  1.00  0.00    -0.394 OA
ATOM     16  H   UNL     1     -18.057   8.689 -42.392  1.00  0.00     0.210 HD
ENDBRANCH  14  15
ENDBRANCH   5  14
BRANCH   4  17
ATOM     17  O   UNL     1     -18.904   7.199 -41.018  1.00  0.00    -0.387 OA
ATOM     18  H   UNL     1     -19.886   7.345 -41.004  1.00  0.00     0.211 HD
ENDBRANCH   4  17
TORSDOF 7
ENDMDL
MODEL 9
REMARK VINA RESULT:    -4.583      8.311     10.074
REMARK INTER + INTRA:          -6.194
REMARK INTER:                  -5.735
REMARK INTRA:                  -0.460
REMARK UNBOUND:                -0.272
REMARK SMILES CCO[C@H]1O[C@H](CO)[C@H](O)[C@@H](O)[C@H]1O
REMARK SMILES IDX 4 1 13 2 11 3 9 4 6 5 5 6 3 7 2 8 1 9 14 10 12 12 7 14 8 15
REMARK SMILES IDX 10 17
REMARK H PARENT 14 11 12 13 8 16 10 18
REMARK Flexibility Score: inf
ROOT
ATOM      1  C   UNL     1     -10.879   0.184 -41.059  1.00  0.00     0.281 C 
ATOM      2  C   UNL     1     -11.745  -1.060 -40.766  1.00  0.00     0.202 C 
ATOM      3  C   UNL     1     -11.162  -1.885 -39.603  1.00  0.00     0.179 C 
ATOM      4  C   UNL     1      -9.661  -2.139 -39.839  1.00  0.00     0.177 C 
ATOM      5  C   UNL     1      -8.952  -0.801 -40.144  1.00  0.00     0.178 C 
ATOM      6  O   UNL     1      -9.523  -0.180 -41.286  1.00  0.00    -0.341 OA
ENDROOT
BRANCH   1   7
ATOM      7  O   UNL     1     -10.994   1.126 -40.003  1.00  0.00    -0.350 OA
BRANCH   7   8
ATOM      8  C   UNL     1     -10.856   2.451 -40.484  1.00  0.00     0.160 C 
ATOM      9  C   UNL     1     -12.075   2.839 -41.311  1.00  0.00     0.035 C 
ENDBRANCH   7   8
ENDBRANCH   1   7
BRANCH   2  10
ATOM     10  O   UNL     1     -13.061  -0.661 -40.479  1.00  0.00    -0.385 OA
ATOM     11  H   UNL     1     -13.065   0.332 -40.480  1.00  0.00     0.211 HD
ENDBRANCH   2  10
BRANCH   3  12
ATOM     12  O   UNL     1     -11.356  -1.203 -38.389  1.00  0.00    -0.387 OA
ATOM     13  H   UNL     1     -11.527  -0.252 -38.618  1.00  0.00     0.211 HD
ENDBRANCH   3  12
BRANCH   5  14
ATOM     14  C   UNL     1      -7.452  -1.017 -40.393  1.00  0.00     0.191 C 
BRANCH  14  15
ATOM     15  O   UNL     1      -7.204  -1.183 -41.763  1.00  0.00    -0.394 OA
ATOM     16  H   UNL     1      -6.424  -0.609 -41.983  1.00  0.00     0.210 HD
ENDBRANCH  14  15
ENDBRANCH   5  14
BRANCH   4  17
ATOM     17  O   UNL     1      -9.490  -3.027 -40.917  1.00  0.00    -0.387 OA
ATOM     18  H   UNL     1     -10.040  -3.829 -40.716  1.00  0.00     0.211 HD
ENDBRANCH   4  17
TORSDOF 7
ENDMDL
