MODEL 1
REMARK VINA RESULT:    -4.144      0.000      0.000
REMARK INTER + INTRA:          -6.535
REMARK INTER:                  -6.082
REMARK INTRA:                  -0.453
REMARK UNBOUND:                -0.453
REMARK SMILES O=C([O-])CCCCCCCC(=O)[O-]
REMARK SMILES IDX 7 1 6 2 5 3 4 4 2 5 1 6 3 7 8 8 9 9 10 10 11 11 12 12 13 13
REMARK H PARENT
REMARK Flexibility Score: inf
ROOT
ATOM      1  C   UNL     1      17.182 -44.124  27.018  1.00  0.00     0.000 C 
ENDROOT
BRANCH   1   2
ATOM      2  C   UNL     1      17.775 -44.110  25.601  1.00  0.00     0.000 C 
BRANCH   2   3
ATOM      3  C   UNL     1      18.713 -42.911  25.411  1.00  0.00     0.006 C 
BRANCH   3   4
ATOM      4  C   UNL     1      18.335 -41.763  26.352  1.00  0.00     0.053 C 
BRANCH   4   5
ATOM      5  C   UNL     1      18.420 -40.452  25.637  1.00  0.00     0.041 C 
ATOM      6  O   UNL     1      18.705 -39.402  26.271  1.00  0.00    -0.550 OA
ATOM      7  O   UNL     1      18.138 -40.379  24.279  1.00  0.00    -0.550 OA
ENDBRANCH   4   5
ENDBRANCH   3   4
ENDBRANCH   2   3
ENDBRANCH   1   2
BRANCH   1   8
ATOM      8  C   UNL     1      17.142 -45.534  27.630  1.00  0.00     0.000 C 
BRANCH   8   9
ATOM      9  C   UNL     1      17.353 -45.525  29.154  1.00  0.00     0.006 C 
BRANCH   9  10
ATOM     10  C   UNL     1      17.990 -44.217  29.643  1.00  0.00     0.053 C 
BRANCH  10  11
ATOM     11  C   UNL     1      18.916 -44.446  30.799  1.00  0.00     0.041 C 
ATOM     12  O   UNL     1      20.137 -44.157  30.698  1.00  0.00    -0.550 OA
ATOM     13  O   UNL     1      18.436 -45.006  31.976  1.00  0.00    -0.550 OA
ENDBRANCH  10  11
ENDBRANCH   9  10
ENDBRANCH   8   9
ENDBRANCH   1   8
TORSDOF 8
ENDMDL
MODEL 2
REMARK VINA RESULT:    -4.088      1.783      6.088
REMARK INTER + INTRA:          -6.453
REMARK INTER:                  -5.883
REMARK INTRA:                  -0.570
REMARK UNBOUND:                -0.453
REMARK SMILES O=C([O-])CCCCCCCC(=O)[O-]
REMARK SMILES IDX 7 1 6 2 5 3 4 4 2 5 1 6 3 7 8 8 9 9 10 10 11 11 12 12 13 13
REMARK H PARENT
REMARK Flexibility Score: inf
ROOT
ATOM      1  C   UNL     1      18.648 -43.254  25.304  1.00  0.00     0.000 C 
ENDROOT
BRANCH   1   2
ATOM      2  C   UNL     1      17.611 -44.361  25.550  1.00  0.00     0.000 C 
BRANCH   2   3
ATOM      3  C   UNL     1      17.001 -44.239  26.952  1.00  0.00     0.006 C 
BRANCH   3   4
ATOM      4  C   UNL     1      17.232 -45.516  27.765  1.00  0.00     0.053 C 
BRANCH   4   5
ATOM      5  C   UNL     1      17.172 -45.222  29.230  1.00  0.00     0.041 C 
ATOM      6  O   UNL     1      18.232 -45.028  29.881  1.00  0.00    -0.550 OA
ATOM      7  O   UNL     1      15.949 -45.211  29.889  1.00  0.00    -0.550 OA
ENDBRANCH   4   5
ENDBRANCH   3   4
ENDBRANCH   2   3
ENDBRANCH   1   2
BRANCH   1   8
ATOM      8  C   UNL     1      18.509 -42.083  26.291  1.00  0.00     0.000 C 
BRANCH   8   9
ATOM      9  C   UNL     1      18.458 -40.717  25.585  1.00  0.00     0.006 C 
BRANCH   9  10
ATOM     10  C   UNL     1      17.625 -40.761  24.297  1.00  0.00     0.053 C 
BRANCH  10  11
ATOM     11  C   UNL     1      16.157 -40.657  24.578  1.00  0.00     0.041 C 
ATOM     12  O   UNL     1      15.412 -41.663  24.434  1.00  0.00    -0.550 OA
ATOM     13  O   UNL     1      15.607 -39.443  24.970  1.00  0.00    -0.550 OA
ENDBRANCH  10  11
ENDBRANCH   9  10
ENDBRANCH   8   9
ENDBRANCH   1   8
TORSDOF 8
ENDMDL
MODEL 3
REMARK VINA RESULT:    -4.065      1.022      5.836
REMARK INTER + INTRA:          -6.419
REMARK INTER:                  -6.093
REMARK INTRA:                  -0.326
REMARK UNBOUND:                -0.453
REMARK SMILES O=C([O-])CCCCCCCC(=O)[O-]
REMARK SMILES IDX 7 1 6 2 5 3 4 4 2 5 1 6 3 7 8 8 9 9 10 10 11 11 12 12 13 13
REMARK H PARENT
REMARK Flexibility Score: inf
ROOT
ATOM      1  C   UNL     1      17.614 -44.585  25.707  1.00  0.00     0.000 C 
ENDROOT
BRANCH   1   2
ATOM      2  C   UNL     1      17.224 -45.452  26.914  1.00  0.00     0.000 C 
BRANCH   2   3
ATOM      3  C   UNL     1      17.123 -44.605  28.188  1.00  0.00     0.006 C 
BRANCH   3   4
ATOM      4  C   UNL     1      17.592 -45.396  29.413  1.00  0.00     0.053 C 
BRANCH   4   5
ATOM      5  C   UNL     1      18.245 -44.488  30.405  1.00  0.00     0.041 C 
ATOM      6  O   UNL     1      19.500 -44.467  30.514  1.00  0.00    -0.550 OA
ATOM      7  O   UNL     1      17.468 -43.698  31.244  1.00  0.00    -0.550 OA
ENDBRANCH   4   5
ENDBRANCH   3   4
ENDBRANCH   2   3
ENDBRANCH   1   2
BRANCH   1   8
ATOM      8  C   UNL     1      17.590 -43.081  26.026  1.00  0.00     0.000 C 
BRANCH   8   9
ATOM      9  C   UNL     1      18.765 -42.321  25.386  1.00  0.00     0.006 C 
BRANCH   9  10
ATOM     10  C   UNL     1      18.289 -41.205  24.446  1.00  0.00     0.053 C 
BRANCH  10  11
ATOM     11  C   UNL     1      18.547 -39.845  25.020  1.00  0.00     0.041 C 
ATOM     12  O   UNL     1      18.722 -38.859  24.256  1.00  0.00    -0.550 OA
ATOM     13  O   UNL     1      18.623 -39.672  26.396  1.00  0.00    -0.550 OA
ENDBRANCH  10  11
ENDBRANCH   9  10
ENDBRANCH   8   9
ENDBRANCH   1   8
TORSDOF 8
ENDMDL
MODEL 4
REMARK VINA RESULT:    -4.057      2.006      5.406
REMARK INTER + INTRA:          -6.408
REMARK INTER:                  -5.938
REMARK INTRA:                  -0.470
REMARK UNBOUND:                -0.453
REMARK SMILES O=C([O-])CCCCCCCC(=O)[O-]
REMARK SMILES IDX 7 1 6 2 5 3 4 4 2 5 1 6 3 7 8 8 9 9 10 10 11 11 12 12 13 13
REMARK H PARENT
REMARK Flexibility Score: inf
ROOT
ATOM      1  C   UNL     1      17.870 -44.007  25.467  1.00  0.00     0.000 C 
ENDROOT
BRANCH   1   2
ATOM      2  C   UNL     1      17.164 -44.086  26.829  1.00  0.00     0.000 C 
BRANCH   2   3
ATOM      3  C   UNL     1      17.248 -45.503  27.409  1.00  0.00     0.006 C 
BRANCH   3   4
ATOM      4  C   UNL     1      17.371 -45.466  28.935  1.00  0.00     0.053 C 
BRANCH   4   5
ATOM      5  C   UNL     1      16.061 -45.101  29.557  1.00  0.00     0.041 C 
ATOM      6  O   UNL     1      16.025 -44.341  30.561  1.00  0.00    -0.550 OA
ATOM      7  O   UNL     1      14.880 -45.638  29.059  1.00  0.00    -0.550 OA
ENDBRANCH   4   5
ENDBRANCH   3   4
ENDBRANCH   2   3
ENDBRANCH   1   2
BRANCH   1   8
ATOM      8  C   UNL     1      18.836 -42.815  25.368  1.00  0.00     0.000 C 
BRANCH   8   9
ATOM      9  C   UNL     1      18.152 -41.539  24.848  1.00  0.00     0.006 C 
BRANCH   9  10
ATOM     10  C   UNL     1      18.482 -40.313  25.709  1.00  0.00     0.053 C 
BRANCH  10  11
ATOM     11  C   UNL     1      17.855 -40.401  27.068  1.00  0.00     0.041 C 
ATOM     12  O   UNL     1      16.623 -40.634  27.183  1.00  0.00    -0.550 OA
ATOM     13  O   UNL     1      18.626 -40.197  28.206  1.00  0.00    -0.550 OA
ENDBRANCH  10  11
ENDBRANCH   9  10
ENDBRANCH   8   9
ENDBRANCH   1   8
TORSDOF 8
ENDMDL
MODEL 5
REMARK VINA RESULT:    -4.052      1.618      1.740
REMARK INTER + INTRA:          -6.399
REMARK INTER:                  -5.884
REMARK INTRA:                  -0.516
REMARK UNBOUND:                -0.453
REMARK SMILES O=C([O-])CCCCCCCC(=O)[O-]
REMARK SMILES IDX 7 1 6 2 5 3 4 4 2 5 1 6 3 7 8 8 9 9 10 10 11 11 12 12 13 13
REMARK H PARENT
REMARK Flexibility Score: inf
ROOT
ATOM      1  C   UNL     1      17.129 -44.126  26.875  1.00  0.00     0.000 C 
ENDROOT
BRANCH   1   2
ATOM      2  C   UNL     1      17.820 -44.142  25.503  1.00  0.00     0.000 C 
BRANCH   2   3
ATOM      3  C   UNL     1      18.750 -42.932  25.344  1.00  0.00     0.006 C 
BRANCH   3   4
ATOM      4  C   UNL     1      18.363 -41.811  26.313  1.00  0.00     0.053 C 
BRANCH   4   5
ATOM      5  C   UNL     1      18.417 -40.484  25.626  1.00  0.00     0.041 C 
ATOM      6  O   UNL     1      18.702 -39.444  26.277  1.00  0.00    -0.550 OA
ATOM      7  O   UNL     1      18.106 -40.386  24.275  1.00  0.00    -0.550 OA
ENDBRANCH   4   5
ENDBRANCH   3   4
ENDBRANCH   2   3
ENDBRANCH   1   2
BRANCH   1   8
ATOM      8  C   UNL     1      17.139 -45.503  27.560  1.00  0.00     0.000 C 
BRANCH   8   9
ATOM      9  C   UNL     1      17.546 -45.425  29.041  1.00  0.00     0.006 C 
BRANCH   9  10
ATOM     10  C   UNL     1      17.309 -44.030  29.634  1.00  0.00     0.053 C 
BRANCH  10  11
ATOM     11  C   UNL     1      16.147 -44.015  30.580  1.00  0.00     0.041 C 
ATOM     12  O   UNL     1      15.975 -43.040  31.358  1.00  0.00    -0.550 OA
ATOM     13  O   UNL     1      15.270 -45.092  30.623  1.00  0.00    -0.550 OA
ENDBRANCH  10  11
ENDBRANCH   9  10
ENDBRANCH   8   9
ENDBRANCH   1   8
TORSDOF 8
ENDMDL
MODEL 6
REMARK VINA RESULT:    -4.025      1.735      2.740
REMARK INTER + INTRA:          -6.360
REMARK INTER:                  -5.846
REMARK INTRA:                  -0.515
REMARK UNBOUND:                -0.453
REMARK SMILES O=C([O-])CCCCCCCC(=O)[O-]
REMARK SMILES IDX 7 1 6 2 5 3 4 4 2 5 1 6 3 7 8 8 9 9 10 10 11 11 12 12 13 13
REMARK H PARENT
REMARK Flexibility Score: inf
ROOT
ATOM      1  C   UNL     1      18.664 -42.928  25.410  1.00  0.00     0.000 C 
ENDROOT
BRANCH   1   2
ATOM      2  C   UNL     1      18.374 -41.994  26.596  1.00  0.00     0.000 C 
BRANCH   2   3
ATOM      3  C   UNL     1      18.366 -40.527  26.148  1.00  0.00     0.006 C 
BRANCH   3   4
ATOM      4  C   UNL     1      17.807 -40.389  24.729  1.00  0.00     0.053 C 
BRANCH   4   5
ATOM      5  C   UNL     1      16.318 -40.252  24.763  1.00  0.00     0.041 C 
ATOM      6  O   UNL     1      15.781 -39.336  25.440  1.00  0.00    -0.550 OA
ATOM      7  O   UNL     1      15.519 -41.166  24.088  1.00  0.00    -0.550 OA
ENDBRANCH   4   5
ENDBRANCH   3   4
ENDBRANCH   2   3
ENDBRANCH   1   2
BRANCH   1   8
ATOM      8  C   UNL     1      17.870 -44.243  25.484  1.00  0.00     0.000 C 
BRANCH   8   9
ATOM      9  C   UNL     1      16.904 -44.286  26.681  1.00  0.00     0.006 C 
BRANCH   9  10
ATOM     10  C   UNL     1      17.138 -45.514  27.570  1.00  0.00     0.053 C 
BRANCH  10  11
ATOM     11  C   UNL     1      17.110 -45.161  29.027  1.00  0.00     0.041 C 
ATOM     12  O   UNL     1      16.010 -45.049  29.629  1.00  0.00    -0.550 OA
ATOM     13  O   UNL     1      18.296 -44.928  29.710  1.00  0.00    -0.550 OA
ENDBRANCH  10  11
ENDBRANCH   9  10
ENDBRANCH   8   9
ENDBRANCH   1   8
TORSDOF 8
ENDMDL
MODEL 7
REMARK VINA RESULT:    -4.016      1.159      5.587
REMARK INTER + INTRA:          -6.346
REMARK INTER:                  -5.822
REMARK INTRA:                  -0.525
REMARK UNBOUND:                -0.453
REMARK SMILES O=C([O-])CCCCCCCC(=O)[O-]
REMARK SMILES IDX 7 1 6 2 5 3 4 4 2 5 1 6 3 7 8 8 9 9 10 10 11 11 12 12 13 13
REMARK H PARENT
REMARK Flexibility Score: inf
ROOT
ATOM      1  C   UNL     1      17.114 -44.173  26.825  1.00  0.00     0.000 C 
ENDROOT
BRANCH   1   2
ATOM      2  C   UNL     1      17.127 -45.513  27.575  1.00  0.00     0.000 C 
BRANCH   2   3
ATOM      3  C   UNL     1      17.507 -45.313  29.048  1.00  0.00     0.006 C 
BRANCH   3   4
ATOM      4  C   UNL     1      17.682 -43.826  29.373  1.00  0.00     0.053 C 
BRANCH   4   5
ATOM      5  C   UNL     1      17.191 -43.532  30.754  1.00  0.00     0.041 C 
ATOM      6  O   UNL     1      16.069 -43.960  31.134  1.00  0.00    -0.550 OA
ATOM      7  O   UNL     1      17.950 -42.742  31.609  1.00  0.00    -0.550 OA
ENDBRANCH   4   5
ENDBRANCH   3   4
ENDBRANCH   2   3
ENDBRANCH   1   2
BRANCH   1   8
ATOM      8  C   UNL     1      17.896 -44.227  25.502  1.00  0.00     0.000 C 
BRANCH   8   9
ATOM      9  C   UNL     1      18.724 -42.955  25.250  1.00  0.00     0.006 C 
BRANCH   9  10
ATOM     10  C   UNL     1      18.362 -41.826  26.225  1.00  0.00     0.053 C 
BRANCH  10  11
ATOM     11  C   UNL     1      18.434 -40.480  25.570  1.00  0.00     0.041 C 
ATOM     12  O   UNL     1      18.708 -39.458  26.254  1.00  0.00    -0.550 OA
ATOM     13  O   UNL     1      18.169 -40.350  24.213  1.00  0.00    -0.550 OA
ENDBRANCH  10  11
ENDBRANCH   9  10
ENDBRANCH   8   9
ENDBRANCH   1   8
TORSDOF 8
ENDMDL
MODEL 8
REMARK VINA RESULT:    -3.947      1.583      5.163
REMARK INTER + INTRA:          -6.245
REMARK INTER:                  -5.590
REMARK INTRA:                  -0.655
REMARK UNBOUND:                -0.453
REMARK SMILES O=C([O-])CCCCCCCC(=O)[O-]
REMARK SMILES IDX 7 1 6 2 5 3 4 4 2 5 1 6 3 7 8 8 9 9 10 10 11 11 12 12 13 13
REMARK H PARENT
REMARK Flexibility Score: inf
ROOT
ATOM      1  C   UNL     1      17.294 -45.152  26.592  1.00  0.00     0.000 C 
ENDROOT
BRANCH   1   2
ATOM      2  C   UNL     1      16.607 -45.013  27.959  1.00  0.00     0.000 C 
BRANCH   2   3
ATOM      3  C   UNL     1      17.544 -45.454  29.090  1.00  0.00     0.006 C 
BRANCH   3   4
ATOM      4  C   UNL     1      17.433 -44.513  30.293  1.00  0.00     0.053 C 
BRANCH   4   5
ATOM      5  C   UNL     1      18.551 -44.760  31.256  1.00  0.00     0.041 C 
ATOM      6  O   UNL     1      18.319 -45.293  32.373  1.00  0.00    -0.550 OA
ATOM      7  O   UNL     1      19.843 -44.358  30.940  1.00  0.00    -0.550 OA
ENDBRANCH   4   5
ENDBRANCH   3   4
ENDBRANCH   2   3
ENDBRANCH   1   2
BRANCH   1   8
ATOM      8  C   UNL     1      17.133 -43.897  25.718  1.00  0.00     0.000 C 
BRANCH   8   9
ATOM      9  C   UNL     1      18.449 -43.116  25.556  1.00  0.00     0.006 C 
BRANCH   9  10
ATOM     10  C   UNL     1      18.343 -41.685  26.099  1.00  0.00     0.053 C 
BRANCH  10  11
ATOM     11  C   UNL     1      18.123 -41.667  27.582  1.00  0.00     0.041 C 
ATOM     12  O   UNL     1      19.011 -42.105  28.359  1.00  0.00    -0.550 OA
ATOM     13  O   UNL     1      16.925 -41.194  28.103  1.00  0.00    -0.550 OA
ENDBRANCH  10  11
ENDBRANCH   9  10
ENDBRANCH   8   9
ENDBRANCH   1   8
TORSDOF 8
ENDMDL
MODEL 9
REMARK VINA RESULT:    -3.919      2.018      2.626
REMARK INTER + INTRA:          -6.204
REMARK INTER:                  -5.550
REMARK INTRA:                  -0.654
REMARK UNBOUND:                -0.453
REMARK SMILES O=C([O-])CCCCCCCC(=O)[O-]
REMARK SMILES IDX 7 1 6 2 5 3 4 4 2 5 1 6 3 7 8 8 9 9 10 10 11 11 12 12 13 13
REMARK H PARENT
REMARK Flexibility Score: inf
ROOT
ATOM      1  C   UNL     1      17.891 -44.161  25.414  1.00  0.00     0.000 C 
ENDROOT
BRANCH   1   2
ATOM      2  C   UNL     1      18.710 -42.869  25.557  1.00  0.00     0.000 C 
BRANCH   2   3
ATOM      3  C   UNL     1      17.790 -41.652  25.717  1.00  0.00     0.006 C 
BRANCH   3   4
ATOM      4  C   UNL     1      18.307 -40.711  26.809  1.00  0.00     0.053 C 
BRANCH   4   5
ATOM      5  C   UNL     1      18.173 -41.348  28.155  1.00  0.00     0.041 C 
ATOM      6  O   UNL     1      17.034 -41.632  28.611  1.00  0.00    -0.550 OA
ATOM      7  O   UNL     1      19.303 -41.584  28.929  1.00  0.00    -0.550 OA
ENDBRANCH   4   5
ENDBRANCH   3   4
ENDBRANCH   2   3
ENDBRANCH   1   2
BRANCH   1   8
ATOM      8  C   UNL     1      16.800 -44.294  26.489  1.00  0.00     0.000 C 
BRANCH   8   9
ATOM      9  C   UNL     1      17.112 -45.396  27.516  1.00  0.00     0.006 C 
BRANCH   9  10
ATOM     10  C   UNL     1      16.188 -45.326  28.739  1.00  0.00     0.053 C 
BRANCH  10  11
ATOM     11  C   UNL     1      16.941 -44.978  29.988  1.00  0.00     0.041 C 
ATOM     12  O   UNL     1      16.350 -44.968  31.100  1.00  0.00    -0.550 OA
ATOM     13  O   UNL     1      18.286 -44.638  29.918  1.00  0.00    -0.550 OA
ENDBRANCH  10  11
ENDBRANCH   9  10
ENDBRANCH   8   9
ENDBRANCH   1   8
TORSDOF 8
ENDMDL
