MODEL 1
REMARK VINA RESULT:    -3.838      0.000      0.000
REMARK INTER + INTRA:          -5.847
REMARK INTER:                  -5.858
REMARK INTRA:                   0.010
REMARK UNBOUND:                 0.010
REMARK SMILES OC[C@@H]1O[C@@H](O[C@@]2(CO)O[C@@H](CO)[C@@H](O)[C@@H]2O)[C@H](O)[C@@H](O)[C@H]1O
REMARK SMILES IDX 6 1 5 2 3 3 22 4 4 5 20 6 18 7 2 8 1 9 23 11 21 13 19 15
REMARK SMILES IDX 7 17 16 18 10 19 14 20 11 21 8 22 9 23 17 25 15 27 12 29
REMARK SMILES IDX 13 30
REMARK H PARENT 1 10 23 12 21 14 19 16 9 24 17 26 15 28 13 31
REMARK Flexibility Score: inf
ROOT
ATOM      1  O   UNL     1      13.635  -6.974   5.119  1.00  0.00    -0.313 OA
ENDROOT
BRANCH   1   2
ATOM      2  C   UNL     1      12.821  -8.022   4.606  1.00  0.00     0.285 C 
ATOM      3  C   UNL     1      10.869  -6.712   4.743  1.00  0.00     0.178 C 
ATOM      4  C   UNL     1      10.263  -7.564   5.885  1.00  0.00     0.177 C 
ATOM      5  O   UNL     1      11.698  -7.507   3.906  1.00  0.00    -0.341 OA
ATOM      6  C   UNL     1      11.363  -8.295   6.683  1.00  0.00     0.179 C 
ATOM      7  C   UNL     1      12.383  -8.967   5.746  1.00  0.00     0.202 C 
BRANCH   3   8
ATOM      8  C   UNL     1       9.753  -6.110   3.875  1.00  0.00     0.191 C 
BRANCH   8   9
ATOM      9  O   UNL     1       8.511  -6.657   4.226  1.00  0.00    -0.394 OA
ATOM     10  H   UNL     1       8.607  -7.011   5.149  1.00  0.00     0.210 HD
ENDBRANCH   8   9
ENDBRANCH   3   8
BRANCH   4  11
ATOM     11  O   UNL     1       9.518  -6.754   6.761  1.00  0.00    -0.387 OA
ATOM     12  H   UNL     1      10.143  -6.083   7.146  1.00  0.00     0.211 HD
ENDBRANCH   4  11
BRANCH   6  13
ATOM     13  O   UNL     1      12.002  -7.455   7.617  1.00  0.00    -0.387 OA
ATOM     14  H   UNL     1      12.946  -7.336   7.345  1.00  0.00     0.211 HD
ENDBRANCH   6  13
BRANCH   7  15
ATOM     15  O   UNL     1      11.801 -10.124   5.199  1.00  0.00    -0.385 OA
ATOM     16  H   UNL     1      11.100  -9.822   4.563  1.00  0.00     0.211 HD
ENDBRANCH   7  15
ENDBRANCH   1   2
BRANCH   1  17
ATOM     17  C   UNL     1      14.994  -7.349   5.322  1.00  0.00     0.224 C 
ATOM     18  C   UNL     1      15.520  -6.555   6.524  1.00  0.00     0.208 C 
ATOM     19  O   UNL     1      15.807  -6.980   4.219  1.00  0.00    -0.337 OA
ATOM     20  C   UNL     1      17.000  -6.439   6.243  1.00  0.00     0.180 C 
ATOM     21  C   UNL     1      17.045  -6.493   4.707  1.00  0.00     0.179 C 
BRANCH  17  22
ATOM     22  C   UNL     1      15.097  -8.887   5.525  1.00  0.00     0.225 C 
BRANCH  22  23
ATOM     23  O   UNL     1      15.970  -9.206   6.577  1.00  0.00    -0.391 OA
ATOM     24  H   UNL     1      16.589  -9.903   6.235  1.00  0.00     0.210 HD
ENDBRANCH  22  23
ENDBRANCH  17  22
BRANCH  18  25
ATOM     25  O   UNL     1      15.215  -7.128   7.777  1.00  0.00    -0.385 OA
ATOM     26  H   UNL     1      15.972  -7.702   8.063  1.00  0.00     0.211 HD
ENDBRANCH  18  25
BRANCH  20  27
ATOM     27  O   UNL     1      17.526  -5.247   6.770  1.00  0.00    -0.387 OA
ATOM     28  H   UNL     1      18.108  -5.508   7.532  1.00  0.00     0.211 HD
ENDBRANCH  20  27
BRANCH  21  29
ATOM     29  C   UNL     1      17.335  -5.140   4.040  1.00  0.00     0.191 C 
BRANCH  29  30
ATOM     30  O   UNL     1      18.685  -4.803   4.204  1.00  0.00    -0.394 OA
ATOM     31  H   UNL     1      19.201  -5.625   3.998  1.00  0.00     0.210 HD
ENDBRANCH  29  30
ENDBRANCH  21  29
ENDBRANCH   1  17
TORSDOF 13
ENDMDL
MODEL 2
REMARK VINA RESULT:    -3.721      1.520      2.573
REMARK INTER + INTRA:          -5.669
REMARK INTER:                  -5.030
REMARK INTRA:                  -0.639
REMARK UNBOUND:                 0.010
REMARK SMILES OC[C@@H]1O[C@@H](O[C@@]2(CO)O[C@@H](CO)[C@@H](O)[C@@H]2O)[C@H](O)[C@@H](O)[C@H]1O
REMARK SMILES IDX 6 1 5 2 3 3 22 4 4 5 20 6 18 7 2 8 1 9 23 11 21 13 19 15
REMARK SMILES IDX 7 17 16 18 10 19 14 20 11 21 8 22 9 23 17 25 15 27 12 29
REMARK SMILES IDX 13 30
REMARK H PARENT 1 10 23 12 21 14 19 16 9 24 17 26 15 28 13 31
REMARK Flexibility Score: inf
ROOT
ATOM      1  O   UNL     1      14.903  -7.789   6.473  1.00  0.00    -0.313 OA
ENDROOT
BRANCH   1   2
ATOM      2  C   UNL     1      14.113  -6.683   6.052  1.00  0.00     0.285 C 
ATOM      3  C   UNL     1      12.101  -7.844   6.434  1.00  0.00     0.178 C 
ATOM      4  C   UNL     1      11.758  -7.939   4.927  1.00  0.00     0.177 C 
ATOM      5  O   UNL     1      12.854  -6.671   6.708  1.00  0.00    -0.341 OA
ATOM      6  C   UNL     1      13.029  -7.849   4.057  1.00  0.00     0.179 C 
ATOM      7  C   UNL     1      13.944  -6.700   4.517  1.00  0.00     0.202 C 
BRANCH   3   8
ATOM      8  C   UNL     1      10.815  -7.792   7.272  1.00  0.00     0.191 C 
BRANCH   8   9
ATOM      9  O   UNL     1       9.763  -7.246   6.523  1.00  0.00    -0.394 OA
ATOM     10  H   UNL     1       8.979  -7.839   6.661  1.00  0.00     0.210 HD
ENDBRANCH   8   9
ENDBRANCH   3   8
BRANCH   4  11
ATOM     11  O   UNL     1      11.093  -9.146   4.648  1.00  0.00    -0.387 OA
ATOM     12  H   UNL     1      10.141  -8.924   4.466  1.00  0.00     0.211 HD
ENDBRANCH   4  11
BRANCH   6  13
ATOM     13  O   UNL     1      13.732  -9.069   3.997  1.00  0.00    -0.387 OA
ATOM     14  H   UNL     1      13.360  -9.684   4.677  1.00  0.00     0.211 HD
ENDBRANCH   6  13
BRANCH   7  15
ATOM     15  O   UNL     1      13.386  -5.480   4.095  1.00  0.00    -0.385 OA
ATOM     16  H   UNL     1      13.629  -5.366   3.139  1.00  0.00     0.211 HD
ENDBRANCH   7  15
ENDBRANCH   1   2
BRANCH   1  17
ATOM     17  C   UNL     1      16.304  -7.528   6.474  1.00  0.00     0.224 C 
ATOM     18  C   UNL     1      16.515  -6.135   7.080  1.00  0.00     0.208 C 
ATOM     19  O   UNL     1      16.824  -7.467   5.155  1.00  0.00    -0.337 OA
ATOM     20  C   UNL     1      17.792  -5.661   6.425  1.00  0.00     0.180 C 
ATOM     21  C   UNL     1      17.770  -6.414   5.084  1.00  0.00     0.179 C 
BRANCH  17  22
ATOM     22  C   UNL     1      17.053  -8.643   7.255  1.00  0.00     0.225 C 
BRANCH  22  23
ATOM     23  O   UNL     1      16.574  -8.757   8.570  1.00  0.00    -0.391 OA
ATOM     24  H   UNL     1      15.903  -8.035   8.694  1.00  0.00     0.210 HD
ENDBRANCH  22  23
ENDBRANCH  17  22
BRANCH  18  25
ATOM     25  O   UNL     1      16.549  -6.114   8.490  1.00  0.00    -0.385 OA
ATOM     26  H   UNL     1      15.639  -5.915   8.832  1.00  0.00     0.211 HD
ENDBRANCH  18  25
BRANCH  20  27
ATOM     27  O   UNL     1      17.799  -4.264   6.274  1.00  0.00    -0.387 OA
ATOM     28  H   UNL     1      17.819  -4.085   5.298  1.00  0.00     0.211 HD
ENDBRANCH  20  27
BRANCH  21  29
ATOM     29  C   UNL     1      17.428  -5.531   3.875  1.00  0.00     0.191 C 
BRANCH  29  30
ATOM     30  O   UNL     1      18.143  -4.328   3.941  1.00  0.00    -0.394 OA
ATOM     31  H   UNL     1      18.934  -4.445   3.355  1.00  0.00     0.210 HD
ENDBRANCH  29  30
ENDBRANCH  21  29
ENDBRANCH   1  17
TORSDOF 13
ENDMDL
MODEL 3
REMARK VINA RESULT:    -3.449      3.658      6.639
REMARK INTER + INTRA:          -5.253
REMARK INTER:                  -4.919
REMARK INTRA:                  -0.335
REMARK UNBOUND:                 0.010
REMARK SMILES OC[C@@H]1O[C@@H](O[C@@]2(CO)O[C@@H](CO)[C@@H](O)[C@@H]2O)[C@H](O)[C@@H](O)[C@H]1O
REMARK SMILES IDX 6 1 5 2 3 3 22 4 4 5 20 6 18 7 2 8 1 9 23 11 21 13 19 15
REMARK SMILES IDX 7 17 16 18 10 19 14 20 11 21 8 22 9 23 17 25 15 27 12 29
REMARK SMILES IDX 13 30
REMARK H PARENT 1 10 23 12 21 14 19 16 9 24 17 26 15 28 13 31
REMARK Flexibility Score: inf
ROOT
ATOM      1  O   UNL     1       7.578  -7.523   5.908  1.00  0.00    -0.313 OA
ENDROOT
BRANCH   1   2
ATOM      2  C   UNL     1       6.599  -8.307   5.236  1.00  0.00     0.285 C 
ATOM      3  C   UNL     1       5.115  -6.487   5.059  1.00  0.00     0.178 C 
ATOM      4  C   UNL     1       4.099  -7.096   6.057  1.00  0.00     0.177 C 
ATOM      5  O   UNL     1       5.812  -7.510   4.362  1.00  0.00    -0.341 OA
ATOM      6  C   UNL     1       4.785  -8.089   7.018  1.00  0.00     0.179 C 
ATOM      7  C   UNL     1       5.716  -9.053   6.259  1.00  0.00     0.202 C 
BRANCH   3   8
ATOM      8  C   UNL     1       4.389  -5.615   4.024  1.00  0.00     0.191 C 
BRANCH   8   9
ATOM      9  O   UNL     1       3.031  -5.956   3.961  1.00  0.00    -0.394 OA
ATOM     10  H   UNL     1       2.716  -6.040   4.898  1.00  0.00     0.210 HD
ENDBRANCH   8   9
ENDBRANCH   3   8
BRANCH   4  11
ATOM     11  O   UNL     1       3.479  -6.081   6.808  1.00  0.00    -0.387 OA
ATOM     12  H   UNL     1       2.740  -6.503   7.322  1.00  0.00     0.211 HD
ENDBRANCH   4  11
BRANCH   6  13
ATOM     13  O   UNL     1       5.466  -7.443   8.069  1.00  0.00    -0.387 OA
ATOM     14  H   UNL     1       5.222  -6.484   8.066  1.00  0.00     0.211 HD
ENDBRANCH   6  13
BRANCH   7  15
ATOM     15  O   UNL     1       4.930 -10.008   5.591  1.00  0.00    -0.385 OA
ATOM     16  H   UNL     1       4.084 -10.097   6.104  1.00  0.00     0.211 HD
ENDBRANCH   7  15
ENDBRANCH   1   2
BRANCH   1  17
ATOM     17  C   UNL     1       8.818  -7.432   5.212  1.00  0.00     0.224 C 
ATOM     18  C   UNL     1       9.338  -8.860   5.001  1.00  0.00     0.208 C 
ATOM     19  O   UNL     1       9.802  -6.764   5.985  1.00  0.00    -0.337 OA
ATOM     20  C   UNL     1      10.837  -8.680   4.950  1.00  0.00     0.180 C 
ATOM     21  C   UNL     1      11.044  -7.424   5.814  1.00  0.00     0.179 C 
BRANCH  17  22
ATOM     22  C   UNL     1       8.624  -6.660   3.877  1.00  0.00     0.225 C 
BRANCH  22  23
ATOM     23  O   UNL     1       8.226  -5.334   4.106  1.00  0.00    -0.391 OA
ATOM     24  H   UNL     1       7.323  -5.373   4.520  1.00  0.00     0.210 HD
ENDBRANCH  22  23
ENDBRANCH  17  22
BRANCH  18  25
ATOM     25  O   UNL     1       8.798  -9.515   3.875  1.00  0.00    -0.385 OA
ATOM     26  H   UNL     1       7.827  -9.315   3.820  1.00  0.00     0.211 HD
ENDBRANCH  18  25
BRANCH  20  27
ATOM     27  O   UNL     1      11.503  -9.812   5.451  1.00  0.00    -0.387 OA
ATOM     28  H   UNL     1      11.002 -10.099   6.259  1.00  0.00     0.211 HD
ENDBRANCH  20  27
BRANCH  21  29
ATOM     29  C   UNL     1      11.642  -7.709   7.201  1.00  0.00     0.191 C 
BRANCH  29  30
ATOM     30  O   UNL     1      12.832  -6.989   7.368  1.00  0.00    -0.394 OA
ATOM     31  H   UNL     1      13.503  -7.427   6.783  1.00  0.00     0.210 HD
ENDBRANCH  29  30
ENDBRANCH  21  29
ENDBRANCH   1  17
TORSDOF 13
ENDMDL
MODEL 4
REMARK VINA RESULT:    -3.112      1.818      6.210
REMARK INTER + INTRA:          -4.738
REMARK INTER:                  -4.628
REMARK INTRA:                  -0.110
REMARK UNBOUND:                 0.010
REMARK SMILES OC[C@@H]1O[C@@H](O[C@@]2(CO)O[C@@H](CO)[C@@H](O)[C@@H]2O)[C@H](O)[C@@H](O)[C@H]1O
REMARK SMILES IDX 6 1 5 2 3 3 22 4 4 5 20 6 18 7 2 8 1 9 23 11 21 13 19 15
REMARK SMILES IDX 7 17 16 18 10 19 14 20 11 21 8 22 9 23 17 25 15 27 12 29
REMARK SMILES IDX 13 30
REMARK H PARENT 1 10 23 12 21 14 19 16 9 24 17 26 15 28 13 31
REMARK Flexibility Score: inf
ROOT
ATOM      1  O   UNL     1      14.386  -7.938   5.008  1.00  0.00    -0.313 OA
ENDROOT
BRANCH   1   2
ATOM      2  C   UNL     1      15.566  -7.306   4.525  1.00  0.00     0.285 C 
ATOM      3  C   UNL     1      16.942  -9.050   5.305  1.00  0.00     0.178 C 
ATOM      4  C   UNL     1      17.598  -8.173   6.399  1.00  0.00     0.177 C 
ATOM      5  O   UNL     1      16.560  -8.262   4.187  1.00  0.00    -0.341 OA
ATOM      6  C   UNL     1      16.678  -7.001   6.803  1.00  0.00     0.179 C 
ATOM      7  C   UNL     1      16.094  -6.295   5.565  1.00  0.00     0.202 C 
BRANCH   3   8
ATOM      8  C   UNL     1      17.929 -10.122   4.818  1.00  0.00     0.191 C 
BRANCH   8   9
ATOM      9  O   UNL     1      18.869  -9.562   3.942  1.00  0.00    -0.394 OA
ATOM     10  H   UNL     1      19.079  -8.658   4.293  1.00  0.00     0.210 HD
ENDBRANCH   8   9
ENDBRANCH   3   8
BRANCH   4  11
ATOM     11  O   UNL     1      17.889  -8.943   7.539  1.00  0.00    -0.387 OA
ATOM     12  H   UNL     1      17.728  -9.895   7.302  1.00  0.00     0.211 HD
ENDBRANCH   4  11
BRANCH   6  13
ATOM     13  O   UNL     1      15.660  -7.394   7.694  1.00  0.00    -0.387 OA
ATOM     14  H   UNL     1      16.006  -8.115   8.276  1.00  0.00     0.211 HD
ENDBRANCH   6  13
BRANCH   7  15
ATOM     15  O   UNL     1      17.099  -5.503   4.980  1.00  0.00    -0.385 OA
ATOM     16  H   UNL     1      16.666  -4.659   4.685  1.00  0.00     0.211 HD
ENDBRANCH   7  15
ENDBRANCH   1   2
BRANCH   1  17
ATOM     17  C   UNL     1      13.194  -7.199   4.757  1.00  0.00     0.224 C 
ATOM     18  C   UNL     1      12.488  -6.985   6.102  1.00  0.00     0.208 C 
ATOM     19  O   UNL     1      12.287  -7.930   3.947  1.00  0.00    -0.337 OA
ATOM     20  C   UNL     1      11.031  -6.880   5.716  1.00  0.00     0.180 C 
ATOM     21  C   UNL     1      10.972  -7.722   4.430  1.00  0.00     0.179 C 
BRANCH  17  22
ATOM     22  C   UNL     1      13.538  -5.862   4.040  1.00  0.00     0.225 C 
BRANCH  22  23
ATOM     23  O   UNL     1      12.397  -5.061   3.879  1.00  0.00    -0.391 OA
ATOM     24  H   UNL     1      12.645  -4.146   4.176  1.00  0.00     0.210 HD
ENDBRANCH  22  23
ENDBRANCH  17  22
BRANCH  18  25
ATOM     25  O   UNL     1      12.969  -5.886   6.843  1.00  0.00    -0.385 OA
ATOM     26  H   UNL     1      13.563  -6.218   7.565  1.00  0.00     0.211 HD
ENDBRANCH  18  25
BRANCH  20  27
ATOM     27  O   UNL     1      10.198  -7.369   6.737  1.00  0.00    -0.387 OA
ATOM     28  H   UNL     1      10.619  -8.205   7.068  1.00  0.00     0.211 HD
ENDBRANCH  20  27
BRANCH  21  29
ATOM     29  C   UNL     1      10.295  -9.090   4.608  1.00  0.00     0.191 C 
BRANCH  29  30
ATOM     30  O   UNL     1      11.229 -10.117   4.417  1.00  0.00    -0.394 OA
ATOM     31  H   UNL     1      10.772 -10.806   3.869  1.00  0.00     0.210 HD
ENDBRANCH  29  30
ENDBRANCH  21  29
ENDBRANCH   1  17
TORSDOF 13
ENDMDL
MODEL 5
REMARK VINA RESULT:    -3.037      1.773      3.814
REMARK INTER + INTRA:          -4.625
REMARK INTER:                  -4.004
REMARK INTRA:                  -0.620
REMARK UNBOUND:                 0.010
REMARK SMILES OC[C@@H]1O[C@@H](O[C@@]2(CO)O[C@@H](CO)[C@@H](O)[C@@H]2O)[C@H](O)[C@@H](O)[C@H]1O
REMARK SMILES IDX 6 1 5 2 3 3 22 4 4 5 20 6 18 7 2 8 1 9 23 11 21 13 19 15
REMARK SMILES IDX 7 17 16 18 10 19 14 20 11 21 8 22 9 23 17 25 15 27 12 29
REMARK SMILES IDX 13 30
REMARK H PARENT 1 10 23 12 21 14 19 16 9 24 17 26 15 28 13 31
REMARK Flexibility Score: inf
ROOT
ATOM      1  O   UNL     1      15.166  -6.694   5.893  1.00  0.00    -0.313 OA
ENDROOT
BRANCH   1   2
ATOM      2  C   UNL     1      14.283  -7.427   6.733  1.00  0.00     0.285 C 
ATOM      3  C   UNL     1      13.235  -8.466   4.900  1.00  0.00     0.178 C 
ATOM      4  C   UNL     1      11.900  -7.709   5.111  1.00  0.00     0.177 C 
ATOM      5  O   UNL     1      13.907  -8.659   6.136  1.00  0.00    -0.341 OA
ATOM      6  C   UNL     1      12.124  -6.381   5.863  1.00  0.00     0.179 C 
ATOM      7  C   UNL     1      13.044  -6.574   7.082  1.00  0.00     0.202 C 
BRANCH   3   8
ATOM      8  C   UNL     1      12.973  -9.847   4.279  1.00  0.00     0.191 C 
BRANCH   8   9
ATOM      9  O   UNL     1      11.595 -10.086   4.179  1.00  0.00    -0.394 OA
ATOM     10  H   UNL     1      11.271 -10.263   5.100  1.00  0.00     0.210 HD
ENDBRANCH   8   9
ENDBRANCH   3   8
BRANCH   4  11
ATOM     11  O   UNL     1      11.285  -7.442   3.875  1.00  0.00    -0.387 OA
ATOM     12  H   UNL     1      11.217  -8.304   3.386  1.00  0.00     0.211 HD
ENDBRANCH   4  11
BRANCH   6  13
ATOM     13  O   UNL     1      12.599  -5.356   5.022  1.00  0.00    -0.387 OA
ATOM     14  H   UNL     1      13.140  -4.726   5.560  1.00  0.00     0.211 HD
ENDBRANCH   6  13
BRANCH   7  15
ATOM     15  O   UNL     1      12.314  -7.205   8.105  1.00  0.00    -0.385 OA
ATOM     16  H   UNL     1      12.771  -6.992   8.961  1.00  0.00     0.211 HD
ENDBRANCH   7  15
ENDBRANCH   1   2
BRANCH   1  17
ATOM     17  C   UNL     1      16.545  -6.939   6.153  1.00  0.00     0.224 C 
ATOM     18  C   UNL     1      17.118  -7.695   4.948  1.00  0.00     0.208 C 
ATOM     19  O   UNL     1      16.720  -7.793   7.273  1.00  0.00    -0.337 OA
ATOM     20  C   UNL     1      18.247  -8.500   5.548  1.00  0.00     0.180 C 
ATOM     21  C   UNL     1      17.770  -8.702   6.996  1.00  0.00     0.179 C 
BRANCH  17  22
ATOM     22  C   UNL     1      17.282  -5.598   6.428  1.00  0.00     0.225 C 
BRANCH  22  23
ATOM     23  O   UNL     1      18.387  -5.439   5.577  1.00  0.00    -0.391 OA
ATOM     24  H   UNL     1      19.040  -4.866   6.060  1.00  0.00     0.210 HD
ENDBRANCH  22  23
ENDBRANCH  17  22
BRANCH  18  25
ATOM     25  O   UNL     1      17.508  -6.867   3.875  1.00  0.00    -0.385 OA
ATOM     26  H   UNL     1      18.498  -6.865   3.811  1.00  0.00     0.211 HD
ENDBRANCH  18  25
BRANCH  20  27
ATOM     27  O   UNL     1      18.436  -9.708   4.854  1.00  0.00    -0.387 OA
ATOM     28  H   UNL     1      18.054 -10.425   5.427  1.00  0.00     0.211 HD
ENDBRANCH  20  27
BRANCH  21  29
ATOM     29  C   UNL     1      17.278 -10.125   7.302  1.00  0.00     0.191 C 
BRANCH  29  30
ATOM     30  O   UNL     1      15.888 -10.125   7.478  1.00  0.00    -0.394 OA
ATOM     31  H   UNL     1      15.617  -9.172   7.527  1.00  0.00     0.210 HD
ENDBRANCH  29  30
ENDBRANCH  21  29
ENDBRANCH   1  17
TORSDOF 13
ENDMDL
MODEL 6
REMARK VINA RESULT:    -2.577      1.347      6.246
REMARK INTER + INTRA:          -3.923
REMARK INTER:                  -3.886
REMARK INTRA:                  -0.037
REMARK UNBOUND:                 0.010
REMARK SMILES OC[C@@H]1O[C@@H](O[C@@]2(CO)O[C@@H](CO)[C@@H](O)[C@@H]2O)[C@H](O)[C@@H](O)[C@H]1O
REMARK SMILES IDX 6 1 5 2 3 3 22 4 4 5 20 6 18 7 2 8 1 9 23 11 21 13 19 15
REMARK SMILES IDX 7 17 16 18 10 19 14 20 11 21 8 22 9 23 17 25 15 27 12 29
REMARK SMILES IDX 13 30
REMARK H PARENT 1 10 23 12 21 14 19 16 9 24 17 26 15 28 13 31
REMARK Flexibility Score: inf
ROOT
ATOM      1  O   UNL     1      14.263  -6.708   5.882  1.00  0.00    -0.313 OA
ENDROOT
BRANCH   1   2
ATOM      2  C   UNL     1      15.335  -7.560   6.268  1.00  0.00     0.285 C 
ATOM      3  C   UNL     1      16.609  -5.756   7.084  1.00  0.00     0.178 C 
ATOM      4  C   UNL     1      17.669  -5.872   5.961  1.00  0.00     0.177 C 
ATOM      5  O   UNL     1      16.043  -7.026   7.377  1.00  0.00    -0.341 OA
ATOM      6  C   UNL     1      17.082  -6.549   4.705  1.00  0.00     0.179 C 
ATOM      7  C   UNL     1      16.278  -7.811   5.072  1.00  0.00     0.202 C 
BRANCH   3   8
ATOM      8  C   UNL     1      17.251  -5.212   8.370  1.00  0.00     0.191 C 
BRANCH   8   9
ATOM      9  O   UNL     1      18.101  -4.136   8.076  1.00  0.00    -0.394 OA
ATOM     10  H   UNL     1      17.550  -3.463   7.599  1.00  0.00     0.210 HD
ENDBRANCH   8   9
ENDBRANCH   3   8
BRANCH   4  11
ATOM     11  O   UNL     1      18.159  -4.601   5.613  1.00  0.00    -0.387 OA
ATOM     12  H   UNL     1      18.918  -4.737   4.986  1.00  0.00     0.211 HD
ENDBRANCH   4  11
BRANCH   6  13
ATOM     13  O   UNL     1      16.314  -5.664   3.922  1.00  0.00    -0.387 OA
ATOM     14  H   UNL     1      16.767  -4.785   3.897  1.00  0.00     0.211 HD
ENDBRANCH   6  13
BRANCH   7  15
ATOM     15  O   UNL     1      17.178  -8.843   5.392  1.00  0.00    -0.385 OA
ATOM     16  H   UNL     1      17.941  -8.768   4.761  1.00  0.00     0.211 HD
ENDBRANCH   7  15
ENDBRANCH   1   2
BRANCH   1  17
ATOM     17  C   UNL     1      13.145  -7.403   5.338  1.00  0.00     0.224 C 
ATOM     18  C   UNL     1      12.033  -6.376   5.095  1.00  0.00     0.208 C 
ATOM     19  O   UNL     1      12.618  -8.345   6.259  1.00  0.00    -0.337 OA
ATOM     20  C   UNL     1      10.769  -7.194   5.225  1.00  0.00     0.180 C 
ATOM     21  C   UNL     1      11.203  -8.314   6.187  1.00  0.00     0.179 C 
BRANCH  17  22
ATOM     22  C   UNL     1      13.563  -8.153   4.042  1.00  0.00     0.225 C 
BRANCH  22  23
ATOM     23  O   UNL     1      13.328  -9.533   4.151  1.00  0.00    -0.391 OA
ATOM     24  H   UNL     1      12.689  -9.773   3.430  1.00  0.00     0.210 HD
ENDBRANCH  22  23
ENDBRANCH  17  22
BRANCH  18  25
ATOM     25  O   UNL     1      12.143  -5.677   3.875  1.00  0.00    -0.385 OA
ATOM     26  H   UNL     1      11.700  -6.203   3.160  1.00  0.00     0.211 HD
ENDBRANCH  18  25
BRANCH  20  27
ATOM     27  O   UNL     1       9.708  -6.417   5.724  1.00  0.00    -0.387 OA
ATOM     28  H   UNL     1       8.910  -7.008   5.741  1.00  0.00     0.211 HD
ENDBRANCH  20  27
BRANCH  21  29
ATOM     29  C   UNL     1      10.644  -8.169   7.610  1.00  0.00     0.191 C 
BRANCH  29  30
ATOM     30  O   UNL     1      11.626  -7.643   8.461  1.00  0.00    -0.394 OA
ATOM     31  H   UNL     1      12.355  -8.314   8.488  1.00  0.00     0.210 HD
ENDBRANCH  29  30
ENDBRANCH  21  29
ENDBRANCH   1  17
TORSDOF 13
ENDMDL
