MODEL 1
REMARK VINA RESULT:    -1.754      0.000      0.000
REMARK INTER + INTRA:          -1.754
REMARK INTER:                  -1.754
REMARK INTRA:                   0.000
REMARK UNBOUND:                 0.000
REMARK SMILES CC(=O)[O-]
REMARK SMILES IDX 1 1 2 2 3 3 4 4
REMARK H PARENT
REMARK Flexibility Score: inf
ROOT
ATOM      1  C   UNL     1      16.223   5.365   7.029  1.00  0.00     0.063 C 
ATOM      2  C   UNL     1      15.586   6.254   8.042  1.00  0.00     0.038 C 
ATOM      3  O   UNL     1      14.398   6.641   7.885  1.00  0.00    -0.550 OA
ATOM      4  O   UNL     1      16.282   6.614   9.189  1.00  0.00    -0.550 OA
ENDROOT
TORSDOF 0
ENDMDL
MODEL 2
REMARK VINA RESULT:    -1.353      1.392      1.773
REMARK INTER + INTRA:          -1.353
REMARK INTER:                  -1.353
REMARK INTRA:                   0.000
REMARK UNBOUND:                 0.000
REMARK SMILES CC(=O)[O-]
REMARK SMILES IDX 1 1 2 2 3 3 4 4
REMARK H PARENT
REMARK Flexibility Score: inf
ROOT
ATOM      1  C   UNL     1      16.208   6.836   9.309  1.00  0.00     0.063 C 
ATOM      2  C   UNL     1      15.512   6.309   8.101  1.00  0.00     0.038 C 
ATOM      3  O   UNL     1      14.334   6.671   7.843  1.00  0.00    -0.550 OA
ATOM      4  O   UNL     1      16.180   5.460   7.228  1.00  0.00    -0.550 OA
ENDROOT
TORSDOF 0
ENDMDL
MODEL 3
REMARK VINA RESULT:    -1.241      2.232      2.912
REMARK INTER + INTRA:          -1.241
REMARK INTER:                  -1.241
REMARK INTRA:                   0.000
REMARK UNBOUND:                 0.000
REMARK SMILES CC(=O)[O-]
REMARK SMILES IDX 1 1 2 2 3 3 4 4
REMARK H PARENT
REMARK Flexibility Score: inf
ROOT
ATOM      1  C   UNL     1      15.593   5.981   7.777  1.00  0.00     0.063 C 
ATOM      2  C   UNL     1      16.619   5.244   6.987  1.00  0.00     0.038 C 
ATOM      3  O   UNL     1      17.824   5.252   7.353  1.00  0.00    -0.550 OA
ATOM      4  O   UNL     1      16.242   4.501   5.876  1.00  0.00    -0.550 OA
ENDROOT
TORSDOF 0
ENDMDL
MODEL 4
REMARK VINA RESULT:    -1.173      1.374      2.109
REMARK INTER + INTRA:          -1.173
REMARK INTER:                  -1.173
REMARK INTRA:                   0.000
REMARK UNBOUND:                 0.000
REMARK SMILES CC(=O)[O-]
REMARK SMILES IDX 1 1 2 2 3 3 4 4
REMARK H PARENT
REMARK Flexibility Score: inf
ROOT
ATOM      1  C   UNL     1      16.205   6.777   9.252  1.00  0.00     0.063 C 
ATOM      2  C   UNL     1      15.491   6.292   8.037  1.00  0.00     0.038 C 
ATOM      3  O   UNL     1      16.028   5.433   7.290  1.00  0.00    -0.550 OA
ATOM      4  O   UNL     1      14.209   6.746   7.756  1.00  0.00    -0.550 OA
ENDROOT
TORSDOF 0
ENDMDL
MODEL 5
REMARK VINA RESULT:    -0.864     11.479     11.842
REMARK INTER + INTRA:          -0.864
REMARK INTER:                  -0.864
REMARK INTRA:                   0.000
REMARK UNBOUND:                 0.000
REMARK SMILES CC(=O)[O-]
REMARK SMILES IDX 1 1 2 2 3 3 4 4
REMARK H PARENT
REMARK Flexibility Score: inf
ROOT
ATOM      1  C   UNL     1      18.125  -5.392   7.705  1.00  0.00     0.063 C 
ATOM      2  C   UNL     1      17.580  -5.333   9.091  1.00  0.00     0.038 C 
ATOM      3  O   UNL     1      18.125  -5.995  10.013  1.00  0.00    -0.550 OA
ATOM      4  O   UNL     1      16.502  -4.506   9.380  1.00  0.00    -0.550 OA
ENDROOT
TORSDOF 0
ENDMDL
MODEL 6
REMARK VINA RESULT:    -0.835      1.379      1.690
REMARK INTER + INTRA:          -0.835
REMARK INTER:                  -0.835
REMARK INTRA:                   0.000
REMARK UNBOUND:                 0.000
REMARK SMILES CC(=O)[O-]
REMARK SMILES IDX 1 1 2 2 3 3 4 4
REMARK H PARENT
REMARK Flexibility Score: inf
ROOT
ATOM      1  C   UNL     1      14.309   6.462   7.946  1.00  0.00     0.063 C 
ATOM      2  C   UNL     1      15.760   6.142   8.063  1.00  0.00     0.038 C 
ATOM      3  O   UNL     1      16.334   5.475   7.162  1.00  0.00    -0.550 OA
ATOM      4  O   UNL     1      16.495   6.625   9.138  1.00  0.00    -0.550 OA
ENDROOT
TORSDOF 0
ENDMDL
MODEL 7
REMARK VINA RESULT:    -0.365      2.629      2.857
REMARK INTER + INTRA:          -0.365
REMARK INTER:                  -0.365
REMARK INTRA:                   0.000
REMARK UNBOUND:                 0.000
REMARK SMILES CC(=O)[O-]
REMARK SMILES IDX 1 1 2 2 3 3 4 4
REMARK H PARENT
REMARK Flexibility Score: inf
ROOT
ATOM      1  C   UNL     1      15.932   6.736   9.209  1.00  0.00     0.063 C 
ATOM      2  C   UNL     1      17.013   7.630   9.713  1.00  0.00     0.038 C 
ATOM      3  O   UNL     1      16.899   8.879   9.610  1.00  0.00    -0.550 OA
ATOM      4  O   UNL     1      18.125   7.089  10.346  1.00  0.00    -0.550 OA
ENDROOT
TORSDOF 0
ENDMDL
MODEL 8
REMARK VINA RESULT:     0.534     18.227     18.314
REMARK INTER + INTRA:           0.534
REMARK INTER:                   0.534
REMARK INTRA:                   0.000
REMARK UNBOUND:                 0.000
REMARK SMILES CC(=O)[O-]
REMARK SMILES IDX 1 1 2 2 3 3 4 4
REMARK H PARENT
REMARK Flexibility Score: inf
ROOT
ATOM      1  C   UNL     1      15.596   4.971  26.088  1.00  0.00     0.063 C 
ATOM      2  C   UNL     1      16.998   4.468  26.091  1.00  0.00     0.038 C 
ATOM      3  O   UNL     1      17.961   5.279  26.112  1.00  0.00    -0.550 OA
ATOM      4  O   UNL     1      17.248   3.102  26.124  1.00  0.00    -0.550 OA
ENDROOT
TORSDOF 0
ENDMDL
