MODEL 1
REMARK VINA RESULT:    -7.100      0.000      0.000
REMARK INTER + INTRA:          -9.333
REMARK INTER:                  -8.968
REMARK INTRA:                  -0.366
REMARK UNBOUND:                -0.366
REMARK SMILES COc1cc(-c2[o+]c3cc(O)cc(O)c3cc2O)cc(O)c1O
REMARK SMILES IDX 6 1 7 2 8 3 9 4 10 5 12 6 13 7 15 8 16 9 17 10 5 11 3 12
REMARK SMILES IDX 4 13 22 14 20 15 19 16 2 17 1 18 23 19 21 21 18 23 11 25
REMARK SMILES IDX 14 27
REMARK H PARENT 23 20 21 22 18 24 11 26 14 28
REMARK Flexibility Score: inf
ROOT
ATOM      1  C   UNL     1     -21.959  11.810 -35.067  1.00  0.00     0.402 A 
ATOM      2  O   UNL     1     -21.995  11.616 -36.382  1.00  0.00    -0.202 OA
ATOM      3  C   UNL     1     -20.905  11.468 -37.128  1.00  0.00     0.368 A 
ATOM      4  C   UNL     1     -21.045  11.271 -38.505  1.00  0.00     0.162 A 
ATOM      5  C   UNL     1     -19.919  11.116 -39.313  1.00  0.00     0.128 A 
ATOM      6  C   UNL     1     -18.641  11.159 -38.743  1.00  0.00     0.093 A 
ATOM      7  C   UNL     1     -18.474  11.356 -37.367  1.00  0.00     0.136 A 
ATOM      8  C   UNL     1     -19.618  11.511 -36.541  1.00  0.00     0.125 A 
ATOM      9  C   UNL     1     -19.546  11.698 -35.151  1.00  0.00     0.078 A 
ATOM     10  C   UNL     1     -20.719  11.840 -34.402  1.00  0.00     0.223 A 
ENDROOT
BRANCH   1  11
ATOM     11  C   UNL     1     -23.243  11.970 -34.346  1.00  0.00     0.091 A 
ATOM     12  C   UNL     1     -25.158  13.366 -33.761  1.00  0.00     0.165 A 
ATOM     13  C   UNL     1     -23.946  13.178 -34.451  1.00  0.00     0.069 A 
ATOM     14  C   UNL     1     -25.662  12.340 -32.947  1.00  0.00     0.200 A 
ATOM     15  C   UNL     1     -24.943  11.127 -32.816  1.00  0.00     0.162 A 
ATOM     16  C   UNL     1     -23.742  10.958 -33.512  1.00  0.00     0.068 A 
BRANCH  12  17
ATOM     17  O   UNL     1     -25.892  14.558 -33.858  1.00  0.00    -0.493 OA
ATOM     18  C   UNL     1     -25.321  15.842 -34.092  1.00  0.00     0.278 C 
ENDBRANCH  12  17
BRANCH  14  19
ATOM     19  O   UNL     1     -26.873  12.564 -32.287  1.00  0.00    -0.502 OA
ATOM     20  H   UNL     1     -27.041  13.331 -31.653  1.00  0.00     0.293 HD
ENDBRANCH  14  19
BRANCH  15  21
ATOM     21  O   UNL     1     -25.377  10.076 -32.006  1.00  0.00    -0.504 OA
ATOM     22  H   UNL     1     -25.193  10.012 -31.015  1.00  0.00     0.293 HD
ENDBRANCH  15  21
ENDBRANCH   1  11
BRANCH  10  23
ATOM     23  O   UNL     1     -20.651  11.977 -33.015  1.00  0.00    -0.500 OA
ATOM     24  H   UNL     1     -21.321  12.537 -32.502  1.00  0.00     0.294 HD
ENDBRANCH  10  23
BRANCH   5  25
ATOM     25  O   UNL     1     -20.079  10.920 -40.683  1.00  0.00    -0.507 OA
ATOM     26  H   UNL     1     -19.400  11.267 -41.351  1.00  0.00     0.293 HD
ENDBRANCH   5  25
BRANCH   7  27
ATOM     27  O   UNL     1     -17.165  11.389 -36.875  1.00  0.00    -0.507 OA
ATOM     28  H   UNL     1     -16.585  10.574 -36.744  1.00  0.00     0.293 HD
ENDBRANCH   7  27
TORSDOF 7
ENDMDL
MODEL 2
REMARK VINA RESULT:    -6.799      1.571      3.315
REMARK INTER + INTRA:          -8.954
REMARK INTER:                  -8.593
REMARK INTRA:                  -0.361
REMARK UNBOUND:                -0.366
REMARK SMILES COc1cc(-c2[o+]c3cc(O)cc(O)c3cc2O)cc(O)c1O
REMARK SMILES IDX 6 1 7 2 8 3 9 4 10 5 12 6 13 7 15 8 16 9 17 10 5 11 3 12
REMARK SMILES IDX 4 13 22 14 20 15 19 16 2 17 1 18 23 19 21 21 18 23 11 25
REMARK SMILES IDX 14 27
REMARK H PARENT 23 20 21 22 18 24 11 26 14 28
REMARK Flexibility Score: inf
ROOT
ATOM      1  C   UNL     1     -21.749  12.022 -34.515  1.00  0.00     0.402 A 
ATOM      2  O   UNL     1     -20.796  12.110 -33.591  1.00  0.00    -0.202 OA
ATOM      3  C   UNL     1     -19.504  11.949 -33.858  1.00  0.00     0.368 A 
ATOM      4  C   UNL     1     -18.576  12.059 -32.818  1.00  0.00     0.162 A 
ATOM      5  C   UNL     1     -17.214  11.892 -33.068  1.00  0.00     0.128 A 
ATOM      6  C   UNL     1     -16.773  11.612 -34.367  1.00  0.00     0.093 A 
ATOM      7  C   UNL     1     -17.683  11.497 -35.425  1.00  0.00     0.136 A 
ATOM      8  C   UNL     1     -19.068  11.669 -35.176  1.00  0.00     0.125 A 
ATOM      9  C   UNL     1     -20.050  11.585 -36.177  1.00  0.00     0.078 A 
ATOM     10  C   UNL     1     -21.398  11.771 -35.855  1.00  0.00     0.223 A 
ENDROOT
BRANCH   1  11
ATOM     11  C   UNL     1     -23.155  12.212 -34.092  1.00  0.00     0.091 A 
ATOM     12  C   UNL     1     -25.144  13.625 -34.005  1.00  0.00     0.165 A 
ATOM     13  C   UNL     1     -23.814  13.408 -34.411  1.00  0.00     0.069 A 
ATOM     14  C   UNL     1     -25.815  12.642 -33.260  1.00  0.00     0.200 A 
ATOM     15  C   UNL     1     -25.145  11.444 -32.912  1.00  0.00     0.162 A 
ATOM     16  C   UNL     1     -23.824  11.245 -33.328  1.00  0.00     0.068 A 
BRANCH  12  17
ATOM     17  O   UNL     1     -25.835  14.805 -34.321  1.00  0.00    -0.493 OA
ATOM     18  C   UNL     1     -25.218  16.007 -34.772  1.00  0.00     0.278 C 
ENDBRANCH  12  17
BRANCH  14  19
ATOM     19  O   UNL     1     -27.137  12.893 -32.885  1.00  0.00    -0.502 OA
ATOM     20  H   UNL     1     -27.727  12.230 -32.404  1.00  0.00     0.293 HD
ENDBRANCH  14  19
BRANCH  15  21
ATOM     21  O   UNL     1     -25.746  10.435 -32.155  1.00  0.00    -0.504 OA
ATOM     22  H   UNL     1     -25.698  10.380 -31.148  1.00  0.00     0.293 HD
ENDBRANCH  15  21
ENDBRANCH   1  11
BRANCH  10  23
ATOM     23  O   UNL     1     -22.368  11.737 -36.857  1.00  0.00    -0.500 OA
ATOM     24  H   UNL     1     -22.499  10.921 -37.443  1.00  0.00     0.294 HD
ENDBRANCH  10  23
BRANCH   5  25
ATOM     25  O   UNL     1     -16.304  12.005 -32.019  1.00  0.00    -0.507 OA
ATOM     26  H   UNL     1     -15.463  11.441 -31.984  1.00  0.00     0.293 HD
ENDBRANCH   5  25
BRANCH   7  27
ATOM     27  O   UNL     1     -17.163  11.213 -36.692  1.00  0.00    -0.507 OA
ATOM     28  H   UNL     1     -16.350  11.660 -37.088  1.00  0.00     0.293 HD
ENDBRANCH   7  27
TORSDOF 7
ENDMDL
MODEL 3
REMARK VINA RESULT:    -6.785      5.167      8.242
REMARK INTER + INTRA:          -8.935
REMARK INTER:                  -8.502
REMARK INTRA:                  -0.433
REMARK UNBOUND:                -0.366
REMARK SMILES COc1cc(-c2[o+]c3cc(O)cc(O)c3cc2O)cc(O)c1O
REMARK SMILES IDX 6 1 7 2 8 3 9 4 10 5 12 6 13 7 15 8 16 9 17 10 5 11 3 12
REMARK SMILES IDX 4 13 22 14 20 15 19 16 2 17 1 18 23 19 21 21 18 23 11 25
REMARK SMILES IDX 14 27
REMARK H PARENT 23 20 21 22 18 24 11 26 14 28
REMARK Flexibility Score: inf
ROOT
ATOM      1  C   UNL     1     -21.886  15.204 -40.097  1.00  0.00     0.402 A 
ATOM      2  O   UNL     1     -22.681  15.993 -39.380  1.00  0.00    -0.202 OA
ATOM      3  C   UNL     1     -23.103  17.181 -39.801  1.00  0.00     0.368 A 
ATOM      4  C   UNL     1     -23.936  17.939 -38.973  1.00  0.00     0.162 A 
ATOM      5  C   UNL     1     -24.391  19.191 -39.388  1.00  0.00     0.128 A 
ATOM      6  C   UNL     1     -24.012  19.691 -40.639  1.00  0.00     0.093 A 
ATOM      7  C   UNL     1     -23.179  18.950 -41.486  1.00  0.00     0.136 A 
ATOM      8  C   UNL     1     -22.716  17.676 -41.070  1.00  0.00     0.125 A 
ATOM      9  C   UNL     1     -21.889  16.859 -41.858  1.00  0.00     0.078 A 
ATOM     10  C   UNL     1     -21.476  15.611 -41.381  1.00  0.00     0.223 A 
ENDROOT
BRANCH   1  11
ATOM     11  C   UNL     1     -21.477  13.905 -39.515  1.00  0.00     0.091 A 
ATOM     12  C   UNL     1     -21.915  11.527 -39.182  1.00  0.00     0.165 A 
ATOM     13  C   UNL     1     -22.268  12.770 -39.739  1.00  0.00     0.069 A 
ATOM     14  C   UNL     1     -20.766  11.423 -38.381  1.00  0.00     0.200 A 
ATOM     15  C   UNL     1     -19.978  12.572 -38.130  1.00  0.00     0.162 A 
ATOM     16  C   UNL     1     -20.344  13.798 -38.695  1.00  0.00     0.068 A 
BRANCH  12  17
ATOM     17  O   UNL     1     -22.679  10.369 -39.400  1.00  0.00    -0.493 OA
ATOM     18  C   UNL     1     -22.520   9.495 -40.514  1.00  0.00     0.278 C 
ENDBRANCH  12  17
BRANCH  14  19
ATOM     19  O   UNL     1     -20.446  10.169 -37.855  1.00  0.00    -0.502 OA
ATOM     20  H   UNL     1     -21.064   9.370 -37.876  1.00  0.00     0.293 HD
ENDBRANCH  14  19
BRANCH  15  21
ATOM     21  O   UNL     1     -18.837  12.544 -37.325  1.00  0.00    -0.504 OA
ATOM     22  H   UNL     1     -17.934  12.212 -37.635  1.00  0.00     0.293 HD
ENDBRANCH  15  21
ENDBRANCH   1  11
BRANCH  10  23
ATOM     23  O   UNL     1     -20.696  14.777 -42.183  1.00  0.00    -0.500 OA
ATOM     24  H   UNL     1     -19.744  14.538 -41.933  1.00  0.00     0.294 HD
ENDBRANCH  10  23
BRANCH   5  25
ATOM     25  O   UNL     1     -25.220  19.932 -38.549  1.00  0.00    -0.507 OA
ATOM     26  H   UNL     1     -26.068  20.369 -38.892  1.00  0.00     0.293 HD
ENDBRANCH   5  25
BRANCH   7  27
ATOM     27  O   UNL     1     -22.844  19.521 -42.719  1.00  0.00    -0.507 OA
ATOM     28  H   UNL     1     -22.037  19.260 -43.267  1.00  0.00     0.293 HD
ENDBRANCH   7  27
TORSDOF 7
ENDMDL
MODEL 4
REMARK VINA RESULT:    -6.753      5.070      8.157
REMARK INTER + INTRA:          -8.895
REMARK INTER:                  -8.472
REMARK INTRA:                  -0.424
REMARK UNBOUND:                -0.366
REMARK SMILES COc1cc(-c2[o+]c3cc(O)cc(O)c3cc2O)cc(O)c1O
REMARK SMILES IDX 6 1 7 2 8 3 9 4 10 5 12 6 13 7 15 8 16 9 17 10 5 11 3 12
REMARK SMILES IDX 4 13 22 14 20 15 19 16 2 17 1 18 23 19 21 21 18 23 11 25
REMARK SMILES IDX 14 27
REMARK H PARENT 23 20 21 22 18 24 11 26 14 28
REMARK Flexibility Score: inf
ROOT
ATOM      1  C   UNL     1     -21.884  15.108 -40.075  1.00  0.00     0.402 A 
ATOM      2  O   UNL     1     -22.670  15.893 -39.345  1.00  0.00    -0.202 OA
ATOM      3  C   UNL     1     -23.080  17.092 -39.746  1.00  0.00     0.368 A 
ATOM      4  C   UNL     1     -23.904  17.846 -38.906  1.00  0.00     0.162 A 
ATOM      5  C   UNL     1     -24.348  19.108 -39.300  1.00  0.00     0.128 A 
ATOM      6  C   UNL     1     -23.965  19.624 -40.544  1.00  0.00     0.093 A 
ATOM      7  C   UNL     1     -23.141  18.888 -41.404  1.00  0.00     0.136 A 
ATOM      8  C   UNL     1     -22.690  17.603 -41.008  1.00  0.00     0.125 A 
ATOM      9  C   UNL     1     -21.873  16.790 -41.810  1.00  0.00     0.078 A 
ATOM     10  C   UNL     1     -21.472  15.530 -41.353  1.00  0.00     0.223 A 
ENDROOT
BRANCH   1  11
ATOM     11  C   UNL     1     -21.487  13.796 -39.514  1.00  0.00     0.091 A 
ATOM     12  C   UNL     1     -19.980  12.489 -38.107  1.00  0.00     0.165 A 
ATOM     13  C   UNL     1     -20.393  13.724 -38.640  1.00  0.00     0.069 A 
ATOM     14  C   UNL     1     -20.659  11.313 -38.464  1.00  0.00     0.200 A 
ATOM     15  C   UNL     1     -21.748  11.377 -39.367  1.00  0.00     0.162 A 
ATOM     16  C   UNL     1     -22.146  12.614 -39.884  1.00  0.00     0.068 A 
BRANCH  12  17
ATOM     17  O   UNL     1     -18.899  12.386 -37.218  1.00  0.00    -0.493 OA
ATOM     18  C   UNL     1     -17.802  13.294 -37.172  1.00  0.00     0.278 C 
ENDBRANCH  12  17
BRANCH  14  19
ATOM     19  O   UNL     1     -20.223  10.110 -37.905  1.00  0.00    -0.502 OA
ATOM     20  H   UNL     1     -20.510   9.767 -36.999  1.00  0.00     0.293 HD
ENDBRANCH  14  19
BRANCH  15  21
ATOM     21  O   UNL     1     -22.452  10.244 -39.782  1.00  0.00    -0.504 OA
ATOM     22  H   UNL     1     -23.341  10.275 -40.261  1.00  0.00     0.293 HD
ENDBRANCH  15  21
ENDBRANCH   1  11
BRANCH  10  23
ATOM     23  O   UNL     1     -20.701  14.702 -42.169  1.00  0.00    -0.500 OA
ATOM     24  H   UNL     1     -20.762  13.692 -42.111  1.00  0.00     0.294 HD
ENDBRANCH  10  23
BRANCH   5  25
ATOM     25  O   UNL     1     -25.168  19.845 -38.449  1.00  0.00    -0.507 OA
ATOM     26  H   UNL     1     -24.819  20.232 -37.579  1.00  0.00     0.293 HD
ENDBRANCH   5  25
BRANCH   7  27
ATOM     27  O   UNL     1     -22.802  19.474 -42.628  1.00  0.00    -0.507 OA
ATOM     28  H   UNL     1     -22.934  19.034 -43.526  1.00  0.00     0.293 HD
ENDBRANCH   7  27
TORSDOF 7
ENDMDL
MODEL 5
REMARK VINA RESULT:    -6.680      5.437      7.272
REMARK INTER + INTRA:          -8.803
REMARK INTER:                  -8.808
REMARK INTRA:                   0.006
REMARK UNBOUND:                -0.366
REMARK SMILES COc1cc(-c2[o+]c3cc(O)cc(O)c3cc2O)cc(O)c1O
REMARK SMILES IDX 6 1 7 2 8 3 9 4 10 5 12 6 13 7 15 8 16 9 17 10 5 11 3 12
REMARK SMILES IDX 4 13 22 14 20 15 19 16 2 17 1 18 23 19 21 21 18 23 11 25
REMARK SMILES IDX 14 27
REMARK H PARENT 23 20 21 22 18 24 11 26 14 28
REMARK Flexibility Score: inf
ROOT
ATOM      1  C   UNL     1     -16.828  12.970 -34.096  1.00  0.00     0.402 A 
ATOM      2  O   UNL     1     -17.130  13.088 -35.386  1.00  0.00    -0.202 OA
ATOM      3  C   UNL     1     -17.704  12.119 -36.092  1.00  0.00     0.368 A 
ATOM      4  C   UNL     1     -17.982  12.336 -37.444  1.00  0.00     0.162 A 
ATOM      5  C   UNL     1     -18.580  11.337 -38.212  1.00  0.00     0.128 A 
ATOM      6  C   UNL     1     -18.904  10.108 -37.624  1.00  0.00     0.093 A 
ATOM      7  C   UNL     1     -18.636   9.866 -36.271  1.00  0.00     0.136 A 
ATOM      8  C   UNL     1     -18.030  10.881 -35.487  1.00  0.00     0.125 A 
ATOM      9  C   UNL     1     -17.738  10.731 -34.122  1.00  0.00     0.078 A 
ATOM     10  C   UNL     1     -17.143  11.780 -33.413  1.00  0.00     0.223 A 
ENDROOT
BRANCH   1  11
ATOM     11  C   UNL     1     -16.181  14.118 -33.420  1.00  0.00     0.091 A 
ATOM     12  C   UNL     1     -15.906  16.533 -33.194  1.00  0.00     0.165 A 
ATOM     13  C   UNL     1     -16.518  15.423 -33.805  1.00  0.00     0.069 A 
ATOM     14  C   UNL     1     -14.936  16.333 -32.199  1.00  0.00     0.200 A 
ATOM     15  C   UNL     1     -14.573  15.018 -31.824  1.00  0.00     0.162 A 
ATOM     16  C   UNL     1     -15.195  13.927 -32.441  1.00  0.00     0.068 A 
BRANCH  12  17
ATOM     17  O   UNL     1     -16.233  17.851 -33.548  1.00  0.00    -0.493 OA
ATOM     18  C   UNL     1     -16.869  18.227 -34.766  1.00  0.00     0.278 C 
ENDBRANCH  12  17
BRANCH  14  19
ATOM     19  O   UNL     1     -14.360  17.463 -31.612  1.00  0.00    -0.502 OA
ATOM     20  H   UNL     1     -13.477  17.863 -31.897  1.00  0.00     0.293 HD
ENDBRANCH  14  19
BRANCH  15  21
ATOM     21  O   UNL     1     -13.600  14.748 -30.859  1.00  0.00    -0.504 OA
ATOM     22  H   UNL     1     -13.033  13.913 -30.845  1.00  0.00     0.293 HD
ENDBRANCH  15  21
ENDBRANCH   1  11
BRANCH  10  23
ATOM     23  O   UNL     1     -16.897  11.651 -32.046  1.00  0.00    -0.500 OA
ATOM     24  H   UNL     1     -16.742  12.458 -31.454  1.00  0.00     0.294 HD
ENDBRANCH  10  23
BRANCH   5  25
ATOM     25  O   UNL     1     -18.849  11.572 -39.558  1.00  0.00    -0.507 OA
ATOM     26  H   UNL     1     -18.380  12.310 -40.071  1.00  0.00     0.293 HD
ENDBRANCH   5  25
BRANCH   7  27
ATOM     27  O   UNL     1     -18.988   8.612 -35.760  1.00  0.00    -0.507 OA
ATOM     28  H   UNL     1     -18.345   7.981 -35.306  1.00  0.00     0.293 HD
ENDBRANCH   7  27
TORSDOF 7
ENDMDL
MODEL 6
REMARK VINA RESULT:    -6.622      3.128      4.516
REMARK INTER + INTRA:          -8.730
REMARK INTER:                  -8.306
REMARK INTRA:                  -0.424
REMARK UNBOUND:                -0.366
REMARK SMILES COc1cc(-c2[o+]c3cc(O)cc(O)c3cc2O)cc(O)c1O
REMARK SMILES IDX 6 1 7 2 8 3 9 4 10 5 12 6 13 7 15 8 16 9 17 10 5 11 3 12
REMARK SMILES IDX 4 13 22 14 20 15 19 16 2 17 1 18 23 19 21 21 18 23 11 25
REMARK SMILES IDX 14 27
REMARK H PARENT 23 20 21 22 18 24 11 26 14 28
REMARK Flexibility Score: inf
ROOT
ATOM      1  C   UNL     1     -22.783  13.878 -38.265  1.00  0.00     0.402 A 
ATOM      2  O   UNL     1     -21.968  13.162 -37.496  1.00  0.00    -0.202 OA
ATOM      3  C   UNL     1     -20.961  12.439 -37.975  1.00  0.00     0.368 A 
ATOM      4  C   UNL     1     -20.160  11.716 -37.087  1.00  0.00     0.162 A 
ATOM      5  C   UNL     1     -19.098  10.946 -37.562  1.00  0.00     0.128 A 
ATOM      6  C   UNL     1     -18.833  10.897 -38.936  1.00  0.00     0.093 A 
ATOM      7  C   UNL     1     -19.621  11.612 -39.846  1.00  0.00     0.136 A 
ATOM      8  C   UNL     1     -20.700  12.398 -39.366  1.00  0.00     0.125 A 
ATOM      9  C   UNL     1     -21.534  13.158 -40.203  1.00  0.00     0.078 A 
ATOM     10  C   UNL     1     -22.576  13.912 -39.656  1.00  0.00     0.223 A 
ENDROOT
BRANCH   1  11
ATOM     11  C   UNL     1     -23.876  14.636 -37.613  1.00  0.00     0.091 A 
ATOM     12  C   UNL     1     -24.723  16.745 -36.722  1.00  0.00     0.165 A 
ATOM     13  C   UNL     1     -23.709  16.004 -37.358  1.00  0.00     0.069 A 
ATOM     14  C   UNL     1     -25.908  16.106 -36.324  1.00  0.00     0.200 A 
ATOM     15  C   UNL     1     -26.071  14.719 -36.554  1.00  0.00     0.162 A 
ATOM     16  C   UNL     1     -25.053  14.000 -37.191  1.00  0.00     0.068 A 
BRANCH  12  17
ATOM     17  O   UNL     1     -24.591  18.119 -36.467  1.00  0.00    -0.493 OA
ATOM     18  C   UNL     1     -24.736  19.141 -37.450  1.00  0.00     0.278 C 
ENDBRANCH  12  17
BRANCH  14  19
ATOM     19  O   UNL     1     -26.892  16.881 -35.704  1.00  0.00    -0.502 OA
ATOM     20  H   UNL     1     -27.493  17.530 -36.190  1.00  0.00     0.293 HD
ENDBRANCH  14  19
BRANCH  15  21
ATOM     21  O   UNL     1     -27.214  14.018 -36.164  1.00  0.00    -0.504 OA
ATOM     22  H   UNL     1     -27.421  13.761 -35.210  1.00  0.00     0.293 HD
ENDBRANCH  15  21
ENDBRANCH   1  11
BRANCH  10  23
ATOM     23  O   UNL     1     -23.374  14.706 -40.482  1.00  0.00    -0.500 OA
ATOM     24  H   UNL     1     -23.093  15.640 -40.754  1.00  0.00     0.294 HD
ENDBRANCH  10  23
BRANCH   5  25
ATOM     25  O   UNL     1     -18.310  10.232 -36.661  1.00  0.00    -0.507 OA
ATOM     26  H   UNL     1     -17.299  10.222 -36.733  1.00  0.00     0.293 HD
ENDBRANCH   5  25
BRANCH   7  27
ATOM     27  O   UNL     1     -19.293  11.508 -41.201  1.00  0.00    -0.507 OA
ATOM     28  H   UNL     1     -18.926  10.676 -41.637  1.00  0.00     0.293 HD
ENDBRANCH   7  27
TORSDOF 7
ENDMDL
MODEL 7
REMARK VINA RESULT:    -6.598      5.623      8.093
REMARK INTER + INTRA:          -8.699
REMARK INTER:                  -8.239
REMARK INTRA:                  -0.460
REMARK UNBOUND:                -0.366
REMARK SMILES COc1cc(-c2[o+]c3cc(O)cc(O)c3cc2O)cc(O)c1O
REMARK SMILES IDX 6 1 7 2 8 3 9 4 10 5 12 6 13 7 15 8 16 9 17 10 5 11 3 12
REMARK SMILES IDX 4 13 22 14 20 15 19 16 2 17 1 18 23 19 21 21 18 23 11 25
REMARK SMILES IDX 14 27
REMARK H PARENT 23 20 21 22 18 24 11 26 14 28
REMARK Flexibility Score: inf
ROOT
ATOM      1  C   UNL     1     -22.789  15.852 -39.254  1.00  0.00     0.402 A 
ATOM      2  O   UNL     1     -22.860  16.603 -40.349  1.00  0.00    -0.202 OA
ATOM      3  C   UNL     1     -22.944  17.929 -40.320  1.00  0.00     0.368 A 
ATOM      4  C   UNL     1     -23.017  18.633 -41.525  1.00  0.00     0.162 A 
ATOM      5  C   UNL     1     -23.108  20.025 -41.525  1.00  0.00     0.128 A 
ATOM      6  C   UNL     1     -23.127  20.722 -40.310  1.00  0.00     0.093 A 
ATOM      7  C   UNL     1     -23.055  20.040 -39.089  1.00  0.00     0.136 A 
ATOM      8  C   UNL     1     -22.959  18.624 -39.086  1.00  0.00     0.125 A 
ATOM      9  C   UNL     1     -22.869  17.859 -37.912  1.00  0.00     0.078 A 
ATOM     10  C   UNL     1     -22.773  16.466 -37.988  1.00  0.00     0.223 A 
ENDROOT
BRANCH   1  11
ATOM     11  C   UNL     1     -22.708  14.382 -39.417  1.00  0.00     0.091 A 
ATOM     12  C   UNL     1     -21.359  12.390 -39.832  1.00  0.00     0.165 A 
ATOM     13  C   UNL     1     -21.463  13.782 -39.653  1.00  0.00     0.069 A 
ATOM     14  C   UNL     1     -22.514  11.593 -39.788  1.00  0.00     0.200 A 
ATOM     15  C   UNL     1     -23.777  12.197 -39.576  1.00  0.00     0.162 A 
ATOM     16  C   UNL     1     -23.860  13.582 -39.398  1.00  0.00     0.068 A 
BRANCH  12  17
ATOM     17  O   UNL     1     -20.125  11.759 -40.055  1.00  0.00    -0.493 OA
ATOM     18  C   UNL     1     -19.165  11.480 -39.040  1.00  0.00     0.278 C 
ENDBRANCH  12  17
BRANCH  14  19
ATOM     19  O   UNL     1     -22.365  10.215 -39.961  1.00  0.00    -0.502 OA
ATOM     20  H   UNL     1     -22.977   9.644 -40.526  1.00  0.00     0.293 HD
ENDBRANCH  14  19
BRANCH  15  21
ATOM     21  O   UNL     1     -24.967  11.467 -39.544  1.00  0.00    -0.504 OA
ATOM     22  H   UNL     1     -25.056  10.514 -39.867  1.00  0.00     0.293 HD
ENDBRANCH  15  21
ENDBRANCH   1  11
BRANCH  10  23
ATOM     23  O   UNL     1     -22.633  15.709 -36.825  1.00  0.00    -0.500 OA
ATOM     24  H   UNL     1     -21.844  15.089 -36.685  1.00  0.00     0.294 HD
ENDBRANCH  10  23
BRANCH   5  25
ATOM     25  O   UNL     1     -23.181  20.709 -42.736  1.00  0.00    -0.507 OA
ATOM     26  H   UNL     1     -23.488  21.674 -42.783  1.00  0.00     0.293 HD
ENDBRANCH   5  25
BRANCH   7  27
ATOM     27  O   UNL     1     -23.083  20.807 -37.921  1.00  0.00    -0.507 OA
ATOM     28  H   UNL     1     -22.671  20.525 -37.044  1.00  0.00     0.293 HD
ENDBRANCH   7  27
TORSDOF 7
ENDMDL
MODEL 8
REMARK VINA RESULT:    -6.554      2.538      4.677
REMARK INTER + INTRA:          -8.644
REMARK INTER:                  -8.314
REMARK INTRA:                  -0.330
REMARK UNBOUND:                -0.366
REMARK SMILES COc1cc(-c2[o+]c3cc(O)cc(O)c3cc2O)cc(O)c1O
REMARK SMILES IDX 6 1 7 2 8 3 9 4 10 5 12 6 13 7 15 8 16 9 17 10 5 11 3 12
REMARK SMILES IDX 4 13 22 14 20 15 19 16 2 17 1 18 23 19 21 21 18 23 11 25
REMARK SMILES IDX 14 27
REMARK H PARENT 23 20 21 22 18 24 11 26 14 28
REMARK Flexibility Score: inf
ROOT
ATOM      1  C   UNL     1     -22.532  13.990 -38.053  1.00  0.00     0.402 A 
ATOM      2  O   UNL     1     -21.565  13.406 -37.352  1.00  0.00    -0.202 OA
ATOM      3  C   UNL     1     -20.641  12.621 -37.897  1.00  0.00     0.368 A 
ATOM      4  C   UNL     1     -19.664  12.050 -37.077  1.00  0.00     0.162 A 
ATOM      5  C   UNL     1     -18.683  11.220 -37.620  1.00  0.00     0.128 A 
ATOM      6  C   UNL     1     -18.678  10.957 -38.995  1.00  0.00     0.093 A 
ATOM      7  C   UNL     1     -19.645  11.517 -39.838  1.00  0.00     0.136 A 
ATOM      8  C   UNL     1     -20.642  12.364 -39.289  1.00  0.00     0.125 A 
ATOM      9  C   UNL     1     -21.642  12.980 -40.059  1.00  0.00     0.078 A 
ATOM     10  C   UNL     1     -22.590  13.806 -39.447  1.00  0.00     0.223 A 
ENDROOT
BRANCH   1  11
ATOM     11  C   UNL     1     -23.510  14.836 -37.329  1.00  0.00     0.091 A 
ATOM     12  C   UNL     1     -25.389  15.009 -35.781  1.00  0.00     0.165 A 
ATOM     13  C   UNL     1     -24.436  14.233 -36.466  1.00  0.00     0.069 A 
ATOM     14  C   UNL     1     -25.425  16.399 -35.974  1.00  0.00     0.200 A 
ATOM     15  C   UNL     1     -24.510  17.010 -36.865  1.00  0.00     0.162 A 
ATOM     16  C   UNL     1     -23.567  16.222 -37.534  1.00  0.00     0.068 A 
BRANCH  12  17
ATOM     17  O   UNL     1     -26.319  14.437 -34.899  1.00  0.00    -0.493 OA
ATOM     18  C   UNL     1     -25.982  13.809 -33.665  1.00  0.00     0.278 C 
ENDBRANCH  12  17
BRANCH  14  19
ATOM     19  O   UNL     1     -26.381  17.133 -35.267  1.00  0.00    -0.502 OA
ATOM     20  H   UNL     1     -26.390  17.235 -34.263  1.00  0.00     0.293 HD
ENDBRANCH  14  19
BRANCH  15  21
ATOM     21  O   UNL     1     -24.505  18.383 -37.120  1.00  0.00    -0.504 OA
ATOM     22  H   UNL     1     -24.791  18.797 -37.995  1.00  0.00     0.293 HD
ENDBRANCH  15  21
ENDBRANCH   1  11
BRANCH  10  23
ATOM     23  O   UNL     1     -23.554  14.457 -40.218  1.00  0.00    -0.500 OA
ATOM     24  H   UNL     1     -24.393  14.845 -39.804  1.00  0.00     0.294 HD
ENDBRANCH  10  23
BRANCH   5  25
ATOM     25  O   UNL     1     -17.718  10.660 -36.786  1.00  0.00    -0.507 OA
ATOM     26  H   UNL     1     -17.798   9.708 -36.448  1.00  0.00     0.293 HD
ENDBRANCH   5  25
BRANCH   7  27
ATOM     27  O   UNL     1     -19.572  11.204 -41.199  1.00  0.00    -0.507 OA
ATOM     28  H   UNL     1     -20.374  11.075 -41.798  1.00  0.00     0.293 HD
ENDBRANCH   7  27
TORSDOF 7
ENDMDL
MODEL 9
REMARK VINA RESULT:    -6.419      3.852      7.904
REMARK INTER + INTRA:          -8.473
REMARK INTER:                  -8.010
REMARK INTRA:                  -0.462
REMARK UNBOUND:                -0.366
REMARK SMILES COc1cc(-c2[o+]c3cc(O)cc(O)c3cc2O)cc(O)c1O
REMARK SMILES IDX 6 1 7 2 8 3 9 4 10 5 12 6 13 7 15 8 16 9 17 10 5 11 3 12
REMARK SMILES IDX 4 13 22 14 20 15 19 16 2 17 1 18 23 19 21 21 18 23 11 25
REMARK SMILES IDX 14 27
REMARK H PARENT 23 20 21 22 18 24 11 26 14 28
REMARK Flexibility Score: inf
ROOT
ATOM      1  C   UNL     1     -21.985  14.525 -38.554  1.00  0.00     0.402 A 
ATOM      2  O   UNL     1     -22.735  14.964 -37.547  1.00  0.00    -0.202 OA
ATOM      3  C   UNL     1     -23.770  15.782 -37.710  1.00  0.00     0.368 A 
ATOM      4  C   UNL     1     -24.497  16.190 -36.588  1.00  0.00     0.162 A 
ATOM      5  C   UNL     1     -25.587  17.050 -36.729  1.00  0.00     0.128 A 
ATOM      6  C   UNL     1     -25.954  17.507 -38.000  1.00  0.00     0.093 A 
ATOM      7  C   UNL     1     -25.242  17.112 -39.139  1.00  0.00     0.136 A 
ATOM      8  C   UNL     1     -24.135  16.235 -39.000  1.00  0.00     0.125 A 
ATOM      9  C   UNL     1     -23.372  15.776 -40.087  1.00  0.00     0.078 A 
ATOM     10  C   UNL     1     -22.297  14.909 -39.871  1.00  0.00     0.223 A 
ENDROOT
BRANCH   1  11
ATOM     11  C   UNL     1     -20.851  13.624 -38.243  1.00  0.00     0.091 A 
ATOM     12  C   UNL     1     -19.997  11.357 -37.946  1.00  0.00     0.165 A 
ATOM     13  C   UNL     1     -21.051  12.237 -38.257  1.00  0.00     0.069 A 
ATOM     14  C   UNL     1     -18.737  11.872 -37.605  1.00  0.00     0.200 A 
ATOM     15  C   UNL     1     -18.537  13.273 -37.563  1.00  0.00     0.162 A 
ATOM     16  C   UNL     1     -19.596  14.132 -37.878  1.00  0.00     0.068 A 
BRANCH  12  17
ATOM     17  O   UNL     1     -20.162   9.963 -37.966  1.00  0.00    -0.493 OA
ATOM     18  C   UNL     1     -20.920   9.225 -37.012  1.00  0.00     0.278 C 
ENDBRANCH  12  17
BRANCH  14  19
ATOM     19  O   UNL     1     -17.716  10.964 -37.313  1.00  0.00    -0.502 OA
ATOM     20  H   UNL     1     -17.560  10.559 -36.401  1.00  0.00     0.293 HD
ENDBRANCH  14  19
BRANCH  15  21
ATOM     21  O   UNL     1     -17.316  13.852 -37.210  1.00  0.00    -0.504 OA
ATOM     22  H   UNL     1     -17.209  14.549 -36.488  1.00  0.00     0.293 HD
ENDBRANCH  15  21
ENDBRANCH   1  11
BRANCH  10  23
ATOM     23  O   UNL     1     -21.569  14.414 -40.954  1.00  0.00    -0.500 OA
ATOM     24  H   UNL     1     -20.719  13.879 -40.824  1.00  0.00     0.294 HD
ENDBRANCH  10  23
BRANCH   5  25
ATOM     25  O   UNL     1     -26.299  17.447 -35.599  1.00  0.00    -0.507 OA
ATOM     26  H   UNL     1     -25.872  18.014 -34.876  1.00  0.00     0.293 HD
ENDBRANCH   5  25
BRANCH   7  27
ATOM     27  O   UNL     1     -25.670  17.614 -40.372  1.00  0.00    -0.507 OA
ATOM     28  H   UNL     1     -26.070  17.052 -41.108  1.00  0.00     0.293 HD
ENDBRANCH   7  27
TORSDOF 7
ENDMDL
