MODEL 1
REMARK VINA RESULT:    -3.730      0.000      0.000
REMARK INTER + INTRA:          -5.010
REMARK INTER:                  -4.820
REMARK INTRA:                  -0.190
REMARK UNBOUND:                -0.190
REMARK SMILES CCCCCCC(=O)[O-]
REMARK SMILES IDX 5 1 6 2 7 3 8 4 9 5 4 6 3 7 2 8 1 9
REMARK H PARENT
REMARK Flexibility Score: inf
ROOT
ATOM      1  C   UNL     1    -100.767  31.158 -37.127  1.00  0.00     0.006 C 
ENDROOT
BRANCH   1   2
ATOM      2  C   UNL     1    -100.835  32.065 -35.891  1.00  0.00     0.053 C 
BRANCH   2   3
ATOM      3  C   UNL     1    -100.394  31.317 -34.672  1.00  0.00     0.041 C 
ATOM      4  O   UNL     1    -101.112  31.314 -33.637  1.00  0.00    -0.550 OA
ATOM      5  O   UNL     1     -99.168  30.666 -34.660  1.00  0.00    -0.550 OA
ENDBRANCH   2   3
ENDBRANCH   1   2
BRANCH   1   6
ATOM      6  C   UNL     1     -99.588  31.501 -38.052  1.00  0.00     0.000 C 
BRANCH   6   7
ATOM      7  C   UNL     1     -98.852  32.782 -37.619  1.00  0.00    -0.000 C 
BRANCH   7   8
ATOM      8  C   UNL     1     -98.212  33.521 -38.804  1.00  0.00    -0.003 C 
ATOM      9  C   UNL     1     -97.035  32.759 -39.413  1.00  0.00     0.004 C 
ENDBRANCH   7   8
ENDBRANCH   6   7
ENDBRANCH   1   6
TORSDOF 5
ENDMDL
MODEL 2
REMARK VINA RESULT:    -3.568      2.652      3.073
REMARK INTER + INTRA:          -4.800
REMARK INTER:                  -4.634
REMARK INTRA:                  -0.166
REMARK UNBOUND:                -0.190
REMARK SMILES CCCCCCC(=O)[O-]
REMARK SMILES IDX 5 1 6 2 7 3 8 4 9 5 4 6 3 7 2 8 1 9
REMARK H PARENT
REMARK Flexibility Score: inf
ROOT
ATOM      1  C   UNL     1    -101.103  31.307 -36.338  1.00  0.00     0.006 C 
ENDROOT
BRANCH   1   2
ATOM      2  C   UNL     1    -101.737  30.906 -37.676  1.00  0.00     0.053 C 
BRANCH   2   3
ATOM      3  C   UNL     1    -103.120  31.467 -37.786  1.00  0.00     0.041 C 
ATOM      4  O   UNL     1    -103.711  31.900 -36.762  1.00  0.00    -0.550 OA
ATOM      5  O   UNL     1    -103.776  31.465 -39.010  1.00  0.00    -0.550 OA
ENDBRANCH   2   3
ENDBRANCH   1   2
BRANCH   1   6
ATOM      6  C   UNL     1     -99.802  32.107 -36.513  1.00  0.00     0.000 C 
BRANCH   6   7
ATOM      7  C   UNL     1     -99.249  32.028 -37.947  1.00  0.00    -0.000 C 
BRANCH   7   8
ATOM      8  C   UNL     1     -98.320  33.205 -38.284  1.00  0.00    -0.003 C 
ATOM      9  C   UNL     1     -97.228  32.832 -39.287  1.00  0.00     0.004 C 
ENDBRANCH   7   8
ENDBRANCH   6   7
ENDBRANCH   1   6
TORSDOF 5
ENDMDL
MODEL 3
REMARK VINA RESULT:    -3.544      1.744      2.083
REMARK INTER + INTRA:          -4.770
REMARK INTER:                  -4.590
REMARK INTRA:                  -0.180
REMARK UNBOUND:                -0.190
REMARK SMILES CCCCCCC(=O)[O-]
REMARK SMILES IDX 5 1 6 2 7 3 8 4 9 5 4 6 3 7 2 8 1 9
REMARK H PARENT
REMARK Flexibility Score: inf
ROOT
ATOM      1  C   UNL     1    -100.730  30.755 -37.159  1.00  0.00     0.006 C 
ENDROOT
BRANCH   1   2
ATOM      2  C   UNL     1    -102.178  31.194 -37.417  1.00  0.00     0.053 C 
BRANCH   2   3
ATOM      3  C   UNL     1    -102.755  31.830 -36.191  1.00  0.00     0.041 C 
ATOM      4  O   UNL     1    -103.987  31.733 -35.948  1.00  0.00    -0.550 OA
ATOM      5  O   UNL     1    -101.942  32.573 -35.344  1.00  0.00    -0.550 OA
ENDBRANCH   2   3
ENDBRANCH   1   2
BRANCH   1   6
ATOM      6  C   UNL     1     -99.731  31.407 -38.129  1.00  0.00     0.000 C 
BRANCH   6   7
ATOM      7  C   UNL     1     -98.900  32.518 -37.462  1.00  0.00    -0.000 C 
BRANCH   7   8
ATOM      8  C   UNL     1     -98.266  33.472 -38.485  1.00  0.00    -0.003 C 
ATOM      9  C   UNL     1     -97.176  32.804 -39.324  1.00  0.00     0.004 C 
ENDBRANCH   7   8
ENDBRANCH   6   7
ENDBRANCH   1   6
TORSDOF 5
ENDMDL
MODEL 4
REMARK VINA RESULT:    -3.427      2.863      4.879
REMARK INTER + INTRA:          -4.618
REMARK INTER:                  -4.482
REMARK INTRA:                  -0.136
REMARK UNBOUND:                -0.190
REMARK SMILES CCCCCCC(=O)[O-]
REMARK SMILES IDX 5 1 6 2 7 3 8 4 9 5 4 6 3 7 2 8 1 9
REMARK H PARENT
REMARK Flexibility Score: inf
ROOT
ATOM      1  C   UNL     1     -99.775  32.005 -37.083  1.00  0.00     0.006 C 
ENDROOT
BRANCH   1   2
ATOM      2  C   UNL     1     -99.094  31.745 -38.433  1.00  0.00     0.053 C 
BRANCH   2   3
ATOM      3  C   UNL     1     -98.143  32.853 -38.759  1.00  0.00     0.041 C 
ATOM      4  O   UNL     1     -98.408  34.036 -38.419  1.00  0.00    -0.550 OA
ATOM      5  O   UNL     1     -96.988  32.588 -39.484  1.00  0.00    -0.550 OA
ENDBRANCH   2   3
ENDBRANCH   1   2
BRANCH   1   6
ATOM      6  C   UNL     1     -99.959  30.723 -36.254  1.00  0.00     0.000 C 
BRANCH   6   7
ATOM      7  C   UNL     1     -99.245  30.793 -34.893  1.00  0.00    -0.000 C 
BRANCH   7   8
ATOM      8  C   UNL     1    -100.169  30.420 -33.724  1.00  0.00    -0.003 C 
ATOM      9  C   UNL     1    -101.312  31.416 -33.529  1.00  0.00     0.004 C 
ENDBRANCH   7   8
ENDBRANCH   6   7
ENDBRANCH   1   6
TORSDOF 5
ENDMDL
MODEL 5
REMARK VINA RESULT:    -3.289      3.010      4.736
REMARK INTER + INTRA:          -4.440
REMARK INTER:                  -4.268
REMARK INTRA:                  -0.172
REMARK UNBOUND:                -0.190
REMARK SMILES CCCCCCC(=O)[O-]
REMARK SMILES IDX 5 1 6 2 7 3 8 4 9 5 4 6 3 7 2 8 1 9
REMARK H PARENT
REMARK Flexibility Score: inf
ROOT
ATOM      1  C   UNL     1     -99.356  32.151 -36.933  1.00  0.00     0.006 C 
ENDROOT
BRANCH   1   2
ATOM      2  C   UNL     1     -98.960  31.844 -38.383  1.00  0.00     0.053 C 
BRANCH   2   3
ATOM      3  C   UNL     1     -98.043  32.903 -38.909  1.00  0.00     0.041 C 
ATOM      4  O   UNL     1     -98.332  34.120 -38.763  1.00  0.00    -0.550 OA
ATOM      5  O   UNL     1     -96.895  32.547 -39.604  1.00  0.00    -0.550 OA
ENDBRANCH   2   3
ENDBRANCH   1   2
BRANCH   1   6
ATOM      6  C   UNL     1    -100.520  31.277 -36.437  1.00  0.00     0.000 C 
BRANCH   6   7
ATOM      7  C   UNL     1    -101.427  30.797 -37.584  1.00  0.00    -0.000 C 
BRANCH   7   8
ATOM      8  C   UNL     1    -102.860  31.337 -37.466  1.00  0.00    -0.003 C 
ATOM      9  C   UNL     1    -103.616  31.312 -38.795  1.00  0.00     0.004 C 
ENDBRANCH   7   8
ENDBRANCH   6   7
ENDBRANCH   1   6
TORSDOF 5
ENDMDL
MODEL 6
REMARK VINA RESULT:    -3.062     15.115     15.840
REMARK INTER + INTRA:          -4.147
REMARK INTER:                  -3.759
REMARK INTRA:                  -0.388
REMARK UNBOUND:                -0.190
REMARK SMILES CCCCCCC(=O)[O-]
REMARK SMILES IDX 5 1 6 2 7 3 8 4 9 5 4 6 3 7 2 8 1 9
REMARK H PARENT
REMARK Flexibility Score: inf
ROOT
ATOM      1  C   UNL     1     -96.069  46.834 -35.952  1.00  0.00     0.006 C 
ENDROOT
BRANCH   1   2
ATOM      2  C   UNL     1     -97.584  47.060 -36.045  1.00  0.00     0.053 C 
BRANCH   2   3
ATOM      3  C   UNL     1     -97.875  48.359 -36.729  1.00  0.00     0.041 C 
ATOM      4  O   UNL     1     -96.952  48.992 -37.306  1.00  0.00    -0.550 OA
ATOM      5  O   UNL     1     -99.155  48.897 -36.685  1.00  0.00    -0.550 OA
ENDBRANCH   2   3
ENDBRANCH   1   2
BRANCH   1   6
ATOM      6  C   UNL     1     -95.608  45.581 -36.713  1.00  0.00     0.000 C 
BRANCH   6   7
ATOM      7  C   UNL     1     -94.991  45.916 -38.082  1.00  0.00    -0.000 C 
BRANCH   7   8
ATOM      8  C   UNL     1     -96.038  45.953 -39.206  1.00  0.00    -0.003 C 
ATOM      9  C   UNL     1     -95.898  47.179 -40.108  1.00  0.00     0.004 C 
ENDBRANCH   7   8
ENDBRANCH   6   7
ENDBRANCH   1   6
TORSDOF 5
ENDMDL
MODEL 7
REMARK VINA RESULT:    -3.035     14.476     15.134
REMARK INTER + INTRA:          -4.112
REMARK INTER:                  -3.851
REMARK INTRA:                  -0.261
REMARK UNBOUND:                -0.190
REMARK SMILES CCCCCCC(=O)[O-]
REMARK SMILES IDX 5 1 6 2 7 3 8 4 9 5 4 6 3 7 2 8 1 9
REMARK H PARENT
REMARK Flexibility Score: inf
ROOT
ATOM      1  C   UNL     1     -95.259  46.633 -35.773  1.00  0.00     0.006 C 
ENDROOT
BRANCH   1   2
ATOM      2  C   UNL     1     -96.567  47.274 -35.290  1.00  0.00     0.053 C 
BRANCH   2   3
ATOM      3  C   UNL     1     -96.846  46.884 -33.872  1.00  0.00     0.041 C 
ATOM      4  O   UNL     1     -95.999  46.218 -33.220  1.00  0.00    -0.550 OA
ATOM      5  O   UNL     1     -98.062  47.212 -33.287  1.00  0.00    -0.550 OA
ENDBRANCH   2   3
ENDBRANCH   1   2
BRANCH   1   6
ATOM      6  C   UNL     1     -95.493  45.489 -36.773  1.00  0.00     0.000 C 
BRANCH   6   7
ATOM      7  C   UNL     1     -96.617  45.802 -37.776  1.00  0.00    -0.000 C 
BRANCH   7   8
ATOM      8  C   UNL     1     -96.109  45.875 -39.224  1.00  0.00    -0.003 C 
ATOM      9  C   UNL     1     -95.694  47.287 -39.637  1.00  0.00     0.004 C 
ENDBRANCH   7   8
ENDBRANCH   6   7
ENDBRANCH   1   6
TORSDOF 5
ENDMDL
MODEL 8
REMARK VINA RESULT:    -2.977     14.846     15.624
REMARK INTER + INTRA:          -4.036
REMARK INTER:                  -3.830
REMARK INTRA:                  -0.207
REMARK UNBOUND:                -0.190
REMARK SMILES CCCCCCC(=O)[O-]
REMARK SMILES IDX 5 1 6 2 7 3 8 4 9 5 4 6 3 7 2 8 1 9
REMARK H PARENT
REMARK Flexibility Score: inf
ROOT
ATOM      1  C   UNL     1    -101.918  41.214 -47.744  1.00  0.00     0.006 C 
ENDROOT
BRANCH   1   2
ATOM      2  C   UNL     1    -102.941  41.259 -48.887  1.00  0.00     0.053 C 
BRANCH   2   3
ATOM      3  C   UNL     1    -103.875  40.093 -48.798  1.00  0.00     0.041 C 
ATOM      4  O   UNL     1    -105.109  40.281 -48.633  1.00  0.00    -0.550 OA
ATOM      5  O   UNL     1    -103.376  38.798 -48.845  1.00  0.00    -0.550 OA
ENDBRANCH   2   3
ENDBRANCH   1   2
BRANCH   1   6
ATOM      6  C   UNL     1    -101.863  42.526 -46.945  1.00  0.00     0.000 C 
BRANCH   6   7
ATOM      7  C   UNL     1    -101.588  43.749 -47.836  1.00  0.00    -0.000 C 
BRANCH   7   8
ATOM      8  C   UNL     1    -100.179  43.727 -48.447  1.00  0.00    -0.003 C 
ATOM      9  C   UNL     1     -99.074  43.811 -47.394  1.00  0.00     0.004 C 
ENDBRANCH   7   8
ENDBRANCH   6   7
ENDBRANCH   1   6
TORSDOF 5
ENDMDL
MODEL 9
REMARK VINA RESULT:    -2.918     15.572     16.253
REMARK INTER + INTRA:          -3.960
REMARK INTER:                  -3.761
REMARK INTRA:                  -0.199
REMARK UNBOUND:                -0.190
REMARK SMILES CCCCCCC(=O)[O-]
REMARK SMILES IDX 5 1 6 2 7 3 8 4 9 5 4 6 3 7 2 8 1 9
REMARK H PARENT
REMARK Flexibility Score: inf
ROOT
ATOM      1  C   UNL     1    -108.713  44.490 -42.492  1.00  0.00     0.006 C 
ENDROOT
BRANCH   1   2
ATOM      2  C   UNL     1    -108.111  43.095 -42.278  1.00  0.00     0.053 C 
BRANCH   2   3
ATOM      3  C   UNL     1    -108.027  42.781 -40.818  1.00  0.00     0.041 C 
ATOM      4  O   UNL     1    -107.568  43.633 -40.012  1.00  0.00    -0.550 OA
ATOM      5  O   UNL     1    -108.409  41.529 -40.352  1.00  0.00    -0.550 OA
ENDBRANCH   2   3
ENDBRANCH   1   2
BRANCH   1   6
ATOM      6  C   UNL     1    -109.264  44.688 -43.913  1.00  0.00     0.000 C 
BRANCH   6   7
ATOM      7  C   UNL     1    -109.216  43.397 -44.750  1.00  0.00    -0.000 C 
BRANCH   7   8
ATOM      8  C   UNL     1    -109.115  43.676 -46.257  1.00  0.00    -0.003 C 
ATOM      9  C   UNL     1    -108.861  45.150 -46.573  1.00  0.00     0.004 C 
ENDBRANCH   7   8
ENDBRANCH   6   7
ENDBRANCH   1   6
TORSDOF 5
ENDMDL
