MODEL 1
REMARK VINA RESULT:    -5.472      0.000      0.000
REMARK INTER + INTRA:         -14.073
REMARK INTER:                 -11.871
REMARK INTRA:                  -2.202
REMARK UNBOUND:                -2.202
REMARK SMILES CCCCCCCCCCCCCCCCCCCCCC(=O)[O-]
REMARK SMILES IDX 12 1 11 2 10 3 9 4 8 5 7 6 6 7 5 8 4 9 3 10 2 11 1 12 13 13
REMARK SMILES IDX 14 14 15 15 16 16 17 17 18 18 19 19 20 20 21 21 22 22 23 23
REMARK SMILES IDX 24 24
REMARK H PARENT
REMARK Flexibility Score: inf
ROOT
ATOM      1  C   UNL     1       7.473  22.588  -4.941  1.00  0.00     0.000 C 
ENDROOT
BRANCH   1   2
ATOM      2  C   UNL     1       8.314  21.474  -5.591  1.00  0.00     0.000 C 
BRANCH   2   3
ATOM      3  C   UNL     1       9.564  22.020  -6.300  1.00  0.00     0.000 C 
BRANCH   3   4
ATOM      4  C   UNL     1       9.985  21.151  -7.498  1.00  0.00    -0.000 C 
BRANCH   4   5
ATOM      5  C   UNL     1       9.888  21.897  -8.841  1.00  0.00    -0.000 C 
BRANCH   5   6
ATOM      6  C   UNL     1      10.223  23.402  -8.783  1.00  0.00    -0.000 C 
BRANCH   6   7
ATOM      7  C   UNL     1      11.630  23.776  -9.279  1.00  0.00    -0.000 C 
BRANCH   7   8
ATOM      8  C   UNL     1      12.548  24.269  -8.147  1.00  0.00    -0.000 C 
BRANCH   8   9
ATOM      9  C   UNL     1      13.536  23.191  -7.676  1.00  0.00    -0.000 C 
BRANCH   9  10
ATOM     10  C   UNL     1      13.121  22.553  -6.342  1.00  0.00    -0.000 C 
BRANCH  10  11
ATOM     11  C   UNL     1      14.158  22.840  -5.250  1.00  0.00    -0.003 C 
ATOM     12  C   UNL     1      13.531  22.767  -3.861  1.00  0.00     0.004 C 
ENDBRANCH  10  11
ENDBRANCH   9  10
ENDBRANCH   8   9
ENDBRANCH   7   8
ENDBRANCH   6   7
ENDBRANCH   5   6
ENDBRANCH   4   5
ENDBRANCH   3   4
ENDBRANCH   2   3
ENDBRANCH   1   2
BRANCH   1  13
ATOM     13  C   UNL     1       6.421  23.171  -5.899  1.00  0.00     0.000 C 
BRANCH  13  14
ATOM     14  C   UNL     1       6.811  24.507  -6.559  1.00  0.00     0.000 C 
BRANCH  14  15
ATOM     15  C   UNL     1       6.914  24.436  -8.098  1.00  0.00     0.000 C 
BRANCH  15  16
ATOM     16  C   UNL     1       6.180  23.212  -8.675  1.00  0.00     0.000 C 
BRANCH  16  17
ATOM     17  C   UNL     1       5.922  23.323 -10.188  1.00  0.00     0.000 C 
BRANCH  17  18
ATOM     18  C   UNL     1       4.670  24.133 -10.578  1.00  0.00     0.000 C 
BRANCH  18  19
ATOM     19  C   UNL     1       4.638  24.502 -12.071  1.00  0.00     0.000 C 
BRANCH  19  20
ATOM     20  C   UNL     1       3.684  25.675 -12.374  1.00  0.00     0.006 C 
BRANCH  20  21
ATOM     21  C   UNL     1       4.339  27.058 -12.225  1.00  0.00     0.053 C 
BRANCH  21  22
ATOM     22  C   UNL     1       3.332  28.165 -12.175  1.00  0.00     0.041 C 
ATOM     23  O   UNL     1       2.227  28.043 -12.767  1.00  0.00    -0.550 OA
ATOM     24  O   UNL     1       3.608  29.327 -11.466  1.00  0.00    -0.550 OA
ENDBRANCH  21  22
ENDBRANCH  20  21
ENDBRANCH  19  20
ENDBRANCH  18  19
ENDBRANCH  17  18
ENDBRANCH  16  17
ENDBRANCH  15  16
ENDBRANCH  14  15
ENDBRANCH  13  14
ENDBRANCH   1  13
TORSDOF 20
ENDMDL
MODEL 2
REMARK VINA RESULT:    -5.423      5.152      9.849
REMARK INTER + INTRA:         -13.966
REMARK INTER:                 -11.758
REMARK INTRA:                  -2.208
REMARK UNBOUND:                -2.202
REMARK SMILES CCCCCCCCCCCCCCCCCCCCCC(=O)[O-]
REMARK SMILES IDX 12 1 11 2 10 3 9 4 8 5 7 6 6 7 5 8 4 9 3 10 2 11 1 12 13 13
REMARK SMILES IDX 14 14 15 15 16 16 17 17 18 18 19 19 20 20 21 21 22 22 23 23
REMARK SMILES IDX 24 24
REMARK H PARENT
REMARK Flexibility Score: inf
ROOT
ATOM      1  C   UNL     1      13.248  22.879  -7.127  1.00  0.00     0.000 C 
ENDROOT
BRANCH   1   2
ATOM      2  C   UNL     1      13.357  24.175  -7.951  1.00  0.00     0.000 C 
BRANCH   2   3
ATOM      3  C   UNL     1      12.001  24.622  -8.522  1.00  0.00     0.000 C 
BRANCH   3   4
ATOM      4  C   UNL     1      12.014  24.712 -10.058  1.00  0.00    -0.000 C 
BRANCH   4   5
ATOM      5  C   UNL     1      11.124  23.648 -10.727  1.00  0.00    -0.000 C 
BRANCH   5   6
ATOM      6  C   UNL     1      10.598  22.546  -9.784  1.00  0.00    -0.000 C 
BRANCH   6   7
ATOM      7  C   UNL     1       9.066  22.445  -9.691  1.00  0.00    -0.000 C 
BRANCH   7   8
ATOM      8  C   UNL     1       8.536  22.737  -8.276  1.00  0.00    -0.000 C 
BRANCH   8   9
ATOM      9  C   UNL     1       7.697  24.023  -8.213  1.00  0.00    -0.000 C 
BRANCH   9  10
ATOM     10  C   UNL     1       6.351  23.815  -7.501  1.00  0.00    -0.000 C 
BRANCH  10  11
ATOM     11  C   UNL     1       6.531  23.808  -5.978  1.00  0.00    -0.003 C 
ATOM     12  C   UNL     1       6.466  25.222  -5.409  1.00  0.00     0.004 C 
ENDBRANCH  10  11
ENDBRANCH   9  10
ENDBRANCH   8   9
ENDBRANCH   7   8
ENDBRANCH   6   7
ENDBRANCH   5   6
ENDBRANCH   4   5
ENDBRANCH   3   4
ENDBRANCH   2   3
ENDBRANCH   1   2
BRANCH   1  13
ATOM     13  C   UNL     1      14.548  22.541  -6.380  1.00  0.00     0.000 C 
BRANCH  13  14
ATOM     14  C   UNL     1      15.828  22.618  -7.235  1.00  0.00     0.000 C 
BRANCH  14  15
ATOM     15  C   UNL     1      16.948  23.472  -6.603  1.00  0.00     0.000 C 
BRANCH  15  16
ATOM     16  C   UNL     1      17.050  24.867  -7.244  1.00  0.00     0.000 C 
BRANCH  16  17
ATOM     17  C   UNL     1      16.795  26.010  -6.245  1.00  0.00     0.000 C 
BRANCH  17  18
ATOM     18  C   UNL     1      15.403  25.997  -5.583  1.00  0.00     0.000 C 
BRANCH  18  19
ATOM     19  C   UNL     1      15.473  26.011  -4.046  1.00  0.00     0.000 C 
BRANCH  19  20
ATOM     20  C   UNL     1      15.186  24.628  -3.425  1.00  0.00     0.006 C 
BRANCH  20  21
ATOM     21  C   UNL     1      14.106  24.656  -2.329  1.00  0.00     0.053 C 
BRANCH  21  22
ATOM     22  C   UNL     1      13.427  23.333  -2.165  1.00  0.00     0.041 C 
ATOM     23  O   UNL     1      13.264  22.842  -1.017  1.00  0.00    -0.550 OA
ATOM     24  O   UNL     1      12.964  22.644  -3.279  1.00  0.00    -0.550 OA
ENDBRANCH  21  22
ENDBRANCH  20  21
ENDBRANCH  19  20
ENDBRANCH  18  19
ENDBRANCH  17  18
ENDBRANCH  16  17
ENDBRANCH  15  16
ENDBRANCH  14  15
ENDBRANCH  13  14
ENDBRANCH   1  13
TORSDOF 20
ENDMDL
MODEL 3
REMARK VINA RESULT:    -5.350      4.763      8.327
REMARK INTER + INTRA:         -13.808
REMARK INTER:                 -11.511
REMARK INTRA:                  -2.297
REMARK UNBOUND:                -2.202
REMARK SMILES CCCCCCCCCCCCCCCCCCCCCC(=O)[O-]
REMARK SMILES IDX 12 1 11 2 10 3 9 4 8 5 7 6 6 7 5 8 4 9 3 10 2 11 1 12 13 13
REMARK SMILES IDX 14 14 15 15 16 16 17 17 18 18 19 19 20 20 21 21 22 22 23 23
REMARK SMILES IDX 24 24
REMARK H PARENT
REMARK Flexibility Score: inf
ROOT
ATOM      1  C   UNL     1       6.001  23.349 -10.137  1.00  0.00     0.000 C 
ENDROOT
BRANCH   1   2
ATOM      2  C   UNL     1       5.144  22.256  -9.473  1.00  0.00     0.000 C 
BRANCH   2   3
ATOM      3  C   UNL     1       3.815  22.804  -8.926  1.00  0.00     0.000 C 
BRANCH   3   4
ATOM      4  C   UNL     1       3.710  22.666  -7.398  1.00  0.00    -0.000 C 
BRANCH   4   5
ATOM      5  C   UNL     1       5.084  22.579  -6.709  1.00  0.00    -0.000 C 
BRANCH   5   6
ATOM      6  C   UNL     1       5.466  23.801  -5.849  1.00  0.00    -0.000 C 
BRANCH   6   7
ATOM      7  C   UNL     1       6.974  23.974  -5.595  1.00  0.00    -0.000 C 
BRANCH   7   8
ATOM      8  C   UNL     1       7.834  23.045  -6.470  1.00  0.00    -0.000 C 
BRANCH   8   9
ATOM      9  C   UNL     1       8.578  21.981  -5.648  1.00  0.00    -0.000 C 
BRANCH   9  10
ATOM     10  C   UNL     1       9.966  21.655  -6.223  1.00  0.00    -0.000 C 
BRANCH  10  11
ATOM     11  C   UNL     1       9.921  20.385  -7.079  1.00  0.00    -0.003 C 
ATOM     12  C   UNL     1      11.228  20.186  -7.839  1.00  0.00     0.004 C 
ENDBRANCH  10  11
ENDBRANCH   9  10
ENDBRANCH   8   9
ENDBRANCH   7   8
ENDBRANCH   6   7
ENDBRANCH   5   6
ENDBRANCH   4   5
ENDBRANCH   3   4
ENDBRANCH   2   3
ENDBRANCH   1   2
BRANCH   1  13
ATOM     13  C   UNL     1       7.274  22.788 -10.791  1.00  0.00     0.000 C 
BRANCH  13  14
ATOM     14  C   UNL     1       8.335  22.263  -9.804  1.00  0.00     0.000 C 
BRANCH  14  15
ATOM     15  C   UNL     1       9.347  23.336  -9.349  1.00  0.00     0.000 C 
BRANCH  15  16
ATOM     16  C   UNL     1      10.622  23.338 -10.210  1.00  0.00     0.000 C 
BRANCH  16  17
ATOM     17  C   UNL     1      11.773  24.144  -9.581  1.00  0.00     0.000 C 
BRANCH  17  18
ATOM     18  C   UNL     1      12.045  23.839  -8.096  1.00  0.00     0.000 C 
BRANCH  18  19
ATOM     19  C   UNL     1      13.533  23.967  -7.722  1.00  0.00     0.000 C 
BRANCH  19  20
ATOM     20  C   UNL     1      14.145  22.633  -7.250  1.00  0.00     0.006 C 
BRANCH  20  21
ATOM     21  C   UNL     1      15.549  22.781  -6.637  1.00  0.00     0.053 C 
BRANCH  21  22
ATOM     22  C   UNL     1      15.502  23.049  -5.164  1.00  0.00     0.041 C 
ATOM     23  O   UNL     1      14.418  23.378  -4.614  1.00  0.00    -0.550 OA
ATOM     24  O   UNL     1      16.653  22.927  -4.397  1.00  0.00    -0.550 OA
ENDBRANCH  21  22
ENDBRANCH  20  21
ENDBRANCH  19  20
ENDBRANCH  18  19
ENDBRANCH  17  18
ENDBRANCH  16  17
ENDBRANCH  15  16
ENDBRANCH  14  15
ENDBRANCH  13  14
ENDBRANCH   1  13
TORSDOF 20
ENDMDL
MODEL 4
REMARK VINA RESULT:    -5.336      4.509      8.764
REMARK INTER + INTRA:         -13.777
REMARK INTER:                 -11.189
REMARK INTRA:                  -2.587
REMARK UNBOUND:                -2.202
REMARK SMILES CCCCCCCCCCCCCCCCCCCCCC(=O)[O-]
REMARK SMILES IDX 12 1 11 2 10 3 9 4 8 5 7 6 6 7 5 8 4 9 3 10 2 11 1 12 13 13
REMARK SMILES IDX 14 14 15 15 16 16 17 17 18 18 19 19 20 20 21 21 22 22 23 23
REMARK SMILES IDX 24 24
REMARK H PARENT
REMARK Flexibility Score: inf
ROOT
ATOM      1  C   UNL     1      10.007  22.904 -10.093  1.00  0.00     0.000 C 
ENDROOT
BRANCH   1   2
ATOM      2  C   UNL     1       8.736  22.258  -9.511  1.00  0.00     0.000 C 
BRANCH   2   3
ATOM      3  C   UNL     1       7.487  22.556 -10.356  1.00  0.00     0.000 C 
BRANCH   3   4
ATOM      4  C   UNL     1       6.329  23.115  -9.511  1.00  0.00    -0.000 C 
BRANCH   4   5
ATOM      5  C   UNL     1       6.810  24.018  -8.361  1.00  0.00    -0.000 C 
BRANCH   5   6
ATOM      6  C   UNL     1       6.288  23.632  -6.961  1.00  0.00    -0.000 C 
BRANCH   6   7
ATOM      7  C   UNL     1       7.368  23.521  -5.871  1.00  0.00    -0.000 C 
BRANCH   7   8
ATOM      8  C   UNL     1       7.600  22.072  -5.409  1.00  0.00    -0.000 C 
BRANCH   8   9
ATOM      9  C   UNL     1       9.080  21.772  -5.125  1.00  0.00    -0.000 C 
BRANCH   9  10
ATOM     10  C   UNL     1       9.933  21.752  -6.403  1.00  0.00    -0.000 C 
BRANCH  10  11
ATOM     11  C   UNL     1       9.917  20.364  -7.052  1.00  0.00    -0.003 C 
ATOM     12  C   UNL     1      11.260  20.041  -7.697  1.00  0.00     0.004 C 
ENDBRANCH  10  11
ENDBRANCH   9  10
ENDBRANCH   8   9
ENDBRANCH   7   8
ENDBRANCH   6   7
ENDBRANCH   5   6
ENDBRANCH   4   5
ENDBRANCH   3   4
ENDBRANCH   2   3
ENDBRANCH   1   2
BRANCH   1  13
ATOM     13  C   UNL     1      10.599  23.982  -9.171  1.00  0.00     0.000 C 
BRANCH  13  14
ATOM     14  C   UNL     1      12.112  24.220  -9.336  1.00  0.00     0.000 C 
BRANCH  14  15
ATOM     15  C   UNL     1      12.873  24.340  -7.998  1.00  0.00     0.000 C 
BRANCH  15  16
ATOM     16  C   UNL     1      13.542  23.017  -7.586  1.00  0.00     0.000 C 
BRANCH  16  17
ATOM     17  C   UNL     1      13.385  22.704  -6.087  1.00  0.00     0.000 C 
BRANCH  17  18
ATOM     18  C   UNL     1      14.702  22.666  -5.289  1.00  0.00     0.000 C 
BRANCH  18  19
ATOM     19  C   UNL     1      14.664  23.550  -4.030  1.00  0.00     0.000 C 
BRANCH  19  20
ATOM     20  C   UNL     1      15.779  24.615  -4.016  1.00  0.00     0.006 C 
BRANCH  20  21
ATOM     21  C   UNL     1      16.481  24.791  -5.374  1.00  0.00     0.053 C 
BRANCH  21  22
ATOM     22  C   UNL     1      16.036  26.028  -6.090  1.00  0.00     0.041 C 
ATOM     23  O   UNL     1      14.823  26.364  -6.081  1.00  0.00    -0.550 OA
ATOM     24  O   UNL     1      16.963  26.817  -6.759  1.00  0.00    -0.550 OA
ENDBRANCH  21  22
ENDBRANCH  20  21
ENDBRANCH  19  20
ENDBRANCH  18  19
ENDBRANCH  17  18
ENDBRANCH  16  17
ENDBRANCH  15  16
ENDBRANCH  14  15
ENDBRANCH  13  14
ENDBRANCH   1  13
TORSDOF 20
ENDMDL
MODEL 5
REMARK VINA RESULT:    -5.244      3.587      6.230
REMARK INTER + INTRA:         -13.578
REMARK INTER:                 -11.027
REMARK INTRA:                  -2.551
REMARK UNBOUND:                -2.202
REMARK SMILES CCCCCCCCCCCCCCCCCCCCCC(=O)[O-]
REMARK SMILES IDX 12 1 11 2 10 3 9 4 8 5 7 6 6 7 5 8 4 9 3 10 2 11 1 12 13 13
REMARK SMILES IDX 14 14 15 15 16 16 17 17 18 18 19 19 20 20 21 21 22 22 23 23
REMARK SMILES IDX 24 24
REMARK H PARENT
REMARK Flexibility Score: inf
ROOT
ATOM      1  C   UNL     1      14.164  22.543  -6.406  1.00  0.00     0.000 C 
ENDROOT
BRANCH   1   2
ATOM      2  C   UNL     1      15.357  22.562  -7.379  1.00  0.00     0.000 C 
BRANCH   2   3
ATOM      3  C   UNL     1      16.710  22.536  -6.649  1.00  0.00     0.000 C 
BRANCH   3   4
ATOM      4  C   UNL     1      17.882  22.901  -7.576  1.00  0.00    -0.000 C 
BRANCH   4   5
ATOM      5  C   UNL     1      17.995  24.416  -7.828  1.00  0.00    -0.000 C 
BRANCH   5   6
ATOM      6  C   UNL     1      17.807  25.305  -6.581  1.00  0.00    -0.000 C 
BRANCH   6   7
ATOM      7  C   UNL     1      16.645  26.310  -6.666  1.00  0.00    -0.000 C 
BRANCH   7   8
ATOM      8  C   UNL     1      15.461  25.929  -5.761  1.00  0.00    -0.000 C 
BRANCH   8   9
ATOM      9  C   UNL     1      15.859  25.822  -4.281  1.00  0.00    -0.000 C 
BRANCH   9  10
ATOM     10  C   UNL     1      15.043  24.762  -3.525  1.00  0.00    -0.000 C 
BRANCH  10  11
ATOM     11  C   UNL     1      15.894  23.519  -3.236  1.00  0.00    -0.003 C 
ATOM     12  C   UNL     1      17.381  23.858  -3.229  1.00  0.00     0.004 C 
ENDBRANCH  10  11
ENDBRANCH   9  10
ENDBRANCH   8   9
ENDBRANCH   7   8
ENDBRANCH   6   7
ENDBRANCH   5   6
ENDBRANCH   4   5
ENDBRANCH   3   4
ENDBRANCH   2   3
ENDBRANCH   1   2
BRANCH   1  13
ATOM     13  C   UNL     1      12.831  22.874  -7.096  1.00  0.00     0.000 C 
BRANCH  13  14
ATOM     14  C   UNL     1      12.878  24.075  -8.060  1.00  0.00     0.000 C 
BRANCH  14  15
ATOM     15  C   UNL     1      11.741  24.081  -9.104  1.00  0.00     0.000 C 
BRANCH  15  16
ATOM     16  C   UNL     1      10.723  22.952  -8.865  1.00  0.00     0.000 C 
BRANCH  16  17
ATOM     17  C   UNL     1       9.608  22.911  -9.925  1.00  0.00     0.000 C 
BRANCH  17  18
ATOM     18  C   UNL     1       8.322  22.183  -9.489  1.00  0.00     0.000 C 
BRANCH  18  19
ATOM     19  C   UNL     1       7.045  22.850 -10.030  1.00  0.00     0.000 C 
BRANCH  19  20
ATOM     20  C   UNL     1       6.152  23.422  -8.909  1.00  0.00     0.006 C 
BRANCH  20  21
ATOM     21  C   UNL     1       6.943  23.962  -7.705  1.00  0.00     0.053 C 
BRANCH  21  22
ATOM     22  C   UNL     1       6.367  23.515  -6.398  1.00  0.00     0.041 C 
ATOM     23  O   UNL     1       5.192  23.067  -6.343  1.00  0.00    -0.550 OA
ATOM     24  O   UNL     1       7.132  23.583  -5.240  1.00  0.00    -0.550 OA
ENDBRANCH  21  22
ENDBRANCH  20  21
ENDBRANCH  19  20
ENDBRANCH  18  19
ENDBRANCH  17  18
ENDBRANCH  16  17
ENDBRANCH  15  16
ENDBRANCH  14  15
ENDBRANCH  13  14
ENDBRANCH   1  13
TORSDOF 20
ENDMDL
MODEL 6
REMARK VINA RESULT:    -5.218      3.402      4.119
REMARK INTER + INTRA:         -13.521
REMARK INTER:                 -11.184
REMARK INTRA:                  -2.338
REMARK UNBOUND:                -2.202
REMARK SMILES CCCCCCCCCCCCCCCCCCCCCC(=O)[O-]
REMARK SMILES IDX 12 1 11 2 10 3 9 4 8 5 7 6 6 7 5 8 4 9 3 10 2 11 1 12 13 13
REMARK SMILES IDX 14 14 15 15 16 16 17 17 18 18 19 19 20 20 21 21 22 22 23 23
REMARK SMILES IDX 24 24
REMARK H PARENT
REMARK Flexibility Score: inf
ROOT
ATOM      1  C   UNL     1       7.794  22.784  -5.289  1.00  0.00     0.000 C 
ENDROOT
BRANCH   1   2
ATOM      2  C   UNL     1       8.645  21.576  -5.723  1.00  0.00     0.000 C 
BRANCH   2   3
ATOM      3  C   UNL     1       9.910  21.995  -6.490  1.00  0.00     0.000 C 
BRANCH   3   4
ATOM      4  C   UNL     1      10.100  21.193  -7.789  1.00  0.00    -0.000 C 
BRANCH   4   5
ATOM      5  C   UNL     1      10.165  22.089  -9.040  1.00  0.00    -0.000 C 
BRANCH   5   6
ATOM      6  C   UNL     1      10.470  23.577  -8.766  1.00  0.00    -0.000 C 
BRANCH   6   7
ATOM      7  C   UNL     1      11.807  24.084  -9.334  1.00  0.00    -0.000 C 
BRANCH   7   8
ATOM      8  C   UNL     1      12.837  24.400  -8.236  1.00  0.00    -0.000 C 
BRANCH   8   9
ATOM      9  C   UNL     1      13.295  23.146  -7.476  1.00  0.00    -0.000 C 
BRANCH   9  10
ATOM     10  C   UNL     1      14.357  23.457  -6.410  1.00  0.00    -0.000 C 
BRANCH  10  11
ATOM     11  C   UNL     1      15.040  24.801  -6.691  1.00  0.00    -0.003 C 
ATOM     12  C   UNL     1      16.498  24.604  -7.093  1.00  0.00     0.004 C 
ENDBRANCH  10  11
ENDBRANCH   9  10
ENDBRANCH   8   9
ENDBRANCH   7   8
ENDBRANCH   6   7
ENDBRANCH   5   6
ENDBRANCH   4   5
ENDBRANCH   3   4
ENDBRANCH   2   3
ENDBRANCH   1   2
BRANCH   1  13
ATOM     13  C   UNL     1       6.710  23.143  -6.317  1.00  0.00     0.000 C 
BRANCH  13  14
ATOM     14  C   UNL     1       6.920  24.486  -7.043  1.00  0.00     0.000 C 
BRANCH  14  15
ATOM     15  C   UNL     1       6.991  24.360  -8.579  1.00  0.00     0.000 C 
BRANCH  15  16
ATOM     16  C   UNL     1       6.833  22.904  -9.053  1.00  0.00     0.000 C 
BRANCH  16  17
ATOM     17  C   UNL     1       5.703  22.724 -10.082  1.00  0.00     0.000 C 
BRANCH  17  18
ATOM     18  C   UNL     1       4.305  23.151  -9.595  1.00  0.00     0.000 C 
BRANCH  18  19
ATOM     19  C   UNL     1       3.882  22.442  -8.296  1.00  0.00     0.000 C 
BRANCH  19  20
ATOM     20  C   UNL     1       2.397  22.025  -8.301  1.00  0.00     0.006 C 
BRANCH  20  21
ATOM     21  C   UNL     1       1.723  22.130  -6.922  1.00  0.00     0.053 C 
BRANCH  21  22
ATOM     22  C   UNL     1       0.306  21.648  -6.942  1.00  0.00     0.041 C 
ATOM     23  O   UNL     1      -0.004  20.617  -7.595  1.00  0.00    -0.550 OA
ATOM     24  O   UNL     1      -0.673  22.332  -6.232  1.00  0.00    -0.550 OA
ENDBRANCH  21  22
ENDBRANCH  20  21
ENDBRANCH  19  20
ENDBRANCH  18  19
ENDBRANCH  17  18
ENDBRANCH  16  17
ENDBRANCH  15  16
ENDBRANCH  14  15
ENDBRANCH  13  14
ENDBRANCH   1  13
TORSDOF 20
ENDMDL
MODEL 7
REMARK VINA RESULT:    -5.199      5.007      9.886
REMARK INTER + INTRA:         -13.481
REMARK INTER:                 -11.031
REMARK INTRA:                  -2.450
REMARK UNBOUND:                -2.202
REMARK SMILES CCCCCCCCCCCCCCCCCCCCCC(=O)[O-]
REMARK SMILES IDX 12 1 11 2 10 3 9 4 8 5 7 6 6 7 5 8 4 9 3 10 2 11 1 12 13 13
REMARK SMILES IDX 14 14 15 15 16 16 17 17 18 18 19 19 20 20 21 21 22 22 23 23
REMARK SMILES IDX 24 24
REMARK H PARENT
REMARK Flexibility Score: inf
ROOT
ATOM      1  C   UNL     1      13.399  22.198  -7.177  1.00  0.00     0.000 C 
ENDROOT
BRANCH   1   2
ATOM      2  C   UNL     1      12.134  21.396  -7.532  1.00  0.00     0.000 C 
BRANCH   2   3
ATOM      3  C   UNL     1      10.908  21.844  -6.719  1.00  0.00     0.000 C 
BRANCH   3   4
ATOM      4  C   UNL     1       9.648  21.989  -7.590  1.00  0.00    -0.000 C 
BRANCH   4   5
ATOM      5  C   UNL     1       9.973  22.176  -9.083  1.00  0.00    -0.000 C 
BRANCH   5   6
ATOM      6  C   UNL     1       8.900  22.927  -9.899  1.00  0.00    -0.000 C 
BRANCH   6   7
ATOM      7  C   UNL     1       7.491  22.309  -9.848  1.00  0.00    -0.000 C 
BRANCH   7   8
ATOM      8  C   UNL     1       6.436  23.280  -9.289  1.00  0.00    -0.000 C 
BRANCH   8   9
ATOM      9  C   UNL     1       7.056  24.573  -8.739  1.00  0.00    -0.000 C 
BRANCH   9  10
ATOM     10  C   UNL     1       6.993  24.652  -7.205  1.00  0.00    -0.000 C 
BRANCH  10  11
ATOM     11  C   UNL     1       6.301  23.415  -6.621  1.00  0.00    -0.003 C 
ATOM     12  C   UNL     1       7.010  22.931  -5.360  1.00  0.00     0.004 C 
ENDBRANCH  10  11
ENDBRANCH   9  10
ENDBRANCH   8   9
ENDBRANCH   7   8
ENDBRANCH   6   7
ENDBRANCH   5   6
ENDBRANCH   4   5
ENDBRANCH   3   4
ENDBRANCH   2   3
ENDBRANCH   1   2
BRANCH   1  13
ATOM     13  C   UNL     1      13.316  23.665  -7.628  1.00  0.00     0.000 C 
BRANCH  13  14
ATOM     14  C   UNL     1      14.518  24.539  -7.223  1.00  0.00     0.000 C 
BRANCH  14  15
ATOM     15  C   UNL     1      15.844  23.757  -7.099  1.00  0.00     0.000 C 
BRANCH  15  16
ATOM     16  C   UNL     1      17.074  24.678  -7.180  1.00  0.00     0.000 C 
BRANCH  16  17
ATOM     17  C   UNL     1      16.762  26.136  -6.797  1.00  0.00     0.000 C 
BRANCH  17  18
ATOM     18  C   UNL     1      17.621  26.706  -5.652  1.00  0.00     0.000 C 
BRANCH  18  19
ATOM     19  C   UNL     1      17.178  26.205  -4.266  1.00  0.00     0.000 C 
BRANCH  19  20
ATOM     20  C   UNL     1      15.644  26.138  -4.119  1.00  0.00     0.006 C 
BRANCH  20  21
ATOM     21  C   UNL     1      15.172  25.170  -3.020  1.00  0.00     0.053 C 
BRANCH  21  22
ATOM     22  C   UNL     1      15.101  23.754  -3.500  1.00  0.00     0.041 C 
ATOM     23  O   UNL     1      13.990  23.240  -3.797  1.00  0.00    -0.550 OA
ATOM     24  O   UNL     1      16.262  23.003  -3.628  1.00  0.00    -0.550 OA
ENDBRANCH  21  22
ENDBRANCH  20  21
ENDBRANCH  19  20
ENDBRANCH  18  19
ENDBRANCH  17  18
ENDBRANCH  16  17
ENDBRANCH  15  16
ENDBRANCH  14  15
ENDBRANCH  13  14
ENDBRANCH   1  13
TORSDOF 20
ENDMDL
MODEL 8
REMARK VINA RESULT:    -5.160      3.987      6.160
REMARK INTER + INTRA:         -13.395
REMARK INTER:                 -11.300
REMARK INTRA:                  -2.095
REMARK UNBOUND:                -2.202
REMARK SMILES CCCCCCCCCCCCCCCCCCCCCC(=O)[O-]
REMARK SMILES IDX 12 1 11 2 10 3 9 4 8 5 7 6 6 7 5 8 4 9 3 10 2 11 1 12 13 13
REMARK SMILES IDX 14 14 15 15 16 16 17 17 18 18 19 19 20 20 21 21 22 22 23 23
REMARK SMILES IDX 24 24
REMARK H PARENT
REMARK Flexibility Score: inf
ROOT
ATOM      1  C   UNL     1      11.907  24.397  -9.179  1.00  0.00     0.000 C 
ENDROOT
BRANCH   1   2
ATOM      2  C   UNL     1      12.328  23.491  -8.007  1.00  0.00     0.000 C 
BRANCH   2   3
ATOM      3  C   UNL     1      13.774  23.752  -7.553  1.00  0.00     0.000 C 
BRANCH   3   4
ATOM      4  C   UNL     1      14.415  22.515  -6.902  1.00  0.00    -0.000 C 
BRANCH   4   5
ATOM      5  C   UNL     1      15.086  22.830  -5.552  1.00  0.00    -0.000 C 
BRANCH   5   6
ATOM      6  C   UNL     1      16.628  22.827  -5.568  1.00  0.00    -0.000 C 
BRANCH   6   7
ATOM      7  C   UNL     1      17.266  22.791  -6.968  1.00  0.00    -0.000 C 
BRANCH   7   8
ATOM      8  C   UNL     1      17.516  24.196  -7.543  1.00  0.00    -0.000 C 
BRANCH   8   9
ATOM      9  C   UNL     1      17.478  25.291  -6.466  1.00  0.00    -0.000 C 
BRANCH   9  10
ATOM     10  C   UNL     1      16.353  26.310  -6.701  1.00  0.00    -0.000 C 
BRANCH  10  11
ATOM     11  C   UNL     1      15.451  26.426  -5.467  1.00  0.00    -0.003 C 
ATOM     12  C   UNL     1      16.226  26.127  -4.188  1.00  0.00     0.004 C 
ENDBRANCH  10  11
ENDBRANCH   9  10
ENDBRANCH   8   9
ENDBRANCH   7   8
ENDBRANCH   6   7
ENDBRANCH   5   6
ENDBRANCH   4   5
ENDBRANCH   3   4
ENDBRANCH   2   3
ENDBRANCH   1   2
BRANCH   1  13
ATOM     13  C   UNL     1      11.034  23.665 -10.210  1.00  0.00     0.000 C 
BRANCH  13  14
ATOM     14  C   UNL     1      10.217  22.485  -9.650  1.00  0.00     0.000 C 
BRANCH  14  15
ATOM     15  C   UNL     1       8.781  22.865  -9.230  1.00  0.00     0.000 C 
BRANCH  15  16
ATOM     16  C   UNL     1       7.745  22.516 -10.312  1.00  0.00     0.000 C 
BRANCH  16  17
ATOM     17  C   UNL     1       6.301  22.488  -9.778  1.00  0.00     0.000 C 
BRANCH  17  18
ATOM     18  C   UNL     1       6.008  23.486  -8.641  1.00  0.00     0.000 C 
BRANCH  18  19
ATOM     19  C   UNL     1       5.252  22.845  -7.464  1.00  0.00     0.000 C 
BRANCH  19  20
ATOM     20  C   UNL     1       5.668  23.430  -6.099  1.00  0.00     0.006 C 
BRANCH  20  21
ATOM     21  C   UNL     1       7.189  23.601  -5.939  1.00  0.00     0.053 C 
BRANCH  21  22
ATOM     22  C   UNL     1       7.859  22.342  -5.483  1.00  0.00     0.041 C 
ATOM     23  O   UNL     1       8.960  21.992  -5.983  1.00  0.00    -0.550 OA
ATOM     24  O   UNL     1       7.271  21.559  -4.497  1.00  0.00    -0.550 OA
ENDBRANCH  21  22
ENDBRANCH  20  21
ENDBRANCH  19  20
ENDBRANCH  18  19
ENDBRANCH  17  18
ENDBRANCH  16  17
ENDBRANCH  15  16
ENDBRANCH  14  15
ENDBRANCH  13  14
ENDBRANCH   1  13
TORSDOF 20
ENDMDL
MODEL 9
REMARK VINA RESULT:    -5.077      4.792      9.692
REMARK INTER + INTRA:         -13.214
REMARK INTER:                 -11.285
REMARK INTRA:                  -1.929
REMARK UNBOUND:                -2.202
REMARK SMILES CCCCCCCCCCCCCCCCCCCCCC(=O)[O-]
REMARK SMILES IDX 12 1 11 2 10 3 9 4 8 5 7 6 6 7 5 8 4 9 3 10 2 11 1 12 13 13
REMARK SMILES IDX 14 14 15 15 16 16 17 17 18 18 19 19 20 20 21 21 22 22 23 23
REMARK SMILES IDX 24 24
REMARK H PARENT
REMARK Flexibility Score: inf
ROOT
ATOM      1  C   UNL     1      10.182  21.991  -7.514  1.00  0.00     0.000 C 
ENDROOT
BRANCH   1   2
ATOM      2  C   UNL     1       9.912  23.228  -8.390  1.00  0.00     0.000 C 
BRANCH   2   3
ATOM      3  C   UNL     1       9.381  22.855  -9.784  1.00  0.00     0.000 C 
BRANCH   3   4
ATOM      4  C   UNL     1       8.066  22.060  -9.716  1.00  0.00    -0.000 C 
BRANCH   4   5
ATOM      5  C   UNL     1       6.911  22.750 -10.465  1.00  0.00    -0.000 C 
BRANCH   5   6
ATOM      6  C   UNL     1       5.498  22.252 -10.095  1.00  0.00    -0.000 C 
BRANCH   6   7
ATOM      7  C   UNL     1       4.650  23.245  -9.281  1.00  0.00    -0.000 C 
BRANCH   7   8
ATOM      8  C   UNL     1       3.986  22.594  -8.055  1.00  0.00    -0.000 C 
BRANCH   8   9
ATOM      9  C   UNL     1       4.724  22.912  -6.745  1.00  0.00    -0.000 C 
BRANCH   9  10
ATOM     10  C   UNL     1       6.090  23.572  -6.982  1.00  0.00    -0.000 C 
BRANCH  10  11
ATOM     11  C   UNL     1       6.799  23.861  -5.654  1.00  0.00    -0.003 C 
ATOM     12  C   UNL     1       7.396  22.590  -5.060  1.00  0.00     0.004 C 
ENDBRANCH  10  11
ENDBRANCH   9  10
ENDBRANCH   8   9
ENDBRANCH   7   8
ENDBRANCH   6   7
ENDBRANCH   5   6
ENDBRANCH   4   5
ENDBRANCH   3   4
ENDBRANCH   2   3
ENDBRANCH   1   2
BRANCH   1  13
ATOM     13  C   UNL     1      11.667  21.836  -7.150  1.00  0.00     0.000 C 
BRANCH  13  14
ATOM     14  C   UNL     1      12.613  22.842  -7.833  1.00  0.00     0.000 C 
BRANCH  14  15
ATOM     15  C   UNL     1      13.757  23.338  -6.923  1.00  0.00     0.000 C 
BRANCH  15  16
ATOM     16  C   UNL     1      15.062  22.554  -7.145  1.00  0.00     0.000 C 
BRANCH  16  17
ATOM     17  C   UNL     1      16.310  23.454  -7.171  1.00  0.00     0.000 C 
BRANCH  17  18
ATOM     18  C   UNL     1      16.727  24.028  -5.802  1.00  0.00     0.000 C 
BRANCH  18  19
ATOM     19  C   UNL     1      16.807  22.953  -4.703  1.00  0.00     0.000 C 
BRANCH  19  20
ATOM     20  C   UNL     1      16.314  23.464  -3.334  1.00  0.00     0.006 C 
BRANCH  20  21
ATOM     21  C   UNL     1      15.025  24.299  -3.415  1.00  0.00     0.053 C 
BRANCH  21  22
ATOM     22  C   UNL     1      13.839  23.572  -2.861  1.00  0.00     0.041 C 
ATOM     23  O   UNL     1      13.371  23.888  -1.735  1.00  0.00    -0.550 OA
ATOM     24  O   UNL     1      13.245  22.551  -3.591  1.00  0.00    -0.550 OA
ENDBRANCH  21  22
ENDBRANCH  20  21
ENDBRANCH  19  20
ENDBRANCH  18  19
ENDBRANCH  17  18
ENDBRANCH  16  17
ENDBRANCH  15  16
ENDBRANCH  14  15
ENDBRANCH  13  14
ENDBRANCH   1  13
TORSDOF 20
ENDMDL
