MODEL 1
REMARK VINA RESULT:    -7.964      0.000      0.000
REMARK INTER + INTRA:          -8.663
REMARK INTER:                  -8.663
REMARK INTRA:                   0.000
REMARK UNBOUND:                 0.000
REMARK SMILES Cc1cc(O)c2c(c1)C(=O)c1cc(O)cc(O)c1C2=O
REMARK SMILES IDX 1 1 2 2 8 3 7 4 6 5 4 6 3 7 19 8 20 9 18 10 11 11 9 12 10 13
REMARK SMILES IDX 12 14 13 15 15 16 16 17 5 18 17 20 14 22
REMARK H PARENT 5 19 17 21 14 23
REMARK Flexibility Score: inf
ROOT
ATOM      1  C   UNL     1       6.711  -0.412   8.303  1.00  0.00     0.044 C 
ATOM      2  C   UNL     1       7.204   0.370   7.121  1.00  0.00    -0.047 A 
ATOM      3  C   UNL     1       6.456   1.446   6.627  1.00  0.00     0.016 A 
ATOM      4  C   UNL     1       6.930   2.212   5.548  1.00  0.00     0.038 A 
ATOM      5  C   UNL     1       8.184   1.914   4.971  1.00  0.00     0.076 A 
ATOM      6  C   UNL     1       8.916   0.795   5.446  1.00  0.00     0.127 A 
ATOM      7  C   UNL     1       8.434   0.060   6.533  1.00  0.00     0.050 A 
ATOM      8  C   UNL     1       8.716   2.835   3.933  1.00  0.00     0.201 C 
ATOM      9  O   UNL     1       9.960   2.984   3.805  1.00  0.00    -0.288 OA
ATOM     10  C   UNL     1       7.784   3.717   3.182  1.00  0.00     0.076 A 
ATOM     11  C   UNL     1       6.530   4.013   3.764  1.00  0.00     0.041 A 
ATOM     12  C   UNL     1       6.116   3.329   5.012  1.00  0.00     0.194 C 
ATOM     13  O   UNL     1       5.058   3.681   5.602  1.00  0.00    -0.289 OA
ATOM     14  C   UNL     1       5.680   4.949   3.152  1.00  0.00     0.059 A 
ATOM     15  C   UNL     1       6.058   5.581   1.964  1.00  0.00     0.120 A 
ATOM     16  C   UNL     1       7.276   5.262   1.366  1.00  0.00     0.093 A 
ATOM     17  C   UNL     1       8.132   4.318   1.945  1.00  0.00     0.131 A 
ENDROOT
BRANCH   6  18
ATOM     18  O   UNL     1      10.103   0.360   4.850  1.00  0.00    -0.507 OA
ATOM     19  H   UNL     1      10.234  -0.572   4.482  1.00  0.00     0.293 HD
ENDBRANCH   6  18
BRANCH  17  20
ATOM     20  O   UNL     1       9.292   3.984   1.242  1.00  0.00    -0.507 OA
ATOM     21  H   UNL     1      10.204   3.909   1.671  1.00  0.00     0.293 HD
ENDBRANCH  17  20
BRANCH  15  22
ATOM     22  O   UNL     1       5.223   6.519   1.361  1.00  0.00    -0.508 OA
ATOM     23  H   UNL     1       5.349   7.513   1.510  1.00  0.00     0.293 HD
ENDBRANCH  15  22
TORSDOF 3
ENDMDL
MODEL 2
REMARK VINA RESULT:    -7.896      1.192      3.453
REMARK INTER + INTRA:          -8.588
REMARK INTER:                  -8.588
REMARK INTRA:                   0.000
REMARK UNBOUND:                 0.000
REMARK SMILES Cc1cc(O)c2c(c1)C(=O)c1cc(O)cc(O)c1C2=O
REMARK SMILES IDX 1 1 2 2 8 3 7 4 6 5 4 6 3 7 19 8 20 9 18 10 11 11 9 12 10 13
REMARK SMILES IDX 12 14 13 15 15 16 16 17 5 18 17 20 14 22
REMARK H PARENT 5 19 17 21 14 23
REMARK Flexibility Score: inf
ROOT
ATOM      1  C   UNL     1       7.166  -0.657   8.959  1.00  0.00     0.044 C 
ATOM      2  C   UNL     1       6.753   0.418   7.997  1.00  0.00    -0.047 A 
ATOM      3  C   UNL     1       7.482   0.630   6.821  1.00  0.00     0.016 A 
ATOM      4  C   UNL     1       7.076   1.605   5.894  1.00  0.00     0.038 A 
ATOM      5  C   UNL     1       5.908   2.362   6.134  1.00  0.00     0.076 A 
ATOM      6  C   UNL     1       5.199   2.175   7.349  1.00  0.00     0.127 A 
ATOM      7  C   UNL     1       5.610   1.185   8.247  1.00  0.00     0.050 A 
ATOM      8  C   UNL     1       5.432   3.276   5.063  1.00  0.00     0.201 C 
ATOM      9  O   UNL     1       4.202   3.515   4.944  1.00  0.00    -0.288 OA
ATOM     10  C   UNL     1       6.382   3.752   4.024  1.00  0.00     0.076 A 
ATOM     11  C   UNL     1       7.549   2.992   3.787  1.00  0.00     0.041 A 
ATOM     12  C   UNL     1       7.873   1.843   4.666  1.00  0.00     0.194 C 
ATOM     13  O   UNL     1       8.841   1.085   4.384  1.00  0.00    -0.289 OA
ATOM     14  C   UNL     1       8.400   3.331   2.721  1.00  0.00     0.059 A 
ATOM     15  C   UNL     1       8.110   4.426   1.902  1.00  0.00     0.120 A 
ATOM     16  C   UNL     1       6.981   5.203   2.158  1.00  0.00     0.093 A 
ATOM     17  C   UNL     1       6.128   4.897   3.224  1.00  0.00     0.131 A 
ENDROOT
BRANCH   6  18
ATOM     18  O   UNL     1       4.109   2.966   7.717  1.00  0.00    -0.507 OA
ATOM     19  H   UNL     1       3.185   2.863   7.321  1.00  0.00     0.293 HD
ENDBRANCH   6  18
BRANCH  17  20
ATOM     20  O   UNL     1       5.069   5.774   3.474  1.00  0.00    -0.507 OA
ATOM     21  H   UNL     1       4.796   6.071   4.400  1.00  0.00     0.293 HD
ENDBRANCH  17  20
BRANCH  15  22
ATOM     22  O   UNL     1       8.945   4.758   0.838  1.00  0.00    -0.508 OA
ATOM     23  H   UNL     1       9.815   5.257   0.983  1.00  0.00     0.293 HD
ENDBRANCH  15  22
TORSDOF 3
ENDMDL
MODEL 3
REMARK VINA RESULT:    -7.493      1.503      5.463
REMARK INTER + INTRA:          -8.150
REMARK INTER:                  -8.150
REMARK INTRA:                   0.000
REMARK UNBOUND:                 0.000
REMARK SMILES Cc1cc(O)c2c(c1)C(=O)c1cc(O)cc(O)c1C2=O
REMARK SMILES IDX 1 1 2 2 8 3 7 4 6 5 4 6 3 7 19 8 20 9 18 10 11 11 9 12 10 13
REMARK SMILES IDX 12 14 13 15 15 16 16 17 5 18 17 20 14 22
REMARK H PARENT 5 19 17 21 14 23
REMARK Flexibility Score: inf
ROOT
ATOM      1  C   UNL     1       6.605   6.096   0.839  1.00  0.00     0.044 C 
ATOM      2  C   UNL     1       6.991   5.073   1.868  1.00  0.00    -0.047 A 
ATOM      3  C   UNL     1       6.067   4.668   2.838  1.00  0.00     0.016 A 
ATOM      4  C   UNL     1       6.404   3.679   3.778  1.00  0.00     0.038 A 
ATOM      5  C   UNL     1       7.677   3.068   3.731  1.00  0.00     0.076 A 
ATOM      6  C   UNL     1       8.624   3.515   2.774  1.00  0.00     0.127 A 
ATOM      7  C   UNL     1       8.259   4.486   1.836  1.00  0.00     0.050 A 
ATOM      8  C   UNL     1       7.942   1.927   4.646  1.00  0.00     0.201 C 
ATOM      9  O   UNL     1       8.741   1.018   4.299  1.00  0.00    -0.288 OA
ATOM     10  C   UNL     1       7.124   1.763   5.876  1.00  0.00     0.076 A 
ATOM     11  C   UNL     1       5.852   2.376   5.919  1.00  0.00     0.041 A 
ATOM     12  C   UNL     1       5.430   3.279   4.822  1.00  0.00     0.194 C 
ATOM     13  O   UNL     1       4.251   3.726   4.791  1.00  0.00    -0.289 OA
ATOM     14  C   UNL     1       4.994   2.131   7.005  1.00  0.00     0.059 A 
ATOM     15  C   UNL     1       5.396   1.297   8.052  1.00  0.00     0.120 A 
ATOM     16  C   UNL     1       6.666   0.723   8.033  1.00  0.00     0.093 A 
ATOM     17  C   UNL     1       7.546   0.966   6.973  1.00  0.00     0.131 A 
ENDROOT
BRANCH   6  18
ATOM     18  O   UNL     1       9.941   3.050   2.741  1.00  0.00    -0.507 OA
ATOM     19  H   UNL     1      10.614   3.328   2.039  1.00  0.00     0.293 HD
ENDBRANCH   6  18
BRANCH  17  20
ATOM     20  O   UNL     1       8.833   0.431   7.067  1.00  0.00    -0.507 OA
ATOM     21  H   UNL     1       9.072  -0.343   7.671  1.00  0.00     0.293 HD
ENDBRANCH  17  20
BRANCH  15  22
ATOM     22  O   UNL     1       4.544   1.042   9.125  1.00  0.00    -0.508 OA
ATOM     23  H   UNL     1       4.875   1.064  10.082  1.00  0.00     0.293 HD
ENDBRANCH  15  22
TORSDOF 3
ENDMDL
MODEL 4
REMARK VINA RESULT:    -6.948      1.517      1.865
REMARK INTER + INTRA:          -7.557
REMARK INTER:                  -7.557
REMARK INTRA:                   0.000
REMARK UNBOUND:                 0.000
REMARK SMILES Cc1cc(O)c2c(c1)C(=O)c1cc(O)cc(O)c1C2=O
REMARK SMILES IDX 1 1 2 2 8 3 7 4 6 5 4 6 3 7 19 8 20 9 18 10 11 11 9 12 10 13
REMARK SMILES IDX 12 14 13 15 15 16 16 17 5 18 17 20 14 22
REMARK H PARENT 5 19 17 21 14 23
REMARK Flexibility Score: inf
ROOT
ATOM      1  C   UNL     1       5.216   1.900   8.354  1.00  0.00     0.044 C 
ATOM      2  C   UNL     1       5.812   2.263   7.025  1.00  0.00    -0.047 A 
ATOM      3  C   UNL     1       5.605   3.538   6.485  1.00  0.00     0.016 A 
ATOM      4  C   UNL     1       6.196   3.902   5.263  1.00  0.00     0.038 A 
ATOM      5  C   UNL     1       7.027   2.985   4.583  1.00  0.00     0.076 A 
ATOM      6  C   UNL     1       7.197   1.680   5.112  1.00  0.00     0.127 A 
ATOM      7  C   UNL     1       6.616   1.347   6.340  1.00  0.00     0.050 A 
ATOM      8  C   UNL     1       7.750   3.458   3.373  1.00  0.00     0.201 C 
ATOM      9  O   UNL     1       8.867   2.958   3.074  1.00  0.00    -0.288 OA
ATOM     10  C   UNL     1       7.247   4.642   2.629  1.00  0.00     0.076 A 
ATOM     11  C   UNL     1       6.415   5.557   3.313  1.00  0.00     0.041 A 
ATOM     12  C   UNL     1       5.945   5.244   4.684  1.00  0.00     0.194 C 
ATOM     13  O   UNL     1       5.310   6.109   5.346  1.00  0.00    -0.289 OA
ATOM     14  C   UNL     1       6.033   6.756   2.689  1.00  0.00     0.059 A 
ATOM     15  C   UNL     1       6.457   7.046   1.389  1.00  0.00     0.120 A 
ATOM     16  C   UNL     1       7.244   6.127   0.696  1.00  0.00     0.093 A 
ATOM     17  C   UNL     1       7.622   4.917   1.288  1.00  0.00     0.131 A 
ENDROOT
BRANCH   6  18
ATOM     18  O   UNL     1       7.901   0.678   4.441  1.00  0.00    -0.507 OA
ATOM     19  H   UNL     1       8.364  -0.089   4.909  1.00  0.00     0.293 HD
ENDBRANCH   6  18
BRANCH  17  20
ATOM     20  O   UNL     1       8.334   4.009   0.500  1.00  0.00    -0.507 OA
ATOM     21  H   UNL     1       8.173   3.012   0.515  1.00  0.00     0.293 HD
ENDBRANCH  17  20
BRANCH  15  22
ATOM     22  O   UNL     1       6.090   8.239   0.771  1.00  0.00    -0.508 OA
ATOM     23  H   UNL     1       6.759   8.793   0.249  1.00  0.00     0.293 HD
ENDBRANCH  15  22
TORSDOF 3
ENDMDL
MODEL 5
REMARK VINA RESULT:    -6.801      1.155      6.294
REMARK INTER + INTRA:          -7.398
REMARK INTER:                  -7.398
REMARK INTRA:                   0.000
REMARK UNBOUND:                 0.000
REMARK SMILES Cc1cc(O)c2c(c1)C(=O)c1cc(O)cc(O)c1C2=O
REMARK SMILES IDX 1 1 2 2 8 3 7 4 6 5 4 6 3 7 19 8 20 9 18 10 11 11 9 12 10 13
REMARK SMILES IDX 12 14 13 15 15 16 16 17 5 18 17 20 14 22
REMARK H PARENT 5 19 17 21 14 23
REMARK Flexibility Score: inf
ROOT
ATOM      1  C   UNL     1       7.875   5.874   0.061  1.00  0.00     0.044 C 
ATOM      2  C   UNL     1       7.466   5.229   1.353  1.00  0.00    -0.047 A 
ATOM      3  C   UNL     1       8.249   4.212   1.912  1.00  0.00     0.016 A 
ATOM      4  C   UNL     1       7.898   3.633   3.143  1.00  0.00     0.038 A 
ATOM      5  C   UNL     1       6.760   4.096   3.840  1.00  0.00     0.076 A 
ATOM      6  C   UNL     1       5.945   5.095   3.247  1.00  0.00     0.127 A 
ATOM      7  C   UNL     1       6.325   5.671   2.031  1.00  0.00     0.050 A 
ATOM      8  C   UNL     1       6.507   3.562   5.204  1.00  0.00     0.201 C 
ATOM      9  O   UNL     1       5.927   4.280   6.060  1.00  0.00    -0.288 OA
ATOM     10  C   UNL     1       7.105   2.263   5.610  1.00  0.00     0.076 A 
ATOM     11  C   UNL     1       8.243   1.804   4.910  1.00  0.00     0.041 A 
ATOM     12  C   UNL     1       8.717   2.534   3.711  1.00  0.00     0.194 C 
ATOM     13  O   UNL     1       9.802   2.205   3.159  1.00  0.00    -0.289 OA
ATOM     14  C   UNL     1       8.917   0.653   5.352  1.00  0.00     0.059 A 
ATOM     15  C   UNL     1       8.461  -0.052   6.470  1.00  0.00     0.120 A 
ATOM     16  C   UNL     1       7.315   0.376   7.138  1.00  0.00     0.093 A 
ATOM     17  C   UNL     1       6.615   1.508   6.707  1.00  0.00     0.131 A 
ENDROOT
BRANCH   6  18
ATOM     18  O   UNL     1       4.740   5.520   3.812  1.00  0.00    -0.507 OA
ATOM     19  H   UNL     1       3.975   5.903   3.273  1.00  0.00     0.293 HD
ENDBRANCH   6  18
BRANCH  17  20
ATOM     20  O   UNL     1       5.426   1.821   7.371  1.00  0.00    -0.507 OA
ATOM     21  H   UNL     1       5.362   1.950   8.371  1.00  0.00     0.293 HD
ENDBRANCH  17  20
BRANCH  15  22
ATOM     22  O   UNL     1       9.134  -1.186   6.918  1.00  0.00    -0.508 OA
ATOM     23  H   UNL     1       8.799  -1.724   7.708  1.00  0.00     0.293 HD
ENDBRANCH  15  22
TORSDOF 3
ENDMDL
MODEL 6
REMARK VINA RESULT:    -6.779      2.046      6.195
REMARK INTER + INTRA:          -7.373
REMARK INTER:                  -7.373
REMARK INTRA:                   0.000
REMARK UNBOUND:                 0.000
REMARK SMILES Cc1cc(O)c2c(c1)C(=O)c1cc(O)cc(O)c1C2=O
REMARK SMILES IDX 1 1 2 2 8 3 7 4 6 5 4 6 3 7 19 8 20 9 18 10 11 11 9 12 10 13
REMARK SMILES IDX 12 14 13 15 15 16 16 17 5 18 17 20 14 22
REMARK H PARENT 5 19 17 21 14 23
REMARK Flexibility Score: inf
ROOT
ATOM      1  C   UNL     1       4.343   9.313   0.857  1.00  0.00     0.044 C 
ATOM      2  C   UNL     1       5.315   8.189   1.071  1.00  0.00    -0.047 A 
ATOM      3  C   UNL     1       5.195   7.358   2.191  1.00  0.00     0.016 A 
ATOM      4  C   UNL     1       6.073   6.277   2.377  1.00  0.00     0.038 A 
ATOM      5  C   UNL     1       7.072   6.008   1.415  1.00  0.00     0.076 A 
ATOM      6  C   UNL     1       7.218   6.881   0.306  1.00  0.00     0.127 A 
ATOM      7  C   UNL     1       6.320   7.938   0.131  1.00  0.00     0.050 A 
ATOM      8  C   UNL     1       7.884   4.772   1.572  1.00  0.00     0.201 C 
ATOM      9  O   UNL     1       8.337   4.186   0.554  1.00  0.00    -0.288 OA
ATOM     10  C   UNL     1       7.997   4.130   2.908  1.00  0.00     0.076 A 
ATOM     11  C   UNL     1       6.996   4.402   3.867  1.00  0.00     0.041 A 
ATOM     12  C   UNL     1       5.958   5.420   3.582  1.00  0.00     0.194 C 
ATOM     13  O   UNL     1       4.991   5.576   4.377  1.00  0.00    -0.289 OA
ATOM     14  C   UNL     1       6.992   3.708   5.089  1.00  0.00     0.059 A 
ATOM     15  C   UNL     1       7.981   2.762   5.371  1.00  0.00     0.120 A 
ATOM     16  C   UNL     1       8.994   2.520   4.444  1.00  0.00     0.093 A 
ATOM     17  C   UNL     1       9.031   3.211   3.228  1.00  0.00     0.131 A 
ENDROOT
BRANCH   6  18
ATOM     18  O   UNL     1       8.255   6.757  -0.622  1.00  0.00    -0.507 OA
ATOM     19  H   UNL     1       8.941   6.015  -0.597  1.00  0.00     0.293 HD
ENDBRANCH   6  18
BRANCH  17  20
ATOM     20  O   UNL     1      10.125   2.983   2.390  1.00  0.00    -0.507 OA
ATOM     21  H   UNL     1      10.898   2.378   2.633  1.00  0.00     0.293 HD
ENDBRANCH  17  20
BRANCH  15  22
ATOM     22  O   UNL     1       7.974   2.064   6.577  1.00  0.00    -0.508 OA
ATOM     23  H   UNL     1       8.673   2.233   7.291  1.00  0.00     0.293 HD
ENDBRANCH  15  22
TORSDOF 3
ENDMDL
MODEL 7
REMARK VINA RESULT:    -6.720      2.082      6.849
REMARK INTER + INTRA:          -7.309
REMARK INTER:                  -7.309
REMARK INTRA:                   0.000
REMARK UNBOUND:                 0.000
REMARK SMILES Cc1cc(O)c2c(c1)C(=O)c1cc(O)cc(O)c1C2=O
REMARK SMILES IDX 1 1 2 2 8 3 7 4 6 5 4 6 3 7 19 8 20 9 18 10 11 11 9 12 10 13
REMARK SMILES IDX 12 14 13 15 15 16 16 17 5 18 17 20 14 22
REMARK H PARENT 5 19 17 21 14 23
REMARK Flexibility Score: inf
ROOT
ATOM      1  C   UNL     1       7.127   6.396  -2.443  1.00  0.00     0.044 C 
ATOM      2  C   UNL     1       6.854   6.311  -0.970  1.00  0.00    -0.047 A 
ATOM      3  C   UNL     1       7.620   5.465  -0.159  1.00  0.00     0.016 A 
ATOM      4  C   UNL     1       7.401   5.411   1.228  1.00  0.00     0.038 A 
ATOM      5  C   UNL     1       6.418   6.237   1.818  1.00  0.00     0.076 A 
ATOM      6  C   UNL     1       5.615   7.059   0.985  1.00  0.00     0.127 A 
ATOM      7  C   UNL     1       5.864   7.111  -0.389  1.00  0.00     0.050 A 
ATOM      8  C   UNL     1       6.318   6.260   3.300  1.00  0.00     0.201 C 
ATOM      9  O   UNL     1       5.930   7.304   3.887  1.00  0.00    -0.288 OA
ATOM     10  C   UNL     1       6.855   5.123   4.093  1.00  0.00     0.076 A 
ATOM     11  C   UNL     1       7.838   4.299   3.499  1.00  0.00     0.041 A 
ATOM     12  C   UNL     1       8.196   4.488   2.073  1.00  0.00     0.194 C 
ATOM     13  O   UNL     1       9.159   3.845   1.574  1.00  0.00    -0.289 OA
ATOM     14  C   UNL     1       8.468   3.302   4.262  1.00  0.00     0.059 A 
ATOM     15  C   UNL     1       8.119   3.106   5.601  1.00  0.00     0.120 A 
ATOM     16  C   UNL     1       7.120   3.890   6.179  1.00  0.00     0.093 A 
ATOM     17  C   UNL     1       6.465   4.877   5.435  1.00  0.00     0.131 A 
ENDROOT
BRANCH   6  18
ATOM     18  O   UNL     1       4.543   7.810   1.474  1.00  0.00    -0.507 OA
ATOM     19  H   UNL     1       3.579   7.510   1.419  1.00  0.00     0.293 HD
ENDBRANCH   6  18
BRANCH  17  20
ATOM     20  O   UNL     1       5.414   5.558   6.054  1.00  0.00    -0.507 OA
ATOM     21  H   UNL     1       5.379   5.748   7.046  1.00  0.00     0.293 HD
ENDBRANCH  17  20
BRANCH  15  22
ATOM     22  O   UNL     1       8.750   2.126   6.364  1.00  0.00    -0.508 OA
ATOM     23  H   UNL     1       8.991   2.285   7.336  1.00  0.00     0.293 HD
ENDBRANCH  15  22
TORSDOF 3
ENDMDL
MODEL 8
REMARK VINA RESULT:    -6.566      1.866      6.426
REMARK INTER + INTRA:          -7.142
REMARK INTER:                  -7.142
REMARK INTRA:                   0.000
REMARK UNBOUND:                 0.000
REMARK SMILES Cc1cc(O)c2c(c1)C(=O)c1cc(O)cc(O)c1C2=O
REMARK SMILES IDX 1 1 2 2 8 3 7 4 6 5 4 6 3 7 19 8 20 9 18 10 11 11 9 12 10 13
REMARK SMILES IDX 12 14 13 15 15 16 16 17 5 18 17 20 14 22
REMARK H PARENT 5 19 17 21 14 23
REMARK Flexibility Score: inf
ROOT
ATOM      1  C   UNL     1       7.884   6.155  -0.675  1.00  0.00     0.044 C 
ATOM      2  C   UNL     1       7.315   5.977   0.702  1.00  0.00    -0.047 A 
ATOM      3  C   UNL     1       7.547   4.792   1.412  1.00  0.00     0.016 A 
ATOM      4  C   UNL     1       7.057   4.634   2.719  1.00  0.00     0.038 A 
ATOM      5  C   UNL     1       6.345   5.686   3.337  1.00  0.00     0.076 A 
ATOM      6  C   UNL     1       6.074   6.866   2.596  1.00  0.00     0.127 A 
ATOM      7  C   UNL     1       6.589   7.009   1.304  1.00  0.00     0.050 A 
ATOM      8  C   UNL     1       5.971   5.537   4.768  1.00  0.00     0.201 C 
ATOM      9  O   UNL     1       5.882   6.556   5.502  1.00  0.00    -0.288 OA
ATOM     10  C   UNL     1       5.893   4.181   5.371  1.00  0.00     0.076 A 
ATOM     11  C   UNL     1       6.607   3.132   4.751  1.00  0.00     0.041 A 
ATOM     12  C   UNL     1       7.281   3.364   3.452  1.00  0.00     0.194 C 
ATOM     13  O   UNL     1       8.023   2.472   2.957  1.00  0.00    -0.289 OA
ATOM     14  C   UNL     1       6.670   1.870   5.367  1.00  0.00     0.059 A 
ATOM     15  C   UNL     1       6.018   1.640   6.582  1.00  0.00     0.120 A 
ATOM     16  C   UNL     1       5.280   2.662   7.176  1.00  0.00     0.093 A 
ATOM     17  C   UNL     1       5.185   3.922   6.574  1.00  0.00     0.131 A 
ENDROOT
BRANCH   6  18
ATOM     18  O   UNL     1       5.274   7.900   3.088  1.00  0.00    -0.507 OA
ATOM     19  H   UNL     1       4.371   8.140   2.702  1.00  0.00     0.293 HD
ENDBRANCH   6  18
BRANCH  17  20
ATOM     20  O   UNL     1       4.354   4.866   7.181  1.00  0.00    -0.507 OA
ATOM     21  H   UNL     1       4.667   5.781   7.472  1.00  0.00     0.293 HD
ENDBRANCH  17  20
BRANCH  15  22
ATOM     22  O   UNL     1       6.089   0.394   7.201  1.00  0.00    -0.508 OA
ATOM     23  H   UNL     1       5.788  -0.450   6.728  1.00  0.00     0.293 HD
ENDBRANCH  15  22
TORSDOF 3
ENDMDL
MODEL 9
REMARK VINA RESULT:    -6.518      2.406      3.535
REMARK INTER + INTRA:          -7.090
REMARK INTER:                  -7.090
REMARK INTRA:                   0.000
REMARK UNBOUND:                 0.000
REMARK SMILES Cc1cc(O)c2c(c1)C(=O)c1cc(O)cc(O)c1C2=O
REMARK SMILES IDX 1 1 2 2 8 3 7 4 6 5 4 6 3 7 19 8 20 9 18 10 11 11 9 12 10 13
REMARK SMILES IDX 12 14 13 15 15 16 16 17 5 18 17 20 14 22
REMARK H PARENT 5 19 17 21 14 23
REMARK Flexibility Score: inf
ROOT
ATOM      1  C   UNL     1       8.417  -2.767   9.125  1.00  0.00     0.044 C 
ATOM      2  C   UNL     1       8.101  -1.631   8.196  1.00  0.00    -0.047 A 
ATOM      3  C   UNL     1       7.091  -0.717   8.519  1.00  0.00     0.016 A 
ATOM      4  C   UNL     1       6.818   0.375   7.678  1.00  0.00     0.038 A 
ATOM      5  C   UNL     1       7.584   0.571   6.507  1.00  0.00     0.076 A 
ATOM      6  C   UNL     1       8.576  -0.384   6.162  1.00  0.00     0.127 A 
ATOM      7  C   UNL     1       8.844  -1.451   7.025  1.00  0.00     0.050 A 
ATOM      8  C   UNL     1       7.364   1.814   5.724  1.00  0.00     0.201 C 
ATOM      9  O   UNL     1       8.315   2.322   5.073  1.00  0.00    -0.288 OA
ATOM     10  C   UNL     1       6.083   2.555   5.862  1.00  0.00     0.076 A 
ATOM     11  C   UNL     1       5.320   2.357   7.035  1.00  0.00     0.041 A 
ATOM     12  C   UNL     1       5.725   1.320   8.012  1.00  0.00     0.194 C 
ATOM     13  O   UNL     1       5.124   1.225   9.117  1.00  0.00    -0.289 OA
ATOM     14  C   UNL     1       4.176   3.140   7.265  1.00  0.00     0.059 A 
ATOM     15  C   UNL     1       3.778   4.105   6.335  1.00  0.00     0.120 A 
ATOM     16  C   UNL     1       4.506   4.276   5.158  1.00  0.00     0.093 A 
ATOM     17  C   UNL     1       5.638   3.495   4.897  1.00  0.00     0.131 A 
ENDROOT
BRANCH   6  18
ATOM     18  O   UNL     1       9.291  -0.330   4.963  1.00  0.00    -0.507 OA
ATOM     19  H   UNL     1       9.213  -1.026   4.234  1.00  0.00     0.293 HD
ENDBRANCH   6  18
BRANCH  17  20
ATOM     20  O   UNL     1       6.261   3.660   3.658  1.00  0.00    -0.507 OA
ATOM     21  H   UNL     1       6.536   2.890   3.064  1.00  0.00     0.293 HD
ENDBRANCH  17  20
BRANCH  15  22
ATOM     22  O   UNL     1       2.652   4.892   6.566  1.00  0.00    -0.508 OA
ATOM     23  H   UNL     1       2.431   5.687   5.978  1.00  0.00     0.293 HD
ENDBRANCH  15  22
TORSDOF 3
ENDMDL
