MODEL 1
REMARK VINA RESULT:    -4.710      0.000      0.000
REMARK INTER + INTRA:          -4.847
REMARK INTER:                  -4.847
REMARK INTRA:                   0.000
REMARK UNBOUND:                 0.000
REMARK SMILES Cc1ccccc1O
REMARK SMILES IDX 1 1 2 2 3 3 4 4 5 5 6 6 7 7 8 8
REMARK H PARENT 8 9
REMARK Flexibility Score: inf
ROOT
ATOM      1  C   UNL     1      26.463  47.301  34.003  1.00  0.00     0.048 C 
ATOM      2  C   UNL     1      25.746  46.979  32.722  1.00  0.00    -0.009 A 
ATOM      3  C   UNL     1      26.437  46.378  31.654  1.00  0.00     0.007 A 
ATOM      4  C   UNL     1      25.771  46.078  30.463  1.00  0.00     0.001 A 
ATOM      5  C   UNL     1      24.413  46.374  30.325  1.00  0.00     0.004 A 
ATOM      6  C   UNL     1      23.717  46.971  31.380  1.00  0.00     0.046 A 
ATOM      7  C   UNL     1      24.377  47.276  32.580  1.00  0.00     0.118 A 
ENDROOT
BRANCH   7   8
ATOM      8  O   UNL     1      23.678  47.872  33.630  1.00  0.00    -0.508 OA
ATOM      9  H   UNL     1      23.872  48.821  33.925  1.00  0.00     0.293 HD
ENDBRANCH   7   8
TORSDOF 1
ENDMDL
MODEL 2
REMARK VINA RESULT:    -4.678      1.133      2.820
REMARK INTER + INTRA:          -4.814
REMARK INTER:                  -4.814
REMARK INTRA:                   0.000
REMARK UNBOUND:                 0.000
REMARK SMILES Cc1ccccc1O
REMARK SMILES IDX 1 1 2 2 3 3 4 4 5 5 6 6 7 7 8 8
REMARK H PARENT 8 9
REMARK Flexibility Score: inf
ROOT
ATOM      1  C   UNL     1      25.596  46.182  30.626  1.00  0.00     0.048 C 
ATOM      2  C   UNL     1      25.459  46.760  32.006  1.00  0.00    -0.009 A 
ATOM      3  C   UNL     1      26.580  46.856  32.850  1.00  0.00     0.007 A 
ATOM      4  C   UNL     1      26.453  47.393  34.133  1.00  0.00     0.001 A 
ATOM      5  C   UNL     1      25.210  47.839  34.587  1.00  0.00     0.004 A 
ATOM      6  C   UNL     1      24.089  47.747  33.757  1.00  0.00     0.046 A 
ATOM      7  C   UNL     1      24.207  47.210  32.466  1.00  0.00     0.118 A 
ENDROOT
BRANCH   7   8
ATOM      8  O   UNL     1      23.085  47.121  31.642  1.00  0.00    -0.508 OA
ATOM      9  H   UNL     1      22.222  47.602  31.866  1.00  0.00     0.293 HD
ENDBRANCH   7   8
TORSDOF 1
ENDMDL
MODEL 3
REMARK VINA RESULT:    -4.506      1.766      3.588
REMARK INTER + INTRA:          -4.638
REMARK INTER:                  -4.638
REMARK INTRA:                   0.000
REMARK UNBOUND:                 0.000
REMARK SMILES Cc1ccccc1O
REMARK SMILES IDX 1 1 2 2 3 3 4 4 5 5 6 6 7 7 8 8
REMARK H PARENT 8 9
REMARK Flexibility Score: inf
ROOT
ATOM      1  C   UNL     1      24.400  46.450  30.597  1.00  0.00     0.048 C 
ATOM      2  C   UNL     1      24.849  46.876  31.966  1.00  0.00    -0.009 A 
ATOM      3  C   UNL     1      23.949  47.505  32.844  1.00  0.00     0.007 A 
ATOM      4  C   UNL     1      24.367  47.902  34.117  1.00  0.00     0.001 A 
ATOM      5  C   UNL     1      25.683  47.675  34.526  1.00  0.00     0.004 A 
ATOM      6  C   UNL     1      26.585  47.051  33.661  1.00  0.00     0.046 A 
ATOM      7  C   UNL     1      26.175  46.649  32.381  1.00  0.00     0.118 A 
ENDROOT
BRANCH   7   8
ATOM      8  O   UNL     1      27.080  46.025  31.521  1.00  0.00    -0.508 OA
ATOM      9  H   UNL     1      27.671  46.558  30.895  1.00  0.00     0.293 HD
ENDBRANCH   7   8
TORSDOF 1
ENDMDL
MODEL 4
REMARK VINA RESULT:    -4.496      1.666      2.432
REMARK INTER + INTRA:          -4.627
REMARK INTER:                  -4.627
REMARK INTRA:                   0.000
REMARK UNBOUND:                 0.000
REMARK SMILES Cc1ccccc1O
REMARK SMILES IDX 1 1 2 2 3 3 4 4 5 5 6 6 7 7 8 8
REMARK H PARENT 8 9
REMARK Flexibility Score: inf
ROOT
ATOM      1  C   UNL     1      24.797  48.257  35.007  1.00  0.00     0.048 C 
ATOM      2  C   UNL     1      24.965  47.643  33.646  1.00  0.00    -0.009 A 
ATOM      3  C   UNL     1      23.851  47.460  32.808  1.00  0.00     0.007 A 
ATOM      4  C   UNL     1      24.007  46.889  31.542  1.00  0.00     0.001 A 
ATOM      5  C   UNL     1      25.273  46.497  31.101  1.00  0.00     0.004 A 
ATOM      6  C   UNL     1      26.387  46.676  31.926  1.00  0.00     0.046 A 
ATOM      7  C   UNL     1      26.240  47.248  33.199  1.00  0.00     0.118 A 
ENDROOT
BRANCH   7   8
ATOM      8  O   UNL     1      27.355  47.424  34.018  1.00  0.00    -0.508 OA
ATOM      9  H   UNL     1      28.207  47.849  33.671  1.00  0.00     0.293 HD
ENDBRANCH   7   8
TORSDOF 1
ENDMDL
MODEL 5
REMARK VINA RESULT:    -4.411      2.509      3.467
REMARK INTER + INTRA:          -4.540
REMARK INTER:                  -4.540
REMARK INTRA:                   0.000
REMARK UNBOUND:                 0.000
REMARK SMILES Cc1ccccc1O
REMARK SMILES IDX 1 1 2 2 3 3 4 4 5 5 6 6 7 7 8 8
REMARK H PARENT 8 9
REMARK Flexibility Score: inf
ROOT
ATOM      1  C   UNL     1      28.124  49.818  33.898  1.00  0.00     0.048 C 
ATOM      2  C   UNL     1      26.838  49.048  34.003  1.00  0.00    -0.009 A 
ATOM      3  C   UNL     1      26.454  48.165  32.977  1.00  0.00     0.007 A 
ATOM      4  C   UNL     1      25.258  47.450  33.074  1.00  0.00     0.001 A 
ATOM      5  C   UNL     1      24.436  47.606  34.192  1.00  0.00     0.004 A 
ATOM      6  C   UNL     1      24.808  48.481  35.217  1.00  0.00     0.046 A 
ATOM      7  C   UNL     1      26.007  49.204  35.128  1.00  0.00     0.118 A 
ENDROOT
BRANCH   7   8
ATOM      8  O   UNL     1      26.374  50.075  36.154  1.00  0.00    -0.508 OA
ATOM      9  H   UNL     1      26.809  50.970  35.961  1.00  0.00     0.293 HD
ENDBRANCH   7   8
TORSDOF 1
ENDMDL
MODEL 6
REMARK VINA RESULT:    -4.361      2.034      3.054
REMARK INTER + INTRA:          -4.488
REMARK INTER:                  -4.488
REMARK INTRA:                   0.000
REMARK UNBOUND:                 0.000
REMARK SMILES Cc1ccccc1O
REMARK SMILES IDX 1 1 2 2 3 3 4 4 5 5 6 6 7 7 8 8
REMARK H PARENT 8 9
REMARK Flexibility Score: inf
ROOT
ATOM      1  C   UNL     1      25.972  49.336  35.553  1.00  0.00     0.048 C 
ATOM      2  C   UNL     1      25.674  48.445  34.380  1.00  0.00    -0.009 A 
ATOM      3  C   UNL     1      24.344  48.154  34.030  1.00  0.00     0.007 A 
ATOM      4  C   UNL     1      24.067  47.325  32.940  1.00  0.00     0.001 A 
ATOM      5  C   UNL     1      25.111  46.779  32.191  1.00  0.00     0.004 A 
ATOM      6  C   UNL     1      26.437  47.061  32.531  1.00  0.00     0.046 A 
ATOM      7  C   UNL     1      26.725  47.893  33.623  1.00  0.00     0.118 A 
ENDROOT
BRANCH   7   8
ATOM      8  O   UNL     1      28.050  48.172  33.958  1.00  0.00    -0.508 OA
ATOM      9  H   UNL     1      28.287  48.877  34.646  1.00  0.00     0.293 HD
ENDBRANCH   7   8
TORSDOF 1
ENDMDL
MODEL 7
REMARK VINA RESULT:    -4.215     12.289     12.655
REMARK INTER + INTRA:          -4.338
REMARK INTER:                  -4.338
REMARK INTRA:                   0.000
REMARK UNBOUND:                 0.000
REMARK SMILES Cc1ccccc1O
REMARK SMILES IDX 1 1 2 2 3 3 4 4 5 5 6 6 7 7 8 8
REMARK H PARENT 8 9
REMARK Flexibility Score: inf
ROOT
ATOM      1  C   UNL     1      21.958  44.471  44.196  1.00  0.00     0.048 C 
ATOM      2  C   UNL     1      21.186  45.739  43.957  1.00  0.00    -0.009 A 
ATOM      3  C   UNL     1      21.591  46.940  44.565  1.00  0.00     0.007 A 
ATOM      4  C   UNL     1      20.873  48.119  44.343  1.00  0.00     0.001 A 
ATOM      5  C   UNL     1      19.749  48.110  43.515  1.00  0.00     0.004 A 
ATOM      6  C   UNL     1      19.339  46.921  42.905  1.00  0.00     0.046 A 
ATOM      7  C   UNL     1      20.053  45.733  43.122  1.00  0.00     0.118 A 
ENDROOT
BRANCH   7   8
ATOM      8  O   UNL     1      19.640  44.549  42.511  1.00  0.00    -0.508 OA
ATOM      9  H   UNL     1      20.195  44.101  41.791  1.00  0.00     0.293 HD
ENDBRANCH   7   8
TORSDOF 1
ENDMDL
MODEL 8
REMARK VINA RESULT:    -4.011      1.796      2.474
REMARK INTER + INTRA:          -4.128
REMARK INTER:                  -4.128
REMARK INTRA:                   0.000
REMARK UNBOUND:                 0.000
REMARK SMILES Cc1ccccc1O
REMARK SMILES IDX 1 1 2 2 3 3 4 4 5 5 6 6 7 7 8 8
REMARK H PARENT 8 9
REMARK Flexibility Score: inf
ROOT
ATOM      1  C   UNL     1      26.601  47.121  33.624  1.00  0.00     0.048 C 
ATOM      2  C   UNL     1      25.709  46.858  32.443  1.00  0.00    -0.009 A 
ATOM      3  C   UNL     1      24.382  47.324  32.439  1.00  0.00     0.007 A 
ATOM      4  C   UNL     1      23.552  47.080  31.341  1.00  0.00     0.001 A 
ATOM      5  C   UNL     1      24.037  46.370  30.241  1.00  0.00     0.004 A 
ATOM      6  C   UNL     1      25.354  45.903  30.235  1.00  0.00     0.046 A 
ATOM      7  C   UNL     1      26.194  46.143  31.332  1.00  0.00     0.118 A 
ENDROOT
BRANCH   7   8
ATOM      8  O   UNL     1      27.508  45.674  31.321  1.00  0.00    -0.508 OA
ATOM      9  H   UNL     1      28.088  45.738  30.492  1.00  0.00     0.293 HD
ENDBRANCH   7   8
TORSDOF 1
ENDMDL
MODEL 9
REMARK VINA RESULT:    -3.773     12.513     13.802
REMARK INTER + INTRA:          -3.883
REMARK INTER:                  -3.883
REMARK INTRA:                   0.000
REMARK UNBOUND:                 0.000
REMARK SMILES Cc1ccccc1O
REMARK SMILES IDX 1 1 2 2 3 3 4 4 5 5 6 6 7 7 8 8
REMARK H PARENT 8 9
REMARK Flexibility Score: inf
ROOT
ATOM      1  C   UNL     1      20.261  49.101  46.779  1.00  0.00     0.048 C 
ATOM      2  C   UNL     1      20.572  48.238  45.589  1.00  0.00    -0.009 A 
ATOM      3  C   UNL     1      21.220  48.783  44.466  1.00  0.00     0.007 A 
ATOM      4  C   UNL     1      21.509  47.981  43.360  1.00  0.00     0.001 A 
ATOM      5  C   UNL     1      21.156  46.630  43.363  1.00  0.00     0.004 A 
ATOM      6  C   UNL     1      20.512  46.077  44.473  1.00  0.00     0.046 A 
ATOM      7  C   UNL     1      20.217  46.875  45.589  1.00  0.00     0.118 A 
ENDROOT
BRANCH   7   8
ATOM      8  O   UNL     1      19.574  46.319  46.695  1.00  0.00    -0.508 OA
ATOM      9  H   UNL     1      19.391  45.325  46.758  1.00  0.00     0.293 HD
ENDBRANCH   7   8
TORSDOF 1
ENDMDL
