MODEL 1
REMARK VINA RESULT:    -4.319      0.000      0.000
REMARK INTER + INTRA:          -4.605
REMARK INTER:                  -4.572
REMARK INTRA:                  -0.033
REMARK UNBOUND:                -0.033
REMARK SMILES COc1ccc2ccc(=O)oc2c1
REMARK SMILES IDX 3 1 13 2 12 3 6 4 5 5 4 6 7 7 8 8 9 9 10 10 11 11 2 12 1 13
REMARK H PARENT
REMARK Flexibility Score: inf
ROOT
ATOM      1  C   UNL     1      11.390 -18.005  20.161  1.00  0.00     0.122 A 
ATOM      2  C   UNL     1      12.321 -18.101  21.215  1.00  0.00     0.094 A 
ATOM      3  C   UNL     1      13.694 -18.090  20.945  1.00  0.00     0.142 A 
ATOM      4  C   UNL     1      14.148 -17.982  19.612  1.00  0.00     0.018 A 
ATOM      5  C   UNL     1      13.222 -17.887  18.566  1.00  0.00     0.016 A 
ATOM      6  C   UNL     1      11.852 -17.899  18.842  1.00  0.00     0.047 A 
ATOM      7  C   UNL     1      15.526 -17.974  19.376  1.00  0.00     0.019 A 
ATOM      8  C   UNL     1      16.406 -18.071  20.452  1.00  0.00     0.094 A 
ATOM      9  C   UNL     1      15.885 -18.175  21.747  1.00  0.00     0.336 A 
ATOM     10  O   UNL     1      16.662 -18.263  22.732  1.00  0.00    -0.246 OA
ATOM     11  O   UNL     1      14.569 -18.180  21.944  1.00  0.00    -0.423 OA
ENDROOT
BRANCH   1  12
ATOM     12  O   UNL     1      10.004 -18.013  20.381  1.00  0.00    -0.497 OA
ATOM     13  C   UNL     1       9.183 -19.173  20.298  1.00  0.00     0.278 C 
ENDBRANCH   1  12
TORSDOF 1
ENDMDL
MODEL 2
REMARK VINA RESULT:    -4.228      1.053      4.775
REMARK INTER + INTRA:          -4.508
REMARK INTER:                  -4.475
REMARK INTRA:                  -0.034
REMARK UNBOUND:                -0.033
REMARK SMILES COc1ccc2ccc(=O)oc2c1
REMARK SMILES IDX 3 1 13 2 12 3 6 4 5 5 4 6 7 7 8 8 9 9 10 10 11 11 2 12 1 13
REMARK H PARENT
REMARK Flexibility Score: inf
ROOT
ATOM      1  C   UNL     1      16.038 -18.021  21.588  1.00  0.00     0.122 A 
ATOM      2  C   UNL     1      14.691 -18.116  21.992  1.00  0.00     0.094 A 
ATOM      3  C   UNL     1      13.665 -18.073  21.042  1.00  0.00     0.142 A 
ATOM      4  C   UNL     1      13.980 -17.936  19.672  1.00  0.00     0.018 A 
ATOM      5  C   UNL     1      15.319 -17.842  19.271  1.00  0.00     0.016 A 
ATOM      6  C   UNL     1      16.339 -17.885  20.226  1.00  0.00     0.047 A 
ATOM      7  C   UNL     1      12.932 -17.896  18.748  1.00  0.00     0.019 A 
ATOM      8  C   UNL     1      11.617 -17.993  19.199  1.00  0.00     0.094 A 
ATOM      9  C   UNL     1      11.379 -18.127  20.571  1.00  0.00     0.336 A 
ATOM     10  O   UNL     1      10.199 -18.217  20.999  1.00  0.00    -0.246 OA
ATOM     11  O   UNL     1      12.395 -18.162  21.430  1.00  0.00    -0.423 OA
ENDROOT
BRANCH   1  12
ATOM     12  O   UNL     1      17.102 -18.059  22.502  1.00  0.00    -0.497 OA
ATOM     13  C   UNL     1      17.367 -17.048  23.469  1.00  0.00     0.278 C 
ENDBRANCH   1  12
TORSDOF 1
ENDMDL
MODEL 3
REMARK VINA RESULT:    -4.009      1.837      5.436
REMARK INTER + INTRA:          -4.276
REMARK INTER:                  -4.239
REMARK INTRA:                  -0.037
REMARK UNBOUND:                -0.033
REMARK SMILES COc1ccc2ccc(=O)oc2c1
REMARK SMILES IDX 3 1 13 2 12 3 6 4 5 5 4 6 7 7 8 8 9 9 10 10 11 11 2 12 1 13
REMARK H PARENT
REMARK Flexibility Score: inf
ROOT
ATOM      1  C   UNL     1      14.224 -17.433  19.715  1.00  0.00     0.122 A 
ATOM      2  C   UNL     1      13.330 -17.656  18.648  1.00  0.00     0.094 A 
ATOM      3  C   UNL     1      12.013 -18.054  18.903  1.00  0.00     0.142 A 
ATOM      4  C   UNL     1      11.577 -18.232  20.234  1.00  0.00     0.018 A 
ATOM      5  C   UNL     1      12.466 -18.011  21.294  1.00  0.00     0.016 A 
ATOM      6  C   UNL     1      13.780 -17.613  21.032  1.00  0.00     0.047 A 
ATOM      7  C   UNL     1      10.256 -18.630  20.456  1.00  0.00     0.019 A 
ATOM      8  C   UNL     1       9.412 -18.838  19.366  1.00  0.00     0.094 A 
ATOM      9  C   UNL     1       9.911 -18.642  18.074  1.00  0.00     0.336 A 
ATOM     10  O   UNL     1       9.165 -18.823  17.077  1.00  0.00    -0.246 OA
ATOM     11  O   UNL     1      11.174 -18.263  17.891  1.00  0.00    -0.423 OA
ENDROOT
BRANCH   1  12
ATOM     12  O   UNL     1      15.554 -17.034  19.510  1.00  0.00    -0.497 OA
ATOM     13  C   UNL     1      15.974 -16.129  18.495  1.00  0.00     0.278 C 
ENDBRANCH   1  12
TORSDOF 1
ENDMDL
MODEL 4
REMARK VINA RESULT:    -3.876     13.771     14.886
REMARK INTER + INTRA:          -4.135
REMARK INTER:                  -4.102
REMARK INTRA:                  -0.033
REMARK UNBOUND:                -0.033
REMARK SMILES COc1ccc2ccc(=O)oc2c1
REMARK SMILES IDX 3 1 13 2 12 3 6 4 5 5 4 6 7 7 8 8 9 9 10 10 11 11 2 12 1 13
REMARK H PARENT
REMARK Flexibility Score: inf
ROOT
ATOM      1  C   UNL     1      15.383  -6.905   8.509  1.00  0.00     0.122 A 
ATOM      2  C   UNL     1      15.678  -6.854   9.886  1.00  0.00     0.094 A 
ATOM      3  C   UNL     1      15.378  -7.944  10.711  1.00  0.00     0.142 A 
ATOM      4  C   UNL     1      14.779  -9.099  10.162  1.00  0.00     0.018 A 
ATOM      5  C   UNL     1      14.486  -9.148   8.793  1.00  0.00     0.016 A 
ATOM      6  C   UNL     1      14.788  -8.056   7.975  1.00  0.00     0.047 A 
ATOM      7  C   UNL     1      14.492 -10.170  11.013  1.00  0.00     0.019 A 
ATOM      8  C   UNL     1      14.803 -10.070  12.368  1.00  0.00     0.094 A 
ATOM      9  C   UNL     1      15.397  -8.896  12.843  1.00  0.00     0.336 A 
ATOM     10  O   UNL     1      15.686  -8.786  14.063  1.00  0.00    -0.246 OA
ATOM     11  O   UNL     1      15.659  -7.890  12.011  1.00  0.00    -0.423 OA
ENDROOT
BRANCH   1  12
ATOM     12  O   UNL     1      15.663  -5.839   7.641  1.00  0.00    -0.497 OA
ATOM     13  C   UNL     1      16.798  -5.778   6.783  1.00  0.00     0.278 C 
ENDBRANCH   1  12
TORSDOF 1
ENDMDL
MODEL 5
REMARK VINA RESULT:    -3.838     13.874     14.613
REMARK INTER + INTRA:          -4.095
REMARK INTER:                  -4.055
REMARK INTRA:                  -0.040
REMARK UNBOUND:                -0.033
REMARK SMILES COc1ccc2ccc(=O)oc2c1
REMARK SMILES IDX 3 1 13 2 12 3 6 4 5 5 4 6 7 7 8 8 9 9 10 10 11 11 2 12 1 13
REMARK H PARENT
REMARK Flexibility Score: inf
ROOT
ATOM      1  C   UNL     1      15.402  -7.469  13.153  1.00  0.00     0.122 A 
ATOM      2  C   UNL     1      15.988  -6.199  12.982  1.00  0.00     0.094 A 
ATOM      3  C   UNL     1      15.759  -5.185  13.919  1.00  0.00     0.142 A 
ATOM      4  C   UNL     1      14.937  -5.434  15.040  1.00  0.00     0.018 A 
ATOM      5  C   UNL     1      14.354  -6.697  15.208  1.00  0.00     0.016 A 
ATOM      6  C   UNL     1      14.588  -7.705  14.270  1.00  0.00     0.047 A 
ATOM      7  C   UNL     1      14.727  -4.400  15.957  1.00  0.00     0.019 A 
ATOM      8  C   UNL     1      15.330  -3.162  15.742  1.00  0.00     0.094 A 
ATOM      9  C   UNL     1      16.133  -2.986  14.609  1.00  0.00     0.336 A 
ATOM     10  O   UNL     1      16.686  -1.876  14.398  1.00  0.00    -0.246 OA
ATOM     11  O   UNL     1      16.316  -3.987  13.752  1.00  0.00    -0.423 OA
ENDROOT
BRANCH   1  12
ATOM     12  O   UNL     1      15.601  -8.517  12.243  1.00  0.00    -0.497 OA
ATOM     13  C   UNL     1      14.835  -9.717  12.217  1.00  0.00     0.278 C 
ENDBRANCH   1  12
TORSDOF 1
ENDMDL
MODEL 6
REMARK VINA RESULT:    -3.804     12.499     13.646
REMARK INTER + INTRA:          -4.059
REMARK INTER:                  -4.020
REMARK INTRA:                  -0.040
REMARK UNBOUND:                -0.033
REMARK SMILES COc1ccc2ccc(=O)oc2c1
REMARK SMILES IDX 3 1 13 2 12 3 6 4 5 5 4 6 7 7 8 8 9 9 10 10 11 11 2 12 1 13
REMARK H PARENT
REMARK Flexibility Score: inf
ROOT
ATOM      1  C   UNL     1      15.699  -6.502  13.028  1.00  0.00     0.122 A 
ATOM      2  C   UNL     1      15.652  -7.880  13.323  1.00  0.00     0.094 A 
ATOM      3  C   UNL     1      15.233  -8.795  12.351  1.00  0.00     0.142 A 
ATOM      4  C   UNL     1      14.856  -8.337  11.070  1.00  0.00     0.018 A 
ATOM      5  C   UNL     1      14.902  -6.968  10.777  1.00  0.00     0.016 A 
ATOM      6  C   UNL     1      15.322  -6.060  11.752  1.00  0.00     0.047 A 
ATOM      7  C   UNL     1      14.441  -9.277  10.121  1.00  0.00     0.019 A 
ATOM      8  C   UNL     1      14.412 -10.628  10.463  1.00  0.00     0.094 A 
ATOM      9  C   UNL     1      14.800 -11.010  11.752  1.00  0.00     0.336 A 
ATOM     10  O   UNL     1      14.782 -12.224  12.080  1.00  0.00    -0.246 OA
ATOM     11  O   UNL     1      15.191 -10.095  12.636  1.00  0.00    -0.423 OA
ENDROOT
BRANCH   1  12
ATOM     12  O   UNL     1      16.112  -5.546  13.968  1.00  0.00    -0.497 OA
ATOM     13  C   UNL     1      15.922  -4.143  13.823  1.00  0.00     0.278 C 
ENDBRANCH   1  12
TORSDOF 1
ENDMDL
MODEL 7
REMARK VINA RESULT:    -3.777      1.909      2.365
REMARK INTER + INTRA:          -4.031
REMARK INTER:                  -4.000
REMARK INTRA:                  -0.031
REMARK UNBOUND:                -0.033
REMARK SMILES COc1ccc2ccc(=O)oc2c1
REMARK SMILES IDX 3 1 13 2 12 3 6 4 5 5 4 6 7 7 8 8 9 9 10 10 11 11 2 12 1 13
REMARK H PARENT
REMARK Flexibility Score: inf
ROOT
ATOM      1  C   UNL     1      12.031 -17.241  22.812  1.00  0.00     0.122 A 
ATOM      2  C   UNL     1      13.405 -17.237  23.125  1.00  0.00     0.094 A 
ATOM      3  C   UNL     1      14.350 -17.590  22.155  1.00  0.00     0.142 A 
ATOM      4  C   UNL     1      13.926 -17.950  20.858  1.00  0.00     0.018 A 
ATOM      5  C   UNL     1      12.560 -17.955  20.547  1.00  0.00     0.016 A 
ATOM      6  C   UNL     1      11.621 -17.601  21.520  1.00  0.00     0.047 A 
ATOM      7  C   UNL     1      14.895 -18.298  19.912  1.00  0.00     0.019 A 
ATOM      8  C   UNL     1      16.241 -18.278  20.272  1.00  0.00     0.094 A 
ATOM      9  C   UNL     1      16.589 -17.911  21.577  1.00  0.00     0.336 A 
ATOM     10  O   UNL     1      17.799 -17.886  21.922  1.00  0.00    -0.246 OA
ATOM     11  O   UNL     1      15.646 -17.585  22.458  1.00  0.00    -0.423 OA
ENDROOT
BRANCH   1  12
ATOM     12  O   UNL     1      11.045 -16.896  23.749  1.00  0.00    -0.497 OA
ATOM     13  C   UNL     1      10.262 -15.709  23.692  1.00  0.00     0.278 C 
ENDBRANCH   1  12
TORSDOF 1
ENDMDL
MODEL 8
REMARK VINA RESULT:    -3.767     13.727     14.691
REMARK INTER + INTRA:          -4.020
REMARK INTER:                  -3.983
REMARK INTRA:                  -0.037
REMARK UNBOUND:                -0.033
REMARK SMILES COc1ccc2ccc(=O)oc2c1
REMARK SMILES IDX 3 1 13 2 12 3 6 4 5 5 4 6 7 7 8 8 9 9 10 10 11 11 2 12 1 13
REMARK H PARENT
REMARK Flexibility Score: inf
ROOT
ATOM      1  C   UNL     1      15.204  -4.592  14.796  1.00  0.00     0.122 A 
ATOM      2  C   UNL     1      15.453  -4.837  13.431  1.00  0.00     0.094 A 
ATOM      3  C   UNL     1      15.376  -6.138  12.922  1.00  0.00     0.142 A 
ATOM      4  C   UNL     1      15.045  -7.210  13.779  1.00  0.00     0.018 A 
ATOM      5  C   UNL     1      14.797  -6.967  15.136  1.00  0.00     0.016 A 
ATOM      6  C   UNL     1      14.876  -5.665  15.638  1.00  0.00     0.047 A 
ATOM      7  C   UNL     1      14.976  -8.498  13.240  1.00  0.00     0.019 A 
ATOM      8  C   UNL     1      15.232  -8.687  11.883  1.00  0.00     0.094 A 
ATOM      9  C   UNL     1      15.554  -7.578  11.093  1.00  0.00     0.336 A 
ATOM     10  O   UNL     1      15.788  -7.728   9.866  1.00  0.00    -0.246 OA
ATOM     11  O   UNL     1      15.613  -6.363  11.632  1.00  0.00    -0.423 OA
ENDROOT
BRANCH   1  12
ATOM     12  O   UNL     1      15.269  -3.306  15.353  1.00  0.00    -0.497 OA
ATOM     13  C   UNL     1      16.192  -2.301  14.948  1.00  0.00     0.278 C 
ENDBRANCH   1  12
TORSDOF 1
ENDMDL
MODEL 9
REMARK VINA RESULT:    -3.513     14.911     15.667
REMARK INTER + INTRA:          -3.751
REMARK INTER:                  -3.718
REMARK INTRA:                  -0.033
REMARK UNBOUND:                -0.033
REMARK SMILES COc1ccc2ccc(=O)oc2c1
REMARK SMILES IDX 3 1 13 2 12 3 6 4 5 5 4 6 7 7 8 8 9 9 10 10 11 11 2 12 1 13
REMARK H PARENT
REMARK Flexibility Score: inf
ROOT
ATOM      1  C   UNL     1      15.277  -6.522  12.376  1.00  0.00     0.122 A 
ATOM      2  C   UNL     1      15.915  -5.793  13.400  1.00  0.00     0.094 A 
ATOM      3  C   UNL     1      15.533  -4.474  13.669  1.00  0.00     0.142 A 
ATOM      4  C   UNL     1      14.503  -3.871  12.914  1.00  0.00     0.018 A 
ATOM      5  C   UNL     1      13.869  -4.596  11.897  1.00  0.00     0.016 A 
ATOM      6  C   UNL     1      14.256  -5.913  11.633  1.00  0.00     0.047 A 
ATOM      7  C   UNL     1      14.145  -2.553  13.208  1.00  0.00     0.019 A 
ATOM      8  C   UNL     1      14.808  -1.875  14.230  1.00  0.00     0.094 A 
ATOM      9  C   UNL     1      15.819  -2.535  14.938  1.00  0.00     0.336 A 
ATOM     10  O   UNL     1      16.429  -1.941  15.864  1.00  0.00    -0.246 OA
ATOM     11  O   UNL     1      16.141  -3.791  14.637  1.00  0.00    -0.423 OA
ENDROOT
BRANCH   1  12
ATOM     12  O   UNL     1      15.624  -7.846  12.068  1.00  0.00    -0.497 OA
ATOM     13  C   UNL     1      15.270  -8.975  12.859  1.00  0.00     0.278 C 
ENDBRANCH   1  12
TORSDOF 1
ENDMDL
