MODEL 1
REMARK VINA RESULT:    -7.943      0.000      0.000
REMARK INTER + INTRA:         -15.788
REMARK INTER:                 -13.747
REMARK INTRA:                  -2.040
REMARK UNBOUND:                -2.040
REMARK SMILES OC[C@@H]1O[C@H](O[C@@H]2[C@@H](O)[C@@H](O)[C@H](O[C@@H]3[C@@H](O)[C@H](O)[C@H](O)O[C@@H]3CO)O[C@@H]2CO)[C@H](O)[C@@H](O)[C@@H]1O
REMARK SMILES IDX 7 1 26 2 25 3 12 4 10 5 8 6 6 7 5 8 3 9 33 10 4 11 31 12
REMARK SMILES IDX 29 13 2 14 1 15 34 17 32 19 30 21 27 23 28 24 9 26 11 28
REMARK SMILES IDX 13 30 14 31 22 32 15 33 21 34 17 35 19 36 23 37 24 38 16 40
REMARK SMILES IDX 18 42 20 44
REMARK H PARENT 1 16 34 18 32 20 30 22 28 25 9 27 11 29 24 39 16 41 18 43
REMARK H PARENT 20 45
REMARK Flexibility Score: inf
ROOT
ATOM      1  C   UNL     1      20.880   0.155 -10.332  1.00  0.00     0.184 C 
ATOM      2  C   UNL     1      21.371  -0.212 -11.740  1.00  0.00     0.178 C 
ATOM      3  O   UNL     1      20.233  -0.525 -12.507  1.00  0.00    -0.341 OA
ATOM      4  C   UNL     1      19.501   0.637 -12.867  1.00  0.00     0.282 C 
ATOM      5  C   UNL     1      19.564   1.841 -11.847  1.00  0.00     0.202 C 
ATOM      6  C   UNL     1      20.006   1.441 -10.402  1.00  0.00     0.180 C 
ENDROOT
BRANCH   1   7
ATOM      7  O   UNL     1      20.050  -0.896  -9.844  1.00  0.00    -0.341 OA
BRANCH   7   8
ATOM      8  C   UNL     1      18.947  -0.426  -9.099  1.00  0.00     0.282 C 
ATOM      9  C   UNL     1      16.866  -1.091  -8.095  1.00  0.00     0.178 C 
ATOM     10  C   UNL     1      16.989   0.295  -7.384  1.00  0.00     0.177 C 
ATOM     11  O   UNL     1      17.956  -1.438  -8.963  1.00  0.00    -0.341 OA
ATOM     12  C   UNL     1      18.390   0.507  -6.777  1.00  0.00     0.179 C 
ATOM     13  C   UNL     1      19.495  -0.030  -7.715  1.00  0.00     0.202 C 
BRANCH   9  14
ATOM     14  C   UNL     1      16.658  -2.251  -7.098  1.00  0.00     0.191 C 
BRANCH  14  15
ATOM     15  O   UNL     1      15.547  -3.035  -7.461  1.00  0.00    -0.394 OA
ATOM     16  H   UNL     1      14.916  -3.026  -6.688  1.00  0.00     0.210 HD
ENDBRANCH  14  15
ENDBRANCH   9  14
BRANCH  10  17
ATOM     17  O   UNL     1      16.025   0.439  -6.373  1.00  0.00    -0.387 OA
ATOM     18  H   UNL     1      16.263  -0.201  -5.645  1.00  0.00     0.211 HD
ENDBRANCH  10  17
BRANCH  12  19
ATOM     19  O   UNL     1      18.601   1.881  -6.561  1.00  0.00    -0.387 OA
ATOM     20  H   UNL     1      17.704   2.294  -6.447  1.00  0.00     0.211 HD
ENDBRANCH  12  19
BRANCH  13  21
ATOM     21  O   UNL     1      20.164  -1.117  -7.121  1.00  0.00    -0.385 OA
ATOM     22  H   UNL     1      20.603  -1.650  -7.842  1.00  0.00     0.211 HD
ENDBRANCH  13  21
ENDBRANCH   7   8
ENDBRANCH   1   7
BRANCH   2  23
ATOM     23  C   UNL     1      22.334  -1.405 -11.747  1.00  0.00     0.191 C 
BRANCH  23  24
ATOM     24  O   UNL     1      22.053  -2.257 -12.826  1.00  0.00    -0.394 OA
ATOM     25  H   UNL     1      21.263  -1.877 -13.286  1.00  0.00     0.210 HD
ENDBRANCH  23  24
ENDBRANCH   2  23
BRANCH   6  26
ATOM     26  O   UNL     1      20.686   2.512  -9.802  1.00  0.00    -0.387 OA
ATOM     27  H   UNL     1      21.471   2.139  -9.327  1.00  0.00     0.211 HD
ENDBRANCH   6  26
BRANCH   5  28
ATOM     28  O   UNL     1      20.447   2.817 -12.343  1.00  0.00    -0.385 OA
ATOM     29  H   UNL     1      20.585   3.472 -11.610  1.00  0.00     0.211 HD
ENDBRANCH   5  28
BRANCH   4  30
ATOM     30  O   UNL     1      18.166   0.291 -13.240  1.00  0.00    -0.341 OA
BRANCH  30  31
ATOM     31  C   UNL     1      17.372  -0.220 -12.171  1.00  0.00     0.184 C 
ATOM     32  C   UNL     1      16.181   0.742 -11.904  1.00  0.00     0.178 C 
ATOM     33  C   UNL     1      16.853  -1.638 -12.499  1.00  0.00     0.180 C 
ATOM     34  O   UNL     1      15.297   0.255 -10.896  1.00  0.00    -0.342 OA
ATOM     35  C   UNL     1      15.895  -2.080 -11.380  1.00  0.00     0.201 C 
ATOM     36  C   UNL     1      14.780  -1.048 -11.156  1.00  0.00     0.279 C 
BRANCH  32  37
ATOM     37  C   UNL     1      15.420   1.210 -13.171  1.00  0.00     0.191 C 
BRANCH  37  38
ATOM     38  O   UNL     1      14.357   2.055 -12.823  1.00  0.00    -0.394 OA
ATOM     39  H   UNL     1      14.722   2.975 -12.759  1.00  0.00     0.210 HD
ENDBRANCH  37  38
ENDBRANCH  32  37
BRANCH  33  40
ATOM     40  O   UNL     1      17.926  -2.540 -12.563  1.00  0.00    -0.387 OA
ATOM     41  H   UNL     1      17.576  -3.420 -12.265  1.00  0.00     0.211 HD
ENDBRANCH  33  40
BRANCH  35  42
ATOM     42  O   UNL     1      15.355  -3.354 -11.637  1.00  0.00    -0.385 OA
ATOM     43  H   UNL     1      14.854  -3.639 -10.824  1.00  0.00     0.211 HD
ENDBRANCH  35  42
BRANCH  36  44
ATOM     44  O   UNL     1      13.869  -1.030 -12.226  1.00  0.00    -0.366 OA
ATOM     45  H   UNL     1      12.995  -1.331 -11.859  1.00  0.00     0.213 HD
ENDBRANCH  36  44
ENDBRANCH  30  31
ENDBRANCH   4  30
TORSDOF 18
ENDMDL
MODEL 2
REMARK VINA RESULT:    -7.699      1.636      5.848
REMARK INTER + INTRA:         -15.366
REMARK INTER:                 -13.860
REMARK INTRA:                  -1.506
REMARK UNBOUND:                -2.040
REMARK SMILES OC[C@@H]1O[C@H](O[C@@H]2[C@@H](O)[C@@H](O)[C@H](O[C@@H]3[C@@H](O)[C@H](O)[C@H](O)O[C@@H]3CO)O[C@@H]2CO)[C@H](O)[C@@H](O)[C@@H]1O
REMARK SMILES IDX 7 1 26 2 25 3 12 4 10 5 8 6 6 7 5 8 3 9 33 10 4 11 31 12
REMARK SMILES IDX 29 13 2 14 1 15 34 17 32 19 30 21 27 23 28 24 9 26 11 28
REMARK SMILES IDX 13 30 14 31 22 32 15 33 21 34 17 35 19 36 23 37 24 38 16 40
REMARK SMILES IDX 18 42 20 44
REMARK H PARENT 1 16 34 18 32 20 30 22 28 25 9 27 11 29 24 39 16 41 18 43
REMARK H PARENT 20 45
REMARK Flexibility Score: inf
ROOT
ATOM      1  C   UNL     1      17.327   0.021 -12.287  1.00  0.00     0.184 C 
ATOM      2  C   UNL     1      17.311  -1.501 -12.082  1.00  0.00     0.178 C 
ATOM      3  O   UNL     1      17.103  -1.732 -10.708  1.00  0.00    -0.341 OA
ATOM      4  C   UNL     1      15.757  -1.483 -10.328  1.00  0.00     0.282 C 
ATOM      5  C   UNL     1      14.997  -0.373 -11.155  1.00  0.00     0.202 C 
ATOM      6  C   UNL     1      15.932   0.611 -11.930  1.00  0.00     0.180 C 
ENDROOT
BRANCH   1   7
ATOM      7  O   UNL     1      18.274   0.598 -11.391  1.00  0.00    -0.341 OA
BRANCH   7   8
ATOM      8  C   UNL     1      19.401   1.132 -12.052  1.00  0.00     0.282 C 
ATOM      9  C   UNL     1      20.794   3.085 -12.230  1.00  0.00     0.178 C 
ATOM     10  C   UNL     1      21.739   2.102 -12.994  1.00  0.00     0.177 C 
ATOM     11  O   UNL     1      19.585   2.503 -11.717  1.00  0.00    -0.341 OA
ATOM     12  C   UNL     1      21.934   0.779 -12.228  1.00  0.00     0.179 C 
ATOM     13  C   UNL     1      20.612   0.304 -11.584  1.00  0.00     0.202 C 
BRANCH   9  14
ATOM     14  C   UNL     1      21.507   3.811 -11.071  1.00  0.00     0.191 C 
BRANCH  14  15
ATOM     15  O   UNL     1      21.010   3.385  -9.825  1.00  0.00    -0.394 OA
ATOM     16  H   UNL     1      20.186   2.853 -10.004  1.00  0.00     0.210 HD
ENDBRANCH  14  15
ENDBRANCH   9  14
BRANCH  10  17
ATOM     17  O   UNL     1      22.995   2.684 -13.233  1.00  0.00    -0.387 OA
ATOM     18  H   UNL     1      23.229   2.501 -14.186  1.00  0.00     0.211 HD
ENDBRANCH  10  17
BRANCH  12  19
ATOM     19  O   UNL     1      22.392  -0.211 -13.116  1.00  0.00    -0.387 OA
ATOM     20  H   UNL     1      23.358  -0.033 -13.270  1.00  0.00     0.211 HD
ENDBRANCH  12  19
BRANCH  13  21
ATOM     21  O   UNL     1      20.709   0.326 -10.179  1.00  0.00    -0.385 OA
ATOM     22  H   UNL     1      21.633   0.614  -9.930  1.00  0.00     0.211 HD
ENDBRANCH  13  21
ENDBRANCH   7   8
ENDBRANCH   1   7
BRANCH   2  23
ATOM     23  C   UNL     1      18.615  -2.178 -12.519  1.00  0.00     0.191 C 
BRANCH  23  24
ATOM     24  O   UNL     1      19.471  -2.354 -11.420  1.00  0.00    -0.394 OA
ATOM     25  H   UNL     1      20.394  -2.335 -11.778  1.00  0.00     0.210 HD
ENDBRANCH  23  24
ENDBRANCH   2  23
BRANCH   6  26
ATOM     26  O   UNL     1      15.289   1.054 -13.096  1.00  0.00    -0.387 OA
ATOM     27  H   UNL     1      15.870   1.739 -13.514  1.00  0.00     0.211 HD
ENDBRANCH   6  26
BRANCH   5  28
ATOM     28  O   UNL     1      14.128  -0.996 -12.069  1.00  0.00    -0.385 OA
ATOM     29  H   UNL     1      14.173  -0.467 -12.907  1.00  0.00     0.211 HD
ENDBRANCH   5  28
BRANCH   4  30
ATOM     30  O   UNL     1      15.666  -1.289  -8.916  1.00  0.00    -0.341 OA
BRANCH  30  31
ATOM     31  C   UNL     1      16.849  -0.763  -8.318  1.00  0.00     0.184 C 
ATOM     32  C   UNL     1      16.730   0.783  -8.205  1.00  0.00     0.178 C 
ATOM     33  C   UNL     1      17.084  -1.386  -6.924  1.00  0.00     0.180 C 
ATOM     34  O   UNL     1      17.848   1.373  -7.544  1.00  0.00    -0.342 OA
ATOM     35  C   UNL     1      18.287  -0.684  -6.271  1.00  0.00     0.201 C 
ATOM     36  C   UNL     1      18.103   0.840  -6.246  1.00  0.00     0.279 C 
BRANCH  32  37
ATOM     37  C   UNL     1      15.380   1.297  -7.642  1.00  0.00     0.191 C 
BRANCH  37  38
ATOM     38  O   UNL     1      14.307   0.732  -8.345  1.00  0.00    -0.394 OA
ATOM     39  H   UNL     1      14.676   0.012  -8.917  1.00  0.00     0.210 HD
ENDBRANCH  37  38
ENDBRANCH  32  37
BRANCH  33  40
ATOM     40  O   UNL     1      17.368  -2.754  -7.050  1.00  0.00    -0.387 OA
ATOM     41  H   UNL     1      16.715  -3.122  -7.699  1.00  0.00     0.211 HD
ENDBRANCH  33  40
BRANCH  35  42
ATOM     42  O   UNL     1      18.534  -1.181  -4.977  1.00  0.00    -0.385 OA
ATOM     43  H   UNL     1      19.351  -0.727  -4.631  1.00  0.00     0.211 HD
ENDBRANCH  35  42
BRANCH  36  44
ATOM     44  O   UNL     1      17.107   1.225  -5.333  1.00  0.00    -0.366 OA
ATOM     45  H   UNL     1      16.548   0.420  -5.166  1.00  0.00     0.213 HD
ENDBRANCH  36  44
ENDBRANCH  30  31
ENDBRANCH   4  30
TORSDOF 18
ENDMDL
MODEL 3
REMARK VINA RESULT:    -7.531      1.467      6.007
REMARK INTER + INTRA:         -15.075
REMARK INTER:                 -14.383
REMARK INTRA:                  -0.692
REMARK UNBOUND:                -2.040
REMARK SMILES OC[C@@H]1O[C@H](O[C@@H]2[C@@H](O)[C@@H](O)[C@H](O[C@@H]3[C@@H](O)[C@H](O)[C@H](O)O[C@@H]3CO)O[C@@H]2CO)[C@H](O)[C@@H](O)[C@@H]1O
REMARK SMILES IDX 7 1 26 2 25 3 12 4 10 5 8 6 6 7 5 8 3 9 33 10 4 11 31 12
REMARK SMILES IDX 29 13 2 14 1 15 34 17 32 19 30 21 27 23 28 24 9 26 11 28
REMARK SMILES IDX 13 30 14 31 22 32 15 33 21 34 17 35 19 36 23 37 24 38 16 40
REMARK SMILES IDX 18 42 20 44
REMARK H PARENT 1 16 34 18 32 20 30 22 28 25 9 27 11 29 24 39 16 41 18 43
REMARK H PARENT 20 45
REMARK Flexibility Score: inf
ROOT
ATOM      1  C   UNL     1      16.749   0.382  -7.586  1.00  0.00     0.184 C 
ATOM      2  C   UNL     1      17.137  -1.082  -7.844  1.00  0.00     0.178 C 
ATOM      3  O   UNL     1      18.354  -1.069  -8.552  1.00  0.00    -0.341 OA
ATOM      4  C   UNL     1      19.450  -0.734  -7.713  1.00  0.00     0.282 C 
ATOM      5  C   UNL     1      19.130   0.230  -6.505  1.00  0.00     0.202 C 
ATOM      6  C   UNL     1      17.809   1.050  -6.663  1.00  0.00     0.180 C 
ENDROOT
BRANCH   1   7
ATOM      7  O   UNL     1      16.760   1.087  -8.825  1.00  0.00    -0.341 OA
BRANCH   7   8
ATOM      8  C   UNL     1      16.106   0.388  -9.863  1.00  0.00     0.282 C 
ATOM      9  C   UNL     1      14.141   0.375 -11.248  1.00  0.00     0.178 C 
ATOM     10  C   UNL     1      14.963  -0.671 -12.069  1.00  0.00     0.177 C 
ATOM     11  O   UNL     1      14.816   0.934 -10.110  1.00  0.00    -0.341 OA
ATOM     12  C   UNL     1      16.400  -0.185 -12.344  1.00  0.00     0.179 C 
ATOM     13  C   UNL     1      16.994   0.535 -11.112  1.00  0.00     0.202 C 
BRANCH   9  14
ATOM     14  C   UNL     1      13.627   1.539 -12.121  1.00  0.00     0.191 C 
BRANCH  14  15
ATOM     15  O   UNL     1      14.612   1.960 -13.033  1.00  0.00    -0.394 OA
ATOM     16  H   UNL     1      15.363   1.307 -12.978  1.00  0.00     0.210 HD
ENDBRANCH  14  15
ENDBRANCH   9  14
BRANCH  10  17
ATOM     17  O   UNL     1      14.337  -0.968 -13.290  1.00  0.00    -0.387 OA
ATOM     18  H   UNL     1      13.861  -1.837 -13.175  1.00  0.00     0.211 HD
ENDBRANCH  10  17
BRANCH  12  19
ATOM     19  O   UNL     1      17.211  -1.289 -12.664  1.00  0.00    -0.387 OA
ATOM     20  H   UNL     1      17.797  -1.005 -13.416  1.00  0.00     0.211 HD
ENDBRANCH  12  19
BRANCH  13  21
ATOM     21  O   UNL     1      17.223   1.896 -11.396  1.00  0.00    -0.385 OA
ATOM     22  H   UNL     1      17.318   2.386 -10.532  1.00  0.00     0.211 HD
ENDBRANCH  13  21
ENDBRANCH   7   8
ENDBRANCH   1   7
BRANCH   2  23
ATOM     23  C   UNL     1      16.084  -1.847  -8.654  1.00  0.00     0.191 C 
BRANCH  23  24
ATOM     24  O   UNL     1      15.046  -2.288  -7.818  1.00  0.00    -0.394 OA
ATOM     25  H   UNL     1      14.883  -3.236  -8.050  1.00  0.00     0.210 HD
ENDBRANCH  23  24
ENDBRANCH   2  23
BRANCH   6  26
ATOM     26  O   UNL     1      17.252   1.298  -5.399  1.00  0.00    -0.387 OA
ATOM     27  H   UNL     1      17.560   2.193  -5.108  1.00  0.00     0.211 HD
ENDBRANCH   6  26
BRANCH   5  28
ATOM     28  O   UNL     1      19.063  -0.524  -5.320  1.00  0.00    -0.385 OA
ATOM     29  H   UNL     1      19.997  -0.637  -5.002  1.00  0.00     0.211 HD
ENDBRANCH   5  28
BRANCH   4  30
ATOM     30  O   UNL     1      20.562  -0.299  -8.497  1.00  0.00    -0.341 OA
BRANCH  30  31
ATOM     31  C   UNL     1      20.206   0.275  -9.753  1.00  0.00     0.184 C 
ATOM     32  C   UNL     1      20.076   1.816  -9.600  1.00  0.00     0.178 C 
ATOM     33  C   UNL     1      21.256  -0.069 -10.833  1.00  0.00     0.180 C 
ATOM     34  O   UNL     1      19.796   2.470 -10.837  1.00  0.00    -0.342 OA
ATOM     35  C   UNL     1      20.898   0.687 -12.123  1.00  0.00     0.201 C 
ATOM     36  C   UNL     1      20.743   2.193 -11.867  1.00  0.00     0.279 C 
BRANCH  32  37
ATOM     37  C   UNL     1      21.233   2.499  -8.827  1.00  0.00     0.191 C 
BRANCH  37  38
ATOM     38  O   UNL     1      21.099   3.894  -8.870  1.00  0.00    -0.394 OA
ATOM     39  H   UNL     1      20.535   4.110  -9.656  1.00  0.00     0.210 HD
ENDBRANCH  37  38
ENDBRANCH  32  37
BRANCH  33  40
ATOM     40  O   UNL     1      21.244  -1.448 -11.094  1.00  0.00    -0.387 OA
ATOM     41  H   UNL     1      22.114  -1.805 -10.778  1.00  0.00     0.211 HD
ENDBRANCH  33  40
BRANCH  35  42
ATOM     42  O   UNL     1      21.840   0.445 -13.141  1.00  0.00    -0.385 OA
ATOM     43  H   UNL     1      21.831   1.232 -13.753  1.00  0.00     0.211 HD
ENDBRANCH  35  42
BRANCH  36  44
ATOM     44  O   UNL     1      21.981   2.802 -11.597  1.00  0.00    -0.366 OA
ATOM     45  H   UNL     1      22.611   2.486 -12.298  1.00  0.00     0.213 HD
ENDBRANCH  36  44
ENDBRANCH  30  31
ENDBRANCH   4  30
TORSDOF 18
ENDMDL
MODEL 4
REMARK VINA RESULT:    -7.501      1.559      5.528
REMARK INTER + INTRA:         -15.023
REMARK INTER:                 -13.701
REMARK INTRA:                  -1.322
REMARK UNBOUND:                -2.040
REMARK SMILES OC[C@@H]1O[C@H](O[C@@H]2[C@@H](O)[C@@H](O)[C@H](O[C@@H]3[C@@H](O)[C@H](O)[C@H](O)O[C@@H]3CO)O[C@@H]2CO)[C@H](O)[C@@H](O)[C@@H]1O
REMARK SMILES IDX 7 1 26 2 25 3 12 4 10 5 8 6 6 7 5 8 3 9 33 10 4 11 31 12
REMARK SMILES IDX 29 13 2 14 1 15 34 17 32 19 30 21 27 23 28 24 9 26 11 28
REMARK SMILES IDX 13 30 14 31 22 32 15 33 21 34 17 35 19 36 23 37 24 38 16 40
REMARK SMILES IDX 18 42 20 44
REMARK H PARENT 1 16 34 18 32 20 30 22 28 25 9 27 11 29 24 39 16 41 18 43
REMARK H PARENT 20 45
REMARK Flexibility Score: inf
ROOT
ATOM      1  C   UNL     1      18.901  -0.857 -12.733  1.00  0.00     0.184 C 
ATOM      2  C   UNL     1      18.814   0.676 -12.781  1.00  0.00     0.178 C 
ATOM      3  O   UNL     1      19.068   1.147 -11.478  1.00  0.00    -0.341 OA
ATOM      4  C   UNL     1      20.444   1.052 -11.140  1.00  0.00     0.282 C 
ATOM      5  C   UNL     1      21.245  -0.129 -11.816  1.00  0.00     0.202 C 
ATOM      6  C   UNL     1      20.350  -1.287 -12.364  1.00  0.00     0.180 C 
ENDROOT
BRANCH   1   7
ATOM      7  O   UNL     1      18.040  -1.335 -11.702  1.00  0.00    -0.341 OA
BRANCH   7   8
ATOM      8  C   UNL     1      16.756  -1.682 -12.173  1.00  0.00     0.282 C 
ATOM      9  C   UNL     1      15.075  -3.402 -12.122  1.00  0.00     0.178 C 
ATOM     10  C   UNL     1      14.180  -2.274 -12.731  1.00  0.00     0.177 C 
ATOM     11  O   UNL     1      16.423  -3.017 -11.808  1.00  0.00    -0.341 OA
ATOM     12  C   UNL     1      14.308  -0.952 -11.949  1.00  0.00     0.179 C 
ATOM     13  C   UNL     1      15.772  -0.693 -11.523  1.00  0.00     0.202 C 
BRANCH   9  14
ATOM     14  C   UNL     1      14.451  -4.036 -10.862  1.00  0.00     0.191 C 
BRANCH  14  15
ATOM     15  O   UNL     1      15.077  -3.562  -9.694  1.00  0.00    -0.394 OA
ATOM     16  H   UNL     1      15.173  -2.574  -9.791  1.00  0.00     0.210 HD
ENDBRANCH  14  15
ENDBRANCH   9  14
BRANCH  10  17
ATOM     17  O   UNL     1      12.830  -2.657 -12.766  1.00  0.00    -0.387 OA
ATOM     18  H   UNL     1      12.801  -3.616 -13.040  1.00  0.00     0.211 HD
ENDBRANCH  10  17
BRANCH  12  19
ATOM     19  O   UNL     1      13.872   0.112 -12.757  1.00  0.00    -0.387 OA
ATOM     20  H   UNL     1      14.226   0.947 -12.348  1.00  0.00     0.211 HD
ENDBRANCH  12  19
BRANCH  13  21
ATOM     21  O   UNL     1      15.894  -0.727 -10.120  1.00  0.00    -0.385 OA
ATOM     22  H   UNL     1      14.996  -0.552  -9.721  1.00  0.00     0.211 HD
ENDBRANCH  13  21
ENDBRANCH   7   8
ENDBRANCH   1   7
BRANCH   2  23
ATOM     23  C   UNL     1      17.445   1.185 -13.248  1.00  0.00     0.191 C 
BRANCH  23  24
ATOM     24  O   UNL     1      16.995   2.220 -12.415  1.00  0.00    -0.394 OA
ATOM     25  H   UNL     1      16.115   2.503 -12.769  1.00  0.00     0.210 HD
ENDBRANCH  23  24
ENDBRANCH   2  23
BRANCH   6  26
ATOM     26  O   UNL     1      20.969  -1.877 -13.476  1.00  0.00    -0.387 OA
ATOM     27  H   UNL     1      20.495  -2.727 -13.666  1.00  0.00     0.211 HD
ENDBRANCH   6  26
BRANCH   5  28
ATOM     28  O   UNL     1      22.023   0.386 -12.868  1.00  0.00    -0.385 OA
ATOM     29  H   UNL     1      22.930   0.546 -12.497  1.00  0.00     0.211 HD
ENDBRANCH   5  28
BRANCH   4  30
ATOM     30  O   UNL     1      20.614   1.104  -9.723  1.00  0.00    -0.341 OA
BRANCH  30  31
ATOM     31  C   UNL     1      19.443   0.776  -8.979  1.00  0.00     0.184 C 
ATOM     32  C   UNL     1      19.323  -0.769  -8.854  1.00  0.00     0.178 C 
ATOM     33  C   UNL     1      19.480   1.426  -7.578  1.00  0.00     0.180 C 
ATOM     34  O   UNL     1      18.213  -1.171  -8.053  1.00  0.00    -0.342 OA
ATOM     35  C   UNL     1      18.268   0.928  -6.773  1.00  0.00     0.201 C 
ATOM     36  C   UNL     1      18.205  -0.606  -6.744  1.00  0.00     0.279 C 
BRANCH  32  37
ATOM     37  C   UNL     1      20.630  -1.496  -8.447  1.00  0.00     0.191 C 
BRANCH  37  38
ATOM     38  O   UNL     1      21.581  -0.578  -7.982  1.00  0.00    -0.394 OA
ATOM     39  H   UNL     1      22.200  -0.390  -8.733  1.00  0.00     0.210 HD
ENDBRANCH  37  38
ENDBRANCH  32  37
BRANCH  33  40
ATOM     40  O   UNL     1      19.408   2.822  -7.693  1.00  0.00    -0.387 OA
ATOM     41  H   UNL     1      19.606   3.041  -8.640  1.00  0.00     0.211 HD
ENDBRANCH  33  40
BRANCH  35  42
ATOM     42  O   UNL     1      18.262   1.456  -5.469  1.00  0.00    -0.385 OA
ATOM     43  H   UNL     1      19.175   1.332  -5.090  1.00  0.00     0.211 HD
ENDBRANCH  35  42
BRANCH  36  44
ATOM     44  O   UNL     1      19.229  -1.150  -5.950  1.00  0.00    -0.366 OA
ATOM     45  H   UNL     1      19.503  -0.437  -5.313  1.00  0.00     0.213 HD
ENDBRANCH  36  44
ENDBRANCH  30  31
ENDBRANCH   4  30
TORSDOF 18
ENDMDL
MODEL 5
REMARK VINA RESULT:    -7.485      1.549      5.248
REMARK INTER + INTRA:         -14.996
REMARK INTER:                 -14.188
REMARK INTRA:                  -0.807
REMARK UNBOUND:                -2.040
REMARK SMILES OC[C@@H]1O[C@H](O[C@@H]2[C@@H](O)[C@@H](O)[C@H](O[C@@H]3[C@@H](O)[C@H](O)[C@H](O)O[C@@H]3CO)O[C@@H]2CO)[C@H](O)[C@@H](O)[C@@H]1O
REMARK SMILES IDX 7 1 26 2 25 3 12 4 10 5 8 6 6 7 5 8 3 9 33 10 4 11 31 12
REMARK SMILES IDX 29 13 2 14 1 15 34 17 32 19 30 21 27 23 28 24 9 26 11 28
REMARK SMILES IDX 13 30 14 31 22 32 15 33 21 34 17 35 19 36 23 37 24 38 16 40
REMARK SMILES IDX 18 42 20 44
REMARK H PARENT 1 16 34 18 32 20 30 22 28 25 9 27 11 29 24 39 16 41 18 43
REMARK H PARENT 20 45
REMARK Flexibility Score: inf
ROOT
ATOM      1  C   UNL     1      19.257  -0.426  -7.758  1.00  0.00     0.184 C 
ATOM      2  C   UNL     1      18.868   1.038  -8.010  1.00  0.00     0.178 C 
ATOM      3  O   UNL     1      17.649   1.027  -8.715  1.00  0.00    -0.341 OA
ATOM      4  C   UNL     1      16.555   0.690  -7.875  1.00  0.00     0.282 C 
ATOM      5  C   UNL     1      16.878  -0.277  -6.670  1.00  0.00     0.202 C 
ATOM      6  C   UNL     1      18.199  -1.096  -6.834  1.00  0.00     0.180 C 
ENDROOT
BRANCH   1   7
ATOM      7  O   UNL     1      19.243  -1.128  -8.998  1.00  0.00    -0.341 OA
BRANCH   7   8
ATOM      8  C   UNL     1      20.014  -0.495  -9.998  1.00  0.00     0.282 C 
ATOM      9  C   UNL     1      22.040  -0.673 -11.280  1.00  0.00     0.178 C 
ATOM     10  C   UNL     1      21.366   0.447 -12.137  1.00  0.00     0.177 C 
ATOM     11  O   UNL     1      21.257  -1.164 -10.180  1.00  0.00    -0.341 OA
ATOM     12  C   UNL     1      19.906   0.101 -12.488  1.00  0.00     0.179 C 
ATOM     13  C   UNL     1      19.182  -0.557 -11.292  1.00  0.00     0.202 C 
BRANCH   9  14
ATOM     14  C   UNL     1      22.484  -1.882 -12.129  1.00  0.00     0.191 C 
BRANCH  14  15
ATOM     15  O   UNL     1      21.555  -2.150 -13.152  1.00  0.00    -0.394 OA
ATOM     16  H   UNL     1      20.654  -1.906 -12.802  1.00  0.00     0.210 HD
ENDBRANCH  14  15
ENDBRANCH   9  14
BRANCH  10  17
ATOM     17  O   UNL     1      22.080   0.681 -13.323  1.00  0.00    -0.387 OA
ATOM     18  H   UNL     1      21.476   0.448 -14.083  1.00  0.00     0.211 HD
ENDBRANCH  10  17
BRANCH  12  19
ATOM     19  O   UNL     1      19.222   1.278 -12.845  1.00  0.00    -0.387 OA
ATOM     20  H   UNL     1      18.296   1.189 -12.493  1.00  0.00     0.211 HD
ENDBRANCH  12  19
BRANCH  13  21
ATOM     21  O   UNL     1      18.838  -1.890 -11.593  1.00  0.00    -0.385 OA
ATOM     22  H   UNL     1      18.162  -2.200 -10.927  1.00  0.00     0.211 HD
ENDBRANCH  13  21
ENDBRANCH   7   8
ENDBRANCH   1   7
BRANCH   2  23
ATOM     23  C   UNL     1      19.918   1.806  -8.821  1.00  0.00     0.191 C 
BRANCH  23  24
ATOM     24  O   UNL     1      21.016   2.140  -8.012  1.00  0.00    -0.394 OA
ATOM     25  H   UNL     1      20.819   3.030  -7.625  1.00  0.00     0.210 HD
ENDBRANCH  23  24
ENDBRANCH   2  23
BRANCH   6  26
ATOM     26  O   UNL     1      18.760  -1.347  -5.572  1.00  0.00    -0.387 OA
ATOM     27  H   UNL     1      19.739  -1.216  -5.649  1.00  0.00     0.211 HD
ENDBRANCH   6  26
BRANCH   5  28
ATOM     28  O   UNL     1      16.948   0.474  -5.483  1.00  0.00    -0.385 OA
ATOM     29  H   UNL     1      16.852  -0.169  -4.734  1.00  0.00     0.211 HD
ENDBRANCH   5  28
BRANCH   4  30
ATOM     30  O   UNL     1      15.441   0.257  -8.656  1.00  0.00    -0.341 OA
BRANCH  30  31
ATOM     31  C   UNL     1      15.795  -0.344  -9.900  1.00  0.00     0.184 C 
ATOM     32  C   UNL     1      16.029  -1.866  -9.693  1.00  0.00     0.178 C 
ATOM     33  C   UNL     1      14.693  -0.110 -10.958  1.00  0.00     0.180 C 
ATOM     34  O   UNL     1      16.313  -2.549 -10.913  1.00  0.00    -0.342 OA
ATOM     35  C   UNL     1      15.060  -0.893 -12.230  1.00  0.00     0.201 C 
ATOM     36  C   UNL     1      15.320  -2.375 -11.921  1.00  0.00     0.279 C 
BRANCH  32  37
ATOM     37  C   UNL     1      14.942  -2.589  -8.858  1.00  0.00     0.191 C 
BRANCH  37  38
ATOM     38  O   UNL     1      15.002  -3.974  -9.064  1.00  0.00    -0.394 OA
ATOM     39  H   UNL     1      15.196  -4.120 -10.026  1.00  0.00     0.210 HD
ENDBRANCH  37  38
ENDBRANCH  32  37
BRANCH  33  40
ATOM     40  O   UNL     1      14.609   1.255 -11.272  1.00  0.00    -0.387 OA
ATOM     41  H   UNL     1      14.074   1.323 -12.105  1.00  0.00     0.211 HD
ENDBRANCH  33  40
BRANCH  35  42
ATOM     42  O   UNL     1      14.074  -0.752 -13.225  1.00  0.00    -0.385 OA
ATOM     43  H   UNL     1      13.313  -0.247 -12.826  1.00  0.00     0.211 HD
ENDBRANCH  35  42
BRANCH  36  44
ATOM     44  O   UNL     1      14.132  -3.049 -11.588  1.00  0.00    -0.366 OA
ATOM     45  H   UNL     1      13.439  -2.734 -12.227  1.00  0.00     0.213 HD
ENDBRANCH  36  44
ENDBRANCH  30  31
ENDBRANCH   4  30
TORSDOF 18
ENDMDL
MODEL 6
REMARK VINA RESULT:    -7.459      1.587      5.275
REMARK INTER + INTRA:         -14.950
REMARK INTER:                 -12.730
REMARK INTRA:                  -2.220
REMARK UNBOUND:                -2.040
REMARK SMILES OC[C@@H]1O[C@H](O[C@@H]2[C@@H](O)[C@@H](O)[C@H](O[C@@H]3[C@@H](O)[C@H](O)[C@H](O)O[C@@H]3CO)O[C@@H]2CO)[C@H](O)[C@@H](O)[C@@H]1O
REMARK SMILES IDX 7 1 26 2 25 3 12 4 10 5 8 6 6 7 5 8 3 9 33 10 4 11 31 12
REMARK SMILES IDX 29 13 2 14 1 15 34 17 32 19 30 21 27 23 28 24 9 26 11 28
REMARK SMILES IDX 13 30 14 31 22 32 15 33 21 34 17 35 19 36 23 37 24 38 16 40
REMARK SMILES IDX 18 42 20 44
REMARK H PARENT 1 16 34 18 32 20 30 22 28 25 9 27 11 29 24 39 16 41 18 43
REMARK H PARENT 20 45
REMARK Flexibility Score: inf
ROOT
ATOM      1  C   UNL     1      19.035   0.247 -12.480  1.00  0.00     0.184 C 
ATOM      2  C   UNL     1      19.875   1.476 -12.101  1.00  0.00     0.178 C 
ATOM      3  O   UNL     1      19.714   1.677 -10.716  1.00  0.00    -0.341 OA
ATOM      4  C   UNL     1      20.436   0.720  -9.955  1.00  0.00     0.282 C 
ATOM      5  C   UNL     1      20.616  -0.701 -10.617  1.00  0.00     0.202 C 
ATOM      6  C   UNL     1      19.601  -1.014 -11.764  1.00  0.00     0.180 C 
ENDROOT
BRANCH   1   7
ATOM      7  O   UNL     1      17.702   0.438 -12.013  1.00  0.00    -0.341 OA
BRANCH   7   8
ATOM      8  C   UNL     1      16.906  -0.722 -12.131  1.00  0.00     0.282 C 
ATOM      9  C   UNL     1      16.114  -2.655 -10.938  1.00  0.00     0.178 C 
ATOM     10  C   UNL     1      15.132  -2.759 -12.150  1.00  0.00     0.177 C 
ATOM     11  O   UNL     1      17.006  -1.528 -10.963  1.00  0.00    -0.341 OA
ATOM     12  C   UNL     1      14.458  -1.409 -12.462  1.00  0.00     0.179 C 
ATOM     13  C   UNL     1      15.456  -0.238 -12.319  1.00  0.00     0.202 C 
BRANCH   9  14
ATOM     14  C   UNL     1      15.381  -2.658  -9.581  1.00  0.00     0.191 C 
BRANCH  14  15
ATOM     15  O   UNL     1      14.994  -3.961  -9.218  1.00  0.00    -0.394 OA
ATOM     16  H   UNL     1      14.021  -3.931  -9.005  1.00  0.00     0.210 HD
ENDBRANCH  14  15
ENDBRANCH   9  14
BRANCH  10  17
ATOM     17  O   UNL     1      14.140  -3.725 -11.921  1.00  0.00    -0.387 OA
ATOM     18  H   UNL     1      14.347  -4.161 -11.047  1.00  0.00     0.211 HD
ENDBRANCH  10  17
BRANCH  12  19
ATOM     19  O   UNL     1      13.962  -1.429 -13.778  1.00  0.00    -0.387 OA
ATOM     20  H   UNL     1      13.189  -0.802 -13.802  1.00  0.00     0.211 HD
ENDBRANCH  12  19
BRANCH  13  21
ATOM     21  O   UNL     1      15.079   0.609 -11.259  1.00  0.00    -0.385 OA
ATOM     22  H   UNL     1      14.304   1.163 -11.558  1.00  0.00     0.211 HD
ENDBRANCH  13  21
ENDBRANCH   7   8
ENDBRANCH   1   7
BRANCH   2  23
ATOM     23  C   UNL     1      19.455   2.744 -12.853  1.00  0.00     0.191 C 
BRANCH  23  24
ATOM     24  O   UNL     1      18.175   3.154 -12.447  1.00  0.00    -0.394 OA
ATOM     25  H   UNL     1      18.182   3.156 -11.457  1.00  0.00     0.210 HD
ENDBRANCH  23  24
ENDBRANCH   2  23
BRANCH   6  26
ATOM     26  O   UNL     1      20.197  -1.868 -12.704  1.00  0.00    -0.387 OA
ATOM     27  H   UNL     1      20.519  -1.307 -13.454  1.00  0.00     0.211 HD
ENDBRANCH   6  26
BRANCH   5  28
ATOM     28  O   UNL     1      21.924  -0.812 -11.121  1.00  0.00    -0.385 OA
ATOM     29  H   UNL     1      22.522  -0.384 -10.453  1.00  0.00     0.211 HD
ENDBRANCH   5  28
BRANCH   4  30
ATOM     30  O   UNL     1      19.925   0.656  -8.623  1.00  0.00    -0.341 OA
BRANCH  30  31
ATOM     31  C   UNL     1      18.642   0.044  -8.515  1.00  0.00     0.184 C 
ATOM     32  C   UNL     1      18.588  -0.825  -7.227  1.00  0.00     0.178 C 
ATOM     33  C   UNL     1      17.524   1.110  -8.489  1.00  0.00     0.180 C 
ATOM     34  O   UNL     1      17.305  -1.410  -7.012  1.00  0.00    -0.342 OA
ATOM     35  C   UNL     1      16.181   0.405  -8.232  1.00  0.00     0.201 C 
ATOM     36  C   UNL     1      16.237  -0.466  -6.969  1.00  0.00     0.279 C 
BRANCH  32  37
ATOM     37  C   UNL     1      19.140  -0.141  -5.951  1.00  0.00     0.191 C 
BRANCH  37  38
ATOM     38  O   UNL     1      18.760  -0.854  -4.806  1.00  0.00    -0.394 OA
ATOM     39  H   UNL     1      18.507  -0.188  -4.116  1.00  0.00     0.210 HD
ENDBRANCH  37  38
ENDBRANCH  32  37
BRANCH  33  40
ATOM     40  O   UNL     1      17.462   1.772  -9.724  1.00  0.00    -0.387 OA
ATOM     41  H   UNL     1      18.366   2.145  -9.893  1.00  0.00     0.211 HD
ENDBRANCH  33  40
BRANCH  35  42
ATOM     42  O   UNL     1      15.120   1.327  -8.160  1.00  0.00    -0.385 OA
ATOM     43  H   UNL     1      15.275   1.903  -7.361  1.00  0.00     0.211 HD
ENDBRANCH  35  42
BRANCH  36  44
ATOM     44  O   UNL     1      16.296   0.317  -5.803  1.00  0.00    -0.366 OA
ATOM     45  H   UNL     1      16.523   1.240  -6.093  1.00  0.00     0.213 HD
ENDBRANCH  36  44
ENDBRANCH  30  31
ENDBRANCH   4  30
TORSDOF 18
ENDMDL
MODEL 7
REMARK VINA RESULT:    -7.422      1.467      5.438
REMARK INTER + INTRA:         -14.886
REMARK INTER:                 -12.973
REMARK INTRA:                  -1.912
REMARK UNBOUND:                -2.040
REMARK SMILES OC[C@@H]1O[C@H](O[C@@H]2[C@@H](O)[C@@H](O)[C@H](O[C@@H]3[C@@H](O)[C@H](O)[C@H](O)O[C@@H]3CO)O[C@@H]2CO)[C@H](O)[C@@H](O)[C@@H]1O
REMARK SMILES IDX 7 1 26 2 25 3 12 4 10 5 8 6 6 7 5 8 3 9 33 10 4 11 31 12
REMARK SMILES IDX 29 13 2 14 1 15 34 17 32 19 30 21 27 23 28 24 9 26 11 28
REMARK SMILES IDX 13 30 14 31 22 32 15 33 21 34 17 35 19 36 23 37 24 38 16 40
REMARK SMILES IDX 18 42 20 44
REMARK H PARENT 1 16 34 18 32 20 30 22 28 25 9 27 11 29 24 39 16 41 18 43
REMARK H PARENT 20 45
REMARK Flexibility Score: inf
ROOT
ATOM      1  C   UNL     1      15.206  -0.319 -10.525  1.00  0.00     0.184 C 
ATOM      2  C   UNL     1      14.845   0.082 -11.963  1.00  0.00     0.178 C 
ATOM      3  O   UNL     1      16.051   0.389 -12.622  1.00  0.00    -0.341 OA
ATOM      4  C   UNL     1      16.793  -0.779 -12.939  1.00  0.00     0.282 C 
ATOM      5  C   UNL     1      16.622  -1.999 -11.952  1.00  0.00     0.202 C 
ATOM      6  C   UNL     1      16.062  -1.618 -10.543  1.00  0.00     0.180 C 
ENDROOT
BRANCH   1   7
ATOM      7  O   UNL     1      16.006   0.709  -9.946  1.00  0.00    -0.341 OA
BRANCH   7   8
ATOM      8  C   UNL     1      17.041   0.207  -9.128  1.00  0.00     0.282 C 
ATOM      9  C   UNL     1      18.941   0.846  -7.801  1.00  0.00     0.178 C 
ATOM     10  C   UNL     1      18.824  -0.621  -7.275  1.00  0.00     0.177 C 
ATOM     11  O   UNL     1      17.942   1.242  -8.754  1.00  0.00    -0.341 OA
ATOM     12  C   UNL     1      17.377  -0.974  -6.877  1.00  0.00     0.179 C 
ATOM     13  C   UNL     1      16.359  -0.382  -7.879  1.00  0.00     0.202 C 
BRANCH   9  14
ATOM     14  C   UNL     1      18.956   1.884  -6.660  1.00  0.00     0.191 C 
BRANCH  14  15
ATOM     15  O   UNL     1      18.070   1.516  -5.630  1.00  0.00    -0.394 OA
ATOM     16  H   UNL     1      17.627   2.350  -5.310  1.00  0.00     0.210 HD
ENDBRANCH  14  15
ENDBRANCH   9  14
BRANCH  10  17
ATOM     17  O   UNL     1      19.668  -0.839  -6.175  1.00  0.00    -0.387 OA
ATOM     18  H   UNL     1      20.607  -0.752  -6.501  1.00  0.00     0.211 HD
ENDBRANCH  10  17
BRANCH  12  19
ATOM     19  O   UNL     1      17.230  -2.373  -6.850  1.00  0.00    -0.387 OA
ATOM     20  H   UNL     1      16.304  -2.569  -7.154  1.00  0.00     0.211 HD
ENDBRANCH  12  19
BRANCH  13  21
ATOM     21  O   UNL     1      15.556   0.591  -7.252  1.00  0.00    -0.385 OA
ATOM     22  H   UNL     1      16.084   1.434  -7.175  1.00  0.00     0.211 HD
ENDBRANCH  13  21
ENDBRANCH   7   8
ENDBRANCH   1   7
BRANCH   2  23
ATOM     23  C   UNL     1      13.905   1.291 -12.030  1.00  0.00     0.191 C 
BRANCH  23  24
ATOM     24  O   UNL     1      14.262   2.133 -13.096  1.00  0.00    -0.394 OA
ATOM     25  H   UNL     1      13.426   2.562 -13.406  1.00  0.00     0.210 HD
ENDBRANCH  23  24
ENDBRANCH   2  23
BRANCH   6  26
ATOM     26  O   UNL     1      15.316  -2.688 -10.025  1.00  0.00    -0.387 OA
ATOM     27  H   UNL     1      14.734  -3.025 -10.752  1.00  0.00     0.211 HD
ENDBRANCH   6  26
BRANCH   5  28
ATOM     28  O   UNL     1      15.771  -2.951 -12.541  1.00  0.00    -0.385 OA
ATOM     29  H   UNL     1      15.769  -3.741 -11.940  1.00  0.00     0.211 HD
ENDBRANCH   5  28
BRANCH   4  30
ATOM     30  O   UNL     1      18.160  -0.449 -13.188  1.00  0.00    -0.341 OA
BRANCH  30  31
ATOM     31  C   UNL     1      18.798   0.251 -12.122  1.00  0.00     0.184 C 
ATOM     32  C   UNL     1      20.096  -0.498 -11.712  1.00  0.00     0.178 C 
ATOM     33  C   UNL     1      19.125   1.704 -12.536  1.00  0.00     0.180 C 
ATOM     34  O   UNL     1      20.831   0.188 -10.699  1.00  0.00    -0.342 OA
ATOM     35  C   UNL     1      19.932   2.365 -11.405  1.00  0.00     0.201 C 
ATOM     36  C   UNL     1      21.168   1.531 -11.036  1.00  0.00     0.279 C 
BRANCH  32  37
ATOM     37  C   UNL     1      21.000  -0.938 -12.892  1.00  0.00     0.191 C 
BRANCH  37  38
ATOM     38  O   UNL     1      20.566  -2.164 -13.415  1.00  0.00    -0.394 OA
ATOM     39  H   UNL     1      21.363  -2.625 -13.783  1.00  0.00     0.210 HD
ENDBRANCH  37  38
ENDBRANCH  32  37
BRANCH  33  40
ATOM     40  O   UNL     1      17.939   2.427 -12.732  1.00  0.00    -0.387 OA
ATOM     41  H   UNL     1      17.738   2.883 -11.874  1.00  0.00     0.211 HD
ENDBRANCH  33  40
BRANCH  35  42
ATOM     42  O   UNL     1      20.296   3.684 -11.735  1.00  0.00    -0.385 OA
ATOM     43  H   UNL     1      19.603   4.292 -11.357  1.00  0.00     0.211 HD
ENDBRANCH  35  42
BRANCH  36  44
ATOM     44  O   UNL     1      22.141   1.573 -12.049  1.00  0.00    -0.366 OA
ATOM     45  H   UNL     1      23.020   1.443 -11.603  1.00  0.00     0.213 HD
ENDBRANCH  36  44
ENDBRANCH  30  31
ENDBRANCH   4  30
TORSDOF 18
ENDMDL
MODEL 8
REMARK VINA RESULT:    -7.227      1.557      5.430
REMARK INTER + INTRA:         -14.549
REMARK INTER:                 -12.945
REMARK INTRA:                  -1.604
REMARK UNBOUND:                -2.040
REMARK SMILES OC[C@@H]1O[C@H](O[C@@H]2[C@@H](O)[C@@H](O)[C@H](O[C@@H]3[C@@H](O)[C@H](O)[C@H](O)O[C@@H]3CO)O[C@@H]2CO)[C@H](O)[C@@H](O)[C@@H]1O
REMARK SMILES IDX 7 1 26 2 25 3 12 4 10 5 8 6 6 7 5 8 3 9 33 10 4 11 31 12
REMARK SMILES IDX 29 13 2 14 1 15 34 17 32 19 30 21 27 23 28 24 9 26 11 28
REMARK SMILES IDX 13 30 14 31 22 32 15 33 21 34 17 35 19 36 23 37 24 38 16 40
REMARK SMILES IDX 18 42 20 44
REMARK H PARENT 1 16 34 18 32 20 30 22 28 25 9 27 11 29 24 39 16 41 18 43
REMARK H PARENT 20 45
REMARK Flexibility Score: inf
ROOT
ATOM      1  C   UNL     1      18.995   0.059 -12.781  1.00  0.00     0.184 C 
ATOM      2  C   UNL     1      19.857   0.932 -11.857  1.00  0.00     0.178 C 
ATOM      3  O   UNL     1      19.430   0.686 -10.538  1.00  0.00    -0.341 OA
ATOM      4  C   UNL     1      19.876  -0.577 -10.065  1.00  0.00     0.282 C 
ATOM      5  C   UNL     1      20.044  -1.707 -11.155  1.00  0.00     0.202 C 
ATOM      6  C   UNL     1      19.266  -1.444 -12.484  1.00  0.00     0.180 C 
ENDROOT
BRANCH   1   7
ATOM      7  O   UNL     1      17.620   0.307 -12.498  1.00  0.00    -0.341 OA
BRANCH   7   8
ATOM      8  C   UNL     1      16.856  -0.877 -12.400  1.00  0.00     0.282 C 
ATOM      9  C   UNL     1      16.100  -2.569 -10.868  1.00  0.00     0.178 C 
ATOM     10  C   UNL     1      15.138  -2.930 -12.045  1.00  0.00     0.177 C 
ATOM     11  O   UNL     1      16.962  -1.443 -11.099  1.00  0.00    -0.341 OA
ATOM     12  C   UNL     1      14.432  -1.683 -12.614  1.00  0.00     0.179 C 
ATOM     13  C   UNL     1      15.397  -0.478 -12.689  1.00  0.00     0.202 C 
BRANCH   9  14
ATOM     14  C   UNL     1      15.349  -2.335  -9.541  1.00  0.00     0.191 C 
BRANCH  14  15
ATOM     15  O   UNL     1      15.075  -3.555  -8.894  1.00  0.00    -0.394 OA
ATOM     16  H   UNL     1      15.695  -4.236  -9.274  1.00  0.00     0.210 HD
ENDBRANCH  14  15
ENDBRANCH   9  14
BRANCH  10  17
ATOM     17  O   UNL     1      14.168  -3.863 -11.645  1.00  0.00    -0.387 OA
ATOM     18  H   UNL     1      14.320  -4.694 -12.176  1.00  0.00     0.211 HD
ENDBRANCH  10  17
BRANCH  12  19
ATOM     19  O   UNL     1      13.954  -1.967 -13.906  1.00  0.00    -0.387 OA
ATOM     20  H   UNL     1      12.966  -2.055 -13.833  1.00  0.00     0.211 HD
ENDBRANCH  12  19
BRANCH  13  21
ATOM     21  O   UNL     1      14.983   0.544 -11.812  1.00  0.00    -0.385 OA
ATOM     22  H   UNL     1      15.566   0.519 -11.001  1.00  0.00     0.211 HD
ENDBRANCH  13  21
ENDBRANCH   7   8
ENDBRANCH   1   7
BRANCH   2  23
ATOM     23  C   UNL     1      19.735   2.429 -12.161  1.00  0.00     0.191 C 
BRANCH  23  24
ATOM     24  O   UNL     1      18.386   2.801 -12.267  1.00  0.00    -0.394 OA
ATOM     25  H   UNL     1      18.078   3.007 -11.349  1.00  0.00     0.210 HD
ENDBRANCH  23  24
ENDBRANCH   2  23
BRANCH   6  26
ATOM     26  O   UNL     1      19.956  -2.025 -13.559  1.00  0.00    -0.387 OA
ATOM     27  H   UNL     1      19.797  -3.002 -13.523  1.00  0.00     0.211 HD
ENDBRANCH   6  26
BRANCH   5  28
ATOM     28  O   UNL     1      21.411  -1.863 -11.447  1.00  0.00    -0.385 OA
ATOM     29  H   UNL     1      21.904  -1.274 -10.817  1.00  0.00     0.211 HD
ENDBRANCH   5  28
BRANCH   4  30
ATOM     30  O   UNL     1      19.093  -0.994  -8.945  1.00  0.00    -0.341 OA
BRANCH  30  31
ATOM     31  C   UNL     1      19.234  -0.168  -7.791  1.00  0.00     0.184 C 
ATOM     32  C   UNL     1      18.283   1.055  -7.908  1.00  0.00     0.178 C 
ATOM     33  C   UNL     1      18.926  -0.965  -6.503  1.00  0.00     0.180 C 
ATOM     34  O   UNL     1      18.313   1.888  -6.750  1.00  0.00    -0.342 OA
ATOM     35  C   UNL     1      18.957   0.003  -5.308  1.00  0.00     0.201 C 
ATOM     36  C   UNL     1      18.024   1.202  -5.534  1.00  0.00     0.279 C 
BRANCH  32  37
ATOM     37  C   UNL     1      16.835   0.719  -8.348  1.00  0.00     0.191 C 
BRANCH  37  38
ATOM     38  O   UNL     1      16.607   1.151  -9.663  1.00  0.00    -0.394 OA
ATOM     39  H   UNL     1      17.122   1.988  -9.790  1.00  0.00     0.210 HD
ENDBRANCH  37  38
ENDBRANCH  32  37
BRANCH  33  40
ATOM     40  O   UNL     1      19.897  -1.959  -6.308  1.00  0.00    -0.387 OA
ATOM     41  H   UNL     1      20.204  -1.878  -5.368  1.00  0.00     0.211 HD
ENDBRANCH  33  40
BRANCH  35  42
ATOM     42  O   UNL     1      18.646  -0.655  -4.103  1.00  0.00    -0.385 OA
ATOM     43  H   UNL     1      17.753  -1.082  -4.215  1.00  0.00     0.211 HD
ENDBRANCH  35  42
BRANCH  36  44
ATOM     44  O   UNL     1      16.672   0.825  -5.471  1.00  0.00    -0.366 OA
ATOM     45  H   UNL     1      16.483   0.605  -4.519  1.00  0.00     0.213 HD
ENDBRANCH  36  44
ENDBRANCH  30  31
ENDBRANCH   4  30
TORSDOF 18
ENDMDL
MODEL 9
REMARK VINA RESULT:    -7.066      1.514      5.486
REMARK INTER + INTRA:         -14.270
REMARK INTER:                 -12.842
REMARK INTRA:                  -1.428
REMARK UNBOUND:                -2.040
REMARK SMILES OC[C@@H]1O[C@H](O[C@@H]2[C@@H](O)[C@@H](O)[C@H](O[C@@H]3[C@@H](O)[C@H](O)[C@H](O)O[C@@H]3CO)O[C@@H]2CO)[C@H](O)[C@@H](O)[C@@H]1O
REMARK SMILES IDX 7 1 26 2 25 3 12 4 10 5 8 6 6 7 5 8 3 9 33 10 4 11 31 12
REMARK SMILES IDX 29 13 2 14 1 15 34 17 32 19 30 21 27 23 28 24 9 26 11 28
REMARK SMILES IDX 13 30 14 31 22 32 15 33 21 34 17 35 19 36 23 37 24 38 16 40
REMARK SMILES IDX 18 42 20 44
REMARK H PARENT 1 16 34 18 32 20 30 22 28 25 9 27 11 29 24 39 16 41 18 43
REMARK H PARENT 20 45
REMARK Flexibility Score: inf
ROOT
ATOM      1  C   UNL     1      19.151   0.716  -7.608  1.00  0.00     0.184 C 
ATOM      2  C   UNL     1      17.980   1.040  -6.668  1.00  0.00     0.178 C 
ATOM      3  O   UNL     1      16.795   0.870  -7.409  1.00  0.00    -0.341 OA
ATOM      4  C   UNL     1      16.491  -0.502  -7.614  1.00  0.00     0.282 C 
ATOM      5  C   UNL     1      17.726  -1.481  -7.703  1.00  0.00     0.202 C 
ATOM      6  C   UNL     1      19.085  -0.780  -8.030  1.00  0.00     0.180 C 
ENDROOT
BRANCH   1   7
ATOM      7  O   UNL     1      19.021   1.498  -8.793  1.00  0.00    -0.341 OA
BRANCH   7   8
ATOM      8  C   UNL     1      20.022   1.219  -9.749  1.00  0.00     0.282 C 
ATOM      9  C   UNL     1      20.766  -0.412 -11.351  1.00  0.00     0.178 C 
ATOM     10  C   UNL     1      21.677   0.762 -11.834  1.00  0.00     0.177 C 
ATOM     11  O   UNL     1      19.878  -0.098 -10.267  1.00  0.00    -0.341 OA
ATOM     12  C   UNL     1      20.883   2.072 -12.008  1.00  0.00     0.179 C 
ATOM     13  C   UNL     1      19.848   2.255 -10.875  1.00  0.00     0.202 C 
BRANCH   9  14
ATOM     14  C   UNL     1      19.929  -1.020 -12.496  1.00  0.00     0.191 C 
BRANCH  14  15
ATOM     15  O   UNL     1      20.691  -1.933 -13.250  1.00  0.00    -0.394 OA
ATOM     16  H   UNL     1      20.053  -2.465 -13.801  1.00  0.00     0.210 HD
ENDBRANCH  14  15
ENDBRANCH   9  14
BRANCH  10  17
ATOM     17  O   UNL     1      22.317   0.449 -13.044  1.00  0.00    -0.387 OA
ATOM     18  H   UNL     1      23.098   1.063 -13.133  1.00  0.00     0.211 HD
ENDBRANCH  10  17
BRANCH  12  19
ATOM     19  O   UNL     1      21.773   3.161 -11.994  1.00  0.00    -0.387 OA
ATOM     20  H   UNL     1      21.440   3.812 -12.668  1.00  0.00     0.211 HD
ENDBRANCH  12  19
BRANCH  13  21
ATOM     21  O   UNL     1      18.537   2.207 -11.389  1.00  0.00    -0.385 OA
ATOM     22  H   UNL     1      18.128   1.334 -11.129  1.00  0.00     0.211 HD
ENDBRANCH  13  21
ENDBRANCH   7   8
ENDBRANCH   1   7
BRANCH   2  23
ATOM     23  C   UNL     1      18.034   2.468  -6.113  1.00  0.00     0.191 C 
BRANCH  23  24
ATOM     24  O   UNL     1      17.991   2.452  -4.710  1.00  0.00    -0.394 OA
ATOM     25  H   UNL     1      17.368   3.173  -4.440  1.00  0.00     0.210 HD
ENDBRANCH  23  24
ENDBRANCH   2  23
BRANCH   6  26
ATOM     26  O   UNL     1      20.138  -1.491  -7.435  1.00  0.00    -0.387 OA
ATOM     27  H   UNL     1      20.175  -2.383  -7.864  1.00  0.00     0.211 HD
ENDBRANCH   6  26
BRANCH   5  28
ATOM     28  O   UNL     1      17.850  -2.176  -6.487  1.00  0.00    -0.385 OA
ATOM     29  H   UNL     1      18.668  -2.734  -6.561  1.00  0.00     0.211 HD
ENDBRANCH   5  28
BRANCH   4  30
ATOM     30  O   UNL     1      15.578  -0.653  -8.702  1.00  0.00    -0.341 OA
BRANCH  30  31
ATOM     31  C   UNL     1      16.122  -0.312  -9.976  1.00  0.00     0.184 C 
ATOM     32  C   UNL     1      16.272  -1.597 -10.837  1.00  0.00     0.178 C 
ATOM     33  C   UNL     1      15.225   0.717 -10.700  1.00  0.00     0.180 C 
ATOM     34  O   UNL     1      16.740  -1.323 -12.157  1.00  0.00    -0.342 OA
ATOM     35  C   UNL     1      15.781   0.941 -12.116  1.00  0.00     0.201 C 
ATOM     36  C   UNL     1      15.940  -0.386 -12.873  1.00  0.00     0.279 C 
BRANCH  32  37
ATOM     37  C   UNL     1      15.036  -2.533 -10.838  1.00  0.00     0.191 C 
BRANCH  37  38
ATOM     38  O   UNL     1      15.084  -3.412  -9.747  1.00  0.00    -0.394 OA
ATOM     39  H   UNL     1      15.921  -3.221  -9.252  1.00  0.00     0.210 HD
ENDBRANCH  37  38
ENDBRANCH  32  37
BRANCH  33  40
ATOM     40  O   UNL     1      15.237   1.937 -10.008  1.00  0.00    -0.387 OA
ATOM     41  H   UNL     1      14.289   2.209  -9.893  1.00  0.00     0.211 HD
ENDBRANCH  33  40
BRANCH  35  42
ATOM     42  O   UNL     1      14.985   1.844 -12.846  1.00  0.00    -0.385 OA
ATOM     43  H   UNL     1      14.748   1.406 -13.710  1.00  0.00     0.211 HD
ENDBRANCH  35  42
BRANCH  36  44
ATOM     44  O   UNL     1      14.693  -0.937 -13.216  1.00  0.00    -0.366 OA
ATOM     45  H   UNL     1      14.882  -1.754 -13.751  1.00  0.00     0.213 HD
ENDBRANCH  36  44
ENDBRANCH  30  31
ENDBRANCH   4  30
TORSDOF 18
ENDMDL
