MODEL 1
REMARK VINA RESULT:    -3.336      0.000      0.000
REMARK INTER + INTRA:          -7.419
REMARK INTER:                  -5.189
REMARK INTRA:                  -2.230
REMARK UNBOUND:                -2.230
REMARK SMILES COc1cc(CNC(=O)CCCCC=CC(C)C)ccc1O
REMARK SMILES IDX 11 1 12 2 13 3 14 4 15 5 16 6 17 7 18 8 10 9 8 10 9 11 7 12
REMARK SMILES IDX 6 14 5 15 4 16 19 17 3 18 20 19 21 20 2 21 1 22 22 23
REMARK H PARENT 7 13 22 24
REMARK Flexibility Score: inf
ROOT
ATOM      1  C   UNL     1      52.573  37.683 124.272  1.00  0.00     0.010 C 
ENDROOT
BRANCH   1   2
ATOM      2  C   UNL     1      52.911  38.246 125.661  1.00  0.00     0.005 C 
BRANCH   2   3
ATOM      3  C   UNL     1      53.201  39.749 125.591  1.00  0.00     0.027 C 
BRANCH   3   4
ATOM      4  C   UNL     1      54.406  40.110 126.415  1.00  0.00    -0.031 C 
ATOM      5  C   UNL     1      55.365  39.204 126.657  1.00  0.00    -0.028 C 
BRANCH   5   6
ATOM      6  C   UNL     1      56.602  39.517 127.470  1.00  0.00     0.005 C 
ATOM      7  C   UNL     1      57.123  40.928 127.173  1.00  0.00     0.012 C 
ATOM      8  C   UNL     1      56.350  39.321 128.970  1.00  0.00     0.012 C 
ENDBRANCH   5   6
ENDBRANCH   3   4
ENDBRANCH   2   3
ENDBRANCH   1   2
BRANCH   1   9
ATOM      9  C   UNL     1      53.398  36.434 123.933  1.00  0.00     0.100 C 
BRANCH   9  10
ATOM     10  C   UNL     1      54.872  36.696 124.041  1.00  0.00     0.220 C 
ATOM     11  O   UNL     1      55.539  36.121 124.942  1.00  0.00    -0.275 OA
ATOM     12  N   UNL     1      55.505  37.630 123.154  1.00  0.00    -0.352 N 
ATOM     13  H   UNL     1      54.928  38.116 122.431  1.00  0.00     0.163 HD
BRANCH  12  14
ATOM     14  C   UNL     1      56.920  37.977 123.259  1.00  0.00     0.151 C 
BRANCH  14  15
ATOM     15  C   UNL     1      57.086  39.470 123.345  1.00  0.00    -0.025 A 
ATOM     16  C   UNL     1      55.991  40.325 123.133  1.00  0.00     0.056 A 
ATOM     17  C   UNL     1      58.336  40.017 123.665  1.00  0.00     0.009 A 
ATOM     18  C   UNL     1      56.145  41.722 123.230  1.00  0.00     0.160 A 
ATOM     19  C   UNL     1      58.495  41.401 123.761  1.00  0.00     0.050 A 
ATOM     20  C   UNL     1      57.405  42.254 123.543  1.00  0.00     0.157 A 
BRANCH  18  21
ATOM     21  O   UNL     1      55.077  42.608 123.023  1.00  0.00    -0.493 OA
ATOM     22  C   UNL     1      54.218  43.089 124.051  1.00  0.00     0.278 C 
ENDBRANCH  18  21
BRANCH  20  23
ATOM     23  O   UNL     1      57.565  43.636 123.639  1.00  0.00    -0.504 OA
ATOM     24  H   UNL     1      58.390  44.046 124.059  1.00  0.00     0.293 HD
ENDBRANCH  20  23
ENDBRANCH  14  15
ENDBRANCH  12  14
ENDBRANCH   9  10
ENDBRANCH   1   9
TORSDOF 10
ENDMDL
MODEL 2
REMARK VINA RESULT:    -3.262     12.595     14.920
REMARK INTER + INTRA:          -7.303
REMARK INTER:                  -6.470
REMARK INTRA:                  -0.833
REMARK UNBOUND:                -2.230
REMARK SMILES COc1cc(CNC(=O)CCCCC=CC(C)C)ccc1O
REMARK SMILES IDX 11 1 12 2 13 3 14 4 15 5 16 6 17 7 18 8 10 9 8 10 9 11 7 12
REMARK SMILES IDX 6 14 5 15 4 16 19 17 3 18 20 19 21 20 2 21 1 22 22 23
REMARK H PARENT 7 13 22 24
REMARK Flexibility Score: inf
ROOT
ATOM      1  C   UNL     1      51.981  36.973 138.301  1.00  0.00     0.010 C 
ENDROOT
BRANCH   1   2
ATOM      2  C   UNL     1      50.665  36.473 137.686  1.00  0.00     0.005 C 
BRANCH   2   3
ATOM      3  C   UNL     1      49.456  37.102 138.387  1.00  0.00     0.027 C 
BRANCH   3   4
ATOM      4  C   UNL     1      48.572  37.822 137.405  1.00  0.00    -0.031 C 
ATOM      5  C   UNL     1      49.073  38.777 136.606  1.00  0.00    -0.028 C 
BRANCH   5   6
ATOM      6  C   UNL     1      48.232  39.524 135.595  1.00  0.00     0.005 C 
ATOM      7  C   UNL     1      48.921  39.578 134.227  1.00  0.00     0.012 C 
ATOM      8  C   UNL     1      46.825  38.924 135.485  1.00  0.00     0.012 C 
ENDBRANCH   5   6
ENDBRANCH   3   4
ENDBRANCH   2   3
ENDBRANCH   1   2
BRANCH   1   9
ATOM      9  C   UNL     1      52.910  37.606 137.257  1.00  0.00     0.100 C 
BRANCH   9  10
ATOM     10  C   UNL     1      54.282  37.854 137.812  1.00  0.00     0.220 C 
ATOM     11  O   UNL     1      54.797  37.009 138.594  1.00  0.00    -0.275 OA
ATOM     12  N   UNL     1      54.983  39.065 137.492  1.00  0.00    -0.352 N 
ATOM     13  H   UNL     1      54.527  39.764 136.862  1.00  0.00     0.163 HD
BRANCH  12  14
ATOM     14  C   UNL     1      56.288  39.390 138.059  1.00  0.00     0.151 C 
BRANCH  14  15
ATOM     15  C   UNL     1      56.124  40.229 139.298  1.00  0.00    -0.025 A 
ATOM     16  C   UNL     1      55.513  41.492 139.230  1.00  0.00     0.056 A 
ATOM     17  C   UNL     1      56.560  39.739 140.537  1.00  0.00     0.009 A 
ATOM     18  C   UNL     1      55.346  42.269 140.395  1.00  0.00     0.160 A 
ATOM     19  C   UNL     1      56.399  40.504 141.693  1.00  0.00     0.050 A 
ATOM     20  C   UNL     1      55.794  41.767 141.626  1.00  0.00     0.157 A 
BRANCH  18  21
ATOM     21  O   UNL     1      54.743  43.536 140.368  1.00  0.00    -0.493 OA
ATOM     22  C   UNL     1      53.370  43.769 140.067  1.00  0.00     0.278 C 
ENDBRANCH  18  21
BRANCH  20  23
ATOM     23  O   UNL     1      55.634  42.531 142.781  1.00  0.00    -0.504 OA
ATOM     24  H   UNL     1      55.081  43.379 142.783  1.00  0.00     0.293 HD
ENDBRANCH  20  23
ENDBRANCH  14  15
ENDBRANCH  12  14
ENDBRANCH   9  10
ENDBRANCH   1   9
TORSDOF 10
ENDMDL
MODEL 3
REMARK VINA RESULT:    -3.261     10.891     12.980
REMARK INTER + INTRA:          -7.303
REMARK INTER:                  -5.035
REMARK INTRA:                  -2.268
REMARK UNBOUND:                -2.230
REMARK SMILES COc1cc(CNC(=O)CCCCC=CC(C)C)ccc1O
REMARK SMILES IDX 11 1 12 2 13 3 14 4 15 5 16 6 17 7 18 8 10 9 8 10 9 11 7 12
REMARK SMILES IDX 6 14 5 15 4 16 19 17 3 18 20 19 21 20 2 21 1 22 22 23
REMARK H PARENT 7 13 22 24
REMARK Flexibility Score: inf
ROOT
ATOM      1  C   UNL     1      49.968  35.928 137.383  1.00  0.00     0.010 C 
ENDROOT
BRANCH   1   2
ATOM      2  C   UNL     1      49.343  36.937 138.359  1.00  0.00     0.005 C 
BRANCH   2   3
ATOM      3  C   UNL     1      48.752  38.135 137.608  1.00  0.00     0.027 C 
BRANCH   3   4
ATOM      4  C   UNL     1      48.338  37.753 136.214  1.00  0.00    -0.031 C 
ATOM      5  C   UNL     1      47.367  38.429 135.579  1.00  0.00    -0.028 C 
BRANCH   5   6
ATOM      6  C   UNL     1      46.919  38.093 134.174  1.00  0.00     0.005 C 
ATOM      7  C   UNL     1      47.767  36.967 133.572  1.00  0.00     0.012 C 
ATOM      8  C   UNL     1      45.425  37.750 134.130  1.00  0.00     0.012 C 
ENDBRANCH   5   6
ENDBRANCH   3   4
ENDBRANCH   2   3
ENDBRANCH   1   2
BRANCH   1   9
ATOM      9  C   UNL     1      51.501  35.911 137.465  1.00  0.00     0.100 C 
BRANCH   9  10
ATOM     10  C   UNL     1      52.105  37.105 136.785  1.00  0.00     0.220 C 
ATOM     11  O   UNL     1      52.910  37.838 137.421  1.00  0.00    -0.275 OA
ATOM     12  N   UNL     1      51.735  37.433 135.438  1.00  0.00    -0.352 N 
ATOM     13  H   UNL     1      51.047  36.825 134.938  1.00  0.00     0.163 HD
BRANCH  12  14
ATOM     14  C   UNL     1      52.237  38.620 134.753  1.00  0.00     0.151 C 
BRANCH  14  15
ATOM     15  C   UNL     1      51.123  39.609 134.539  1.00  0.00    -0.025 A 
ATOM     16  C   UNL     1      50.739  40.486 135.567  1.00  0.00     0.056 A 
ATOM     17  C   UNL     1      50.477  39.677 133.297  1.00  0.00     0.009 A 
ATOM     18  C   UNL     1      49.705  41.422 135.360  1.00  0.00     0.160 A 
ATOM     19  C   UNL     1      49.452  40.602 133.086  1.00  0.00     0.050 A 
ATOM     20  C   UNL     1      49.064  41.473 134.113  1.00  0.00     0.157 A 
BRANCH  18  21
ATOM     21  O   UNL     1      49.292  42.313 136.362  1.00  0.00    -0.493 OA
ATOM     22  C   UNL     1      49.922  43.558 136.645  1.00  0.00     0.278 C 
ENDBRANCH  18  21
BRANCH  20  23
ATOM     23  O   UNL     1      48.040  42.395 133.902  1.00  0.00    -0.504 OA
ATOM     24  H   UNL     1      47.666  42.956 134.658  1.00  0.00     0.293 HD
ENDBRANCH  20  23
ENDBRANCH  14  15
ENDBRANCH  12  14
ENDBRANCH   9  10
ENDBRANCH   1   9
TORSDOF 10
ENDMDL
MODEL 4
REMARK VINA RESULT:    -3.171      1.818      3.523
REMARK INTER + INTRA:          -7.162
REMARK INTER:                  -5.371
REMARK INTRA:                  -1.790
REMARK UNBOUND:                -2.230
REMARK SMILES COc1cc(CNC(=O)CCCCC=CC(C)C)ccc1O
REMARK SMILES IDX 11 1 12 2 13 3 14 4 15 5 16 6 17 7 18 8 10 9 8 10 9 11 7 12
REMARK SMILES IDX 6 14 5 15 4 16 19 17 3 18 20 19 21 20 2 21 1 22 22 23
REMARK H PARENT 7 13 22 24
REMARK Flexibility Score: inf
ROOT
ATOM      1  C   UNL     1      55.484  37.277 127.607  1.00  0.00     0.010 C 
ENDROOT
BRANCH   1   2
ATOM      2  C   UNL     1      53.959  37.096 127.559  1.00  0.00     0.005 C 
BRANCH   2   3
ATOM      3  C   UNL     1      53.261  38.408 127.185  1.00  0.00     0.027 C 
BRANCH   3   4
ATOM      4  C   UNL     1      52.605  38.309 125.835  1.00  0.00    -0.031 C 
ATOM      5  C   UNL     1      52.315  37.113 125.301  1.00  0.00    -0.028 C 
BRANCH   5   6
ATOM      6  C   UNL     1      51.646  36.957 123.953  1.00  0.00     0.005 C 
ATOM      7  C   UNL     1      51.289  38.318 123.346  1.00  0.00     0.012 C 
ATOM      8  C   UNL     1      52.509  36.129 122.994  1.00  0.00     0.012 C 
ENDBRANCH   5   6
ENDBRANCH   3   4
ENDBRANCH   2   3
ENDBRANCH   1   2
BRANCH   1   9
ATOM      9  C   UNL     1      56.223  36.222 126.772  1.00  0.00     0.100 C 
BRANCH   9  10
ATOM     10  C   UNL     1      56.702  36.784 125.465  1.00  0.00     0.220 C 
ATOM     11  O   UNL     1      57.913  37.107 125.336  1.00  0.00    -0.275 OA
ATOM     12  N   UNL     1      55.777  36.995 124.388  1.00  0.00    -0.352 N 
ATOM     13  H   UNL     1      54.771  36.744 124.525  1.00  0.00     0.163 HD
BRANCH  12  14
ATOM     14  C   UNL     1      56.173  37.604 123.121  1.00  0.00     0.151 C 
BRANCH  14  15
ATOM     15  C   UNL     1      55.965  39.094 123.171  1.00  0.00    -0.025 A 
ATOM     16  C   UNL     1      54.672  39.638 123.088  1.00  0.00     0.056 A 
ATOM     17  C   UNL     1      57.065  39.948 123.327  1.00  0.00     0.009 A 
ATOM     18  C   UNL     1      54.479  41.033 123.151  1.00  0.00     0.160 A 
ATOM     19  C   UNL     1      56.879  41.330 123.388  1.00  0.00     0.050 A 
ATOM     20  C   UNL     1      55.591  41.875 123.299  1.00  0.00     0.157 A 
BRANCH  18  21
ATOM     21  O   UNL     1      53.204  41.615 123.069  1.00  0.00    -0.493 OA
ATOM     22  C   UNL     1      52.284  41.695 124.153  1.00  0.00     0.278 C 
ENDBRANCH  18  21
BRANCH  20  23
ATOM     23  O   UNL     1      55.407  43.255 123.360  1.00  0.00    -0.504 OA
ATOM     24  H   UNL     1      55.238  43.805 122.527  1.00  0.00     0.293 HD
ENDBRANCH  20  23
ENDBRANCH  14  15
ENDBRANCH  12  14
ENDBRANCH   9  10
ENDBRANCH   1   9
TORSDOF 10
ENDMDL
MODEL 5
REMARK VINA RESULT:    -3.162     13.391     15.232
REMARK INTER + INTRA:          -7.148
REMARK INTER:                  -6.374
REMARK INTRA:                  -0.774
REMARK UNBOUND:                -2.230
REMARK SMILES COc1cc(CNC(=O)CCCCC=CC(C)C)ccc1O
REMARK SMILES IDX 11 1 12 2 13 3 14 4 15 5 16 6 17 7 18 8 10 9 8 10 9 11 7 12
REMARK SMILES IDX 6 14 5 15 4 16 19 17 3 18 20 19 21 20 2 21 1 22 22 23
REMARK H PARENT 7 13 22 24
REMARK Flexibility Score: inf
ROOT
ATOM      1  C   UNL     1      51.641  36.591 137.585  1.00  0.00     0.010 C 
ENDROOT
BRANCH   1   2
ATOM      2  C   UNL     1      50.615  37.023 138.644  1.00  0.00     0.005 C 
BRANCH   2   3
ATOM      3  C   UNL     1      49.184  36.891 138.112  1.00  0.00     0.027 C 
BRANCH   3   4
ATOM      4  C   UNL     1      48.769  38.123 137.356  1.00  0.00    -0.031 C 
ATOM      5  C   UNL     1      48.534  38.069 136.036  1.00  0.00    -0.028 C 
BRANCH   5   6
ATOM      6  C   UNL     1      48.104  39.275 135.230  1.00  0.00     0.005 C 
ATOM      7  C   UNL     1      46.594  39.514 135.346  1.00  0.00     0.012 C 
ATOM      8  C   UNL     1      48.897  40.526 135.628  1.00  0.00     0.012 C 
ENDBRANCH   5   6
ENDBRANCH   3   4
ENDBRANCH   2   3
ENDBRANCH   1   2
BRANCH   1   9
ATOM      9  C   UNL     1      52.625  37.714 137.234  1.00  0.00     0.100 C 
BRANCH   9  10
ATOM     10  C   UNL     1      53.948  37.526 137.917  1.00  0.00     0.220 C 
ATOM     11  O   UNL     1      54.155  36.481 138.591  1.00  0.00    -0.275 OA
ATOM     12  N   UNL     1      54.952  38.550 137.842  1.00  0.00    -0.352 N 
ATOM     13  H   UNL     1      54.750  39.420 137.300  1.00  0.00     0.163 HD
BRANCH  12  14
ATOM     14  C   UNL     1      56.228  38.452 138.545  1.00  0.00     0.151 C 
BRANCH  14  15
ATOM     15  C   UNL     1      56.401  39.620 139.478  1.00  0.00    -0.025 A 
ATOM     16  C   UNL     1      57.277  39.537 140.572  1.00  0.00     0.056 A 
ATOM     17  C   UNL     1      55.703  40.812 139.242  1.00  0.00     0.009 A 
ATOM     18  C   UNL     1      57.449  40.637 141.436  1.00  0.00     0.160 A 
ATOM     19  C   UNL     1      55.868  41.905 140.095  1.00  0.00     0.050 A 
ATOM     20  C   UNL     1      56.737  41.821 141.191  1.00  0.00     0.157 A 
BRANCH  18  21
ATOM     21  O   UNL     1      58.313  40.592 142.541  1.00  0.00    -0.493 OA
ATOM     22  C   UNL     1      59.663  40.143 142.491  1.00  0.00     0.278 C 
ENDBRANCH  18  21
BRANCH  20  23
ATOM     23  O   UNL     1      56.902  42.913 142.042  1.00  0.00    -0.504 OA
ATOM     24  H   UNL     1      56.343  43.752 141.942  1.00  0.00     0.293 HD
ENDBRANCH  20  23
ENDBRANCH  14  15
ENDBRANCH  12  14
ENDBRANCH   9  10
ENDBRANCH   1   9
TORSDOF 10
ENDMDL
MODEL 6
REMARK VINA RESULT:    -3.139      1.700      2.404
REMARK INTER + INTRA:          -7.113
REMARK INTER:                  -4.960
REMARK INTRA:                  -2.153
REMARK UNBOUND:                -2.230
REMARK SMILES COc1cc(CNC(=O)CCCCC=CC(C)C)ccc1O
REMARK SMILES IDX 11 1 12 2 13 3 14 4 15 5 16 6 17 7 18 8 10 9 8 10 9 11 7 12
REMARK SMILES IDX 6 14 5 15 4 16 19 17 3 18 20 19 21 20 2 21 1 22 22 23
REMARK H PARENT 7 13 22 24
REMARK Flexibility Score: inf
ROOT
ATOM      1  C   UNL     1      55.669  37.352 127.838  1.00  0.00     0.010 C 
ENDROOT
BRANCH   1   2
ATOM      2  C   UNL     1      54.259  37.845 127.478  1.00  0.00     0.005 C 
BRANCH   2   3
ATOM      3  C   UNL     1      54.298  39.281 126.944  1.00  0.00     0.027 C 
BRANCH   3   4
ATOM      4  C   UNL     1      55.710  39.793 126.859  1.00  0.00    -0.031 C 
ATOM      5  C   UNL     1      56.019  41.022 127.300  1.00  0.00    -0.028 C 
BRANCH   5   6
ATOM      6  C   UNL     1      57.424  41.581 127.248  1.00  0.00     0.005 C 
ATOM      7  C   UNL     1      58.416  40.549 126.699  1.00  0.00     0.012 C 
ATOM      8  C   UNL     1      57.477  42.887 126.446  1.00  0.00     0.012 C 
ENDBRANCH   5   6
ENDBRANCH   3   4
ENDBRANCH   2   3
ENDBRANCH   1   2
BRANCH   1   9
ATOM      9  C   UNL     1      56.118  36.177 126.958  1.00  0.00     0.100 C 
BRANCH   9  10
ATOM     10  C   UNL     1      56.589  36.643 125.611  1.00  0.00     0.220 C 
ATOM     11  O   UNL     1      57.814  36.878 125.429  1.00  0.00    -0.275 OA
ATOM     12  N   UNL     1      55.645  36.861 124.552  1.00  0.00    -0.352 N 
ATOM     13  H   UNL     1      54.630  36.684 124.731  1.00  0.00     0.163 HD
BRANCH  12  14
ATOM     14  C   UNL     1      56.037  37.380 123.245  1.00  0.00     0.151 C 
BRANCH  14  15
ATOM     15  C   UNL     1      55.905  38.879 123.217  1.00  0.00    -0.025 A 
ATOM     16  C   UNL     1      54.647  39.482 123.055  1.00  0.00     0.056 A 
ATOM     17  C   UNL     1      57.040  39.684 123.380  1.00  0.00     0.009 A 
ATOM     18  C   UNL     1      54.523  40.886 123.045  1.00  0.00     0.160 A 
ATOM     19  C   UNL     1      56.924  41.075 123.370  1.00  0.00     0.050 A 
ATOM     20  C   UNL     1      55.670  41.678 123.202  1.00  0.00     0.157 A 
BRANCH  18  21
ATOM     21  O   UNL     1      53.285  41.527 122.883  1.00  0.00    -0.493 OA
ATOM     22  C   UNL     1      52.250  41.539 123.861  1.00  0.00     0.278 C 
ENDBRANCH  18  21
BRANCH  20  23
ATOM     23  O   UNL     1      55.556  43.068 123.192  1.00  0.00    -0.504 OA
ATOM     24  H   UNL     1      55.451  43.598 124.048  1.00  0.00     0.293 HD
ENDBRANCH  20  23
ENDBRANCH  14  15
ENDBRANCH  12  14
ENDBRANCH   9  10
ENDBRANCH   1   9
TORSDOF 10
ENDMDL
MODEL 7
REMARK VINA RESULT:    -3.093      9.813     12.254
REMARK INTER + INTRA:          -7.041
REMARK INTER:                  -4.647
REMARK INTRA:                  -2.394
REMARK UNBOUND:                -2.230
REMARK SMILES COc1cc(CNC(=O)CCCCC=CC(C)C)ccc1O
REMARK SMILES IDX 11 1 12 2 13 3 14 4 15 5 16 6 17 7 18 8 10 9 8 10 9 11 7 12
REMARK SMILES IDX 6 14 5 15 4 16 19 17 3 18 20 19 21 20 2 21 1 22 22 23
REMARK H PARENT 7 13 22 24
REMARK Flexibility Score: inf
ROOT
ATOM      1  C   UNL     1      49.577  36.762 138.203  1.00  0.00     0.010 C 
ENDROOT
BRANCH   1   2
ATOM      2  C   UNL     1      48.889  38.092 137.859  1.00  0.00     0.005 C 
BRANCH   2   3
ATOM      3  C   UNL     1      48.141  37.997 136.525  1.00  0.00     0.027 C 
BRANCH   3   4
ATOM      4  C   UNL     1      48.186  39.304 135.782  1.00  0.00    -0.031 C 
ATOM      5  C   UNL     1      49.224  40.141 135.932  1.00  0.00    -0.028 C 
BRANCH   5   6
ATOM      6  C   UNL     1      49.325  41.462 135.201  1.00  0.00     0.005 C 
ATOM      7  C   UNL     1      48.099  41.703 134.312  1.00  0.00     0.012 C 
ATOM      8  C   UNL     1      49.542  42.625 136.177  1.00  0.00     0.012 C 
ENDBRANCH   5   6
ENDBRANCH   3   4
ENDBRANCH   2   3
ENDBRANCH   1   2
BRANCH   1   9
ATOM      9  C   UNL     1      51.107  36.865 138.147  1.00  0.00     0.100 C 
BRANCH   9  10
ATOM     10  C   UNL     1      51.604  36.985 136.736  1.00  0.00     0.220 C 
ATOM     11  O   UNL     1      52.415  37.903 136.440  1.00  0.00    -0.275 OA
ATOM     12  N   UNL     1      51.123  36.088 135.724  1.00  0.00    -0.352 N 
ATOM     13  H   UNL     1      50.431  35.350 135.985  1.00  0.00     0.163 HD
BRANCH  12  14
ATOM     14  C   UNL     1      51.517  36.202 134.322  1.00  0.00     0.151 C 
BRANCH  14  15
ATOM     15  C   UNL     1      50.534  37.061 133.572  1.00  0.00    -0.025 A 
ATOM     16  C   UNL     1      50.916  38.318 133.077  1.00  0.00     0.056 A 
ATOM     17  C   UNL     1      49.233  36.594 133.340  1.00  0.00     0.009 A 
ATOM     18  C   UNL     1      49.999  39.114 132.361  1.00  0.00     0.160 A 
ATOM     19  C   UNL     1      48.320  37.377 132.633  1.00  0.00     0.050 A 
ATOM     20  C   UNL     1      48.698  38.635 132.144  1.00  0.00     0.157 A 
BRANCH  18  21
ATOM     21  O   UNL     1      50.341  40.376 131.853  1.00  0.00    -0.493 OA
ATOM     22  C   UNL     1      51.501  41.110 132.232  1.00  0.00     0.278 C 
ENDBRANCH  18  21
BRANCH  20  23
ATOM     23  O   UNL     1      47.785  39.417 131.438  1.00  0.00    -0.504 OA
ATOM     24  H   UNL     1      46.893  39.046 131.132  1.00  0.00     0.293 HD
ENDBRANCH  20  23
ENDBRANCH  14  15
ENDBRANCH  12  14
ENDBRANCH   9  10
ENDBRANCH   1   9
TORSDOF 10
ENDMDL
MODEL 8
REMARK VINA RESULT:    -2.972     14.615     17.423
REMARK INTER + INTRA:          -6.853
REMARK INTER:                  -5.340
REMARK INTRA:                  -1.513
REMARK UNBOUND:                -2.230
REMARK SMILES COc1cc(CNC(=O)CCCCC=CC(C)C)ccc1O
REMARK SMILES IDX 11 1 12 2 13 3 14 4 15 5 16 6 17 7 18 8 10 9 8 10 9 11 7 12
REMARK SMILES IDX 6 14 5 15 4 16 19 17 3 18 20 19 21 20 2 21 1 22 22 23
REMARK H PARENT 7 13 22 24
REMARK Flexibility Score: inf
ROOT
ATOM      1  C   UNL     1      48.329  44.751 142.324  1.00  0.00     0.010 C 
ENDROOT
BRANCH   1   2
ATOM      2  C   UNL     1      47.385  45.962 142.385  1.00  0.00     0.005 C 
BRANCH   2   3
ATOM      3  C   UNL     1      47.059  46.478 140.980  1.00  0.00     0.027 C 
BRANCH   3   4
ATOM      4  C   UNL     1      47.697  45.620 139.923  1.00  0.00    -0.031 C 
ATOM      5  C   UNL     1      48.355  46.177 138.894  1.00  0.00    -0.028 C 
BRANCH   5   6
ATOM      6  C   UNL     1      49.024  45.360 137.810  1.00  0.00     0.005 C 
ATOM      7  C   UNL     1      50.247  46.087 137.239  1.00  0.00     0.012 C 
ATOM      8  C   UNL     1      49.393  43.960 138.313  1.00  0.00     0.012 C 
ENDBRANCH   5   6
ENDBRANCH   3   4
ENDBRANCH   2   3
ENDBRANCH   1   2
BRANCH   1   9
ATOM      9  C   UNL     1      49.652  45.005 143.057  1.00  0.00     0.100 C 
BRANCH   9  10
ATOM     10  C   UNL     1      50.681  45.614 142.149  1.00  0.00     0.220 C 
ATOM     11  O   UNL     1      50.912  46.851 142.216  1.00  0.00    -0.275 OA
ATOM     12  N   UNL     1      51.362  44.801 141.182  1.00  0.00    -0.352 N 
ATOM     13  H   UNL     1      51.137  43.781 141.126  1.00  0.00     0.163 HD
BRANCH  12  14
ATOM     14  C   UNL     1      52.319  45.351 140.227  1.00  0.00     0.151 C 
BRANCH  14  15
ATOM     15  C   UNL     1      53.196  44.259 139.678  1.00  0.00    -0.025 A 
ATOM     16  C   UNL     1      54.117  43.597 140.507  1.00  0.00     0.056 A 
ATOM     17  C   UNL     1      53.079  43.877 138.334  1.00  0.00     0.009 A 
ATOM     18  C   UNL     1      54.927  42.564 139.994  1.00  0.00     0.160 A 
ATOM     19  C   UNL     1      53.878  42.855 137.820  1.00  0.00     0.050 A 
ATOM     20  C   UNL     1      54.802  42.198 138.645  1.00  0.00     0.157 A 
BRANCH  18  21
ATOM     21  O   UNL     1      55.860  41.880 140.789  1.00  0.00    -0.493 OA
ATOM     22  C   UNL     1      55.896  41.929 142.211  1.00  0.00     0.278 C 
ENDBRANCH  18  21
BRANCH  20  23
ATOM     23  O   UNL     1      55.601  41.177 138.131  1.00  0.00    -0.504 OA
ATOM     24  H   UNL     1      55.838  41.134 137.147  1.00  0.00     0.293 HD
ENDBRANCH  20  23
ENDBRANCH  14  15
ENDBRANCH  12  14
ENDBRANCH   9  10
ENDBRANCH   1   9
TORSDOF 10
ENDMDL
MODEL 9
REMARK VINA RESULT:    -2.940      1.490      2.454
REMARK INTER + INTRA:          -6.803
REMARK INTER:                  -4.478
REMARK INTRA:                  -2.325
REMARK UNBOUND:                -2.230
REMARK SMILES COc1cc(CNC(=O)CCCCC=CC(C)C)ccc1O
REMARK SMILES IDX 11 1 12 2 13 3 14 4 15 5 16 6 17 7 18 8 10 9 8 10 9 11 7 12
REMARK SMILES IDX 6 14 5 15 4 16 19 17 3 18 20 19 21 20 2 21 1 22 22 23
REMARK H PARENT 7 13 22 24
REMARK Flexibility Score: inf
ROOT
ATOM      1  C   UNL     1      54.074  37.420 127.548  1.00  0.00     0.010 C 
ENDROOT
BRANCH   1   2
ATOM      2  C   UNL     1      52.847  38.104 126.926  1.00  0.00     0.005 C 
BRANCH   2   3
ATOM      3  C   UNL     1      53.212  39.480 126.358  1.00  0.00     0.027 C 
BRANCH   3   4
ATOM      4  C   UNL     1      54.638  39.838 126.675  1.00  0.00    -0.031 C 
ATOM      5  C   UNL     1      55.026  41.122 126.722  1.00  0.00    -0.028 C 
BRANCH   5   6
ATOM      6  C   UNL     1      56.444  41.539 127.047  1.00  0.00     0.005 C 
ATOM      7  C   UNL     1      56.476  42.566 128.184  1.00  0.00     0.012 C 
ATOM      8  C   UNL     1      57.324  40.325 127.368  1.00  0.00     0.012 C 
ENDBRANCH   5   6
ENDBRANCH   3   4
ENDBRANCH   2   3
ENDBRANCH   1   2
BRANCH   1   9
ATOM      9  C   UNL     1      54.531  36.196 126.741  1.00  0.00     0.100 C 
BRANCH   9  10
ATOM     10  C   UNL     1      55.552  36.566 125.705  1.00  0.00     0.220 C 
ATOM     11  O   UNL     1      56.774  36.573 126.014  1.00  0.00    -0.275 OA
ATOM     12  N   UNL     1      55.135  36.951 124.387  1.00  0.00    -0.352 N 
ATOM     13  H   UNL     1      54.115  36.963 124.159  1.00  0.00     0.163 HD
BRANCH  12  14
ATOM     14  C   UNL     1      56.078  37.387 123.361  1.00  0.00     0.151 C 
BRANCH  14  15
ATOM     15  C   UNL     1      56.155  38.890 123.328  1.00  0.00    -0.025 A 
ATOM     16  C   UNL     1      57.365  39.549 123.600  1.00  0.00     0.056 A 
ATOM     17  C   UNL     1      55.019  39.641 122.999  1.00  0.00     0.009 A 
ATOM     18  C   UNL     1      57.439  40.956 123.554  1.00  0.00     0.160 A 
ATOM     19  C   UNL     1      55.086  41.035 122.953  1.00  0.00     0.050 A 
ATOM     20  C   UNL     1      56.291  41.694 123.230  1.00  0.00     0.157 A 
BRANCH  18  21
ATOM     21  O   UNL     1      58.629  41.652 123.821  1.00  0.00    -0.493 OA
ATOM     22  C   UNL     1      59.654  41.188 124.694  1.00  0.00     0.278 C 
ENDBRANCH  18  21
BRANCH  20  23
ATOM     23  O   UNL     1      56.356  43.086 123.184  1.00  0.00    -0.504 OA
ATOM     24  H   UNL     1      57.201  43.586 123.433  1.00  0.00     0.293 HD
ENDBRANCH  20  23
ENDBRANCH  14  15
ENDBRANCH  12  14
ENDBRANCH   9  10
ENDBRANCH   1   9
TORSDOF 10
ENDMDL
