MODEL 1
REMARK VINA RESULT:    -6.113      0.000      0.000
REMARK INTER + INTRA:         -10.647
REMARK INTER:                  -8.973
REMARK INTRA:                  -1.674
REMARK UNBOUND:                -1.674
REMARK SMILES O=c1c(O[C@@H]2O[C@H](CO)[C@@H](O)[C@H](O)[C@H]2O)c(-c2ccc(O)c(O)c2)oc2cc(O)cc(O)c12
REMARK SMILES IDX 4 1 3 2 16 3 25 4 2 5 26 6 1 7 33 8 27 9 31 10 28 11 30 12
REMARK SMILES IDX 17 13 18 14 19 15 20 16 24 17 22 18 21 19 23 21 32 23 29 25
REMARK SMILES IDX 5 27 14 28 6 29 12 30 7 31 10 32 15 33 13 35 8 37 9 38 11 40
REMARK H PARENT 21 20 23 22 32 24 29 26 15 34 13 36 9 39 11 41
REMARK Flexibility Score: inf
ROOT
ATOM      1  O   UNL     1      18.033  -3.075 -12.108  1.00  0.00    -0.454 OA
ENDROOT
BRANCH   1   2
ATOM      2  C   UNL     1      17.470  -3.844 -13.136  1.00  0.00     0.214 A 
ATOM      3  C   UNL     1      16.820  -3.252 -14.240  1.00  0.00     0.180 A 
ATOM      4  O   UNL     1      16.245  -4.019 -15.159  1.00  0.00    -0.452 OA
ATOM      5  C   UNL     1      17.536  -5.239 -13.061  1.00  0.00     0.239 A 
ATOM      6  C   UNL     1      16.273  -5.346 -15.120  1.00  0.00     0.146 A 
ATOM      7  O   UNL     1      18.121  -5.774 -12.080  1.00  0.00    -0.285 OA
ATOM      8  C   UNL     1      16.932  -6.023 -14.066  1.00  0.00     0.111 A 
ATOM      9  C   UNL     1      15.654  -6.072 -16.144  1.00  0.00     0.094 A 
ATOM     10  C   UNL     1      16.953  -7.438 -14.063  1.00  0.00     0.134 A 
ATOM     11  C   UNL     1      15.687  -7.466 -16.142  1.00  0.00     0.123 A 
ATOM     12  C   UNL     1      16.333  -8.146 -15.103  1.00  0.00     0.093 A 
BRANCH   3  13
ATOM     13  C   UNL     1      16.763  -1.788 -14.418  1.00  0.00     0.025 A 
ATOM     14  C   UNL     1      15.722  -1.035 -13.858  1.00  0.00     0.016 A 
ATOM     15  C   UNL     1      15.658   0.345 -14.058  1.00  0.00     0.051 A 
ATOM     16  C   UNL     1      16.655   0.995 -14.797  1.00  0.00     0.157 A 
ATOM     17  C   UNL     1      17.781  -1.130 -15.129  1.00  0.00     0.062 A 
ATOM     18  C   UNL     1      17.735   0.256 -15.316  1.00  0.00     0.158 A 
BRANCH  16  19
ATOM     19  O   UNL     1      16.580   2.371 -15.016  1.00  0.00    -0.504 OA
ATOM     20  H   UNL     1      16.415   3.018 -14.256  1.00  0.00     0.293 HD
ENDBRANCH  16  19
BRANCH  18  21
ATOM     21  O   UNL     1      18.771   0.882 -16.008  1.00  0.00    -0.504 OA
ATOM     22  H   UNL     1      18.814   0.881 -17.020  1.00  0.00     0.293 HD
ENDBRANCH  18  21
ENDBRANCH   3  13
BRANCH  10  23
ATOM     23  O   UNL     1      17.586  -8.144 -13.038  1.00  0.00    -0.507 OA
ATOM     24  H   UNL     1      17.058  -8.650 -12.337  1.00  0.00     0.293 HD
ENDBRANCH  10  23
BRANCH  11  25
ATOM     25  O   UNL     1      15.075  -8.171 -17.177  1.00  0.00    -0.508 OA
ATOM     26  H   UNL     1      14.325  -7.767 -17.726  1.00  0.00     0.293 HD
ENDBRANCH  11  25
ENDBRANCH   1   2
BRANCH   1  27
ATOM     27  C   UNL     1      17.260  -2.570 -11.017  1.00  0.00     0.339 C 
ATOM     28  C   UNL     1      17.620  -3.335  -9.716  1.00  0.00     0.214 C 
ATOM     29  O   UNL     1      17.396  -1.152 -10.936  1.00  0.00    -0.332 OA
ATOM     30  C   UNL     1      17.386  -2.429  -8.499  1.00  0.00     0.180 C 
ATOM     31  C   UNL     1      18.448  -0.699 -10.094  1.00  0.00     0.179 C 
ATOM     32  C   UNL     1      18.264  -1.161  -8.613  1.00  0.00     0.177 C 
BRANCH  28  33
ATOM     33  O   UNL     1      16.891  -4.533  -9.623  1.00  0.00    -0.384 OA
ATOM     34  H   UNL     1      17.163  -5.000  -8.794  1.00  0.00     0.211 HD
ENDBRANCH  28  33
BRANCH  30  35
ATOM     35  O   UNL     1      17.638  -3.116  -7.296  1.00  0.00    -0.387 OA
ATOM     36  H   UNL     1      18.010  -2.463  -6.645  1.00  0.00     0.211 HD
ENDBRANCH  30  35
BRANCH  31  37
ATOM     37  C   UNL     1      19.844  -1.016 -10.681  1.00  0.00     0.191 C 
BRANCH  37  38
ATOM     38  O   UNL     1      19.872  -0.687 -12.045  1.00  0.00    -0.394 OA
ATOM     39  H   UNL     1      20.288   0.212 -12.106  1.00  0.00     0.210 HD
ENDBRANCH  37  38
ENDBRANCH  31  37
BRANCH  32  40
ATOM     40  O   UNL     1      17.715  -0.128  -7.829  1.00  0.00    -0.387 OA
ATOM     41  H   UNL     1      18.020   0.737  -8.210  1.00  0.00     0.211 HD
ENDBRANCH  32  40
ENDBRANCH   1  27
TORSDOF 12
ENDMDL
MODEL 2
REMARK VINA RESULT:    -5.950      3.643      5.734
REMARK INTER + INTRA:         -10.406
REMARK INTER:                  -8.771
REMARK INTRA:                  -1.635
REMARK UNBOUND:                -1.674
REMARK SMILES O=c1c(O[C@@H]2O[C@H](CO)[C@@H](O)[C@H](O)[C@H]2O)c(-c2ccc(O)c(O)c2)oc2cc(O)cc(O)c12
REMARK SMILES IDX 4 1 3 2 16 3 25 4 2 5 26 6 1 7 33 8 27 9 31 10 28 11 30 12
REMARK SMILES IDX 17 13 18 14 19 15 20 16 24 17 22 18 21 19 23 21 32 23 29 25
REMARK SMILES IDX 5 27 14 28 6 29 12 30 7 31 10 32 15 33 13 35 8 37 9 38 11 40
REMARK H PARENT 21 20 23 22 32 24 29 26 15 34 13 36 9 39 11 41
REMARK Flexibility Score: inf
ROOT
ATOM      1  O   UNL     1      17.906   0.960 -12.765  1.00  0.00    -0.454 OA
ENDROOT
BRANCH   1   2
ATOM      2  C   UNL     1      18.053   0.540 -14.094  1.00  0.00     0.214 A 
ATOM      3  C   UNL     1      17.046  -0.190 -14.760  1.00  0.00     0.180 A 
ATOM      4  O   UNL     1      17.253  -0.624 -15.999  1.00  0.00    -0.452 OA
ATOM      5  C   UNL     1      19.237   0.834 -14.777  1.00  0.00     0.239 A 
ATOM      6  C   UNL     1      18.366  -0.377 -16.680  1.00  0.00     0.146 A 
ATOM      7  O   UNL     1      20.139   1.491 -14.188  1.00  0.00    -0.285 OA
ATOM      8  C   UNL     1      19.415   0.375 -16.099  1.00  0.00     0.111 A 
ATOM      9  C   UNL     1      18.487  -0.860 -17.988  1.00  0.00     0.094 A 
ATOM     10  C   UNL     1      20.582   0.629 -16.857  1.00  0.00     0.134 A 
ATOM     11  C   UNL     1      19.635  -0.598 -18.735  1.00  0.00     0.123 A 
ATOM     12  C   UNL     1      20.680   0.143 -18.170  1.00  0.00     0.093 A 
BRANCH   3  13
ATOM     13  C   UNL     1      15.747  -0.486 -14.126  1.00  0.00     0.025 A 
ATOM     14  C   UNL     1      14.638   0.346 -14.333  1.00  0.00     0.016 A 
ATOM     15  C   UNL     1      13.421   0.077 -13.704  1.00  0.00     0.051 A 
ATOM     16  C   UNL     1      13.290  -1.050 -12.881  1.00  0.00     0.157 A 
ATOM     17  C   UNL     1      15.603  -1.636 -13.329  1.00  0.00     0.062 A 
ATOM     18  C   UNL     1      14.381  -1.923 -12.712  1.00  0.00     0.158 A 
BRANCH  16  19
ATOM     19  O   UNL     1      12.081  -1.308 -12.235  1.00  0.00    -0.504 OA
ATOM     20  H   UNL     1      12.012  -2.004 -11.504  1.00  0.00     0.293 HD
ENDBRANCH  16  19
BRANCH  18  21
ATOM     21  O   UNL     1      14.265  -3.083 -11.946  1.00  0.00    -0.504 OA
ATOM     22  H   UNL     1      14.074  -3.984 -12.367  1.00  0.00     0.293 HD
ENDBRANCH  18  21
ENDBRANCH   3  13
BRANCH  10  23
ATOM     23  O   UNL     1      21.642   1.361 -16.320  1.00  0.00    -0.507 OA
ATOM     24  H   UNL     1      21.682   2.370 -16.391  1.00  0.00     0.293 HD
ENDBRANCH  10  23
BRANCH  11  25
ATOM     25  O   UNL     1      19.732  -1.077 -20.039  1.00  0.00    -0.508 OA
ATOM     26  H   UNL     1      18.946  -1.045 -20.679  1.00  0.00     0.293 HD
ENDBRANCH  11  25
ENDBRANCH   1   2
BRANCH   1  27
ATOM     27  C   UNL     1      18.579   0.318 -11.678  1.00  0.00     0.339 C 
ATOM     28  C   UNL     1      19.144   1.385 -10.704  1.00  0.00     0.214 C 
ATOM     29  O   UNL     1      17.722  -0.651 -11.076  1.00  0.00    -0.332 OA
ATOM     30  C   UNL     1      19.222   0.803  -9.286  1.00  0.00     0.180 C 
ATOM     31  C   UNL     1      16.936  -0.165  -9.995  1.00  0.00     0.179 C 
ATOM     32  C   UNL     1      17.813   0.370  -8.818  1.00  0.00     0.177 C 
BRANCH  28  33
ATOM     33  O   UNL     1      20.392   1.854 -11.145  1.00  0.00    -0.384 OA
ATOM     34  H   UNL     1      20.845   2.298 -10.386  1.00  0.00     0.211 HD
ENDBRANCH  28  33
BRANCH  30  35
ATOM     35  O   UNL     1      19.795   1.724  -8.388  1.00  0.00    -0.387 OA
ATOM     36  H   UNL     1      19.160   1.848  -7.632  1.00  0.00     0.211 HD
ENDBRANCH  30  35
BRANCH  31  37
ATOM     37  C   UNL     1      15.844   0.825 -10.464  1.00  0.00     0.191 C 
BRANCH  37  38
ATOM     38  O   UNL     1      14.586   0.388 -10.026  1.00  0.00    -0.394 OA
ATOM     39  H   UNL     1      13.924   1.035 -10.387  1.00  0.00     0.210 HD
ENDBRANCH  37  38
ENDBRANCH  31  37
BRANCH  32  40
ATOM     40  O   UNL     1      17.924  -0.592  -7.795  1.00  0.00    -0.387 OA
ATOM     41  H   UNL     1      18.170  -0.118  -6.958  1.00  0.00     0.211 HD
ENDBRANCH  32  40
ENDBRANCH   1  27
TORSDOF 12
ENDMDL
MODEL 3
REMARK VINA RESULT:    -5.828      4.254      7.222
REMARK INTER + INTRA:         -10.228
REMARK INTER:                  -8.517
REMARK INTRA:                  -1.710
REMARK UNBOUND:                -1.674
REMARK SMILES O=c1c(O[C@@H]2O[C@H](CO)[C@@H](O)[C@H](O)[C@H]2O)c(-c2ccc(O)c(O)c2)oc2cc(O)cc(O)c12
REMARK SMILES IDX 4 1 3 2 16 3 25 4 2 5 26 6 1 7 33 8 27 9 31 10 28 11 30 12
REMARK SMILES IDX 17 13 18 14 19 15 20 16 24 17 22 18 21 19 23 21 32 23 29 25
REMARK SMILES IDX 5 27 14 28 6 29 12 30 7 31 10 32 15 33 13 35 8 37 9 38 11 40
REMARK H PARENT 21 20 23 22 32 24 29 26 15 34 13 36 9 39 11 41
REMARK Flexibility Score: inf
ROOT
ATOM      1  O   UNL     1      18.017   0.401 -10.795  1.00  0.00    -0.454 OA
ENDROOT
BRANCH   1   2
ATOM      2  C   UNL     1      18.919  -0.149  -9.874  1.00  0.00     0.214 A 
ATOM      3  C   UNL     1      20.300   0.135  -9.922  1.00  0.00     0.180 A 
ATOM      4  O   UNL     1      21.128  -0.458  -9.070  1.00  0.00    -0.452 OA
ATOM      5  C   UNL     1      18.443  -1.021  -8.888  1.00  0.00     0.239 A 
ATOM      6  C   UNL     1      20.721  -1.301  -8.126  1.00  0.00     0.146 A 
ATOM      7  O   UNL     1      17.209  -1.274  -8.837  1.00  0.00    -0.285 OA
ATOM      8  C   UNL     1      19.349  -1.617  -7.985  1.00  0.00     0.111 A 
ATOM      9  C   UNL     1      21.666  -1.864  -7.261  1.00  0.00     0.094 A 
ATOM     10  C   UNL     1      18.949  -2.508  -6.962  1.00  0.00     0.134 A 
ATOM     11  C   UNL     1      21.265  -2.734  -6.247  1.00  0.00     0.123 A 
ATOM     12  C   UNL     1      19.911  -3.056  -6.100  1.00  0.00     0.093 A 
BRANCH   3  13
ATOM     13  C   UNL     1      20.867   1.090 -10.894  1.00  0.00     0.025 A 
ATOM     14  C   UNL     1      20.850   2.468 -10.642  1.00  0.00     0.016 A 
ATOM     15  C   UNL     1      21.360   3.367 -11.580  1.00  0.00     0.051 A 
ATOM     16  C   UNL     1      21.922   2.894 -12.774  1.00  0.00     0.157 A 
ATOM     17  C   UNL     1      21.463   0.615 -12.075  1.00  0.00     0.062 A 
ATOM     18  C   UNL     1      21.994   1.509 -13.011  1.00  0.00     0.158 A 
BRANCH  16  19
ATOM     19  O   UNL     1      22.412   3.792 -13.722  1.00  0.00    -0.504 OA
ATOM     20  H   UNL     1      21.812   4.186 -14.436  1.00  0.00     0.293 HD
ENDBRANCH  16  19
BRANCH  18  21
ATOM     21  O   UNL     1      22.598   1.004 -14.163  1.00  0.00    -0.504 OA
ATOM     22  H   UNL     1      22.445   1.423 -15.073  1.00  0.00     0.293 HD
ENDBRANCH  18  21
ENDBRANCH   3  13
BRANCH  10  23
ATOM     23  O   UNL     1      17.606  -2.852  -6.794  1.00  0.00    -0.507 OA
ATOM     24  H   UNL     1      17.042  -2.448  -6.057  1.00  0.00     0.293 HD
ENDBRANCH  10  23
BRANCH  11  25
ATOM     25  O   UNL     1      22.219  -3.275  -5.388  1.00  0.00    -0.508 OA
ATOM     26  H   UNL     1      22.720  -2.703  -4.718  1.00  0.00     0.293 HD
ENDBRANCH  11  25
ENDBRANCH   1   2
BRANCH   1  27
ATOM     27  C   UNL     1      17.486  -0.348 -11.890  1.00  0.00     0.339 C 
ATOM     28  C   UNL     1      15.974  -0.043 -12.054  1.00  0.00     0.214 C 
ATOM     29  O   UNL     1      18.273  -0.130 -13.060  1.00  0.00    -0.332 OA
ATOM     30  C   UNL     1      15.562  -0.231 -13.522  1.00  0.00     0.180 C 
ATOM     31  C   UNL     1      17.833   0.942 -13.885  1.00  0.00     0.179 C 
ATOM     32  C   UNL     1      16.384   0.721 -14.423  1.00  0.00     0.177 C 
BRANCH  28  33
ATOM     33  O   UNL     1      15.206  -0.841 -11.191  1.00  0.00    -0.384 OA
ATOM     34  H   UNL     1      14.865  -1.616 -11.703  1.00  0.00     0.211 HD
ENDBRANCH  28  33
BRANCH  30  35
ATOM     35  O   UNL     1      14.180  -0.028 -13.694  1.00  0.00    -0.387 OA
ATOM     36  H   UNL     1      14.001   0.035 -14.670  1.00  0.00     0.211 HD
ENDBRANCH  30  35
BRANCH  31  37
ATOM     37  C   UNL     1      18.051   2.321 -13.218  1.00  0.00     0.191 C 
BRANCH  37  38
ATOM     38  O   UNL     1      18.697   3.186 -14.114  1.00  0.00    -0.394 OA
ATOM     39  H   UNL     1      18.390   4.103 -13.886  1.00  0.00     0.210 HD
ENDBRANCH  37  38
ENDBRANCH  31  37
BRANCH  32  40
ATOM     40  O   UNL     1      16.406   0.229 -15.742  1.00  0.00    -0.387 OA
ATOM     41  H   UNL     1      16.770  -0.695 -15.715  1.00  0.00     0.211 HD
ENDBRANCH  32  40
ENDBRANCH   1  27
TORSDOF 12
ENDMDL
MODEL 4
REMARK VINA RESULT:    -5.747      1.785      6.511
REMARK INTER + INTRA:         -10.109
REMARK INTER:                  -9.043
REMARK INTRA:                  -1.066
REMARK UNBOUND:                -1.674
REMARK SMILES O=c1c(O[C@@H]2O[C@H](CO)[C@@H](O)[C@H](O)[C@H]2O)c(-c2ccc(O)c(O)c2)oc2cc(O)cc(O)c12
REMARK SMILES IDX 4 1 3 2 16 3 25 4 2 5 26 6 1 7 33 8 27 9 31 10 28 11 30 12
REMARK SMILES IDX 17 13 18 14 19 15 20 16 24 17 22 18 21 19 23 21 32 23 29 25
REMARK SMILES IDX 5 27 14 28 6 29 12 30 7 31 10 32 15 33 13 35 8 37 9 38 11 40
REMARK H PARENT 21 20 23 22 32 24 29 26 15 34 13 36 9 39 11 41
REMARK Flexibility Score: inf
ROOT
ATOM      1  O   UNL     1      15.821  -3.415 -12.454  1.00  0.00    -0.454 OA
ENDROOT
BRANCH   1   2
ATOM      2  C   UNL     1      16.442  -2.532 -11.560  1.00  0.00     0.214 A 
ATOM      3  C   UNL     1      16.618  -1.166 -11.864  1.00  0.00     0.180 A 
ATOM      4  O   UNL     1      17.269  -0.378 -11.015  1.00  0.00    -0.452 OA
ATOM      5  C   UNL     1      16.919  -3.019 -10.338  1.00  0.00     0.239 A 
ATOM      6  C   UNL     1      17.748  -0.800  -9.851  1.00  0.00     0.146 A 
ATOM      7  O   UNL     1      16.759  -4.238 -10.058  1.00  0.00    -0.285 OA
ATOM      8  C   UNL     1      17.587  -2.148  -9.451  1.00  0.00     0.111 A 
ATOM      9  C   UNL     1      18.404   0.109  -9.013  1.00  0.00     0.094 A 
ATOM     10  C   UNL     1      18.099  -2.562  -8.199  1.00  0.00     0.134 A 
ATOM     11  C   UNL     1      18.898  -0.301  -7.774  1.00  0.00     0.123 A 
ATOM     12  C   UNL     1      18.747  -1.633  -7.370  1.00  0.00     0.093 A 
BRANCH   3  13
ATOM     13  C   UNL     1      16.090  -0.568 -13.105  1.00  0.00     0.025 A 
ATOM     14  C   UNL     1      16.930  -0.322 -14.200  1.00  0.00     0.016 A 
ATOM     15  C   UNL     1      16.428   0.272 -15.360  1.00  0.00     0.051 A 
ATOM     16  C   UNL     1      15.069   0.601 -15.449  1.00  0.00     0.157 A 
ATOM     17  C   UNL     1      14.720  -0.271 -13.210  1.00  0.00     0.062 A 
ATOM     18  C   UNL     1      14.206   0.307 -14.377  1.00  0.00     0.158 A 
BRANCH  16  19
ATOM     19  O   UNL     1      14.572   1.215 -16.599  1.00  0.00    -0.504 OA
ATOM     20  H   UNL     1      14.425   0.695 -17.453  1.00  0.00     0.293 HD
ENDBRANCH  16  19
BRANCH  18  21
ATOM     21  O   UNL     1      12.839   0.570 -14.457  1.00  0.00    -0.504 OA
ATOM     22  H   UNL     1      12.486   1.491 -14.692  1.00  0.00     0.293 HD
ENDBRANCH  18  21
ENDBRANCH   3  13
BRANCH  10  23
ATOM     23  O   UNL     1      17.968  -3.884  -7.770  1.00  0.00    -0.507 OA
ATOM     24  H   UNL     1      18.773  -4.441  -7.511  1.00  0.00     0.293 HD
ENDBRANCH  10  23
BRANCH  11  25
ATOM     25  O   UNL     1      19.538   0.621  -6.949  1.00  0.00    -0.508 OA
ATOM     26  H   UNL     1      19.611   0.480  -5.948  1.00  0.00     0.293 HD
ENDBRANCH  11  25
ENDBRANCH   1   2
BRANCH   1  27
ATOM     27  C   UNL     1      16.470  -3.893 -13.635  1.00  0.00     0.339 C 
ATOM     28  C   UNL     1      17.869  -4.459 -13.277  1.00  0.00     0.214 C 
ATOM     29  O   UNL     1      15.615  -4.799 -14.330  1.00  0.00    -0.332 OA
ATOM     30  C   UNL     1      18.262  -5.547 -14.287  1.00  0.00     0.180 C 
ATOM     31  C   UNL     1      15.775  -6.166 -13.973  1.00  0.00     0.179 C 
ATOM     32  C   UNL     1      17.219  -6.689 -14.260  1.00  0.00     0.177 C 
BRANCH  28  33
ATOM     33  O   UNL     1      18.825  -3.432 -13.219  1.00  0.00    -0.384 OA
ATOM     34  H   UNL     1      18.911  -3.138 -12.278  1.00  0.00     0.211 HD
ENDBRANCH  28  33
BRANCH  30  35
ATOM     35  O   UNL     1      19.558  -6.036 -14.031  1.00  0.00    -0.387 OA
ATOM     36  H   UNL     1      19.846  -6.563 -14.823  1.00  0.00     0.211 HD
ENDBRANCH  30  35
BRANCH  31  37
ATOM     37  C   UNL     1      15.277  -6.457 -12.537  1.00  0.00     0.191 C 
BRANCH  37  38
ATOM     38  O   UNL     1      14.081  -5.764 -12.299  1.00  0.00    -0.394 OA
ATOM     39  H   UNL     1      13.900  -5.231 -13.118  1.00  0.00     0.210 HD
ENDBRANCH  37  38
ENDBRANCH  31  37
BRANCH  32  40
ATOM     40  O   UNL     1      17.262  -7.404 -15.473  1.00  0.00    -0.387 OA
ATOM     41  H   UNL     1      17.842  -8.199 -15.336  1.00  0.00     0.211 HD
ENDBRANCH  32  40
ENDBRANCH   1  27
TORSDOF 12
ENDMDL
MODEL 5
REMARK VINA RESULT:    -5.736      1.844      2.706
REMARK INTER + INTRA:         -10.093
REMARK INTER:                  -8.585
REMARK INTRA:                  -1.508
REMARK UNBOUND:                -1.674
REMARK SMILES O=c1c(O[C@@H]2O[C@H](CO)[C@@H](O)[C@H](O)[C@H]2O)c(-c2ccc(O)c(O)c2)oc2cc(O)cc(O)c12
REMARK SMILES IDX 4 1 3 2 16 3 25 4 2 5 26 6 1 7 33 8 27 9 31 10 28 11 30 12
REMARK SMILES IDX 17 13 18 14 19 15 20 16 24 17 22 18 21 19 23 21 32 23 29 25
REMARK SMILES IDX 5 27 14 28 6 29 12 30 7 31 10 32 15 33 13 35 8 37 9 38 11 40
REMARK H PARENT 21 20 23 22 32 24 29 26 15 34 13 36 9 39 11 41
REMARK Flexibility Score: inf
ROOT
ATOM      1  O   UNL     1      16.624  -1.913 -11.458  1.00  0.00    -0.454 OA
ENDROOT
BRANCH   1   2
ATOM      2  C   UNL     1      17.007  -2.597 -12.620  1.00  0.00     0.214 A 
ATOM      3  C   UNL     1      16.767  -2.071 -13.907  1.00  0.00     0.180 A 
ATOM      4  O   UNL     1      17.089  -2.781 -14.982  1.00  0.00    -0.452 OA
ATOM      5  C   UNL     1      17.628  -3.845 -12.506  1.00  0.00     0.239 A 
ATOM      6  C   UNL     1      17.669  -3.975 -14.920  1.00  0.00     0.146 A 
ATOM      7  O   UNL     1      17.850  -4.318 -11.357  1.00  0.00    -0.285 OA
ATOM      8  C   UNL     1      17.975  -4.563 -13.670  1.00  0.00     0.111 A 
ATOM      9  C   UNL     1      17.988  -4.641 -16.108  1.00  0.00     0.094 A 
ATOM     10  C   UNL     1      18.604  -5.830 -13.640  1.00  0.00     0.134 A 
ATOM     11  C   UNL     1      18.617  -5.885 -16.074  1.00  0.00     0.123 A 
ATOM     12  C   UNL     1      18.922  -6.478 -14.843  1.00  0.00     0.093 A 
BRANCH   3  13
ATOM     13  C   UNL     1      16.172  -0.736 -14.106  1.00  0.00     0.025 A 
ATOM     14  C   UNL     1      14.811  -0.511 -13.857  1.00  0.00     0.016 A 
ATOM     15  C   UNL     1      14.248   0.748 -14.077  1.00  0.00     0.051 A 
ATOM     16  C   UNL     1      15.050   1.808 -14.521  1.00  0.00     0.157 A 
ATOM     17  C   UNL     1      16.981   0.337 -14.516  1.00  0.00     0.062 A 
ATOM     18  C   UNL     1      16.428   1.607 -14.720  1.00  0.00     0.158 A 
BRANCH  16  19
ATOM     19  O   UNL     1      14.485   3.060 -14.763  1.00  0.00    -0.504 OA
ATOM     20  H   UNL     1      14.279   3.374 -15.702  1.00  0.00     0.293 HD
ENDBRANCH  16  19
BRANCH  18  21
ATOM     21  O   UNL     1      17.263   2.655 -15.107  1.00  0.00    -0.504 OA
ATOM     22  H   UNL     1      17.424   2.876 -16.083  1.00  0.00     0.293 HD
ENDBRANCH  18  21
ENDBRANCH   3  13
BRANCH  10  23
ATOM     23  O   UNL     1      18.916  -6.448 -12.428  1.00  0.00    -0.507 OA
ATOM     24  H   UNL     1      19.522  -7.259 -12.385  1.00  0.00     0.293 HD
ENDBRANCH  10  23
BRANCH  11  25
ATOM     25  O   UNL     1      18.937  -6.528 -17.268  1.00  0.00    -0.508 OA
ATOM     26  H   UNL     1      19.855  -6.928 -17.429  1.00  0.00     0.293 HD
ENDBRANCH  11  25
ENDBRANCH   1   2
BRANCH   1  27
ATOM     27  C   UNL     1      17.413  -0.866 -10.888  1.00  0.00     0.339 C 
ATOM     28  C   UNL     1      16.503   0.109 -10.095  1.00  0.00     0.214 C 
ATOM     29  O   UNL     1      18.495  -1.419 -10.141  1.00  0.00    -0.332 OA
ATOM     30  C   UNL     1      17.307   0.766  -8.965  1.00  0.00     0.180 C 
ATOM     31  C   UNL     1      18.219  -1.641  -8.764  1.00  0.00     0.179 C 
ATOM     32  C   UNL     1      17.857  -0.321  -8.011  1.00  0.00     0.177 C 
BRANCH  28  33
ATOM     33  O   UNL     1      15.928   1.064 -10.950  1.00  0.00    -0.384 OA
ATOM     34  H   UNL     1      16.547   1.219 -11.706  1.00  0.00     0.211 HD
ENDBRANCH  28  33
BRANCH  30  35
ATOM     35  O   UNL     1      16.528   1.709  -8.266  1.00  0.00    -0.387 OA
ATOM     36  H   UNL     1      17.147   2.292  -7.750  1.00  0.00     0.211 HD
ENDBRANCH  30  35
BRANCH  31  37
ATOM     37  C   UNL     1      17.201  -2.786  -8.548  1.00  0.00     0.191 C 
BRANCH  37  38
ATOM     38  O   UNL     1      17.882  -3.994  -8.339  1.00  0.00    -0.394 OA
ATOM     39  H   UNL     1      18.837  -3.816  -8.547  1.00  0.00     0.210 HD
ENDBRANCH  37  38
ENDBRANCH  31  37
BRANCH  32  40
ATOM     40  O   UNL     1      18.970   0.179  -7.308  1.00  0.00    -0.387 OA
ATOM     41  H   UNL     1      19.702  -0.488  -7.384  1.00  0.00     0.211 HD
ENDBRANCH  32  40
ENDBRANCH   1  27
TORSDOF 12
ENDMDL
MODEL 6
REMARK VINA RESULT:    -5.660      4.120      6.182
REMARK INTER + INTRA:          -9.981
REMARK INTER:                  -8.489
REMARK INTRA:                  -1.492
REMARK UNBOUND:                -1.674
REMARK SMILES O=c1c(O[C@@H]2O[C@H](CO)[C@@H](O)[C@H](O)[C@H]2O)c(-c2ccc(O)c(O)c2)oc2cc(O)cc(O)c12
REMARK SMILES IDX 4 1 3 2 16 3 25 4 2 5 26 6 1 7 33 8 27 9 31 10 28 11 30 12
REMARK SMILES IDX 17 13 18 14 19 15 20 16 24 17 22 18 21 19 23 21 32 23 29 25
REMARK SMILES IDX 5 27 14 28 6 29 12 30 7 31 10 32 15 33 13 35 8 37 9 38 11 40
REMARK H PARENT 21 20 23 22 32 24 29 26 15 34 13 36 9 39 11 41
REMARK Flexibility Score: inf
ROOT
ATOM      1  O   UNL     1      19.058   0.793 -13.607  1.00  0.00    -0.454 OA
ENDROOT
BRANCH   1   2
ATOM      2  C   UNL     1      18.985   0.400 -14.951  1.00  0.00     0.214 A 
ATOM      3  C   UNL     1      17.893  -0.339 -15.453  1.00  0.00     0.180 A 
ATOM      4  O   UNL     1      17.895  -0.746 -16.717  1.00  0.00    -0.452 OA
ATOM      5  C   UNL     1      20.032   0.731 -15.817  1.00  0.00     0.239 A 
ATOM      6  C   UNL     1      18.873  -0.464 -17.571  1.00  0.00     0.146 A 
ATOM      7  O   UNL     1      21.008   1.396 -15.375  1.00  0.00    -0.285 OA
ATOM      8  C   UNL     1      19.991   0.300 -17.160  1.00  0.00     0.111 A 
ATOM      9  C   UNL     1      18.779  -0.921 -18.890  1.00  0.00     0.094 A 
ATOM     10  C   UNL     1      21.008   0.592 -18.099  1.00  0.00     0.134 A 
ATOM     11  C   UNL     1      19.779  -0.621 -19.815  1.00  0.00     0.123 A 
ATOM     12  C   UNL     1      20.891   0.131 -19.419  1.00  0.00     0.093 A 
BRANCH   3  13
ATOM     13  C   UNL     1      16.726  -0.673 -14.614  1.00  0.00     0.025 A 
ATOM     14  C   UNL     1      16.725  -1.819 -13.807  1.00  0.00     0.016 A 
ATOM     15  C   UNL     1      15.604  -2.145 -13.040  1.00  0.00     0.051 A 
ATOM     16  C   UNL     1      14.479  -1.310 -13.049  1.00  0.00     0.157 A 
ATOM     17  C   UNL     1      15.611   0.182 -14.594  1.00  0.00     0.062 A 
ATOM     18  C   UNL     1      14.492  -0.128 -13.813  1.00  0.00     0.158 A 
BRANCH  16  19
ATOM     19  O   UNL     1      13.351  -1.646 -12.301  1.00  0.00    -0.504 OA
ATOM     20  H   UNL     1      12.569  -2.135 -12.716  1.00  0.00     0.293 HD
ENDBRANCH  16  19
BRANCH  18  21
ATOM     21  O   UNL     1      13.411   0.753 -13.799  1.00  0.00    -0.504 OA
ATOM     22  H   UNL     1      13.151   1.266 -12.965  1.00  0.00     0.293 HD
ENDBRANCH  18  21
ENDBRANCH   3  13
BRANCH  10  23
ATOM     23  O   UNL     1      22.131   1.336 -17.733  1.00  0.00    -0.507 OA
ATOM     24  H   UNL     1      22.343   1.537 -16.763  1.00  0.00     0.293 HD
ENDBRANCH  10  23
BRANCH  11  25
ATOM     25  O   UNL     1      19.663  -1.076 -21.127  1.00  0.00    -0.508 OA
ATOM     26  H   UNL     1      19.300  -0.484 -21.866  1.00  0.00     0.293 HD
ENDBRANCH  11  25
ENDBRANCH   1   2
BRANCH   1  27
ATOM     27  C   UNL     1      18.227   1.821 -13.062  1.00  0.00     0.339 C 
ATOM     28  C   UNL     1      18.037   1.594 -11.539  1.00  0.00     0.214 C 
ATOM     29  O   UNL     1      18.738   3.104 -13.419  1.00  0.00    -0.332 OA
ATOM     30  C   UNL     1      17.791   2.939 -10.841  1.00  0.00     0.180 C 
ATOM     31  C   UNL     1      19.647   3.668 -12.482  1.00  0.00     0.179 C 
ATOM     32  C   UNL     1      18.996   3.881 -11.078  1.00  0.00     0.177 C 
BRANCH  28  33
ATOM     33  O   UNL     1      16.997   0.682 -11.295  1.00  0.00    -0.384 OA
ATOM     34  H   UNL     1      17.382  -0.229 -11.260  1.00  0.00     0.211 HD
ENDBRANCH  28  33
BRANCH  30  35
ATOM     35  O   UNL     1      17.547   2.763  -9.465  1.00  0.00    -0.387 OA
ATOM     36  H   UNL     1      18.395   2.459  -9.042  1.00  0.00     0.211 HD
ENDBRANCH  30  35
BRANCH  31  37
ATOM     37  C   UNL     1      20.992   2.904 -12.440  1.00  0.00     0.191 C 
BRANCH  37  38
ATOM     38  O   UNL     1      21.801   3.308 -13.512  1.00  0.00    -0.394 OA
ATOM     39  H   UNL     1      21.803   4.302 -13.501  1.00  0.00     0.210 HD
ENDBRANCH  37  38
ENDBRANCH  31  37
BRANCH  32  40
ATOM     40  O   UNL     1      18.595   5.220 -10.908  1.00  0.00    -0.387 OA
ATOM     41  H   UNL     1      17.930   5.431 -11.615  1.00  0.00     0.211 HD
ENDBRANCH  32  40
ENDBRANCH   1  27
TORSDOF 12
ENDMDL
MODEL 7
REMARK VINA RESULT:    -5.648      2.803      6.406
REMARK INTER + INTRA:          -9.964
REMARK INTER:                  -8.250
REMARK INTRA:                  -1.714
REMARK UNBOUND:                -1.674
REMARK SMILES O=c1c(O[C@@H]2O[C@H](CO)[C@@H](O)[C@H](O)[C@H]2O)c(-c2ccc(O)c(O)c2)oc2cc(O)cc(O)c12
REMARK SMILES IDX 4 1 3 2 16 3 25 4 2 5 26 6 1 7 33 8 27 9 31 10 28 11 30 12
REMARK SMILES IDX 17 13 18 14 19 15 20 16 24 17 22 18 21 19 23 21 32 23 29 25
REMARK SMILES IDX 5 27 14 28 6 29 12 30 7 31 10 32 15 33 13 35 8 37 9 38 11 40
REMARK H PARENT 21 20 23 22 32 24 29 26 15 34 13 36 9 39 11 41
REMARK Flexibility Score: inf
ROOT
ATOM      1  O   UNL     1      18.810   0.247 -10.523  1.00  0.00    -0.454 OA
ENDROOT
BRANCH   1   2
ATOM      2  C   UNL     1      18.682  -0.935 -11.265  1.00  0.00     0.214 A 
ATOM      3  C   UNL     1      18.971  -2.199 -10.708  1.00  0.00     0.180 A 
ATOM      4  O   UNL     1      18.898  -3.288 -11.466  1.00  0.00    -0.452 OA
ATOM      5  C   UNL     1      18.276  -0.863 -12.602  1.00  0.00     0.239 A 
ATOM      6  C   UNL     1      18.528  -3.264 -12.741  1.00  0.00     0.146 A 
ATOM      7  O   UNL     1      18.012   0.264 -13.103  1.00  0.00    -0.285 OA
ATOM      8  C   UNL     1      18.190  -2.042 -13.371  1.00  0.00     0.111 A 
ATOM      9  C   UNL     1      18.463  -4.465 -13.456  1.00  0.00     0.094 A 
ATOM     10  C   UNL     1      17.788  -2.054 -14.727  1.00  0.00     0.134 A 
ATOM     11  C   UNL     1      18.056  -4.473 -14.790  1.00  0.00     0.123 A 
ATOM     12  C   UNL     1      17.722  -3.271 -15.424  1.00  0.00     0.093 A 
BRANCH   3  13
ATOM     13  C   UNL     1      19.347  -2.360  -9.290  1.00  0.00     0.025 A 
ATOM     14  C   UNL     1      20.688  -2.293  -8.890  1.00  0.00     0.016 A 
ATOM     15  C   UNL     1      21.039  -2.477  -7.551  1.00  0.00     0.051 A 
ATOM     16  C   UNL     1      20.045  -2.701  -6.589  1.00  0.00     0.157 A 
ATOM     17  C   UNL     1      18.349  -2.549  -8.319  1.00  0.00     0.062 A 
ATOM     18  C   UNL     1      18.691  -2.714  -6.972  1.00  0.00     0.158 A 
BRANCH  16  19
ATOM     19  O   UNL     1      20.395  -2.908  -5.254  1.00  0.00    -0.504 OA
ATOM     20  H   UNL     1      20.435  -3.837  -4.857  1.00  0.00     0.293 HD
ENDBRANCH  16  19
BRANCH  18  21
ATOM     21  O   UNL     1      17.675  -2.879  -6.031  1.00  0.00    -0.504 OA
ATOM     22  H   UNL     1      17.818  -3.409  -5.179  1.00  0.00     0.293 HD
ENDBRANCH  18  21
ENDBRANCH   3  13
BRANCH  10  23
ATOM     23  O   UNL     1      17.453  -0.871 -15.388  1.00  0.00    -0.507 OA
ATOM     24  H   UNL     1      16.525  -0.470 -15.324  1.00  0.00     0.293 HD
ENDBRANCH  10  23
BRANCH  11  25
ATOM     25  O   UNL     1      17.987  -5.681 -15.481  1.00  0.00    -0.508 OA
ATOM     26  H   UNL     1      17.100  -6.095 -15.743  1.00  0.00     0.293 HD
ENDBRANCH  11  25
ENDBRANCH   1   2
BRANCH   1  27
ATOM     27  C   UNL     1      20.039   0.973 -10.441  1.00  0.00     0.339 C 
ATOM     28  C   UNL     1      19.876   2.364 -11.109  1.00  0.00     0.214 C 
ATOM     29  O   UNL     1      20.500   1.006  -9.092  1.00  0.00    -0.332 OA
ATOM     30  C   UNL     1      20.841   3.368 -10.462  1.00  0.00     0.180 C 
ATOM     31  C   UNL     1      20.060   2.127  -8.336  1.00  0.00     0.179 C 
ATOM     32  C   UNL     1      20.541   3.481  -8.948  1.00  0.00     0.177 C 
BRANCH  28  33
ATOM     33  O   UNL     1      20.068   2.278 -12.498  1.00  0.00    -0.384 OA
ATOM     34  H   UNL     1      19.205   2.035 -12.918  1.00  0.00     0.211 HD
ENDBRANCH  28  33
BRANCH  30  35
ATOM     35  O   UNL     1      20.766   4.625 -11.090  1.00  0.00    -0.387 OA
ATOM     36  H   UNL     1      21.670   4.842 -11.446  1.00  0.00     0.211 HD
ENDBRANCH  30  35
BRANCH  31  37
ATOM     37  C   UNL     1      18.541   2.076  -8.044  1.00  0.00     0.191 C 
BRANCH  37  38
ATOM     38  O   UNL     1      18.218   0.862  -7.420  1.00  0.00    -0.394 OA
ATOM     39  H   UNL     1      17.965   1.087  -6.486  1.00  0.00     0.210 HD
ENDBRANCH  37  38
ENDBRANCH  31  37
BRANCH  32  40
ATOM     40  O   UNL     1      21.678   3.963  -8.271  1.00  0.00    -0.387 OA
ATOM     41  H   UNL     1      21.366   4.562  -7.542  1.00  0.00     0.211 HD
ENDBRANCH  32  40
ENDBRANCH   1  27
TORSDOF 12
ENDMDL
MODEL 8
REMARK VINA RESULT:    -5.578      2.712      5.775
REMARK INTER + INTRA:          -9.861
REMARK INTER:                  -8.882
REMARK INTRA:                  -0.979
REMARK UNBOUND:                -1.674
REMARK SMILES O=c1c(O[C@@H]2O[C@H](CO)[C@@H](O)[C@H](O)[C@H]2O)c(-c2ccc(O)c(O)c2)oc2cc(O)cc(O)c12
REMARK SMILES IDX 4 1 3 2 16 3 25 4 2 5 26 6 1 7 33 8 27 9 31 10 28 11 30 12
REMARK SMILES IDX 17 13 18 14 19 15 20 16 24 17 22 18 21 19 23 21 32 23 29 25
REMARK SMILES IDX 5 27 14 28 6 29 12 30 7 31 10 32 15 33 13 35 8 37 9 38 11 40
REMARK H PARENT 21 20 23 22 32 24 29 26 15 34 13 36 9 39 11 41
REMARK Flexibility Score: inf
ROOT
ATOM      1  O   UNL     1      17.548  -0.790 -11.566  1.00  0.00    -0.454 OA
ENDROOT
BRANCH   1   2
ATOM      2  C   UNL     1      16.210  -0.825 -11.985  1.00  0.00     0.214 A 
ATOM      3  C   UNL     1      15.736  -1.806 -12.881  1.00  0.00     0.180 A 
ATOM      4  O   UNL     1      14.477  -1.764 -13.302  1.00  0.00    -0.452 OA
ATOM      5  C   UNL     1      15.322   0.150 -11.519  1.00  0.00     0.239 A 
ATOM      6  C   UNL     1      13.603  -0.850 -12.894  1.00  0.00     0.146 A 
ATOM      7  O   UNL     1      15.740   1.026 -10.713  1.00  0.00    -0.285 OA
ATOM      8  C   UNL     1      13.986   0.152 -11.971  1.00  0.00     0.111 A 
ATOM      9  C   UNL     1      12.291  -0.896 -13.379  1.00  0.00     0.094 A 
ATOM     10  C   UNL     1      13.027   1.102 -11.548  1.00  0.00     0.134 A 
ATOM     11  C   UNL     1      11.346   0.036 -12.952  1.00  0.00     0.123 A 
ATOM     12  C   UNL     1      11.714   1.034 -12.041  1.00  0.00     0.093 A 
BRANCH   3  13
ATOM     13  C   UNL     1      16.598  -2.900 -13.369  1.00  0.00     0.025 A 
ATOM     14  C   UNL     1      17.149  -2.862 -14.657  1.00  0.00     0.016 A 
ATOM     15  C   UNL     1      17.939  -3.916 -15.122  1.00  0.00     0.051 A 
ATOM     16  C   UNL     1      18.211  -5.010 -14.289  1.00  0.00     0.157 A 
ATOM     17  C   UNL     1      16.902  -3.981 -12.523  1.00  0.00     0.062 A 
ATOM     18  C   UNL     1      17.709  -5.031 -12.975  1.00  0.00     0.158 A 
BRANCH  16  19
ATOM     19  O   UNL     1      18.981  -6.074 -14.761  1.00  0.00    -0.504 OA
ATOM     20  H   UNL     1      19.935  -5.939 -15.068  1.00  0.00     0.293 HD
ENDBRANCH  16  19
BRANCH  18  21
ATOM     21  O   UNL     1      18.009  -6.078 -12.104  1.00  0.00    -0.504 OA
ATOM     22  H   UNL     1      18.922  -6.171 -11.675  1.00  0.00     0.293 HD
ENDBRANCH  18  21
ENDBRANCH   3  13
BRANCH  10  23
ATOM     23  O   UNL     1      13.365   2.111 -10.644  1.00  0.00    -0.507 OA
ATOM     24  H   UNL     1      12.924   3.022 -10.676  1.00  0.00     0.293 HD
ENDBRANCH  10  23
BRANCH  11  25
ATOM     25  O   UNL     1      10.042  -0.033 -13.437  1.00  0.00    -0.508 OA
ATOM     26  H   UNL     1       9.768   0.431 -14.295  1.00  0.00     0.293 HD
ENDBRANCH  11  25
ENDBRANCH   1   2
BRANCH   1  27
ATOM     27  C   UNL     1      17.923  -0.875 -10.189  1.00  0.00     0.339 C 
ATOM     28  C   UNL     1      17.494  -2.249  -9.609  1.00  0.00     0.214 C 
ATOM     29  O   UNL     1      19.307  -0.567 -10.039  1.00  0.00    -0.332 OA
ATOM     30  C   UNL     1      18.433  -2.644  -8.460  1.00  0.00     0.180 C 
ATOM     31  C   UNL     1      20.181  -1.687 -10.103  1.00  0.00     0.179 C 
ATOM     32  C   UNL     1      19.888  -2.733  -8.980  1.00  0.00     0.177 C 
BRANCH  28  33
ATOM     33  O   UNL     1      16.151  -2.221  -9.197  1.00  0.00    -0.384 OA
ATOM     34  H   UNL     1      15.989  -1.370  -8.718  1.00  0.00     0.211 HD
ENDBRANCH  28  33
BRANCH  30  35
ATOM     35  O   UNL     1      18.031  -3.855  -7.866  1.00  0.00    -0.387 OA
ATOM     36  H   UNL     1      18.043  -3.729  -6.880  1.00  0.00     0.211 HD
ENDBRANCH  30  35
BRANCH  31  37
ATOM     37  C   UNL     1      20.248  -2.295 -11.525  1.00  0.00     0.191 C 
BRANCH  37  38
ATOM     38  O   UNL     1      20.500  -3.673 -11.441  1.00  0.00    -0.394 OA
ATOM     39  H   UNL     1      20.308  -3.935 -10.502  1.00  0.00     0.210 HD
ENDBRANCH  37  38
ENDBRANCH  31  37
BRANCH  32  40
ATOM     40  O   UNL     1      20.788  -2.585  -7.908  1.00  0.00    -0.387 OA
ATOM     41  H   UNL     1      20.890  -3.472  -7.472  1.00  0.00     0.211 HD
ENDBRANCH  32  40
ENDBRANCH   1  27
TORSDOF 12
ENDMDL
MODEL 9
REMARK VINA RESULT:    -5.565      2.761      7.307
REMARK INTER + INTRA:          -9.842
REMARK INTER:                  -8.098
REMARK INTRA:                  -1.744
REMARK UNBOUND:                -1.674
REMARK SMILES O=c1c(O[C@@H]2O[C@H](CO)[C@@H](O)[C@H](O)[C@H]2O)c(-c2ccc(O)c(O)c2)oc2cc(O)cc(O)c12
REMARK SMILES IDX 4 1 3 2 16 3 25 4 2 5 26 6 1 7 33 8 27 9 31 10 28 11 30 12
REMARK SMILES IDX 17 13 18 14 19 15 20 16 24 17 22 18 21 19 23 21 32 23 29 25
REMARK SMILES IDX 5 27 14 28 6 29 12 30 7 31 10 32 15 33 13 35 8 37 9 38 11 40
REMARK H PARENT 21 20 23 22 32 24 29 26 15 34 13 36 9 39 11 41
REMARK Flexibility Score: inf
ROOT
ATOM      1  O   UNL     1      15.962  -0.243 -11.730  1.00  0.00    -0.454 OA
ENDROOT
BRANCH   1   2
ATOM      2  C   UNL     1      16.917  -0.799 -10.868  1.00  0.00     0.214 A 
ATOM      3  C   UNL     1      17.352  -2.135 -11.001  1.00  0.00     0.180 A 
ATOM      4  O   UNL     1      18.212  -2.640 -10.123  1.00  0.00    -0.452 OA
ATOM      5  C   UNL     1      17.443  -0.017  -9.835  1.00  0.00     0.239 A 
ATOM      6  C   UNL     1      18.727  -1.938  -9.121  1.00  0.00     0.146 A 
ATOM      7  O   UNL     1      17.062   1.180  -9.716  1.00  0.00    -0.285 OA
ATOM      8  C   UNL     1      18.370  -0.581  -8.933  1.00  0.00     0.111 A 
ATOM      9  C   UNL     1      19.640  -2.551  -8.256  1.00  0.00     0.094 A 
ATOM     10  C   UNL     1      18.947   0.142  -7.863  1.00  0.00     0.134 A 
ATOM     11  C   UNL     1      20.215  -1.831  -7.208  1.00  0.00     0.123 A 
ATOM     12  C   UNL     1      19.867  -0.490  -7.011  1.00  0.00     0.093 A 
BRANCH   3  13
ATOM     13  C   UNL     1      16.888  -3.002 -12.101  1.00  0.00     0.025 A 
ATOM     14  C   UNL     1      17.385  -2.842 -13.401  1.00  0.00     0.016 A 
ATOM     15  C   UNL     1      16.918  -3.646 -14.443  1.00  0.00     0.051 A 
ATOM     16  C   UNL     1      15.966  -4.642 -14.189  1.00  0.00     0.157 A 
ATOM     17  C   UNL     1      15.960  -4.025 -11.841  1.00  0.00     0.062 A 
ATOM     18  C   UNL     1      15.502  -4.847 -12.876  1.00  0.00     0.158 A 
BRANCH  16  19
ATOM     19  O   UNL     1      15.482  -5.431 -15.233  1.00  0.00    -0.504 OA
ATOM     20  H   UNL     1      15.661  -6.425 -15.270  1.00  0.00     0.293 HD
ENDBRANCH  16  19
BRANCH  18  21
ATOM     21  O   UNL     1      14.597  -5.867 -12.582  1.00  0.00    -0.504 OA
ATOM     22  H   UNL     1      13.637  -5.839 -12.904  1.00  0.00     0.293 HD
ENDBRANCH  18  21
ENDBRANCH   3  13
BRANCH  10  23
ATOM     23  O   UNL     1      18.617   1.480  -7.638  1.00  0.00    -0.507 OA
ATOM     24  H   UNL     1      17.689   1.837  -7.828  1.00  0.00     0.293 HD
ENDBRANCH  10  23
BRANCH  11  25
ATOM     25  O   UNL     1      21.131  -2.456  -6.365  1.00  0.00    -0.508 OA
ATOM     26  H   UNL     1      22.020  -2.802  -6.706  1.00  0.00     0.293 HD
ENDBRANCH  11  25
ENDBRANCH   1   2
BRANCH   1  27
ATOM     27  C   UNL     1      14.563  -0.509 -11.600  1.00  0.00     0.339 C 
ATOM     28  C   UNL     1      13.830   0.760 -11.091  1.00  0.00     0.214 C 
ATOM     29  O   UNL     1      14.052  -1.051 -12.816  1.00  0.00    -0.332 OA
ATOM     30  C   UNL     1      12.378   0.755 -11.590  1.00  0.00     0.180 C 
ATOM     31  C   UNL     1      13.544  -0.089 -13.733  1.00  0.00     0.179 C 
ATOM     32  C   UNL     1      12.355   0.728 -13.136  1.00  0.00     0.177 C 
BRANCH  28  33
ATOM     33  O   UNL     1      13.900   0.851  -9.691  1.00  0.00    -0.384 OA
ATOM     34  H   UNL     1      14.126  -0.042  -9.331  1.00  0.00     0.211 HD
ENDBRANCH  28  33
BRANCH  30  35
ATOM     35  O   UNL     1      11.663   1.860 -11.090  1.00  0.00    -0.387 OA
ATOM     36  H   UNL     1      12.266   2.361 -10.477  1.00  0.00     0.211 HD
ENDBRANCH  30  35
BRANCH  31  37
ATOM     37  C   UNL     1      14.665   0.788 -14.341  1.00  0.00     0.191 C 
BRANCH  37  38
ATOM     38  O   UNL     1      15.708  -0.028 -14.804  1.00  0.00    -0.394 OA
ATOM     39  H   UNL     1      16.548   0.482 -14.657  1.00  0.00     0.210 HD
ENDBRANCH  37  38
ENDBRANCH  31  37
BRANCH  32  40
ATOM     40  O   UNL     1      11.120   0.221 -13.587  1.00  0.00    -0.387 OA
ATOM     41  H   UNL     1      10.867  -0.534 -12.992  1.00  0.00     0.211 HD
ENDBRANCH  32  40
ENDBRANCH   1  27
TORSDOF 12
ENDMDL
