MODEL 1
REMARK VINA RESULT:    -6.046      0.000      0.000
REMARK INTER + INTRA:          -6.497
REMARK INTER:                  -6.399
REMARK INTRA:                  -0.098
REMARK UNBOUND:                -0.098
REMARK SMILES C=C(C)[C@@H]1CC=C(C)C(=O)C1
REMARK SMILES IDX 8 1 7 2 6 3 5 4 4 5 11 6 9 7 10 8 2 9 1 10 3 11
REMARK H PARENT
REMARK Flexibility Score: inf
ROOT
ATOM      1  C   UNL     1      -7.474  33.162  19.980  1.00  0.00     0.048 C 
ATOM      2  C   UNL     1      -7.872  33.472  21.396  1.00  0.00    -0.012 C 
ATOM      3  C   UNL     1      -7.539  34.653  21.942  1.00  0.00    -0.019 C 
ATOM      4  C   UNL     1      -7.928  35.022  23.350  1.00  0.00     0.036 C 
ATOM      5  C   UNL     1      -7.964  33.778  24.257  1.00  0.00     0.025 C 
ATOM      6  C   UNL     1      -8.891  32.705  23.658  1.00  0.00     0.089 C 
ATOM      7  C   UNL     1      -8.521  32.427  22.227  1.00  0.00     0.158 C 
ATOM      8  O   UNL     1      -8.803  31.304  21.728  1.00  0.00    -0.295 OA
ENDROOT
BRANCH   5   9
ATOM      9  C   UNL     1      -8.374  34.138  25.678  1.00  0.00    -0.077 C 
ATOM     10  C   UNL     1      -8.588  35.421  26.013  1.00  0.00     0.008 C 
ATOM     11  C   UNL     1      -8.549  33.078  26.739  1.00  0.00     0.039 C 
ENDBRANCH   5   9
TORSDOF 1
ENDMDL
MODEL 2
REMARK VINA RESULT:    -6.003      1.863      4.220
REMARK INTER + INTRA:          -6.453
REMARK INTER:                  -6.356
REMARK INTRA:                  -0.096
REMARK UNBOUND:                -0.098
REMARK SMILES C=C(C)[C@@H]1CC=C(C)C(=O)C1
REMARK SMILES IDX 8 1 7 2 6 3 5 4 4 5 11 6 9 7 10 8 2 9 1 10 3 11
REMARK H PARENT
REMARK Flexibility Score: inf
ROOT
ATOM      1  C   UNL     1      -9.637  29.327  25.044  1.00  0.00     0.048 C 
ATOM      2  C   UNL     1      -9.017  30.436  24.241  1.00  0.00    -0.012 C 
ATOM      3  C   UNL     1      -9.349  31.713  24.497  1.00  0.00    -0.019 C 
ATOM      4  C   UNL     1      -8.744  32.863  23.735  1.00  0.00     0.036 C 
ATOM      5  C   UNL     1      -8.435  32.463  22.281  1.00  0.00     0.025 C 
ATOM      6  C   UNL     1      -7.541  31.209  22.250  1.00  0.00     0.089 C 
ATOM      7  C   UNL     1      -8.138  30.114  23.089  1.00  0.00     0.158 C 
ATOM      8  O   UNL     1      -7.855  28.914  22.824  1.00  0.00    -0.295 OA
ENDROOT
BRANCH   5   9
ATOM      9  C   UNL     1      -7.806  33.614  21.508  1.00  0.00    -0.077 C 
ATOM     10  C   UNL     1      -7.359  33.420  20.257  1.00  0.00     0.008 C 
ATOM     11  C   UNL     1      -7.665  34.987  22.119  1.00  0.00     0.039 C 
ENDBRANCH   5   9
TORSDOF 1
ENDMDL
MODEL 3
REMARK VINA RESULT:    -5.964      2.208      4.457
REMARK INTER + INTRA:          -6.411
REMARK INTER:                  -6.313
REMARK INTRA:                  -0.098
REMARK UNBOUND:                -0.098
REMARK SMILES C=C(C)[C@@H]1CC=C(C)C(=O)C1
REMARK SMILES IDX 8 1 7 2 6 3 5 4 4 5 11 6 9 7 10 8 2 9 1 10 3 11
REMARK H PARENT
REMARK Flexibility Score: inf
ROOT
ATOM      1  C   UNL     1      -8.239  30.126  26.472  1.00  0.00     0.048 C 
ATOM      2  C   UNL     1      -8.271  31.015  25.261  1.00  0.00    -0.012 C 
ATOM      3  C   UNL     1      -7.869  30.539  24.070  1.00  0.00    -0.019 C 
ATOM      4  C   UNL     1      -7.898  31.382  22.822  1.00  0.00     0.036 C 
ATOM      5  C   UNL     1      -7.631  32.863  23.148  1.00  0.00     0.025 C 
ATOM      6  C   UNL     1      -8.624  33.364  24.212  1.00  0.00     0.089 C 
ATOM      7  C   UNL     1      -8.626  32.450  25.406  1.00  0.00     0.158 C 
ATOM      8  O   UNL     1      -8.968  32.908  26.530  1.00  0.00    -0.295 OA
ENDROOT
BRANCH   5   9
ATOM      9  C   UNL     1      -7.676  33.726  21.895  1.00  0.00    -0.077 C 
ATOM     10  C   UNL     1      -7.874  35.050  21.995  1.00  0.00     0.008 C 
ATOM     11  C   UNL     1      -7.504  33.125  20.520  1.00  0.00     0.039 C 
ENDBRANCH   5   9
TORSDOF 1
ENDMDL
MODEL 4
REMARK VINA RESULT:    -5.924      2.289      3.881
REMARK INTER + INTRA:          -6.369
REMARK INTER:                  -6.270
REMARK INTRA:                  -0.098
REMARK UNBOUND:                -0.098
REMARK SMILES C=C(C)[C@@H]1CC=C(C)C(=O)C1
REMARK SMILES IDX 8 1 7 2 6 3 5 4 4 5 11 6 9 7 10 8 2 9 1 10 3 11
REMARK H PARENT
REMARK Flexibility Score: inf
ROOT
ATOM      1  C   UNL     1      -7.500  35.003  22.279  1.00  0.00     0.048 C 
ATOM      2  C   UNL     1      -7.966  33.599  22.546  1.00  0.00    -0.012 C 
ATOM      3  C   UNL     1      -7.977  33.126  23.804  1.00  0.00    -0.019 C 
ATOM      4  C   UNL     1      -8.450  31.734  24.130  1.00  0.00     0.036 C 
ATOM      5  C   UNL     1      -8.134  30.758  22.982  1.00  0.00     0.025 C 
ATOM      6  C   UNL     1      -8.724  31.280  21.658  1.00  0.00     0.089 C 
ATOM      7  C   UNL     1      -8.294  32.699  21.412  1.00  0.00     0.158 C 
ATOM      8  O   UNL     1      -8.250  33.131  20.228  1.00  0.00    -0.295 OA
ENDROOT
BRANCH   5   9
ATOM      9  C   UNL     1      -8.626  29.352  23.294  1.00  0.00    -0.077 C 
ATOM     10  C   UNL     1      -9.339  29.120  24.409  1.00  0.00     0.008 C 
ATOM     11  C   UNL     1      -8.328  28.192  22.375  1.00  0.00     0.039 C 
ENDBRANCH   5   9
TORSDOF 1
ENDMDL
MODEL 5
REMARK VINA RESULT:    -5.867      2.134      3.101
REMARK INTER + INTRA:          -6.308
REMARK INTER:                  -6.210
REMARK INTRA:                  -0.098
REMARK UNBOUND:                -0.098
REMARK SMILES C=C(C)[C@@H]1CC=C(C)C(=O)C1
REMARK SMILES IDX 8 1 7 2 6 3 5 4 4 5 11 6 9 7 10 8 2 9 1 10 3 11
REMARK H PARENT
REMARK Flexibility Score: inf
ROOT
ATOM      1  C   UNL     1      -8.187  28.430  22.428  1.00  0.00     0.048 C 
ATOM      2  C   UNL     1      -8.289  29.877  22.822  1.00  0.00    -0.012 C 
ATOM      3  C   UNL     1      -7.661  30.815  22.093  1.00  0.00    -0.019 C 
ATOM      4  C   UNL     1      -7.744  32.280  22.432  1.00  0.00     0.036 C 
ATOM      5  C   UNL     1      -7.861  32.490  23.953  1.00  0.00     0.025 C 
ATOM      6  C   UNL     1      -9.053  31.693  24.514  1.00  0.00     0.089 C 
ATOM      7  C   UNL     1      -8.976  30.254  24.083  1.00  0.00     0.158 C 
ATOM      8  O   UNL     1      -9.535  29.371  24.789  1.00  0.00    -0.295 OA
ENDROOT
BRANCH   5   9
ATOM      9  C   UNL     1      -7.964  33.967  24.305  1.00  0.00    -0.077 C 
ATOM     10  C   UNL     1      -7.669  34.901  23.385  1.00  0.00     0.008 C 
ATOM     11  C   UNL     1      -8.393  34.420  25.680  1.00  0.00     0.039 C 
ENDBRANCH   5   9
TORSDOF 1
ENDMDL
MODEL 6
REMARK VINA RESULT:    -5.840      2.882      4.512
REMARK INTER + INTRA:          -6.279
REMARK INTER:                  -6.181
REMARK INTRA:                  -0.098
REMARK UNBOUND:                -0.098
REMARK SMILES C=C(C)[C@@H]1CC=C(C)C(=O)C1
REMARK SMILES IDX 8 1 7 2 6 3 5 4 4 5 11 6 9 7 10 8 2 9 1 10 3 11
REMARK H PARENT
REMARK Flexibility Score: inf
ROOT
ATOM      1  C   UNL     1      -7.761  34.588  23.846  1.00  0.00     0.048 C 
ATOM      2  C   UNL     1      -7.868  33.092  23.750  1.00  0.00    -0.012 C 
ATOM      3  C   UNL     1      -7.528  32.468  22.610  1.00  0.00    -0.019 C 
ATOM      4  C   UNL     1      -7.598  30.970  22.466  1.00  0.00     0.036 C 
ATOM      5  C   UNL     1      -8.750  30.388  23.305  1.00  0.00     0.025 C 
ATOM      6  C   UNL     1      -8.617  30.827  24.775  1.00  0.00     0.089 C 
ATOM      7  C   UNL     1      -8.465  32.320  24.869  1.00  0.00     0.158 C 
ATOM      8  O   UNL     1      -8.819  32.908  25.927  1.00  0.00    -0.295 OA
ENDROOT
BRANCH   5   9
ATOM      9  C   UNL     1      -8.818  28.872  23.181  1.00  0.00    -0.077 C 
ATOM     10  C   UNL     1      -8.159  28.247  22.192  1.00  0.00     0.008 C 
ATOM     11  C   UNL     1      -9.620  28.039  24.152  1.00  0.00     0.039 C 
ENDBRANCH   5   9
TORSDOF 1
ENDMDL
MODEL 7
REMARK VINA RESULT:    -5.808      1.683      2.410
REMARK INTER + INTRA:          -6.246
REMARK INTER:                  -6.148
REMARK INTRA:                  -0.098
REMARK UNBOUND:                -0.098
REMARK SMILES C=C(C)[C@@H]1CC=C(C)C(=O)C1
REMARK SMILES IDX 8 1 7 2 6 3 5 4 4 5 11 6 9 7 10 8 2 9 1 10 3 11
REMARK H PARENT
REMARK Flexibility Score: inf
ROOT
ATOM      1  C   UNL     1      -7.496  33.149  20.146  1.00  0.00     0.048 C 
ATOM      2  C   UNL     1      -7.589  32.892  21.624  1.00  0.00    -0.012 C 
ATOM      3  C   UNL     1      -7.631  31.629  22.082  1.00  0.00    -0.019 C 
ATOM      4  C   UNL     1      -7.705  31.314  23.553  1.00  0.00     0.036 C 
ATOM      5  C   UNL     1      -8.497  32.396  24.311  1.00  0.00     0.025 C 
ATOM      6  C   UNL     1      -7.894  33.787  24.042  1.00  0.00     0.089 C 
ATOM      7  C   UNL     1      -7.760  34.028  22.565  1.00  0.00     0.158 C 
ATOM      8  O   UNL     1      -7.757  35.213  22.133  1.00  0.00    -0.295 OA
ENDROOT
BRANCH   5   9
ATOM      9  C   UNL     1      -8.562  32.096  25.802  1.00  0.00    -0.077 C 
ATOM     10  C   UNL     1      -8.833  33.079  26.676  1.00  0.00     0.008 C 
ATOM     11  C   UNL     1      -8.324  30.704  26.335  1.00  0.00     0.039 C 
ENDBRANCH   5   9
TORSDOF 1
ENDMDL
MODEL 8
REMARK VINA RESULT:    -5.781      1.951      4.774
REMARK INTER + INTRA:          -6.217
REMARK INTER:                  -6.119
REMARK INTRA:                  -0.098
REMARK UNBOUND:                -0.098
REMARK SMILES C=C(C)[C@@H]1CC=C(C)C(=O)C1
REMARK SMILES IDX 8 1 7 2 6 3 5 4 4 5 11 6 9 7 10 8 2 9 1 10 3 11
REMARK H PARENT
REMARK Flexibility Score: inf
ROOT
ATOM      1  C   UNL     1      -8.342  33.274  27.198  1.00  0.00     0.048 C 
ATOM      2  C   UNL     1      -8.511  33.211  25.706  1.00  0.00    -0.012 C 
ATOM      3  C   UNL     1      -8.925  32.071  25.128  1.00  0.00    -0.019 C 
ATOM      4  C   UNL     1      -9.128  31.958  23.639  1.00  0.00     0.036 C 
ATOM      5  C   UNL     1      -8.130  32.847  22.875  1.00  0.00     0.025 C 
ATOM      6  C   UNL     1      -8.225  34.303  23.368  1.00  0.00     0.089 C 
ATOM      7  C   UNL     1      -8.101  34.363  24.865  1.00  0.00     0.158 C 
ATOM      8  O   UNL     1      -7.677  35.422  25.403  1.00  0.00    -0.295 OA
ENDROOT
BRANCH   5   9
ATOM      9  C   UNL     1      -8.340  32.754  21.370  1.00  0.00    -0.077 C 
ATOM     10  C   UNL     1      -9.348  32.017  20.875  1.00  0.00     0.008 C 
ATOM     11  C   UNL     1      -7.432  33.474  20.404  1.00  0.00     0.039 C 
ENDBRANCH   5   9
TORSDOF 1
ENDMDL
MODEL 9
REMARK VINA RESULT:    -5.715      2.218      4.221
REMARK INTER + INTRA:          -6.148
REMARK INTER:                  -6.055
REMARK INTRA:                  -0.093
REMARK UNBOUND:                -0.098
REMARK SMILES C=C(C)[C@@H]1CC=C(C)C(=O)C1
REMARK SMILES IDX 8 1 7 2 6 3 5 4 4 5 11 6 9 7 10 8 2 9 1 10 3 11
REMARK H PARENT
REMARK Flexibility Score: inf
ROOT
ATOM      1  C   UNL     1      -8.244  35.768  25.418  1.00  0.00     0.048 C 
ATOM      2  C   UNL     1      -8.306  34.368  24.874  1.00  0.00    -0.012 C 
ATOM      3  C   UNL     1      -8.609  33.345  25.691  1.00  0.00    -0.019 C 
ATOM      4  C   UNL     1      -8.702  31.926  25.195  1.00  0.00     0.036 C 
ATOM      5  C   UNL     1      -7.710  31.676  24.044  1.00  0.00     0.025 C 
ATOM      6  C   UNL     1      -7.927  32.703  22.918  1.00  0.00     0.089 C 
ATOM      7  C   UNL     1      -7.911  34.102  23.468  1.00  0.00     0.158 C 
ATOM      8  O   UNL     1      -7.590  35.057  22.709  1.00  0.00    -0.295 OA
ENDROOT
BRANCH   5   9
ATOM      9  C   UNL     1      -7.809  30.249  23.523  1.00  0.00    -0.077 C 
ATOM     10  C   UNL     1      -6.842  29.751  22.736  1.00  0.00     0.008 C 
ATOM     11  C   UNL     1      -8.983  29.366  23.869  1.00  0.00     0.039 C 
ENDBRANCH   5   9
TORSDOF 1
ENDMDL
