MODEL 1
REMARK VINA RESULT:    -5.879      0.000      0.000
REMARK INTER + INTRA:          -7.227
REMARK INTER:                  -6.910
REMARK INTRA:                  -0.317
REMARK UNBOUND:                -0.317
REMARK SMILES O=c1c(O)c(-c2ccc(O)c(O)c2)oc2cc(O)ccc12
REMARK SMILES IDX 5 1 3 2 2 3 1 4 21 5 15 6 14 7 16 8 17 9 19 10 20 11 6 12
REMARK SMILES IDX 7 13 8 14 9 15 13 16 11 17 10 18 12 20 4 22 18 24
REMARK H PARENT 10 19 12 21 4 23 18 25
REMARK Flexibility Score: inf
ROOT
ATOM      1  C   UNL     1      -1.058  -1.482  22.397  1.00  0.00     0.180 A 
ATOM      2  C   UNL     1      -0.344  -0.891  21.334  1.00  0.00     0.208 A 
ATOM      3  C   UNL     1      -1.062  -0.281  20.294  1.00  0.00     0.235 A 
ATOM      4  O   UNL     1      -0.447   0.246  19.327  1.00  0.00    -0.285 OA
ATOM      5  C   UNL     1      -2.465  -0.255  20.346  1.00  0.00     0.069 A 
ATOM      6  C   UNL     1      -3.105  -0.847  21.456  1.00  0.00     0.142 A 
ATOM      7  O   UNL     1      -2.389  -1.423  22.415  1.00  0.00    -0.452 OA
ATOM      8  C   UNL     1      -4.500  -0.833  21.549  1.00  0.00     0.094 A 
ATOM      9  C   UNL     1      -5.269  -0.235  20.545  1.00  0.00     0.119 A 
ATOM     10  C   UNL     1      -4.637   0.353  19.441  1.00  0.00     0.047 A 
ATOM     11  C   UNL     1      -3.243   0.345  19.340  1.00  0.00     0.020 A 
ENDROOT
BRANCH   1  12
ATOM     12  C   UNL     1      -0.375  -2.162  23.521  1.00  0.00     0.025 A 
ATOM     13  C   UNL     1       0.045  -1.451  24.659  1.00  0.00     0.016 A 
ATOM     14  C   UNL     1       0.708  -2.109  25.698  1.00  0.00     0.051 A 
ATOM     15  C   UNL     1       0.975  -3.481  25.610  1.00  0.00     0.157 A 
ATOM     16  C   UNL     1      -0.087  -3.534  23.428  1.00  0.00     0.062 A 
ATOM     17  C   UNL     1       0.577  -4.196  24.467  1.00  0.00     0.158 A 
BRANCH  15  18
ATOM     18  O   UNL     1       1.636  -4.136  26.649  1.00  0.00    -0.504 OA
ATOM     19  H   UNL     1       2.633  -4.026  26.796  1.00  0.00     0.293 HD
ENDBRANCH  15  18
BRANCH  17  20
ATOM     20  O   UNL     1       0.833  -5.562  24.346  1.00  0.00    -0.504 OA
ATOM     21  H   UNL     1       0.640  -6.071  23.492  1.00  0.00     0.293 HD
ENDBRANCH  17  20
ENDBRANCH   1  12
BRANCH   2  22
ATOM     22  O   UNL     1       1.052  -0.890  21.335  1.00  0.00    -0.502 OA
ATOM     23  H   UNL     1       1.594  -0.837  20.480  1.00  0.00     0.293 HD
ENDBRANCH   2  22
BRANCH   9  24
ATOM     24  O   UNL     1      -6.658  -0.231  20.653  1.00  0.00    -0.508 OA
ATOM     25  H   UNL     1      -7.136   0.382  21.304  1.00  0.00     0.293 HD
ENDBRANCH   9  24
TORSDOF 5
ENDMDL
MODEL 2
REMARK VINA RESULT:    -5.808      4.421      5.997
REMARK INTER + INTRA:          -7.144
REMARK INTER:                  -6.875
REMARK INTRA:                  -0.269
REMARK UNBOUND:                -0.317
REMARK SMILES O=c1c(O)c(-c2ccc(O)c(O)c2)oc2cc(O)ccc12
REMARK SMILES IDX 5 1 3 2 2 3 1 4 21 5 15 6 14 7 16 8 17 9 19 10 20 11 6 12
REMARK SMILES IDX 7 13 8 14 9 15 13 16 11 17 10 18 12 20 4 22 18 24
REMARK H PARENT 10 19 12 21 4 23 18 25
REMARK Flexibility Score: inf
ROOT
ATOM      1  C   UNL     1       2.082  -2.882  23.553  1.00  0.00     0.180 A 
ATOM      2  C   UNL     1       2.561  -4.161  23.903  1.00  0.00     0.208 A 
ATOM      3  C   UNL     1       2.708  -5.127  22.896  1.00  0.00     0.235 A 
ATOM      4  O   UNL     1       3.125  -6.283  23.185  1.00  0.00    -0.285 OA
ATOM      5  C   UNL     1       2.396  -4.794  21.568  1.00  0.00     0.069 A 
ATOM      6  C   UNL     1       1.946  -3.484  21.295  1.00  0.00     0.142 A 
ATOM      7  O   UNL     1       1.812  -2.602  22.279  1.00  0.00    -0.452 OA
ATOM      8  C   UNL     1       1.635  -3.110  19.984  1.00  0.00     0.094 A 
ATOM      9  C   UNL     1       1.766  -4.029  18.937  1.00  0.00     0.119 A 
ATOM     10  C   UNL     1       2.212  -5.331  19.204  1.00  0.00     0.047 A 
ATOM     11  C   UNL     1       2.527  -5.714  20.512  1.00  0.00     0.020 A 
ENDROOT
BRANCH   1  12
ATOM     12  C   UNL     1       1.882  -1.815  24.559  1.00  0.00     0.025 A 
ATOM     13  C   UNL     1       2.968  -1.096  25.088  1.00  0.00     0.016 A 
ATOM     14  C   UNL     1       2.757  -0.108  26.054  1.00  0.00     0.051 A 
ATOM     15  C   UNL     1       1.463   0.165  26.516  1.00  0.00     0.157 A 
ATOM     16  C   UNL     1       0.589  -1.551  25.040  1.00  0.00     0.062 A 
ATOM     17  C   UNL     1       0.374  -0.563  26.007  1.00  0.00     0.158 A 
BRANCH  15  18
ATOM     18  O   UNL     1       1.256   1.152  27.479  1.00  0.00    -0.504 OA
ATOM     19  H   UNL     1       1.686   1.098  28.395  1.00  0.00     0.293 HD
ENDBRANCH  15  18
BRANCH  17  20
ATOM     20  O   UNL     1      -0.925  -0.320  26.451  1.00  0.00    -0.504 OA
ATOM     21  H   UNL     1      -1.154   0.472  27.040  1.00  0.00     0.293 HD
ENDBRANCH  17  20
ENDBRANCH   1  12
BRANCH   2  22
ATOM     22  O   UNL     1       2.910  -4.449  25.225  1.00  0.00    -0.502 OA
ATOM     23  H   UNL     1       3.741  -4.068  25.661  1.00  0.00     0.293 HD
ENDBRANCH   2  22
BRANCH   9  24
ATOM     24  O   UNL     1       1.451  -3.640  17.638  1.00  0.00    -0.508 OA
ATOM     25  H   UNL     1       2.128  -3.171  17.047  1.00  0.00     0.293 HD
ENDBRANCH   9  24
TORSDOF 5
ENDMDL
MODEL 3
REMARK VINA RESULT:    -5.765      2.253      7.032
REMARK INTER + INTRA:          -7.093
REMARK INTER:                  -6.831
REMARK INTRA:                  -0.262
REMARK UNBOUND:                -0.317
REMARK SMILES O=c1c(O)c(-c2ccc(O)c(O)c2)oc2cc(O)ccc12
REMARK SMILES IDX 5 1 3 2 2 3 1 4 21 5 15 6 14 7 16 8 17 9 19 10 20 11 6 12
REMARK SMILES IDX 7 13 8 14 9 15 13 16 11 17 10 18 12 20 4 22 18 24
REMARK H PARENT 10 19 12 21 4 23 18 25
REMARK Flexibility Score: inf
ROOT
ATOM      1  C   UNL     1      -3.040  -1.389  23.355  1.00  0.00     0.180 A 
ATOM      2  C   UNL     1      -3.194  -2.145  24.535  1.00  0.00     0.208 A 
ATOM      3  C   UNL     1      -2.105  -2.895  25.004  1.00  0.00     0.235 A 
ATOM      4  O   UNL     1      -2.221  -3.589  26.052  1.00  0.00    -0.285 OA
ATOM      5  C   UNL     1      -0.889  -2.860  24.303  1.00  0.00     0.069 A 
ATOM      6  C   UNL     1      -0.808  -2.059  23.144  1.00  0.00     0.142 A 
ATOM      7  O   UNL     1      -1.865  -1.371  22.728  1.00  0.00    -0.452 OA
ATOM      8  C   UNL     1       0.390  -1.990  22.424  1.00  0.00     0.094 A 
ATOM      9  C   UNL     1       1.510  -2.714  22.845  1.00  0.00     0.119 A 
ATOM     10  C   UNL     1       1.433  -3.510  23.996  1.00  0.00     0.047 A 
ATOM     11  C   UNL     1       0.242  -3.585  24.723  1.00  0.00     0.020 A 
ENDROOT
BRANCH   1  12
ATOM     12  C   UNL     1      -4.145  -0.585  22.786  1.00  0.00     0.025 A 
ATOM     13  C   UNL     1      -4.530   0.640  23.358  1.00  0.00     0.016 A 
ATOM     14  C   UNL     1      -5.592   1.369  22.817  1.00  0.00     0.051 A 
ATOM     15  C   UNL     1      -6.294   0.880  21.708  1.00  0.00     0.157 A 
ATOM     16  C   UNL     1      -4.866  -1.081  21.686  1.00  0.00     0.062 A 
ATOM     17  C   UNL     1      -5.930  -0.353  21.142  1.00  0.00     0.158 A 
BRANCH  15  18
ATOM     18  O   UNL     1      -7.352   1.612  21.170  1.00  0.00    -0.504 OA
ATOM     19  H   UNL     1      -7.990   2.134  21.759  1.00  0.00     0.293 HD
ENDBRANCH  15  18
BRANCH  17  20
ATOM     20  O   UNL     1      -6.613  -0.871  20.042  1.00  0.00    -0.504 OA
ATOM     21  H   UNL     1      -6.235  -1.624  19.480  1.00  0.00     0.293 HD
ENDBRANCH  17  20
ENDBRANCH   1  12
BRANCH   2  22
ATOM     22  O   UNL     1      -4.401  -2.121  25.238  1.00  0.00    -0.502 OA
ATOM     23  H   UNL     1      -4.712  -1.305  25.752  1.00  0.00     0.293 HD
ENDBRANCH   2  22
BRANCH   9  24
ATOM     24  O   UNL     1       2.694  -2.633  22.116  1.00  0.00    -0.508 OA
ATOM     25  H   UNL     1       3.595  -2.802  22.548  1.00  0.00     0.293 HD
ENDBRANCH   9  24
TORSDOF 5
ENDMDL
MODEL 4
REMARK VINA RESULT:    -5.743      3.422      5.980
REMARK INTER + INTRA:          -7.067
REMARK INTER:                  -6.919
REMARK INTRA:                  -0.148
REMARK UNBOUND:                -0.317
REMARK SMILES O=c1c(O)c(-c2ccc(O)c(O)c2)oc2cc(O)ccc12
REMARK SMILES IDX 5 1 3 2 2 3 1 4 21 5 15 6 14 7 16 8 17 9 19 10 20 11 6 12
REMARK SMILES IDX 7 13 8 14 9 15 13 16 11 17 10 18 12 20 4 22 18 24
REMARK H PARENT 10 19 12 21 4 23 18 25
REMARK Flexibility Score: inf
ROOT
ATOM      1  C   UNL     1       0.702  -2.665  22.534  1.00  0.00     0.180 A 
ATOM      2  C   UNL     1       1.766  -2.330  23.396  1.00  0.00     0.208 A 
ATOM      3  C   UNL     1       1.525  -2.275  24.777  1.00  0.00     0.235 A 
ATOM      4  O   UNL     1       2.458  -1.967  25.569  1.00  0.00    -0.285 OA
ATOM      5  C   UNL     1       0.244  -2.574  25.267  1.00  0.00     0.069 A 
ATOM      6  C   UNL     1      -0.761  -2.926  24.341  1.00  0.00     0.142 A 
ATOM      7  O   UNL     1      -0.495  -2.956  23.041  1.00  0.00    -0.452 OA
ATOM      8  C   UNL     1      -2.048  -3.240  24.791  1.00  0.00     0.094 A 
ATOM      9  C   UNL     1      -2.347  -3.207  26.157  1.00  0.00     0.119 A 
ATOM     10  C   UNL     1      -1.351  -2.858  27.080  1.00  0.00     0.047 A 
ATOM     11  C   UNL     1      -0.062  -2.543  26.640  1.00  0.00     0.020 A 
ENDROOT
BRANCH   1  12
ATOM     12  C   UNL     1       0.870  -2.726  21.064  1.00  0.00     0.025 A 
ATOM     13  C   UNL     1       0.160  -1.864  20.210  1.00  0.00     0.016 A 
ATOM     14  C   UNL     1       0.317  -1.956  18.825  1.00  0.00     0.051 A 
ATOM     15  C   UNL     1       1.174  -2.917  18.272  1.00  0.00     0.157 A 
ATOM     16  C   UNL     1       1.712  -3.701  20.504  1.00  0.00     0.062 A 
ATOM     17  C   UNL     1       1.873  -3.795  19.117  1.00  0.00     0.158 A 
BRANCH  15  18
ATOM     18  O   UNL     1       1.330  -3.004  16.889  1.00  0.00    -0.504 OA
ATOM     19  H   UNL     1       0.579  -3.328  16.289  1.00  0.00     0.293 HD
ENDBRANCH  15  18
BRANCH  17  20
ATOM     20  O   UNL     1       2.728  -4.767  18.598  1.00  0.00    -0.504 OA
ATOM     21  H   UNL     1       3.678  -4.879  18.928  1.00  0.00     0.293 HD
ENDBRANCH  17  20
ENDBRANCH   1  12
BRANCH   2  22
ATOM     22  O   UNL     1       3.042  -2.085  22.883  1.00  0.00    -0.502 OA
ATOM     23  H   UNL     1       3.314  -1.181  22.515  1.00  0.00     0.293 HD
ENDBRANCH   2  22
BRANCH   9  24
ATOM     24  O   UNL     1      -3.633  -3.523  26.587  1.00  0.00    -0.508 OA
ATOM     25  H   UNL     1      -4.045  -4.430  26.403  1.00  0.00     0.293 HD
ENDBRANCH   9  24
TORSDOF 5
ENDMDL
MODEL 5
REMARK VINA RESULT:    -5.570      2.163      3.245
REMARK INTER + INTRA:          -6.864
REMARK INTER:                  -6.579
REMARK INTRA:                  -0.285
REMARK UNBOUND:                -0.317
REMARK SMILES O=c1c(O)c(-c2ccc(O)c(O)c2)oc2cc(O)ccc12
REMARK SMILES IDX 5 1 3 2 2 3 1 4 21 5 15 6 14 7 16 8 17 9 19 10 20 11 6 12
REMARK SMILES IDX 7 13 8 14 9 15 13 16 11 17 10 18 12 20 4 22 18 24
REMARK H PARENT 10 19 12 21 4 23 18 25
REMARK Flexibility Score: inf
ROOT
ATOM      1  C   UNL     1      -1.603  -1.588  23.657  1.00  0.00     0.180 A 
ATOM      2  C   UNL     1      -1.858  -0.916  24.870  1.00  0.00     0.208 A 
ATOM      3  C   UNL     1      -3.036  -0.161  24.989  1.00  0.00     0.235 A 
ATOM      4  O   UNL     1      -3.283   0.458  26.060  1.00  0.00    -0.285 OA
ATOM      5  C   UNL     1      -3.936  -0.110  23.912  1.00  0.00     0.069 A 
ATOM      6  C   UNL     1      -3.619  -0.831  22.741  1.00  0.00     0.142 A 
ATOM      7  O   UNL     1      -2.489  -1.525  22.665  1.00  0.00    -0.452 OA
ATOM      8  C   UNL     1      -4.494  -0.814  21.650  1.00  0.00     0.094 A 
ATOM      9  C   UNL     1      -5.685  -0.082  21.712  1.00  0.00     0.119 A 
ATOM     10  C   UNL     1      -6.003   0.635  22.874  1.00  0.00     0.047 A 
ATOM     11  C   UNL     1      -5.135   0.623  23.969  1.00  0.00     0.020 A 
ENDROOT
BRANCH   1  12
ATOM     12  C   UNL     1      -0.375  -2.389  23.446  1.00  0.00     0.025 A 
ATOM     13  C   UNL     1       0.708  -1.886  22.705  1.00  0.00     0.016 A 
ATOM     14  C   UNL     1       1.847  -2.669  22.499  1.00  0.00     0.051 A 
ATOM     15  C   UNL     1       1.915  -3.969  23.016  1.00  0.00     0.157 A 
ATOM     16  C   UNL     1      -0.311  -3.700  23.945  1.00  0.00     0.062 A 
ATOM     17  C   UNL     1       0.828  -4.487  23.741  1.00  0.00     0.158 A 
BRANCH  15  18
ATOM     18  O   UNL     1       3.053  -4.747  22.810  1.00  0.00    -0.504 OA
ATOM     19  H   UNL     1       3.211  -5.236  21.937  1.00  0.00     0.293 HD
ENDBRANCH  15  18
BRANCH  17  20
ATOM     20  O   UNL     1       0.862  -5.780  24.264  1.00  0.00    -0.504 OA
ATOM     21  H   UNL     1       0.449  -6.567  23.779  1.00  0.00     0.293 HD
ENDBRANCH  17  20
ENDBRANCH   1  12
BRANCH   2  22
ATOM     22  O   UNL     1      -0.969  -1.025  25.941  1.00  0.00    -0.502 OA
ATOM     23  H   UNL     1      -1.281  -1.046  26.905  1.00  0.00     0.293 HD
ENDBRANCH   2  22
BRANCH   9  24
ATOM     24  O   UNL     1      -6.545  -0.075  20.616  1.00  0.00    -0.508 OA
ATOM     25  H   UNL     1      -6.580   0.709  19.975  1.00  0.00     0.293 HD
ENDBRANCH   9  24
TORSDOF 5
ENDMDL
MODEL 6
REMARK VINA RESULT:    -5.527      1.963      6.776
REMARK INTER + INTRA:          -6.813
REMARK INTER:                  -6.554
REMARK INTRA:                  -0.260
REMARK UNBOUND:                -0.317
REMARK SMILES O=c1c(O)c(-c2ccc(O)c(O)c2)oc2cc(O)ccc12
REMARK SMILES IDX 5 1 3 2 2 3 1 4 21 5 15 6 14 7 16 8 17 9 19 10 20 11 6 12
REMARK SMILES IDX 7 13 8 14 9 15 13 16 11 17 10 18 12 20 4 22 18 24
REMARK H PARENT 10 19 12 21 4 23 18 25
REMARK Flexibility Score: inf
ROOT
ATOM      1  C   UNL     1      -1.023  -1.180  20.497  1.00  0.00     0.180 A 
ATOM      2  C   UNL     1      -0.297  -1.989  19.598  1.00  0.00     0.208 A 
ATOM      3  C   UNL     1       0.799  -2.720  20.080  1.00  0.00     0.235 A 
ATOM      4  O   UNL     1       1.471  -3.443  19.293  1.00  0.00    -0.285 OA
ATOM      5  C   UNL     1       1.134  -2.647  21.442  1.00  0.00     0.069 A 
ATOM      6  C   UNL     1       0.343  -1.834  22.282  1.00  0.00     0.142 A 
ATOM      7  O   UNL     1      -0.681  -1.150  21.784  1.00  0.00    -0.452 OA
ATOM      8  C   UNL     1       0.638  -1.743  23.646  1.00  0.00     0.094 A 
ATOM      9  C   UNL     1       1.716  -2.452  24.185  1.00  0.00     0.119 A 
ATOM     10  C   UNL     1       2.504  -3.260  23.353  1.00  0.00     0.047 A 
ATOM     11  C   UNL     1       2.216  -3.359  21.989  1.00  0.00     0.020 A 
ENDROOT
BRANCH   1  12
ATOM     12  C   UNL     1      -2.180  -0.365  20.064  1.00  0.00     0.025 A 
ATOM     13  C   UNL     1      -2.082   1.031  19.932  1.00  0.00     0.016 A 
ATOM     14  C   UNL     1      -3.194   1.783  19.544  1.00  0.00     0.051 A 
ATOM     15  C   UNL     1      -4.421   1.155  19.295  1.00  0.00     0.157 A 
ATOM     16  C   UNL     1      -3.417  -0.988  19.833  1.00  0.00     0.062 A 
ATOM     17  C   UNL     1      -4.533  -0.238  19.444  1.00  0.00     0.158 A 
BRANCH  15  18
ATOM     18  O   UNL     1      -5.529   1.908  18.906  1.00  0.00    -0.504 OA
ATOM     19  H   UNL     1      -5.865   2.684  19.464  1.00  0.00     0.293 HD
ENDBRANCH  15  18
BRANCH  17  20
ATOM     20  O   UNL     1      -5.742  -0.893  19.210  1.00  0.00    -0.504 OA
ATOM     21  H   UNL     1      -6.021  -1.193  18.284  1.00  0.00     0.293 HD
ENDBRANCH  17  20
ENDBRANCH   1  12
BRANCH   2  22
ATOM     22  O   UNL     1      -0.684  -2.080  18.259  1.00  0.00    -0.502 OA
ATOM     23  H   UNL     1      -1.237  -1.363  17.805  1.00  0.00     0.293 HD
ENDBRANCH   2  22
BRANCH   9  24
ATOM     24  O   UNL     1       1.996  -2.349  25.546  1.00  0.00    -0.508 OA
ATOM     25  H   UNL     1       2.414  -1.513  25.938  1.00  0.00     0.293 HD
ENDBRANCH   9  24
TORSDOF 5
ENDMDL
MODEL 7
REMARK VINA RESULT:    -5.413      1.702      2.306
REMARK INTER + INTRA:          -6.679
REMARK INTER:                  -6.379
REMARK INTRA:                  -0.301
REMARK UNBOUND:                -0.317
REMARK SMILES O=c1c(O)c(-c2ccc(O)c(O)c2)oc2cc(O)ccc12
REMARK SMILES IDX 5 1 3 2 2 3 1 4 21 5 15 6 14 7 16 8 17 9 19 10 20 11 6 12
REMARK SMILES IDX 7 13 8 14 9 15 13 16 11 17 10 18 12 20 4 22 18 24
REMARK H PARENT 10 19 12 21 4 23 18 25
REMARK Flexibility Score: inf
ROOT
ATOM      1  C   UNL     1       0.306  -2.303  22.290  1.00  0.00     0.180 A 
ATOM      2  C   UNL     1       0.836  -2.491  20.997  1.00  0.00     0.208 A 
ATOM      3  C   UNL     1       0.117  -2.004  19.894  1.00  0.00     0.235 A 
ATOM      4  O   UNL     1       0.565  -2.169  18.726  1.00  0.00    -0.285 OA
ATOM      5  C   UNL     1      -1.095  -1.326  20.105  1.00  0.00     0.069 A 
ATOM      6  C   UNL     1      -1.545  -1.157  21.432  1.00  0.00     0.142 A 
ATOM      7  O   UNL     1      -0.839  -1.642  22.447  1.00  0.00    -0.452 OA
ATOM      8  C   UNL     1      -2.742  -0.478  21.683  1.00  0.00     0.094 A 
ATOM      9  C   UNL     1      -3.500   0.033  20.624  1.00  0.00     0.119 A 
ATOM     10  C   UNL     1      -3.056  -0.133  19.305  1.00  0.00     0.047 A 
ATOM     11  C   UNL     1      -1.860  -0.809  19.044  1.00  0.00     0.020 A 
ENDROOT
BRANCH   1  12
ATOM     12  C   UNL     1       0.994  -2.803  23.502  1.00  0.00     0.025 A 
ATOM     13  C   UNL     1       0.915  -4.154  23.883  1.00  0.00     0.016 A 
ATOM     14  C   UNL     1       1.553  -4.599  25.044  1.00  0.00     0.051 A 
ATOM     15  C   UNL     1       2.266  -3.700  25.847  1.00  0.00     0.157 A 
ATOM     16  C   UNL     1       1.693  -1.902  24.322  1.00  0.00     0.062 A 
ATOM     17  C   UNL     1       2.334  -2.344  25.485  1.00  0.00     0.158 A 
BRANCH  15  18
ATOM     18  O   UNL     1       2.903  -4.148  27.004  1.00  0.00    -0.504 OA
ATOM     19  H   UNL     1       2.431  -4.156  27.901  1.00  0.00     0.293 HD
ENDBRANCH  15  18
BRANCH  17  20
ATOM     20  O   UNL     1       3.031  -1.423  26.267  1.00  0.00    -0.504 OA
ATOM     21  H   UNL     1       3.933  -1.057  25.990  1.00  0.00     0.293 HD
ENDBRANCH  17  20
ENDBRANCH   1  12
BRANCH   2  22
ATOM     22  O   UNL     1       2.068  -3.126  20.822  1.00  0.00    -0.502 OA
ATOM     23  H   UNL     1       2.871  -2.651  20.427  1.00  0.00     0.293 HD
ENDBRANCH   2  22
BRANCH   9  24
ATOM     24  O   UNL     1      -4.690   0.706  20.892  1.00  0.00    -0.508 OA
ATOM     25  H   UNL     1      -4.718   1.714  20.986  1.00  0.00     0.293 HD
ENDBRANCH   9  24
TORSDOF 5
ENDMDL
MODEL 8
REMARK VINA RESULT:    -5.399      4.208      6.003
REMARK INTER + INTRA:          -6.663
REMARK INTER:                  -6.443
REMARK INTRA:                  -0.220
REMARK UNBOUND:                -0.317
REMARK SMILES O=c1c(O)c(-c2ccc(O)c(O)c2)oc2cc(O)ccc12
REMARK SMILES IDX 5 1 3 2 2 3 1 4 21 5 15 6 14 7 16 8 17 9 19 10 20 11 6 12
REMARK SMILES IDX 7 13 8 14 9 15 13 16 11 17 10 18 12 20 4 22 18 24
REMARK H PARENT 10 19 12 21 4 23 18 25
REMARK Flexibility Score: inf
ROOT
ATOM      1  C   UNL     1       0.695  -3.210  25.070  1.00  0.00     0.180 A 
ATOM      2  C   UNL     1       1.515  -2.757  26.124  1.00  0.00     0.208 A 
ATOM      3  C   UNL     1       0.917  -2.109  27.215  1.00  0.00     0.235 A 
ATOM      4  O   UNL     1       1.630  -1.685  28.166  1.00  0.00    -0.285 OA
ATOM      5  C   UNL     1      -0.478  -1.947  27.243  1.00  0.00     0.069 A 
ATOM      6  C   UNL     1      -1.231  -2.451  26.161  1.00  0.00     0.142 A 
ATOM      7  O   UNL     1      -0.626  -3.049  25.142  1.00  0.00    -0.452 OA
ATOM      8  C   UNL     1      -2.624  -2.318  26.157  1.00  0.00     0.094 A 
ATOM      9  C   UNL     1      -3.277  -1.685  27.220  1.00  0.00     0.119 A 
ATOM     10  C   UNL     1      -2.531  -1.183  28.296  1.00  0.00     0.047 A 
ATOM     11  C   UNL     1      -1.140  -1.312  28.310  1.00  0.00     0.020 A 
ENDROOT
BRANCH   1  12
ATOM     12  C   UNL     1       1.250  -3.885  23.876  1.00  0.00     0.025 A 
ATOM     13  C   UNL     1       1.789  -5.182  23.952  1.00  0.00     0.016 A 
ATOM     14  C   UNL     1       2.329  -5.790  22.817  1.00  0.00     0.051 A 
ATOM     15  C   UNL     1       2.353  -5.109  21.593  1.00  0.00     0.157 A 
ATOM     16  C   UNL     1       1.295  -3.199  22.651  1.00  0.00     0.062 A 
ATOM     17  C   UNL     1       1.835  -3.805  21.511  1.00  0.00     0.158 A 
BRANCH  15  18
ATOM     18  O   UNL     1       2.892  -5.720  20.460  1.00  0.00    -0.504 OA
ATOM     19  H   UNL     1       3.299  -5.177  19.708  1.00  0.00     0.293 HD
ENDBRANCH  15  18
BRANCH  17  20
ATOM     20  O   UNL     1       1.850  -3.098  20.309  1.00  0.00    -0.504 OA
ATOM     21  H   UNL     1       1.181  -2.364  20.109  1.00  0.00     0.293 HD
ENDBRANCH  17  20
ENDBRANCH   1  12
BRANCH   2  22
ATOM     22  O   UNL     1       2.894  -2.976  26.091  1.00  0.00    -0.502 OA
ATOM     23  H   UNL     1       3.334  -3.736  26.597  1.00  0.00     0.293 HD
ENDBRANCH   2  22
BRANCH   9  24
ATOM     24  O   UNL     1      -4.664  -1.561  27.198  1.00  0.00    -0.508 OA
ATOM     25  H   UNL     1      -5.212  -1.601  28.050  1.00  0.00     0.293 HD
ENDBRANCH   9  24
TORSDOF 5
ENDMDL
MODEL 9
REMARK VINA RESULT:    -5.370      3.877      7.657
REMARK INTER + INTRA:          -6.629
REMARK INTER:                  -6.731
REMARK INTRA:                   0.102
REMARK UNBOUND:                -0.317
REMARK SMILES O=c1c(O)c(-c2ccc(O)c(O)c2)oc2cc(O)ccc12
REMARK SMILES IDX 5 1 3 2 2 3 1 4 21 5 15 6 14 7 16 8 17 9 19 10 20 11 6 12
REMARK SMILES IDX 7 13 8 14 9 15 13 16 11 17 10 18 12 20 4 22 18 24
REMARK H PARENT 10 19 12 21 4 23 18 25
REMARK Flexibility Score: inf
ROOT
ATOM      1  C   UNL     1       0.689  -3.544  25.102  1.00  0.00     0.180 A 
ATOM      2  C   UNL     1      -0.622  -3.147  25.436  1.00  0.00     0.208 A 
ATOM      3  C   UNL     1      -0.955  -2.985  26.790  1.00  0.00     0.235 A 
ATOM      4  O   UNL     1      -2.125  -2.640  27.115  1.00  0.00    -0.285 OA
ATOM      5  C   UNL     1       0.024  -3.201  27.773  1.00  0.00     0.069 A 
ATOM      6  C   UNL     1       1.320  -3.573  27.355  1.00  0.00     0.142 A 
ATOM      7  O   UNL     1       1.592  -3.725  26.064  1.00  0.00    -0.452 OA
ATOM      8  C   UNL     1       2.326  -3.787  28.304  1.00  0.00     0.094 A 
ATOM      9  C   UNL     1       2.054  -3.637  29.668  1.00  0.00     0.119 A 
ATOM     10  C   UNL     1       0.768  -3.268  30.086  1.00  0.00     0.047 A 
ATOM     11  C   UNL     1      -0.243  -3.051  29.145  1.00  0.00     0.020 A 
ENDROOT
BRANCH   1  12
ATOM     12  C   UNL     1       1.113  -3.754  23.699  1.00  0.00     0.025 A 
ATOM     13  C   UNL     1       1.888  -4.867  23.328  1.00  0.00     0.016 A 
ATOM     14  C   UNL     1       2.296  -5.032  22.002  1.00  0.00     0.051 A 
ATOM     15  C   UNL     1       1.951  -4.083  21.032  1.00  0.00     0.157 A 
ATOM     16  C   UNL     1       0.787  -2.794  22.727  1.00  0.00     0.062 A 
ATOM     17  C   UNL     1       1.194  -2.957  21.398  1.00  0.00     0.158 A 
BRANCH  15  18
ATOM     18  O   UNL     1       2.359  -4.252  19.709  1.00  0.00    -0.504 OA
ATOM     19  H   UNL     1       2.720  -3.479  19.163  1.00  0.00     0.293 HD
ENDBRANCH  15  18
BRANCH  17  20
ATOM     20  O   UNL     1       0.840  -1.990  20.457  1.00  0.00    -0.504 OA
ATOM     21  H   UNL     1       0.509  -1.072  20.728  1.00  0.00     0.293 HD
ENDBRANCH  17  20
ENDBRANCH   1  12
BRANCH   2  22
ATOM     22  O   UNL     1      -1.561  -2.892  24.434  1.00  0.00    -0.502 OA
ATOM     23  H   UNL     1      -2.357  -2.282  24.580  1.00  0.00     0.293 HD
ENDBRANCH   2  22
BRANCH   9  24
ATOM     24  O   UNL     1       3.067  -3.855  30.598  1.00  0.00    -0.508 OA
ATOM     25  H   UNL     1       3.345  -4.791  30.869  1.00  0.00     0.293 HD
ENDBRANCH   9  24
TORSDOF 5
ENDMDL
