MODEL 1
REMARK VINA RESULT:    -3.619      0.000      0.000
REMARK INTER + INTRA:          -5.795
REMARK INTER:                  -5.100
REMARK INTRA:                  -0.695
REMARK UNBOUND:                -0.695
REMARK SMILES CCCCCCCCC(=O)[O-]
REMARK SMILES IDX 6 1 7 2 8 3 9 4 10 5 11 6 5 7 4 8 3 9 2 10 1 11
REMARK H PARENT
REMARK Flexibility Score: inf
ROOT
ATOM      1  C   UNL     1     133.451 124.178 134.380  1.00  0.00     0.000 C 
ENDROOT
BRANCH   1   2
ATOM      2  C   UNL     1     132.695 123.118 133.564  1.00  0.00     0.006 C 
BRANCH   2   3
ATOM      3  C   UNL     1     131.552 122.510 134.381  1.00  0.00     0.053 C 
BRANCH   3   4
ATOM      4  C   UNL     1     131.646 121.017 134.384  1.00  0.00     0.041 C 
ATOM      5  O   UNL     1     132.478 120.436 135.130  1.00  0.00    -0.550 OA
ATOM      6  O   UNL     1     130.782 120.264 133.601  1.00  0.00    -0.550 OA
ENDBRANCH   3   4
ENDBRANCH   2   3
ENDBRANCH   1   2
BRANCH   1   7
ATOM      7  C   UNL     1     132.875 124.370 135.795  1.00  0.00     0.000 C 
BRANCH   7   8
ATOM      8  C   UNL     1     132.322 125.777 136.085  1.00  0.00    -0.000 C 
BRANCH   8   9
ATOM      9  C   UNL     1     131.864 126.512 134.814  1.00  0.00    -0.000 C 
BRANCH   9  10
ATOM     10  C   UNL     1     130.346 126.746 134.783  1.00  0.00    -0.003 C 
ATOM     11  C   UNL     1     129.569 125.505 134.344  1.00  0.00     0.004 C 
ENDBRANCH   9  10
ENDBRANCH   8   9
ENDBRANCH   7   8
ENDBRANCH   1   7
TORSDOF 7
ENDMDL
MODEL 2
REMARK VINA RESULT:    -3.286     16.251     17.499
REMARK INTER + INTRA:          -5.325
REMARK INTER:                  -5.118
REMARK INTRA:                  -0.207
REMARK UNBOUND:                -0.695
REMARK SMILES CCCCCCCCC(=O)[O-]
REMARK SMILES IDX 6 1 7 2 8 3 9 4 10 5 11 6 5 7 4 8 3 9 2 10 1 11
REMARK H PARENT
REMARK Flexibility Score: inf
ROOT
ATOM      1  C   UNL     1     127.001 120.504 117.760  1.00  0.00     0.000 C 
ENDROOT
BRANCH   1   2
ATOM      2  C   UNL     1     125.608 120.816 118.327  1.00  0.00     0.006 C 
BRANCH   2   3
ATOM      3  C   UNL     1     124.750 121.554 117.297  1.00  0.00     0.053 C 
BRANCH   3   4
ATOM      4  C   UNL     1     123.429 121.932 117.890  1.00  0.00     0.041 C 
ATOM      5  O   UNL     1     122.794 121.107 118.599  1.00  0.00    -0.550 OA
ATOM      6  O   UNL     1     122.921 123.211 117.702  1.00  0.00    -0.550 OA
ENDBRANCH   3   4
ENDBRANCH   2   3
ENDBRANCH   1   2
BRANCH   1   7
ATOM      7  C   UNL     1     128.138 120.824 118.748  1.00  0.00     0.000 C 
BRANCH   7   8
ATOM      8  C   UNL     1     129.540 120.904 118.118  1.00  0.00    -0.000 C 
BRANCH   8   9
ATOM      9  C   UNL     1     130.639 121.231 119.144  1.00  0.00    -0.000 C 
BRANCH   9  10
ATOM     10  C   UNL     1     130.131 122.123 120.288  1.00  0.00    -0.003 C 
ATOM     11  C   UNL     1     131.175 123.138 120.751  1.00  0.00     0.004 C 
ENDBRANCH   9  10
ENDBRANCH   8   9
ENDBRANCH   7   8
ENDBRANCH   1   7
TORSDOF 7
ENDMDL
MODEL 3
REMARK VINA RESULT:    -3.220      3.267      4.734
REMARK INTER + INTRA:          -5.233
REMARK INTER:                  -4.494
REMARK INTRA:                  -0.739
REMARK UNBOUND:                -0.695
REMARK SMILES CCCCCCCCC(=O)[O-]
REMARK SMILES IDX 6 1 7 2 8 3 9 4 10 5 11 6 5 7 4 8 3 9 2 10 1 11
REMARK H PARENT
REMARK Flexibility Score: inf
ROOT
ATOM      1  C   UNL     1     131.563 126.421 134.599  1.00  0.00     0.000 C 
ENDROOT
BRANCH   1   2
ATOM      2  C   UNL     1     130.253 125.946 135.244  1.00  0.00     0.006 C 
BRANCH   2   3
ATOM      3  C   UNL     1     129.287 125.403 134.187  1.00  0.00     0.053 C 
BRANCH   3   4
ATOM      4  C   UNL     1     128.378 126.487 133.702  1.00  0.00     0.041 C 
ATOM      5  O   UNL     1     128.055 127.433 134.468  1.00  0.00    -0.550 OA
ATOM      6  O   UNL     1     127.925 126.481 132.389  1.00  0.00    -0.550 OA
ENDBRANCH   3   4
ENDBRANCH   2   3
ENDBRANCH   1   2
BRANCH   1   7
ATOM      7  C   UNL     1     132.811 126.017 135.406  1.00  0.00     0.000 C 
BRANCH   7   8
ATOM      8  C   UNL     1     133.095 124.505 135.448  1.00  0.00    -0.000 C 
BRANCH   8   9
ATOM      9  C   UNL     1     133.451 123.925 134.069  1.00  0.00    -0.000 C 
BRANCH   9  10
ATOM     10  C   UNL     1     132.383 122.955 133.543  1.00  0.00    -0.003 C 
ATOM     11  C   UNL     1     131.534 122.350 134.662  1.00  0.00     0.004 C 
ENDBRANCH   9  10
ENDBRANCH   8   9
ENDBRANCH   7   8
ENDBRANCH   1   7
TORSDOF 7
ENDMDL
MODEL 4
REMARK VINA RESULT:    -3.204      1.171      1.717
REMARK INTER + INTRA:          -5.210
REMARK INTER:                  -4.672
REMARK INTRA:                  -0.538
REMARK UNBOUND:                -0.695
REMARK SMILES CCCCCCCCC(=O)[O-]
REMARK SMILES IDX 6 1 7 2 8 3 9 4 10 5 11 6 5 7 4 8 3 9 2 10 1 11
REMARK H PARENT
REMARK Flexibility Score: inf
ROOT
ATOM      1  C   UNL     1     132.568 123.040 133.573  1.00  0.00     0.000 C 
ENDROOT
BRANCH   1   2
ATOM      2  C   UNL     1     131.699 122.260 134.570  1.00  0.00     0.006 C 
BRANCH   2   3
ATOM      3  C   UNL     1     131.715 120.761 134.255  1.00  0.00     0.053 C 
BRANCH   3   4
ATOM      4  C   UNL     1     130.341 120.286 133.902  1.00  0.00     0.041 C 
ATOM      5  O   UNL     1     130.191 119.277 133.163  1.00  0.00    -0.550 OA
ATOM      6  O   UNL     1     129.226 120.926 134.426  1.00  0.00    -0.550 OA
ENDBRANCH   3   4
ENDBRANCH   2   3
ENDBRANCH   1   2
BRANCH   1   7
ATOM      7  C   UNL     1     133.442 124.113 134.248  1.00  0.00     0.000 C 
BRANCH   7   8
ATOM      8  C   UNL     1     132.876 124.677 135.564  1.00  0.00    -0.000 C 
BRANCH   8   9
ATOM      9  C   UNL     1     132.555 126.179 135.482  1.00  0.00    -0.000 C 
BRANCH   9  10
ATOM     10  C   UNL     1     131.321 126.471 134.615  1.00  0.00    -0.003 C 
ATOM     11  C   UNL     1     130.106 125.636 135.019  1.00  0.00     0.004 C 
ENDBRANCH   9  10
ENDBRANCH   8   9
ENDBRANCH   7   8
ENDBRANCH   1   7
TORSDOF 7
ENDMDL
MODEL 5
REMARK VINA RESULT:    -3.195     16.346     17.428
REMARK INTER + INTRA:          -5.197
REMARK INTER:                  -4.778
REMARK INTRA:                  -0.419
REMARK UNBOUND:                -0.695
REMARK SMILES CCCCCCCCC(=O)[O-]
REMARK SMILES IDX 6 1 7 2 8 3 9 4 10 5 11 6 5 7 4 8 3 9 2 10 1 11
REMARK H PARENT
REMARK Flexibility Score: inf
ROOT
ATOM      1  C   UNL     1     126.680 120.829 117.725  1.00  0.00     0.000 C 
ENDROOT
BRANCH   1   2
ATOM      2  C   UNL     1     127.507 120.709 119.013  1.00  0.00     0.006 C 
BRANCH   2   3
ATOM      3  C   UNL     1     129.001 120.870 118.723  1.00  0.00     0.053 C 
BRANCH   3   4
ATOM      4  C   UNL     1     129.667 121.642 119.818  1.00  0.00     0.041 C 
ATOM      5  O   UNL     1     129.006 122.013 120.824  1.00  0.00    -0.550 OA
ATOM      6  O   UNL     1     131.028 121.911 119.752  1.00  0.00    -0.550 OA
ENDBRANCH   3   4
ENDBRANCH   2   3
ENDBRANCH   1   2
BRANCH   1   7
ATOM      7  C   UNL     1     125.465 119.883 117.698  1.00  0.00     0.000 C 
BRANCH   7   8
ATOM      8  C   UNL     1     124.148 120.532 117.236  1.00  0.00    -0.000 C 
BRANCH   8   9
ATOM      9  C   UNL     1     124.290 122.036 116.952  1.00  0.00    -0.000 C 
BRANCH   9  10
ATOM     10  C   UNL     1     123.280 122.883 117.740  1.00  0.00    -0.003 C 
ATOM     11  C   UNL     1     123.405 122.693 119.252  1.00  0.00     0.004 C 
ENDBRANCH   9  10
ENDBRANCH   8   9
ENDBRANCH   7   8
ENDBRANCH   1   7
TORSDOF 7
ENDMDL
MODEL 6
REMARK VINA RESULT:    -3.154     16.027     17.119
REMARK INTER + INTRA:          -5.139
REMARK INTER:                  -4.792
REMARK INTRA:                  -0.347
REMARK UNBOUND:                -0.695
REMARK SMILES CCCCCCCCC(=O)[O-]
REMARK SMILES IDX 6 1 7 2 8 3 9 4 10 5 11 6 5 7 4 8 3 9 2 10 1 11
REMARK H PARENT
REMARK Flexibility Score: inf
ROOT
ATOM      1  C   UNL     1     128.962 119.496 117.982  1.00  0.00     0.000 C 
ENDROOT
BRANCH   1   2
ATOM      2  C   UNL     1     129.679 120.854 117.976  1.00  0.00     0.006 C 
BRANCH   2   3
ATOM      3  C   UNL     1     130.663 120.959 119.144  1.00  0.00     0.053 C 
BRANCH   3   4
ATOM      4  C   UNL     1     130.190 121.974 120.137  1.00  0.00     0.041 C 
ATOM      5  O   UNL     1     130.947 122.918 120.487  1.00  0.00    -0.550 OA
ATOM      6  O   UNL     1     128.897 121.907 120.638  1.00  0.00    -0.550 OA
ENDBRANCH   3   4
ENDBRANCH   2   3
ENDBRANCH   1   2
BRANCH   1   7
ATOM      7  C   UNL     1     127.454 119.613 118.274  1.00  0.00     0.000 C 
BRANCH   7   8
ATOM      8  C   UNL     1     126.804 120.927 117.805  1.00  0.00    -0.000 C 
BRANCH   8   9
ATOM      9  C   UNL     1     125.272 120.833 117.704  1.00  0.00    -0.000 C 
BRANCH   9  10
ATOM     10  C   UNL     1     124.662 121.994 116.904  1.00  0.00    -0.003 C 
ATOM     11  C   UNL     1     123.442 122.606 117.591  1.00  0.00     0.004 C 
ENDBRANCH   9  10
ENDBRANCH   8   9
ENDBRANCH   7   8
ENDBRANCH   1   7
TORSDOF 7
ENDMDL
MODEL 7
REMARK VINA RESULT:    -3.153      3.025      5.094
REMARK INTER + INTRA:          -5.138
REMARK INTER:                  -4.802
REMARK INTRA:                  -0.336
REMARK UNBOUND:                -0.695
REMARK SMILES CCCCCCCCC(=O)[O-]
REMARK SMILES IDX 6 1 7 2 8 3 9 4 10 5 11 6 5 7 4 8 3 9 2 10 1 11
REMARK H PARENT
REMARK Flexibility Score: inf
ROOT
ATOM      1  C   UNL     1     133.318 123.394 133.831  1.00  0.00     0.000 C 
ENDROOT
BRANCH   1   2
ATOM      2  C   UNL     1     133.484 124.611 134.752  1.00  0.00     0.006 C 
BRANCH   2   3
ATOM      3  C   UNL     1     132.175 124.931 135.479  1.00  0.00     0.053 C 
BRANCH   3   4
ATOM      4  C   UNL     1     131.608 126.227 134.992  1.00  0.00     0.041 C 
ATOM      5  O   UNL     1     132.183 127.313 135.268  1.00  0.00    -0.550 OA
ATOM      6  O   UNL     1     130.472 126.233 134.193  1.00  0.00    -0.550 OA
ENDBRANCH   3   4
ENDBRANCH   2   3
ENDBRANCH   1   2
BRANCH   1   7
ATOM      7  C   UNL     1     131.864 122.891 133.755  1.00  0.00     0.000 C 
BRANCH   7   8
ATOM      8  C   UNL     1     131.692 121.374 133.945  1.00  0.00    -0.000 C 
BRANCH   8   9
ATOM      9  C   UNL     1     131.542 120.970 135.422  1.00  0.00    -0.000 C 
BRANCH   9  10
ATOM     10  C   UNL     1     130.384 119.986 135.649  1.00  0.00    -0.003 C 
ATOM     11  C   UNL     1     130.865 118.552 135.875  1.00  0.00     0.004 C 
ENDBRANCH   9  10
ENDBRANCH   8   9
ENDBRANCH   7   8
ENDBRANCH   1   7
TORSDOF 7
ENDMDL
MODEL 8
REMARK VINA RESULT:    -3.058     14.398     15.689
REMARK INTER + INTRA:          -5.004
REMARK INTER:                  -4.290
REMARK INTRA:                  -0.714
REMARK UNBOUND:                -0.695
REMARK SMILES CCCCCCCCC(=O)[O-]
REMARK SMILES IDX 6 1 7 2 8 3 9 4 10 5 11 6 5 7 4 8 3 9 2 10 1 11
REMARK H PARENT
REMARK Flexibility Score: inf
ROOT
ATOM      1  C   UNL     1     130.838 120.367 117.801  1.00  0.00     0.000 C 
ENDROOT
BRANCH   1   2
ATOM      2  C   UNL     1     129.370 119.987 118.047  1.00  0.00     0.006 C 
BRANCH   2   3
ATOM      3  C   UNL     1     128.652 121.071 118.855  1.00  0.00     0.053 C 
BRANCH   3   4
ATOM      4  C   UNL     1     127.920 120.465 120.011  1.00  0.00     0.041 C 
ATOM      5  O   UNL     1     128.443 120.454 121.156  1.00  0.00    -0.550 OA
ATOM      6  O   UNL     1     126.640 119.956 119.835  1.00  0.00    -0.550 OA
ENDBRANCH   3   4
ENDBRANCH   2   3
ENDBRANCH   1   2
BRANCH   1   7
ATOM      7  C   UNL     1     131.825 119.517 118.622  1.00  0.00     0.000 C 
BRANCH   7   8
ATOM      8  C   UNL     1     132.761 120.320 119.543  1.00  0.00    -0.000 C 
BRANCH   8   9
ATOM      9  C   UNL     1     132.016 121.009 120.699  1.00  0.00    -0.000 C 
BRANCH   9  10
ATOM     10  C   UNL     1     132.162 122.538 120.665  1.00  0.00    -0.003 C 
ATOM     11  C   UNL     1     130.845 123.261 120.947  1.00  0.00     0.004 C 
ENDBRANCH   9  10
ENDBRANCH   8   9
ENDBRANCH   7   8
ENDBRANCH   1   7
TORSDOF 7
ENDMDL
MODEL 9
REMARK VINA RESULT:    -2.999      1.933      3.226
REMARK INTER + INTRA:          -4.921
REMARK INTER:                  -4.355
REMARK INTRA:                  -0.566
REMARK UNBOUND:                -0.695
REMARK SMILES CCCCCCCCC(=O)[O-]
REMARK SMILES IDX 6 1 7 2 8 3 9 4 10 5 11 6 5 7 4 8 3 9 2 10 1 11
REMARK H PARENT
REMARK Flexibility Score: inf
ROOT
ATOM      1  C   UNL     1     131.567 126.420 134.620  1.00  0.00     0.000 C 
ENDROOT
BRANCH   1   2
ATOM      2  C   UNL     1     132.498 125.790 135.666  1.00  0.00     0.006 C 
BRANCH   2   3
ATOM      3  C   UNL     1     132.425 124.261 135.614  1.00  0.00     0.053 C 
BRANCH   3   4
ATOM      4  C   UNL     1     132.864 123.761 134.273  1.00  0.00     0.041 C 
ATOM      5  O   UNL     1     134.047 123.949 133.884  1.00  0.00    -0.550 OA
ATOM      6  O   UNL     1     131.982 123.046 133.475  1.00  0.00    -0.550 OA
ENDBRANCH   3   4
ENDBRANCH   2   3
ENDBRANCH   1   2
BRANCH   1   7
ATOM      7  C   UNL     1     130.243 126.927 135.222  1.00  0.00     0.000 C 
BRANCH   7   8
ATOM      8  C   UNL     1     129.158 125.851 135.400  1.00  0.00    -0.000 C 
BRANCH   8   9
ATOM      9  C   UNL     1     128.994 124.955 134.160  1.00  0.00    -0.000 C 
BRANCH   9  10
ATOM     10  C   UNL     1     127.673 125.211 133.419  1.00  0.00    -0.003 C 
ATOM     11  C   UNL     1     127.734 126.442 132.514  1.00  0.00     0.004 C 
ENDBRANCH   9  10
ENDBRANCH   8   9
ENDBRANCH   7   8
ENDBRANCH   1   7
TORSDOF 7
ENDMDL
