MODEL 1
REMARK VINA RESULT:    -4.006      0.000      0.000
REMARK INTER + INTRA:         -14.632
REMARK INTER:                 -10.096
REMARK INTRA:                  -4.537
REMARK UNBOUND:                -4.537
REMARK SMILES CCCCCCCCCCCCCCCCCCCCCCCCCCCC(=O)[O-]
REMARK SMILES IDX 15 1 16 2 17 3 18 4 19 5 20 6 21 7 22 8 23 9 24 10 25 11
REMARK SMILES IDX 26 12 27 13 28 14 29 15 30 16 14 17 13 18 12 19 11 20 10 21
REMARK SMILES IDX 9 22 8 23 7 24 6 25 5 26 4 27 3 28 2 29 1 30
REMARK H PARENT
REMARK Flexibility Score: inf
ROOT
ATOM      1  C   UNL     1      11.638  32.594   7.880  1.00  0.00     0.000 C 
ENDROOT
BRANCH   1   2
ATOM      2  C   UNL     1      12.339  32.880   9.220  1.00  0.00     0.000 C 
BRANCH   2   3
ATOM      3  C   UNL     1      12.029  31.821  10.296  1.00  0.00     0.000 C 
BRANCH   3   4
ATOM      4  C   UNL     1      10.589  31.871  10.839  1.00  0.00     0.000 C 
BRANCH   4   5
ATOM      5  C   UNL     1       9.862  30.518  10.754  1.00  0.00     0.000 C 
BRANCH   5   6
ATOM      6  C   UNL     1       8.431  30.652  10.212  1.00  0.00     0.000 C 
BRANCH   6   7
ATOM      7  C   UNL     1       8.344  30.361   8.705  1.00  0.00     0.000 C 
BRANCH   7   8
ATOM      8  C   UNL     1       9.557  29.568   8.181  1.00  0.00     0.000 C 
BRANCH   8   9
ATOM      9  C   UNL     1       9.936  29.854   6.715  1.00  0.00     0.000 C 
BRANCH   9  10
ATOM     10  C   UNL     1       8.715  30.134   5.824  1.00  0.00     0.000 C 
BRANCH  10  11
ATOM     11  C   UNL     1       9.114  30.942   4.580  1.00  0.00     0.000 C 
BRANCH  11  12
ATOM     12  C   UNL     1       8.990  30.135   3.273  1.00  0.00     0.006 C 
BRANCH  12  13
ATOM     13  C   UNL     1       8.405  28.724   3.466  1.00  0.00     0.053 C 
BRANCH  13  14
ATOM     14  C   UNL     1       8.855  27.769   2.402  1.00  0.00     0.041 C 
ATOM     15  O   UNL     1       8.489  26.564   2.433  1.00  0.00    -0.550 OA
ATOM     16  O   UNL     1       9.711  28.201   1.398  1.00  0.00    -0.550 OA
ENDBRANCH  13  14
ENDBRANCH  12  13
ENDBRANCH  11  12
ENDBRANCH  10  11
ENDBRANCH   9  10
ENDBRANCH   8   9
ENDBRANCH   7   8
ENDBRANCH   6   7
ENDBRANCH   5   6
ENDBRANCH   4   5
ENDBRANCH   3   4
ENDBRANCH   2   3
ENDBRANCH   1   2
BRANCH   1  17
ATOM     17  C   UNL     1      10.797  33.791   7.401  1.00  0.00     0.000 C 
BRANCH  17  18
ATOM     18  C   UNL     1       9.539  33.989   8.262  1.00  0.00     0.000 C 
BRANCH  18  19
ATOM     19  C   UNL     1       8.270  33.628   7.477  1.00  0.00     0.000 C 
BRANCH  19  20
ATOM     20  C   UNL     1       6.974  33.898   8.268  1.00  0.00     0.000 C 
BRANCH  20  21
ATOM     21  C   UNL     1       6.018  34.929   7.632  1.00  0.00     0.000 C 
BRANCH  21  22
ATOM     22  C   UNL     1       5.186  34.384   6.454  1.00  0.00    -0.000 C 
BRANCH  22  23
ATOM     23  C   UNL     1       5.249  35.297   5.218  1.00  0.00    -0.000 C 
BRANCH  23  24
ATOM     24  C   UNL     1       4.010  35.144   4.315  1.00  0.00    -0.000 C 
BRANCH  24  25
ATOM     25  C   UNL     1       4.166  34.083   3.203  1.00  0.00    -0.000 C 
BRANCH  25  26
ATOM     26  C   UNL     1       5.568  34.014   2.565  1.00  0.00    -0.000 C 
BRANCH  26  27
ATOM     27  C   UNL     1       6.242  32.643   2.749  1.00  0.00    -0.000 C 
BRANCH  27  28
ATOM     28  C   UNL     1       5.270  31.467   2.544  1.00  0.00    -0.000 C 
BRANCH  28  29
ATOM     29  C   UNL     1       5.271  30.424   3.678  1.00  0.00    -0.003 C 
ATOM     30  C   UNL     1       4.934  31.026   5.044  1.00  0.00     0.004 C 
ENDBRANCH  28  29
ENDBRANCH  27  28
ENDBRANCH  26  27
ENDBRANCH  25  26
ENDBRANCH  24  25
ENDBRANCH  23  24
ENDBRANCH  22  23
ENDBRANCH  21  22
ENDBRANCH  20  21
ENDBRANCH  19  20
ENDBRANCH  18  19
ENDBRANCH  17  18
ENDBRANCH   1  17
TORSDOF 26
ENDMDL
MODEL 2
REMARK VINA RESULT:    -3.980      2.417      5.922
REMARK INTER + INTRA:         -14.567
REMARK INTER:                  -9.788
REMARK INTRA:                  -4.779
REMARK UNBOUND:                -4.537
REMARK SMILES CCCCCCCCCCCCCCCCCCCCCCCCCCCC(=O)[O-]
REMARK SMILES IDX 15 1 16 2 17 3 18 4 19 5 20 6 21 7 22 8 23 9 24 10 25 11
REMARK SMILES IDX 26 12 27 13 28 14 29 15 30 16 14 17 13 18 12 19 11 20 10 21
REMARK SMILES IDX 9 22 8 23 7 24 6 25 5 26 4 27 3 28 2 29 1 30
REMARK H PARENT
REMARK Flexibility Score: inf
ROOT
ATOM      1  C   UNL     1       8.947  30.162   7.982  1.00  0.00     0.000 C 
ENDROOT
BRANCH   1   2
ATOM      2  C   UNL     1      10.063  29.913   6.952  1.00  0.00     0.000 C 
BRANCH   2   3
ATOM      3  C   UNL     1      10.680  31.218   6.410  1.00  0.00     0.000 C 
BRANCH   3   4
ATOM      4  C   UNL     1      11.092  32.225   7.500  1.00  0.00     0.000 C 
BRANCH   4   5
ATOM      5  C   UNL     1      10.581  33.651   7.231  1.00  0.00     0.000 C 
BRANCH   5   6
ATOM      6  C   UNL     1       9.489  34.081   8.224  1.00  0.00     0.000 C 
BRANCH   6   7
ATOM      7  C   UNL     1       8.074  33.785   7.704  1.00  0.00     0.000 C 
BRANCH   7   8
ATOM      8  C   UNL     1       6.973  34.243   8.681  1.00  0.00     0.000 C 
BRANCH   8   9
ATOM      9  C   UNL     1       5.643  34.647   8.017  1.00  0.00     0.000 C 
BRANCH   9  10
ATOM     10  C   UNL     1       5.576  34.268   6.529  1.00  0.00     0.000 C 
BRANCH  10  11
ATOM     11  C   UNL     1       4.202  34.612   5.934  1.00  0.00     0.000 C 
BRANCH  11  12
ATOM     12  C   UNL     1       4.288  35.144   4.490  1.00  0.00     0.006 C 
BRANCH  12  13
ATOM     13  C   UNL     1       5.661  34.926   3.828  1.00  0.00     0.053 C 
BRANCH  13  14
ATOM     14  C   UNL     1       5.561  34.144   2.553  1.00  0.00     0.041 C 
ATOM     15  O   UNL     1       4.706  33.226   2.435  1.00  0.00    -0.550 OA
ATOM     16  O   UNL     1       6.440  34.402   1.509  1.00  0.00    -0.550 OA
ENDBRANCH  13  14
ENDBRANCH  12  13
ENDBRANCH  11  12
ENDBRANCH  10  11
ENDBRANCH   9  10
ENDBRANCH   8   9
ENDBRANCH   7   8
ENDBRANCH   6   7
ENDBRANCH   5   6
ENDBRANCH   4   5
ENDBRANCH   3   4
ENDBRANCH   2   3
ENDBRANCH   1   2
BRANCH   1  17
ATOM     17  C   UNL     1       7.696  29.313   7.695  1.00  0.00     0.000 C 
BRANCH  17  18
ATOM     18  C   UNL     1       6.478  30.184   7.349  1.00  0.00     0.000 C 
BRANCH  18  19
ATOM     19  C   UNL     1       5.955  29.870   5.940  1.00  0.00     0.000 C 
BRANCH  19  20
ATOM     20  C   UNL     1       5.939  31.103   5.014  1.00  0.00     0.000 C 
BRANCH  20  21
ATOM     21  C   UNL     1       7.330  31.638   4.607  1.00  0.00     0.000 C 
BRANCH  21  22
ATOM     22  C   UNL     1       7.868  31.066   3.281  1.00  0.00    -0.000 C 
BRANCH  22  23
ATOM     23  C   UNL     1       8.959  30.004   3.499  1.00  0.00    -0.000 C 
BRANCH  23  24
ATOM     24  C   UNL     1       8.386  28.575   3.523  1.00  0.00    -0.000 C 
BRANCH  24  25
ATOM     25  C   UNL     1       7.117  28.387   2.661  1.00  0.00    -0.000 C 
BRANCH  25  26
ATOM     26  C   UNL     1       6.636  26.928   2.526  1.00  0.00    -0.000 C 
BRANCH  26  27
ATOM     27  C   UNL     1       7.796  25.922   2.436  1.00  0.00    -0.000 C 
BRANCH  27  28
ATOM     28  C   UNL     1       8.473  25.911   1.053  1.00  0.00    -0.000 C 
BRANCH  28  29
ATOM     29  C   UNL     1       9.994  26.150   1.078  1.00  0.00    -0.003 C 
ATOM     30  C   UNL     1      10.385  27.557   0.623  1.00  0.00     0.004 C 
ENDBRANCH  28  29
ENDBRANCH  27  28
ENDBRANCH  26  27
ENDBRANCH  25  26
ENDBRANCH  24  25
ENDBRANCH  23  24
ENDBRANCH  22  23
ENDBRANCH  21  22
ENDBRANCH  20  21
ENDBRANCH  19  20
ENDBRANCH  18  19
ENDBRANCH  17  18
ENDBRANCH   1  17
TORSDOF 26
ENDMDL
MODEL 3
REMARK VINA RESULT:    -3.979      2.629      5.624
REMARK INTER + INTRA:         -14.563
REMARK INTER:                  -9.722
REMARK INTRA:                  -4.841
REMARK UNBOUND:                -4.537
REMARK SMILES CCCCCCCCCCCCCCCCCCCCCCCCCCCC(=O)[O-]
REMARK SMILES IDX 15 1 16 2 17 3 18 4 19 5 20 6 21 7 22 8 23 9 24 10 25 11
REMARK SMILES IDX 26 12 27 13 28 14 29 15 30 16 14 17 13 18 12 19 11 20 10 21
REMARK SMILES IDX 9 22 8 23 7 24 6 25 5 26 4 27 3 28 2 29 1 30
REMARK H PARENT
REMARK Flexibility Score: inf
ROOT
ATOM      1  C   UNL     1       9.486  31.745   6.637  1.00  0.00     0.000 C 
ENDROOT
BRANCH   1   2
ATOM      2  C   UNL     1      10.530  32.872   6.558  1.00  0.00     0.000 C 
BRANCH   2   3
ATOM      3  C   UNL     1      10.243  34.026   7.539  1.00  0.00     0.000 C 
BRANCH   3   4
ATOM      4  C   UNL     1      11.210  34.097   8.734  1.00  0.00     0.000 C 
BRANCH   4   5
ATOM      5  C   UNL     1      11.975  32.783   8.974  1.00  0.00     0.000 C 
BRANCH   5   6
ATOM      6  C   UNL     1      11.345  31.931  10.087  1.00  0.00     0.000 C 
BRANCH   6   7
ATOM      7  C   UNL     1      10.145  32.626  10.750  1.00  0.00     0.000 C 
BRANCH   7   8
ATOM      8  C   UNL     1       8.809  31.917  10.454  1.00  0.00     0.000 C 
BRANCH   8   9
ATOM      9  C   UNL     1       7.572  32.834  10.458  1.00  0.00     0.000 C 
BRANCH   9  10
ATOM     10  C   UNL     1       6.970  33.035   9.058  1.00  0.00     0.000 C 
BRANCH  10  11
ATOM     11  C   UNL     1       6.975  34.520   8.663  1.00  0.00     0.000 C 
BRANCH  11  12
ATOM     12  C   UNL     1       5.929  34.859   7.584  1.00  0.00     0.006 C 
BRANCH  12  13
ATOM     13  C   UNL     1       5.877  33.843   6.428  1.00  0.00     0.053 C 
BRANCH  13  14
ATOM     14  C   UNL     1       5.413  34.464   5.144  1.00  0.00     0.041 C 
ATOM     15  O   UNL     1       4.744  35.531   5.159  1.00  0.00    -0.550 OA
ATOM     16  O   UNL     1       5.684  33.840   3.933  1.00  0.00    -0.550 OA
ENDBRANCH  13  14
ENDBRANCH  12  13
ENDBRANCH  11  12
ENDBRANCH  10  11
ENDBRANCH   9  10
ENDBRANCH   8   9
ENDBRANCH   7   8
ENDBRANCH   6   7
ENDBRANCH   5   6
ENDBRANCH   4   5
ENDBRANCH   3   4
ENDBRANCH   2   3
ENDBRANCH   1   2
BRANCH   1  17
ATOM     17  C   UNL     1      10.140  30.353   6.677  1.00  0.00     0.000 C 
BRANCH  17  18
ATOM     18  C   UNL     1       9.466  29.431   7.705  1.00  0.00     0.000 C 
BRANCH  18  19
ATOM     19  C   UNL     1       7.950  29.669   7.751  1.00  0.00     0.000 C 
BRANCH  19  20
ATOM     20  C   UNL     1       7.143  28.552   7.058  1.00  0.00     0.000 C 
BRANCH  20  21
ATOM     21  C   UNL     1       6.008  29.038   6.132  1.00  0.00     0.000 C 
BRANCH  21  22
ATOM     22  C   UNL     1       6.306  30.361   5.400  1.00  0.00    -0.000 C 
BRANCH  22  23
ATOM     23  C   UNL     1       6.372  30.187   3.873  1.00  0.00    -0.000 C 
BRANCH  23  24
ATOM     24  C   UNL     1       7.609  30.870   3.260  1.00  0.00    -0.000 C 
BRANCH  24  25
ATOM     25  C   UNL     1       8.907  30.040   3.367  1.00  0.00    -0.000 C 
BRANCH  25  26
ATOM     26  C   UNL     1       8.703  28.511   3.338  1.00  0.00    -0.000 C 
BRANCH  26  27
ATOM     27  C   UNL     1       8.573  27.952   1.911  1.00  0.00    -0.000 C 
BRANCH  27  28
ATOM     28  C   UNL     1       9.918  27.898   1.165  1.00  0.00    -0.000 C 
BRANCH  28  29
ATOM     29  C   UNL     1      10.149  26.615   0.343  1.00  0.00    -0.003 C 
ATOM     30  C   UNL     1       9.964  25.338   1.165  1.00  0.00     0.004 C 
ENDBRANCH  28  29
ENDBRANCH  27  28
ENDBRANCH  26  27
ENDBRANCH  25  26
ENDBRANCH  24  25
ENDBRANCH  23  24
ENDBRANCH  22  23
ENDBRANCH  21  22
ENDBRANCH  20  21
ENDBRANCH  19  20
ENDBRANCH  18  19
ENDBRANCH  17  18
ENDBRANCH   1  17
TORSDOF 26
ENDMDL
MODEL 4
REMARK VINA RESULT:    -3.914      3.427      5.963
REMARK INTER + INTRA:         -14.400
REMARK INTER:                  -8.970
REMARK INTRA:                  -5.430
REMARK UNBOUND:                -4.537
REMARK SMILES CCCCCCCCCCCCCCCCCCCCCCCCCCCC(=O)[O-]
REMARK SMILES IDX 15 1 16 2 17 3 18 4 19 5 20 6 21 7 22 8 23 9 24 10 25 11
REMARK SMILES IDX 26 12 27 13 28 14 29 15 30 16 14 17 13 18 12 19 11 20 10 21
REMARK SMILES IDX 9 22 8 23 7 24 6 25 5 26 4 27 3 28 2 29 1 30
REMARK H PARENT
REMARK Flexibility Score: inf
ROOT
ATOM      1  C   UNL     1       8.275  30.365   7.063  1.00  0.00     0.000 C 
ENDROOT
BRANCH   1   2
ATOM      2  C   UNL     1       8.621  30.060   8.531  1.00  0.00     0.000 C 
BRANCH   2   3
ATOM      3  C   UNL     1      10.111  30.288   8.855  1.00  0.00     0.000 C 
BRANCH   3   4
ATOM      4  C   UNL     1      10.363  31.208  10.063  1.00  0.00     0.000 C 
BRANCH   4   5
ATOM      5  C   UNL     1      11.278  32.401   9.736  1.00  0.00     0.000 C 
BRANCH   5   6
ATOM      6  C   UNL     1      11.626  32.483   8.242  1.00  0.00     0.000 C 
BRANCH   6   7
ATOM      7  C   UNL     1      10.957  33.681   7.549  1.00  0.00     0.000 C 
BRANCH   7   8
ATOM      8  C   UNL     1       9.821  34.296   8.388  1.00  0.00     0.000 C 
BRANCH   8   9
ATOM      9  C   UNL     1       8.401  33.859   7.980  1.00  0.00     0.000 C 
BRANCH   9  10
ATOM     10  C   UNL     1       7.468  33.654   9.184  1.00  0.00     0.000 C 
BRANCH  10  11
ATOM     11  C   UNL     1       6.184  32.920   8.768  1.00  0.00     0.000 C 
BRANCH  11  12
ATOM     12  C   UNL     1       5.015  33.150   9.746  1.00  0.00     0.006 C 
BRANCH  12  13
ATOM     13  C   UNL     1       4.676  34.635   9.972  1.00  0.00     0.053 C 
BRANCH  13  14
ATOM     14  C   UNL     1       3.462  35.065   9.205  1.00  0.00     0.041 C 
ATOM     15  O   UNL     1       3.242  34.606   8.052  1.00  0.00    -0.550 OA
ATOM     16  O   UNL     1       2.595  36.006   9.747  1.00  0.00    -0.550 OA
ENDBRANCH  13  14
ENDBRANCH  12  13
ENDBRANCH  11  12
ENDBRANCH  10  11
ENDBRANCH   9  10
ENDBRANCH   8   9
ENDBRANCH   7   8
ENDBRANCH   6   7
ENDBRANCH   5   6
ENDBRANCH   4   5
ENDBRANCH   3   4
ENDBRANCH   2   3
ENDBRANCH   1   2
BRANCH   1  17
ATOM     17  C   UNL     1       9.451  30.064   6.117  1.00  0.00     0.000 C 
BRANCH  17  18
ATOM     18  C   UNL     1       9.808  31.277   5.243  1.00  0.00     0.000 C 
BRANCH  18  19
ATOM     19  C   UNL     1       9.339  31.072   3.795  1.00  0.00     0.000 C 
BRANCH  19  20
ATOM     20  C   UNL     1       8.781  29.658   3.537  1.00  0.00     0.000 C 
BRANCH  20  21
ATOM     21  C   UNL     1       7.447  29.609   2.762  1.00  0.00     0.000 C 
BRANCH  21  22
ATOM     22  C   UNL     1       6.430  30.691   3.176  1.00  0.00    -0.000 C 
BRANCH  22  23
ATOM     23  C   UNL     1       5.680  30.330   4.469  1.00  0.00    -0.000 C 
BRANCH  23  24
ATOM     24  C   UNL     1       5.352  31.571   5.320  1.00  0.00    -0.000 C 
BRANCH  24  25
ATOM     25  C   UNL     1       6.245  32.796   5.022  1.00  0.00    -0.000 C 
BRANCH  25  26
ATOM     26  C   UNL     1       5.602  34.160   5.347  1.00  0.00    -0.000 C 
BRANCH  26  27
ATOM     27  C   UNL     1       4.992  34.842   4.111  1.00  0.00    -0.000 C 
BRANCH  27  28
ATOM     28  C   UNL     1       5.632  34.374   2.791  1.00  0.00    -0.000 C 
BRANCH  28  29
ATOM     29  C   UNL     1       4.691  33.582   1.864  1.00  0.00    -0.003 C 
ATOM     30  C   UNL     1       3.214  33.762   2.216  1.00  0.00     0.004 C 
ENDBRANCH  28  29
ENDBRANCH  27  28
ENDBRANCH  26  27
ENDBRANCH  25  26
ENDBRANCH  24  25
ENDBRANCH  23  24
ENDBRANCH  22  23
ENDBRANCH  21  22
ENDBRANCH  20  21
ENDBRANCH  19  20
ENDBRANCH  18  19
ENDBRANCH  17  18
ENDBRANCH   1  17
TORSDOF 26
ENDMDL
MODEL 5
REMARK VINA RESULT:    -3.898      1.553      2.945
REMARK INTER + INTRA:         -14.358
REMARK INTER:                  -9.225
REMARK INTRA:                  -5.134
REMARK UNBOUND:                -4.537
REMARK SMILES CCCCCCCCCCCCCCCCCCCCCCCCCCCC(=O)[O-]
REMARK SMILES IDX 15 1 16 2 17 3 18 4 19 5 20 6 21 7 22 8 23 9 24 10 25 11
REMARK SMILES IDX 26 12 27 13 28 14 29 15 30 16 14 17 13 18 12 19 11 20 10 21
REMARK SMILES IDX 9 22 8 23 7 24 6 25 5 26 4 27 3 28 2 29 1 30
REMARK H PARENT
REMARK Flexibility Score: inf
ROOT
ATOM      1  C   UNL     1      10.874  31.126   6.603  1.00  0.00     0.000 C 
ENDROOT
BRANCH   1   2
ATOM      2  C   UNL     1       9.899  30.005   7.004  1.00  0.00     0.000 C 
BRANCH   2   3
ATOM      3  C   UNL     1       9.348  30.174   8.434  1.00  0.00     0.000 C 
BRANCH   3   4
ATOM      4  C   UNL     1       7.828  29.967   8.555  1.00  0.00     0.000 C 
BRANCH   4   5
ATOM      5  C   UNL     1       7.278  28.921   7.570  1.00  0.00     0.000 C 
BRANCH   5   6
ATOM      6  C   UNL     1       6.324  29.535   6.533  1.00  0.00     0.000 C 
BRANCH   6   7
ATOM      7  C   UNL     1       6.203  31.060   6.677  1.00  0.00     0.000 C 
BRANCH   7   8
ATOM      8  C   UNL     1       6.761  31.819   5.458  1.00  0.00     0.000 C 
BRANCH   8   9
ATOM      9  C   UNL     1       6.988  30.956   4.203  1.00  0.00     0.000 C 
BRANCH   9  10
ATOM     10  C   UNL     1       8.438  31.002   3.697  1.00  0.00     0.000 C 
BRANCH  10  11
ATOM     11  C   UNL     1       8.835  29.673   3.036  1.00  0.00     0.000 C 
BRANCH  11  12
ATOM     12  C   UNL     1       7.626  28.885   2.496  1.00  0.00     0.006 C 
BRANCH  12  13
ATOM     13  C   UNL     1       7.989  27.859   1.407  1.00  0.00     0.053 C 
BRANCH  13  14
ATOM     14  C   UNL     1       8.425  26.546   1.984  1.00  0.00     0.041 C 
ATOM     15  O   UNL     1       7.670  25.915   2.771  1.00  0.00    -0.550 OA
ATOM     16  O   UNL     1       9.683  26.039   1.686  1.00  0.00    -0.550 OA
ENDBRANCH  13  14
ENDBRANCH  12  13
ENDBRANCH  11  12
ENDBRANCH  10  11
ENDBRANCH   9  10
ENDBRANCH   8   9
ENDBRANCH   7   8
ENDBRANCH   6   7
ENDBRANCH   5   6
ENDBRANCH   4   5
ENDBRANCH   3   4
ENDBRANCH   2   3
ENDBRANCH   1   2
BRANCH   1  17
ATOM     17  C   UNL     1      10.176  32.495   6.513  1.00  0.00     0.000 C 
BRANCH  17  18
ATOM     18  C   UNL     1      10.863  33.548   7.396  1.00  0.00     0.000 C 
BRANCH  18  19
ATOM     19  C   UNL     1       9.862  34.200   8.361  1.00  0.00     0.000 C 
BRANCH  19  20
ATOM     20  C   UNL     1       8.415  33.710   8.149  1.00  0.00     0.000 C 
BRANCH  20  21
ATOM     21  C   UNL     1       7.315  34.685   8.619  1.00  0.00     0.000 C 
BRANCH  21  22
ATOM     22  C   UNL     1       6.053  34.001   9.180  1.00  0.00    -0.000 C 
BRANCH  22  23
ATOM     23  C   UNL     1       4.864  34.071   8.208  1.00  0.00    -0.000 C 
BRANCH  23  24
ATOM     24  C   UNL     1       5.178  34.918   6.960  1.00  0.00    -0.000 C 
BRANCH  24  25
ATOM     25  C   UNL     1       4.361  34.527   5.708  1.00  0.00    -0.000 C 
BRANCH  25  26
ATOM     26  C   UNL     1       4.900  35.098   4.380  1.00  0.00    -0.000 C 
BRANCH  26  27
ATOM     27  C   UNL     1       4.813  34.093   3.219  1.00  0.00    -0.000 C 
BRANCH  27  28
ATOM     28  C   UNL     1       5.893  34.323   2.146  1.00  0.00    -0.000 C 
BRANCH  28  29
ATOM     29  C   UNL     1       6.320  33.058   1.378  1.00  0.00    -0.003 C 
ATOM     30  C   UNL     1       5.153  32.114   1.087  1.00  0.00     0.004 C 
ENDBRANCH  28  29
ENDBRANCH  27  28
ENDBRANCH  26  27
ENDBRANCH  25  26
ENDBRANCH  24  25
ENDBRANCH  23  24
ENDBRANCH  22  23
ENDBRANCH  21  22
ENDBRANCH  20  21
ENDBRANCH  19  20
ENDBRANCH  18  19
ENDBRANCH  17  18
ENDBRANCH   1  17
TORSDOF 26
ENDMDL
MODEL 6
REMARK VINA RESULT:    -3.884      2.054      3.529
REMARK INTER + INTRA:         -14.324
REMARK INTER:                  -8.652
REMARK INTRA:                  -5.671
REMARK UNBOUND:                -4.537
REMARK SMILES CCCCCCCCCCCCCCCCCCCCCCCCCCCC(=O)[O-]
REMARK SMILES IDX 15 1 16 2 17 3 18 4 19 5 20 6 21 7 22 8 23 9 24 10 25 11
REMARK SMILES IDX 26 12 27 13 28 14 29 15 30 16 14 17 13 18 12 19 11 20 10 21
REMARK SMILES IDX 9 22 8 23 7 24 6 25 5 26 4 27 3 28 2 29 1 30
REMARK H PARENT
REMARK Flexibility Score: inf
ROOT
ATOM      1  C   UNL     1       6.957  33.092   7.006  1.00  0.00     0.000 C 
ENDROOT
BRANCH   1   2
ATOM      2  C   UNL     1       6.468  31.739   7.551  1.00  0.00     0.000 C 
BRANCH   2   3
ATOM      3  C   UNL     1       6.717  31.577   9.064  1.00  0.00     0.000 C 
BRANCH   3   4
ATOM      4  C   UNL     1       8.041  30.877   9.417  1.00  0.00     0.000 C 
BRANCH   4   5
ATOM      5  C   UNL     1       8.684  31.412  10.709  1.00  0.00     0.000 C 
BRANCH   5   6
ATOM      6  C   UNL     1       9.638  32.588  10.447  1.00  0.00     0.000 C 
BRANCH   6   7
ATOM      7  C   UNL     1      10.662  32.279   9.344  1.00  0.00     0.000 C 
BRANCH   7   8
ATOM      8  C   UNL     1      10.879  33.465   8.384  1.00  0.00     0.000 C 
BRANCH   8   9
ATOM      9  C   UNL     1      10.545  33.175   6.909  1.00  0.00     0.000 C 
BRANCH   9  10
ATOM     10  C   UNL     1      10.554  31.675   6.575  1.00  0.00     0.000 C 
BRANCH  10  11
ATOM     11  C   UNL     1       9.948  31.415   5.187  1.00  0.00     0.000 C 
BRANCH  11  12
ATOM     12  C   UNL     1       8.920  30.267   5.185  1.00  0.00     0.006 C 
BRANCH  12  13
ATOM     13  C   UNL     1       9.074  29.293   6.367  1.00  0.00     0.053 C 
BRANCH  13  14
ATOM     14  C   UNL     1       7.946  28.309   6.445  1.00  0.00     0.041 C 
ATOM     15  O   UNL     1       7.912  27.451   7.368  1.00  0.00    -0.550 OA
ATOM     16  O   UNL     1       6.952  28.312   5.475  1.00  0.00    -0.550 OA
ENDBRANCH  13  14
ENDBRANCH  12  13
ENDBRANCH  11  12
ENDBRANCH  10  11
ENDBRANCH   9  10
ENDBRANCH   8   9
ENDBRANCH   7   8
ENDBRANCH   6   7
ENDBRANCH   5   6
ENDBRANCH   4   5
ENDBRANCH   3   4
ENDBRANCH   2   3
ENDBRANCH   1   2
BRANCH   1  17
ATOM     17  C   UNL     1       7.149  34.130   8.126  1.00  0.00     0.000 C 
BRANCH  17  18
ATOM     18  C   UNL     1       5.992  35.142   8.176  1.00  0.00     0.000 C 
BRANCH  18  19
ATOM     19  C   UNL     1       5.325  35.152   9.559  1.00  0.00     0.000 C 
BRANCH  19  20
ATOM     20  C   UNL     1       3.786  35.122   9.486  1.00  0.00     0.000 C 
BRANCH  20  21
ATOM     21  C   UNL     1       3.147  33.725   9.648  1.00  0.00     0.000 C 
BRANCH  21  22
ATOM     22  C   UNL     1       3.068  32.906   8.345  1.00  0.00    -0.000 C 
BRANCH  22  23
ATOM     23  C   UNL     1       2.749  33.780   7.119  1.00  0.00    -0.000 C 
BRANCH  23  24
ATOM     24  C   UNL     1       3.064  33.063   5.793  1.00  0.00    -0.000 C 
BRANCH  24  25
ATOM     25  C   UNL     1       3.246  34.013   4.588  1.00  0.00    -0.000 C 
BRANCH  25  26
ATOM     26  C   UNL     1       4.318  35.104   4.781  1.00  0.00    -0.000 C 
BRANCH  26  27
ATOM     27  C   UNL     1       5.591  34.846   3.956  1.00  0.00    -0.000 C 
BRANCH  27  28
ATOM     28  C   UNL     1       5.291  34.290   2.552  1.00  0.00    -0.000 C 
BRANCH  28  29
ATOM     29  C   UNL     1       5.978  32.951   2.227  1.00  0.00    -0.003 C 
ATOM     30  C   UNL     1       6.345  32.149   3.477  1.00  0.00     0.004 C 
ENDBRANCH  28  29
ENDBRANCH  27  28
ENDBRANCH  26  27
ENDBRANCH  25  26
ENDBRANCH  24  25
ENDBRANCH  23  24
ENDBRANCH  22  23
ENDBRANCH  21  22
ENDBRANCH  20  21
ENDBRANCH  19  20
ENDBRANCH  18  19
ENDBRANCH  17  18
ENDBRANCH   1  17
TORSDOF 26
ENDMDL
MODEL 7
REMARK VINA RESULT:    -3.883      2.859      6.592
REMARK INTER + INTRA:         -14.323
REMARK INTER:                  -8.730
REMARK INTRA:                  -5.593
REMARK UNBOUND:                -4.537
REMARK SMILES CCCCCCCCCCCCCCCCCCCCCCCCCCCC(=O)[O-]
REMARK SMILES IDX 15 1 16 2 17 3 18 4 19 5 20 6 21 7 22 8 23 9 24 10 25 11
REMARK SMILES IDX 26 12 27 13 28 14 29 15 30 16 14 17 13 18 12 19 11 20 10 21
REMARK SMILES IDX 9 22 8 23 7 24 6 25 5 26 4 27 3 28 2 29 1 30
REMARK H PARENT
REMARK Flexibility Score: inf
ROOT
ATOM      1  C   UNL     1      10.144  30.487   5.922  1.00  0.00     0.000 C 
ENDROOT
BRANCH   1   2
ATOM      2  C   UNL     1       9.661  31.170   4.630  1.00  0.00     0.000 C 
BRANCH   2   3
ATOM      3  C   UNL     1       8.964  30.194   3.661  1.00  0.00     0.000 C 
BRANCH   3   4
ATOM      4  C   UNL     1       8.540  28.860   4.301  1.00  0.00     0.000 C 
BRANCH   4   5
ATOM      5  C   UNL     1       8.237  27.761   3.267  1.00  0.00     0.000 C 
BRANCH   5   6
ATOM      6  C   UNL     1       8.188  28.303   1.830  1.00  0.00     0.000 C 
BRANCH   6   7
ATOM      7  C   UNL     1       6.768  28.286   1.244  1.00  0.00     0.000 C 
BRANCH   7   8
ATOM      8  C   UNL     1       6.058  29.648   1.364  1.00  0.00     0.000 C 
BRANCH   8   9
ATOM      9  C   UNL     1       5.115  29.785   2.574  1.00  0.00     0.000 C 
BRANCH   9  10
ATOM     10  C   UNL     1       5.459  30.986   3.469  1.00  0.00     0.000 C 
BRANCH  10  11
ATOM     11  C   UNL     1       6.076  32.128   2.648  1.00  0.00     0.000 C 
BRANCH  11  12
ATOM     12  C   UNL     1       5.114  33.316   2.452  1.00  0.00     0.006 C 
BRANCH  12  13
ATOM     13  C   UNL     1       4.081  33.473   3.583  1.00  0.00     0.053 C 
BRANCH  13  14
ATOM     14  C   UNL     1       3.917  34.900   4.012  1.00  0.00     0.041 C 
ATOM     15  O   UNL     1       2.861  35.529   3.736  1.00  0.00    -0.550 OA
ATOM     16  O   UNL     1       4.948  35.547   4.681  1.00  0.00    -0.550 OA
ENDBRANCH  13  14
ENDBRANCH  12  13
ENDBRANCH  11  12
ENDBRANCH  10  11
ENDBRANCH   9  10
ENDBRANCH   8   9
ENDBRANCH   7   8
ENDBRANCH   6   7
ENDBRANCH   5   6
ENDBRANCH   4   5
ENDBRANCH   3   4
ENDBRANCH   2   3
ENDBRANCH   1   2
BRANCH   1  17
ATOM     17  C   UNL     1      10.879  31.467   6.854  1.00  0.00     0.000 C 
BRANCH  17  18
ATOM     18  C   UNL     1      10.457  32.924   6.601  1.00  0.00     0.000 C 
BRANCH  18  19
ATOM     19  C   UNL     1      10.628  33.776   7.866  1.00  0.00     0.000 C 
BRANCH  19  20
ATOM     20  C   UNL     1       9.301  34.021   8.612  1.00  0.00     0.000 C 
BRANCH  20  21
ATOM     21  C   UNL     1       8.974  33.001   9.724  1.00  0.00     0.000 C 
BRANCH  21  22
ATOM     22  C   UNL     1      10.210  32.403  10.424  1.00  0.00    -0.000 C 
BRANCH  22  23
ATOM     23  C   UNL     1      10.196  30.865  10.431  1.00  0.00    -0.000 C 
BRANCH  23  24
ATOM     24  C   UNL     1       8.885  30.290   9.864  1.00  0.00    -0.000 C 
BRANCH  24  25
ATOM     25  C   UNL     1       9.067  29.002   9.029  1.00  0.00    -0.000 C 
BRANCH  25  26
ATOM     26  C   UNL     1       7.861  28.629   8.143  1.00  0.00    -0.000 C 
BRANCH  26  27
ATOM     27  C   UNL     1       6.734  29.675   8.195  1.00  0.00    -0.000 C 
BRANCH  27  28
ATOM     28  C   UNL     1       6.722  30.603   6.967  1.00  0.00    -0.000 C 
BRANCH  28  29
ATOM     29  C   UNL     1       6.279  32.050   7.255  1.00  0.00    -0.003 C 
ATOM     30  C   UNL     1       6.816  33.053   6.233  1.00  0.00     0.004 C 
ENDBRANCH  28  29
ENDBRANCH  27  28
ENDBRANCH  26  27
ENDBRANCH  25  26
ENDBRANCH  24  25
ENDBRANCH  23  24
ENDBRANCH  22  23
ENDBRANCH  21  22
ENDBRANCH  20  21
ENDBRANCH  19  20
ENDBRANCH  18  19
ENDBRANCH  17  18
ENDBRANCH   1  17
TORSDOF 26
ENDMDL
MODEL 8
REMARK VINA RESULT:    -3.861      1.801      3.041
REMARK INTER + INTRA:         -14.267
REMARK INTER:                  -8.820
REMARK INTRA:                  -5.447
REMARK UNBOUND:                -4.537
REMARK SMILES CCCCCCCCCCCCCCCCCCCCCCCCCCCC(=O)[O-]
REMARK SMILES IDX 15 1 16 2 17 3 18 4 19 5 20 6 21 7 22 8 23 9 24 10 25 11
REMARK SMILES IDX 26 12 27 13 28 14 29 15 30 16 14 17 13 18 12 19 11 20 10 21
REMARK SMILES IDX 9 22 8 23 7 24 6 25 5 26 4 27 3 28 2 29 1 30
REMARK H PARENT
REMARK Flexibility Score: inf
ROOT
ATOM      1  C   UNL     1       8.636  33.995   7.815  1.00  0.00     0.000 C 
ENDROOT
BRANCH   1   2
ATOM      2  C   UNL     1       9.956  34.394   8.497  1.00  0.00     0.000 C 
BRANCH   2   3
ATOM      3  C   UNL     1      11.179  33.657   7.915  1.00  0.00     0.000 C 
BRANCH   3   4
ATOM      4  C   UNL     1      11.792  32.605   8.857  1.00  0.00     0.000 C 
BRANCH   4   5
ATOM      5  C   UNL     1      10.842  32.180   9.991  1.00  0.00     0.000 C 
BRANCH   5   6
ATOM      6  C   UNL     1      10.431  30.703   9.891  1.00  0.00     0.000 C 
BRANCH   6   7
ATOM      7  C   UNL     1       8.964  30.530   9.468  1.00  0.00     0.000 C 
BRANCH   7   8
ATOM      8  C   UNL     1       8.793  30.421   7.940  1.00  0.00     0.000 C 
BRANCH   8   9
ATOM      9  C   UNL     1       9.967  29.751   7.202  1.00  0.00     0.000 C 
BRANCH   9  10
ATOM     10  C   UNL     1      10.515  30.605   6.048  1.00  0.00     0.000 C 
BRANCH  10  11
ATOM     11  C   UNL     1       9.396  31.423   5.386  1.00  0.00     0.000 C 
BRANCH  11  12
ATOM     12  C   UNL     1       9.020  30.904   3.985  1.00  0.00     0.006 C 
BRANCH  12  13
ATOM     13  C   UNL     1       8.062  29.700   4.004  1.00  0.00     0.053 C 
BRANCH  13  14
ATOM     14  C   UNL     1       8.088  28.930   2.717  1.00  0.00     0.041 C 
ATOM     15  O   UNL     1       7.200  29.122   1.843  1.00  0.00    -0.550 OA
ATOM     16  O   UNL     1       9.068  27.971   2.501  1.00  0.00    -0.550 OA
ENDBRANCH  13  14
ENDBRANCH  12  13
ENDBRANCH  11  12
ENDBRANCH  10  11
ENDBRANCH   9  10
ENDBRANCH   8   9
ENDBRANCH   7   8
ENDBRANCH   6   7
ENDBRANCH   5   6
ENDBRANCH   4   5
ENDBRANCH   3   4
ENDBRANCH   2   3
ENDBRANCH   1   2
BRANCH   1  17
ATOM     17  C   UNL     1       7.505  33.766   8.834  1.00  0.00     0.000 C 
BRANCH  17  18
ATOM     18  C   UNL     1       6.441  34.874   8.768  1.00  0.00     0.000 C 
BRANCH  18  19
ATOM     19  C   UNL     1       5.491  34.800   9.972  1.00  0.00     0.000 C 
BRANCH  19  20
ATOM     20  C   UNL     1       4.299  35.771   9.859  1.00  0.00     0.000 C 
BRANCH  20  21
ATOM     21  C   UNL     1       2.931  35.104   9.599  1.00  0.00     0.000 C 
BRANCH  21  22
ATOM     22  C   UNL     1       2.817  34.394   8.235  1.00  0.00    -0.000 C 
BRANCH  22  23
ATOM     23  C   UNL     1       2.487  32.899   8.376  1.00  0.00    -0.000 C 
BRANCH  23  24
ATOM     24  C   UNL     1       3.248  32.034   7.355  1.00  0.00    -0.000 C 
BRANCH  24  25
ATOM     25  C   UNL     1       4.698  31.695   7.769  1.00  0.00    -0.000 C 
BRANCH  25  26
ATOM     26  C   UNL     1       5.647  31.371   6.597  1.00  0.00    -0.000 C 
BRANCH  26  27
ATOM     27  C   UNL     1       4.942  31.405   5.230  1.00  0.00    -0.000 C 
BRANCH  27  28
ATOM     28  C   UNL     1       5.281  32.665   4.412  1.00  0.00    -0.000 C 
BRANCH  28  29
ATOM     29  C   UNL     1       5.934  33.801   5.221  1.00  0.00    -0.003 C 
ATOM     30  C   UNL     1       5.058  35.052   5.308  1.00  0.00     0.004 C 
ENDBRANCH  28  29
ENDBRANCH  27  28
ENDBRANCH  26  27
ENDBRANCH  25  26
ENDBRANCH  24  25
ENDBRANCH  23  24
ENDBRANCH  22  23
ENDBRANCH  21  22
ENDBRANCH  20  21
ENDBRANCH  19  20
ENDBRANCH  18  19
ENDBRANCH  17  18
ENDBRANCH   1  17
TORSDOF 26
ENDMDL
MODEL 9
REMARK VINA RESULT:    -3.859      1.346      5.829
REMARK INTER + INTRA:         -14.261
REMARK INTER:                  -9.398
REMARK INTRA:                  -4.863
REMARK UNBOUND:                -4.537
REMARK SMILES CCCCCCCCCCCCCCCCCCCCCCCCCCCC(=O)[O-]
REMARK SMILES IDX 15 1 16 2 17 3 18 4 19 5 20 6 21 7 22 8 23 9 24 10 25 11
REMARK SMILES IDX 26 12 27 13 28 14 29 15 30 16 14 17 13 18 12 19 11 20 10 21
REMARK SMILES IDX 9 22 8 23 7 24 6 25 5 26 4 27 3 28 2 29 1 30
REMARK H PARENT
REMARK Flexibility Score: inf
ROOT
ATOM      1  C   UNL     1       6.349  35.111   8.444  1.00  0.00     0.000 C 
ENDROOT
BRANCH   1   2
ATOM      2  C   UNL     1       5.218  34.884   9.462  1.00  0.00     0.000 C 
BRANCH   2   3
ATOM      3  C   UNL     1       3.832  34.751   8.800  1.00  0.00     0.000 C 
BRANCH   3   4
ATOM      4  C   UNL     1       3.664  33.494   7.928  1.00  0.00     0.000 C 
BRANCH   4   5
ATOM      5  C   UNL     1       3.501  33.813   6.431  1.00  0.00     0.000 C 
BRANCH   5   6
ATOM      6  C   UNL     1       4.759  33.471   5.617  1.00  0.00     0.000 C 
BRANCH   6   7
ATOM      7  C   UNL     1       5.268  34.665   4.794  1.00  0.00     0.000 C 
BRANCH   7   8
ATOM      8  C   UNL     1       5.266  34.388   3.279  1.00  0.00     0.000 C 
BRANCH   8   9
ATOM      9  C   UNL     1       5.300  32.898   2.891  1.00  0.00     0.000 C 
BRANCH   9  10
ATOM     10  C   UNL     1       6.714  32.395   2.562  1.00  0.00     0.000 C 
BRANCH  10  11
ATOM     11  C   UNL     1       7.194  31.377   3.608  1.00  0.00     0.000 C 
BRANCH  11  12
ATOM     12  C   UNL     1       8.559  30.752   3.257  1.00  0.00     0.006 C 
BRANCH  12  13
ATOM     13  C   UNL     1       8.581  29.215   3.349  1.00  0.00     0.053 C 
BRANCH  13  14
ATOM     14  C   UNL     1       8.540  28.562   2.000  1.00  0.00     0.041 C 
ATOM     15  O   UNL     1       7.449  28.454   1.378  1.00  0.00    -0.550 OA
ATOM     16  O   UNL     1       9.701  28.037   1.447  1.00  0.00    -0.550 OA
ENDBRANCH  13  14
ENDBRANCH  12  13
ENDBRANCH  11  12
ENDBRANCH  10  11
ENDBRANCH   9  10
ENDBRANCH   8   9
ENDBRANCH   7   8
ENDBRANCH   6   7
ENDBRANCH   5   6
ENDBRANCH   4   5
ENDBRANCH   3   4
ENDBRANCH   2   3
ENDBRANCH   1   2
BRANCH   1  17
ATOM     17  C   UNL     1       7.527  34.145   8.663  1.00  0.00     0.000 C 
BRANCH  17  18
ATOM     18  C   UNL     1       7.086  32.854   9.372  1.00  0.00     0.000 C 
BRANCH  18  19
ATOM     19  C   UNL     1       8.112  32.427  10.431  1.00  0.00     0.000 C 
BRANCH  19  20
ATOM     20  C   UNL     1       8.710  31.031  10.162  1.00  0.00     0.000 C 
BRANCH  20  21
ATOM     21  C   UNL     1      10.194  30.865  10.554  1.00  0.00     0.000 C 
BRANCH  21  22
ATOM     22  C   UNL     1      10.995  32.182  10.590  1.00  0.00    -0.000 C 
BRANCH  22  23
ATOM     23  C   UNL     1      11.759  32.441   9.280  1.00  0.00    -0.000 C 
BRANCH  23  24
ATOM     24  C   UNL     1      11.370  33.784   8.633  1.00  0.00    -0.000 C 
BRANCH  24  25
ATOM     25  C   UNL     1      10.595  33.644   7.304  1.00  0.00    -0.000 C 
BRANCH  25  26
ATOM     26  C   UNL     1      10.791  32.297   6.579  1.00  0.00    -0.000 C 
BRANCH  26  27
ATOM     27  C   UNL     1       9.522  31.428   6.580  1.00  0.00    -0.000 C 
BRANCH  27  28
ATOM     28  C   UNL     1       9.824  29.930   6.767  1.00  0.00    -0.000 C 
BRANCH  28  29
ATOM     29  C   UNL     1       8.599  29.064   7.117  1.00  0.00    -0.003 C 
ATOM     30  C   UNL     1       7.274  29.812   6.961  1.00  0.00     0.004 C 
ENDBRANCH  28  29
ENDBRANCH  27  28
ENDBRANCH  26  27
ENDBRANCH  25  26
ENDBRANCH  24  25
ENDBRANCH  23  24
ENDBRANCH  22  23
ENDBRANCH  21  22
ENDBRANCH  20  21
ENDBRANCH  19  20
ENDBRANCH  18  19
ENDBRANCH  17  18
ENDBRANCH   1  17
TORSDOF 26
ENDMDL
