MODEL 1
REMARK VINA RESULT:    -5.988      0.000      0.000
REMARK INTER + INTRA:         -10.162
REMARK INTER:                  -9.489
REMARK INTRA:                  -0.673
REMARK UNBOUND:                -0.673
REMARK SMILES CCCCCCCCCCCC(=O)[O-]
REMARK SMILES IDX 7 1 8 2 9 3 10 4 11 5 12 6 13 7 14 8 6 9 5 10 4 11 3 12 2 13
REMARK SMILES IDX 1 14
REMARK H PARENT
REMARK Flexibility Score: inf
ROOT
ATOM      1  C   UNL     1      26.929  -9.070  19.651  1.00  0.00     0.000 C 
ENDROOT
BRANCH   1   2
ATOM      2  C   UNL     1      25.634  -8.289  19.926  1.00  0.00     0.000 C 
BRANCH   2   3
ATOM      3  C   UNL     1      25.452  -7.090  18.977  1.00  0.00     0.000 C 
BRANCH   3   4
ATOM      4  C   UNL     1      26.220  -5.845  19.446  1.00  0.00     0.006 C 
BRANCH   4   5
ATOM      5  C   UNL     1      27.424  -5.522  18.552  1.00  0.00     0.053 C 
BRANCH   5   6
ATOM      6  C   UNL     1      27.819  -4.087  18.705  1.00  0.00     0.041 C 
ATOM      7  O   UNL     1      28.942  -3.788  19.188  1.00  0.00    -0.550 OA
ATOM      8  O   UNL     1      26.926  -3.080  18.362  1.00  0.00    -0.550 OA
ENDBRANCH   5   6
ENDBRANCH   4   5
ENDBRANCH   3   4
ENDBRANCH   2   3
ENDBRANCH   1   2
BRANCH   1   9
ATOM      9  C   UNL     1      27.813  -9.208  20.901  1.00  0.00     0.000 C 
BRANCH   9  10
ATOM     10  C   UNL     1      28.091 -10.686  21.214  1.00  0.00    -0.000 C 
BRANCH  10  11
ATOM     11  C   UNL     1      27.180 -11.643  20.429  1.00  0.00    -0.000 C 
BRANCH  11  12
ATOM     12  C   UNL     1      27.929 -12.886  19.918  1.00  0.00    -0.000 C 
BRANCH  12  13
ATOM     13  C   UNL     1      27.221 -13.550  18.727  1.00  0.00    -0.003 C 
ATOM     14  C   UNL     1      26.257 -12.608  18.007  1.00  0.00     0.004 C 
ENDBRANCH  12  13
ENDBRANCH  11  12
ENDBRANCH  10  11
ENDBRANCH   9  10
ENDBRANCH   1   9
TORSDOF 10
ENDMDL
MODEL 2
REMARK VINA RESULT:    -5.858      1.242      1.960
REMARK INTER + INTRA:          -9.956
REMARK INTER:                  -9.040
REMARK INTRA:                  -0.916
REMARK UNBOUND:                -0.673
REMARK SMILES CCCCCCCCCCCC(=O)[O-]
REMARK SMILES IDX 7 1 8 2 9 3 10 4 11 5 12 6 13 7 14 8 6 9 5 10 4 11 3 12 2 13
REMARK SMILES IDX 1 14
REMARK H PARENT
REMARK Flexibility Score: inf
ROOT
ATOM      1  C   UNL     1      28.741  -8.485  20.757  1.00  0.00     0.000 C 
ENDROOT
BRANCH   1   2
ATOM      2  C   UNL     1      27.831  -7.901  21.849  1.00  0.00     0.000 C 
BRANCH   2   3
ATOM      3  C   UNL     1      26.528  -7.309  21.281  1.00  0.00     0.000 C 
BRANCH   3   4
ATOM      4  C   UNL     1      26.139  -7.927  19.930  1.00  0.00     0.006 C 
BRANCH   4   5
ATOM      5  C   UNL     1      25.638  -6.881  18.926  1.00  0.00     0.053 C 
BRANCH   5   6
ATOM      6  C   UNL     1      26.662  -5.807  18.736  1.00  0.00     0.041 C 
ATOM      7  O   UNL     1      26.420  -4.629  19.107  1.00  0.00    -0.550 OA
ATOM      8  O   UNL     1      27.865  -6.098  18.104  1.00  0.00    -0.550 OA
ENDBRANCH   5   6
ENDBRANCH   4   5
ENDBRANCH   3   4
ENDBRANCH   2   3
ENDBRANCH   1   2
BRANCH   1   9
ATOM      9  C   UNL     1      29.173  -9.929  21.058  1.00  0.00     0.000 C 
BRANCH   9  10
ATOM     10  C   UNL     1      27.976 -10.775  21.515  1.00  0.00    -0.000 C 
BRANCH  10  11
ATOM     11  C   UNL     1      27.265 -11.480  20.349  1.00  0.00    -0.000 C 
BRANCH  11  12
ATOM     12  C   UNL     1      27.929 -12.816  19.972  1.00  0.00    -0.000 C 
BRANCH  12  13
ATOM     13  C   UNL     1      27.172 -13.555  18.858  1.00  0.00    -0.003 C 
ATOM     14  C   UNL     1      26.277 -12.631  18.033  1.00  0.00     0.004 C 
ENDBRANCH  12  13
ENDBRANCH  11  12
ENDBRANCH  10  11
ENDBRANCH   9  10
ENDBRANCH   1   9
TORSDOF 10
ENDMDL
MODEL 3
REMARK VINA RESULT:    -5.708      5.598      7.375
REMARK INTER + INTRA:          -9.718
REMARK INTER:                  -9.337
REMARK INTRA:                  -0.381
REMARK UNBOUND:                -0.673
REMARK SMILES CCCCCCCCCCCC(=O)[O-]
REMARK SMILES IDX 7 1 8 2 9 3 10 4 11 5 12 6 13 7 14 8 6 9 5 10 4 11 3 12 2 13
REMARK SMILES IDX 1 14
REMARK H PARENT
REMARK Flexibility Score: inf
ROOT
ATOM      1  C   UNL     1      30.135  -9.443  22.245  1.00  0.00     0.000 C 
ENDROOT
BRANCH   1   2
ATOM      2  C   UNL     1      29.078  -9.644  21.147  1.00  0.00     0.000 C 
BRANCH   2   3
ATOM      3  C   UNL     1      28.017 -10.692  21.529  1.00  0.00     0.000 C 
BRANCH   3   4
ATOM      4  C   UNL     1      27.300 -11.279  20.304  1.00  0.00     0.006 C 
BRANCH   4   5
ATOM      5  C   UNL     1      27.796 -12.686  19.949  1.00  0.00     0.053 C 
BRANCH   5   6
ATOM      6  C   UNL     1      26.930 -13.293  18.891  1.00  0.00     0.041 C 
ATOM      7  O   UNL     1      26.741 -14.538  18.863  1.00  0.00    -0.550 OA
ATOM      8  O   UNL     1      26.371 -12.490  17.904  1.00  0.00    -0.550 OA
ENDBRANCH   5   6
ENDBRANCH   4   5
ENDBRANCH   3   4
ENDBRANCH   2   3
ENDBRANCH   1   2
BRANCH   1   9
ATOM      9  C   UNL     1      31.410  -8.764  21.721  1.00  0.00     0.000 C 
BRANCH   9  10
ATOM     10  C   UNL     1      31.803  -9.323  20.345  1.00  0.00    -0.000 C 
BRANCH  10  11
ATOM     11  C   UNL     1      33.193  -8.852  19.887  1.00  0.00    -0.000 C 
BRANCH  11  12
ATOM     12  C   UNL     1      34.222  -9.996  19.852  1.00  0.00    -0.000 C 
BRANCH  12  13
ATOM     13  C   UNL     1      35.346  -9.807  20.883  1.00  0.00    -0.003 C 
ATOM     14  C   UNL     1      36.533 -10.740  20.646  1.00  0.00     0.004 C 
ENDBRANCH  12  13
ENDBRANCH  11  12
ENDBRANCH  10  11
ENDBRANCH   9  10
ENDBRANCH   1   9
TORSDOF 10
ENDMDL
MODEL 4
REMARK VINA RESULT:    -5.674      2.325      3.193
REMARK INTER + INTRA:          -9.665
REMARK INTER:                  -8.750
REMARK INTRA:                  -0.915
REMARK UNBOUND:                -0.673
REMARK SMILES CCCCCCCCCCCC(=O)[O-]
REMARK SMILES IDX 7 1 8 2 9 3 10 4 11 5 12 6 13 7 14 8 6 9 5 10 4 11 3 12 2 13
REMARK SMILES IDX 1 14
REMARK H PARENT
REMARK Flexibility Score: inf
ROOT
ATOM      1  C   UNL     1      29.655  -9.454  21.903  1.00  0.00     0.000 C 
ENDROOT
BRANCH   1   2
ATOM      2  C   UNL     1      29.448  -7.956  21.626  1.00  0.00     0.000 C 
BRANCH   2   3
ATOM      3  C   UNL     1      27.962  -7.579  21.484  1.00  0.00     0.000 C 
BRANCH   3   4
ATOM      4  C   UNL     1      27.643  -6.944  20.123  1.00  0.00     0.006 C 
BRANCH   4   5
ATOM      5  C   UNL     1      26.840  -7.880  19.209  1.00  0.00     0.053 C 
BRANCH   5   6
ATOM      6  C   UNL     1      25.381  -7.558  19.285  1.00  0.00     0.041 C 
ATOM      7  O   UNL     1      24.897  -6.640  18.572  1.00  0.00    -0.550 OA
ATOM      8  O   UNL     1      24.564  -8.239  20.179  1.00  0.00    -0.550 OA
ENDBRANCH   5   6
ENDBRANCH   4   5
ENDBRANCH   3   4
ENDBRANCH   2   3
ENDBRANCH   1   2
BRANCH   1   9
ATOM      9  C   UNL     1      28.335 -10.191  22.182  1.00  0.00     0.000 C 
BRANCH   9  10
ATOM     10  C   UNL     1      28.018 -11.191  21.060  1.00  0.00    -0.000 C 
BRANCH  10  11
ATOM     11  C   UNL     1      26.574 -11.069  20.546  1.00  0.00    -0.000 C 
BRANCH  11  12
ATOM     12  C   UNL     1      26.312 -11.948  19.311  1.00  0.00    -0.000 C 
BRANCH  12  13
ATOM     13  C   UNL     1      27.101 -13.267  19.349  1.00  0.00    -0.003 C 
ATOM     14  C   UNL     1      27.397 -13.823  17.957  1.00  0.00     0.004 C 
ENDBRANCH  12  13
ENDBRANCH  11  12
ENDBRANCH  10  11
ENDBRANCH   9  10
ENDBRANCH   1   9
TORSDOF 10
ENDMDL
MODEL 5
REMARK VINA RESULT:    -5.657      4.657      5.860
REMARK INTER + INTRA:          -9.637
REMARK INTER:                  -9.217
REMARK INTRA:                  -0.420
REMARK UNBOUND:                -0.673
REMARK SMILES CCCCCCCCCCCC(=O)[O-]
REMARK SMILES IDX 7 1 8 2 9 3 10 4 11 5 12 6 13 7 14 8 6 9 5 10 4 11 3 12 2 13
REMARK SMILES IDX 1 14
REMARK H PARENT
REMARK Flexibility Score: inf
ROOT
ATOM      1  C   UNL     1      29.338  -8.517  21.382  1.00  0.00     0.000 C 
ENDROOT
BRANCH   1   2
ATOM      2  C   UNL     1      30.609  -9.232  20.899  1.00  0.00     0.000 C 
BRANCH   2   3
ATOM      3  C   UNL     1      31.855  -8.845  21.716  1.00  0.00     0.000 C 
BRANCH   3   4
ATOM      4  C   UNL     1      33.010  -8.350  20.831  1.00  0.00     0.006 C 
BRANCH   4   5
ATOM      5  C   UNL     1      34.277  -9.202  20.985  1.00  0.00     0.053 C 
BRANCH   5   6
ATOM      6  C   UNL     1      35.371  -8.401  21.617  1.00  0.00     0.041 C 
ATOM      7  O   UNL     1      36.517  -8.900  21.764  1.00  0.00    -0.550 OA
ATOM      8  O   UNL     1      35.111  -7.121  22.091  1.00  0.00    -0.550 OA
ENDBRANCH   5   6
ENDBRANCH   4   5
ENDBRANCH   3   4
ENDBRANCH   2   3
ENDBRANCH   1   2
BRANCH   1   9
ATOM      9  C   UNL     1      28.178  -9.489  21.650  1.00  0.00     0.000 C 
BRANCH   9  10
ATOM     10  C   UNL     1      28.549 -10.916  21.221  1.00  0.00    -0.000 C 
BRANCH  10  11
ATOM     11  C   UNL     1      27.492 -11.557  20.307  1.00  0.00    -0.000 C 
BRANCH  11  12
ATOM     12  C   UNL     1      27.817 -13.021  19.964  1.00  0.00    -0.000 C 
BRANCH  12  13
ATOM     13  C   UNL     1      27.367 -13.406  18.546  1.00  0.00    -0.003 C 
ATOM     14  C   UNL     1      26.212 -12.546  18.035  1.00  0.00     0.004 C 
ENDBRANCH  12  13
ENDBRANCH  11  12
ENDBRANCH  10  11
ENDBRANCH   9  10
ENDBRANCH   1   9
TORSDOF 10
ENDMDL
MODEL 6
REMARK VINA RESULT:    -5.645      5.567      6.873
REMARK INTER + INTRA:          -9.619
REMARK INTER:                  -9.195
REMARK INTRA:                  -0.423
REMARK UNBOUND:                -0.673
REMARK SMILES CCCCCCCCCCCC(=O)[O-]
REMARK SMILES IDX 7 1 8 2 9 3 10 4 11 5 12 6 13 7 14 8 6 9 5 10 4 11 3 12 2 13
REMARK SMILES IDX 1 14
REMARK H PARENT
REMARK Flexibility Score: inf
ROOT
ATOM      1  C   UNL     1      31.358  -8.627  21.617  1.00  0.00     0.000 C 
ENDROOT
BRANCH   1   2
ATOM      2  C   UNL     1      31.867  -9.286  20.326  1.00  0.00     0.000 C 
BRANCH   2   3
ATOM      3  C   UNL     1      33.381  -9.093  20.118  1.00  0.00     0.000 C 
BRANCH   3   4
ATOM      4  C   UNL     1      34.132  -8.862  21.438  1.00  0.00     0.006 C 
BRANCH   4   5
ATOM      5  C   UNL     1      35.580  -9.367  21.388  1.00  0.00     0.053 C 
BRANCH   5   6
ATOM      6  C   UNL     1      36.479  -8.453  22.160  1.00  0.00     0.041 C 
ATOM      7  O   UNL     1      36.057  -7.334  22.553  1.00  0.00    -0.550 OA
ATOM      8  O   UNL     1      37.798  -8.816  22.402  1.00  0.00    -0.550 OA
ENDBRANCH   5   6
ENDBRANCH   4   5
ENDBRANCH   3   4
ENDBRANCH   2   3
ENDBRANCH   1   2
BRANCH   1   9
ATOM      9  C   UNL     1      30.045  -9.249  22.120  1.00  0.00     0.000 C 
BRANCH   9  10
ATOM     10  C   UNL     1      29.203  -9.774  20.948  1.00  0.00    -0.000 C 
BRANCH  10  11
ATOM     11  C   UNL     1      28.382 -11.020  21.316  1.00  0.00    -0.000 C 
BRANCH  11  12
ATOM     12  C   UNL     1      27.357 -11.395  20.231  1.00  0.00    -0.000 C 
BRANCH  12  13
ATOM     13  C   UNL     1      27.462 -12.868  19.807  1.00  0.00    -0.003 C 
ATOM     14  C   UNL     1      27.061 -13.097  18.350  1.00  0.00     0.004 C 
ENDBRANCH  12  13
ENDBRANCH  11  12
ENDBRANCH  10  11
ENDBRANCH   9  10
ENDBRANCH   1   9
TORSDOF 10
ENDMDL
MODEL 7
REMARK VINA RESULT:    -5.633      4.605      5.919
REMARK INTER + INTRA:          -9.598
REMARK INTER:                  -9.223
REMARK INTRA:                  -0.376
REMARK UNBOUND:                -0.673
REMARK SMILES CCCCCCCCCCCC(=O)[O-]
REMARK SMILES IDX 7 1 8 2 9 3 10 4 11 5 12 6 13 7 14 8 6 9 5 10 4 11 3 12 2 13
REMARK SMILES IDX 1 14
REMARK H PARENT
REMARK Flexibility Score: inf
ROOT
ATOM      1  C   UNL     1      29.646  -8.880  20.932  1.00  0.00     0.000 C 
ENDROOT
BRANCH   1   2
ATOM      2  C   UNL     1      30.708  -8.992  22.037  1.00  0.00     0.000 C 
BRANCH   2   3
ATOM      3  C   UNL     1      31.976  -8.177  21.725  1.00  0.00     0.000 C 
BRANCH   3   4
ATOM      4  C   UNL     1      33.266  -8.957  22.021  1.00  0.00     0.006 C 
BRANCH   4   5
ATOM      5  C   UNL     1      34.354  -8.718  20.966  1.00  0.00     0.053 C 
BRANCH   5   6
ATOM      6  C   UNL     1      34.361  -9.828  19.963  1.00  0.00     0.041 C 
ATOM      7  O   UNL     1      33.376  -9.995  19.197  1.00  0.00    -0.550 OA
ATOM      8  O   UNL     1      35.434 -10.709  19.908  1.00  0.00    -0.550 OA
ENDBRANCH   5   6
ENDBRANCH   4   5
ENDBRANCH   3   4
ENDBRANCH   2   3
ENDBRANCH   1   2
BRANCH   1   9
ATOM      9  C   UNL     1      28.280  -9.434  21.367  1.00  0.00     0.000 C 
BRANCH   9  10
ATOM     10  C   UNL     1      28.281 -10.970  21.351  1.00  0.00    -0.000 C 
BRANCH  10  11
ATOM     11  C   UNL     1      27.480 -11.554  20.176  1.00  0.00    -0.000 C 
BRANCH  11  12
ATOM     12  C   UNL     1      27.814 -13.033  19.911  1.00  0.00    -0.000 C 
BRANCH  12  13
ATOM     13  C   UNL     1      27.097 -13.583  18.667  1.00  0.00    -0.003 C 
ATOM     14  C   UNL     1      26.251 -12.529  17.954  1.00  0.00     0.004 C 
ENDBRANCH  12  13
ENDBRANCH  11  12
ENDBRANCH  10  11
ENDBRANCH   9  10
ENDBRANCH   1   9
TORSDOF 10
ENDMDL
MODEL 8
REMARK VINA RESULT:    -5.519      4.053      6.361
REMARK INTER + INTRA:          -9.419
REMARK INTER:                  -8.252
REMARK INTRA:                  -1.167
REMARK UNBOUND:                -0.673
REMARK SMILES CCCCCCCCCCCC(=O)[O-]
REMARK SMILES IDX 7 1 8 2 9 3 10 4 11 5 12 6 13 7 14 8 6 9 5 10 4 11 3 12 2 13
REMARK SMILES IDX 1 14
REMARK H PARENT
REMARK Flexibility Score: inf
ROOT
ATOM      1  C   UNL     1      29.926  -8.847  22.083  1.00  0.00     0.000 C 
ENDROOT
BRANCH   1   2
ATOM      2  C   UNL     1      29.404  -9.905  21.097  1.00  0.00     0.000 C 
BRANCH   2   3
ATOM      3  C   UNL     1      28.125 -10.601  21.597  1.00  0.00     0.000 C 
BRANCH   3   4
ATOM      4  C   UNL     1      27.286 -11.187  20.452  1.00  0.00     0.006 C 
BRANCH   4   5
ATOM      5  C   UNL     1      27.739 -12.597  20.051  1.00  0.00     0.053 C 
BRANCH   5   6
ATOM      6  C   UNL     1      26.925 -13.099  18.900  1.00  0.00     0.041 C 
ATOM      7  O   UNL     1      26.372 -12.287  18.114  1.00  0.00    -0.550 OA
ATOM      8  O   UNL     1      26.737 -14.465  18.725  1.00  0.00    -0.550 OA
ENDBRANCH   5   6
ENDBRANCH   4   5
ENDBRANCH   3   4
ENDBRANCH   2   3
ENDBRANCH   1   2
BRANCH   1   9
ATOM      9  C   UNL     1      28.846  -7.832  22.488  1.00  0.00     0.000 C 
BRANCH   9  10
ATOM     10  C   UNL     1      28.694  -6.739  21.420  1.00  0.00    -0.000 C 
BRANCH  10  11
ATOM     11  C   UNL     1      27.347  -6.810  20.682  1.00  0.00    -0.000 C 
BRANCH  11  12
ATOM     12  C   UNL     1      27.487  -7.351  19.249  1.00  0.00    -0.000 C 
BRANCH  12  13
ATOM     13  C   UNL     1      26.223  -8.084  18.771  1.00  0.00    -0.003 C 
ATOM     14  C   UNL     1      25.108  -8.088  19.816  1.00  0.00     0.004 C 
ENDBRANCH  12  13
ENDBRANCH  11  12
ENDBRANCH  10  11
ENDBRANCH   9  10
ENDBRANCH   1   9
TORSDOF 10
ENDMDL
MODEL 9
REMARK VINA RESULT:    -5.211      2.339      3.156
REMARK INTER + INTRA:          -8.930
REMARK INTER:                  -8.189
REMARK INTRA:                  -0.741
REMARK UNBOUND:                -0.673
REMARK SMILES CCCCCCCCCCCC(=O)[O-]
REMARK SMILES IDX 7 1 8 2 9 3 10 4 11 5 12 6 13 7 14 8 6 9 5 10 4 11 3 12 2 13
REMARK SMILES IDX 1 14
REMARK H PARENT
REMARK Flexibility Score: inf
ROOT
ATOM      1  C   UNL     1      29.688  -9.160  21.097  1.00  0.00     0.000 C 
ENDROOT
BRANCH   1   2
ATOM      2  C   UNL     1      30.357  -8.073  21.952  1.00  0.00     0.000 C 
BRANCH   2   3
ATOM      3  C   UNL     1      29.354  -7.316  22.841  1.00  0.00     0.000 C 
BRANCH   3   4
ATOM      4  C   UNL     1      29.094  -5.884  22.349  1.00  0.00     0.006 C 
BRANCH   4   5
ATOM      5  C   UNL     1      27.599  -5.545  22.286  1.00  0.00     0.053 C 
BRANCH   5   6
ATOM      6  C   UNL     1      27.013  -6.010  20.990  1.00  0.00     0.041 C 
ATOM      7  O   UNL     1      25.790  -6.298  20.915  1.00  0.00    -0.550 OA
ATOM      8  O   UNL     1      27.828  -6.172  19.877  1.00  0.00    -0.550 OA
ENDBRANCH   5   6
ENDBRANCH   4   5
ENDBRANCH   3   4
ENDBRANCH   2   3
ENDBRANCH   1   2
BRANCH   1   9
ATOM      9  C   UNL     1      28.240  -9.444  21.528  1.00  0.00     0.000 C 
BRANCH   9  10
ATOM     10  C   UNL     1      27.967 -10.954  21.572  1.00  0.00    -0.000 C 
BRANCH  10  11
ATOM     11  C   UNL     1      27.387 -11.492  20.254  1.00  0.00    -0.000 C 
BRANCH  11  12
ATOM     12  C   UNL     1      27.897 -12.905  19.917  1.00  0.00    -0.000 C 
BRANCH  12  13
ATOM     13  C   UNL     1      27.055 -13.589  18.829  1.00  0.00    -0.003 C 
ATOM     14  C   UNL     1      26.225 -12.601  18.009  1.00  0.00     0.004 C 
ENDBRANCH  12  13
ENDBRANCH  11  12
ENDBRANCH  10  11
ENDBRANCH   9  10
ENDBRANCH   1   9
TORSDOF 10
ENDMDL
