MODEL 1
REMARK VINA RESULT:    -4.603      0.000      0.000
REMARK INTER + INTRA:          -6.242
REMARK INTER:                  -5.948
REMARK INTRA:                  -0.293
REMARK UNBOUND:                -0.293
REMARK SMILES CCCCCCC(=O)[O-]
REMARK SMILES IDX 5 1 6 2 7 3 8 4 9 5 4 6 3 7 2 8 1 9
REMARK H PARENT
REMARK Flexibility Score: inf
ROOT
ATOM      1  C   UNL     1      86.750 326.549 194.114  1.00  0.00     0.006 C 
ENDROOT
BRANCH   1   2
ATOM      2  C   UNL     1      86.574 326.497 195.637  1.00  0.00     0.053 C 
BRANCH   2   3
ATOM      3  C   UNL     1      87.836 326.032 196.294  1.00  0.00     0.041 C 
ATOM      4  O   UNL     1      88.378 326.732 197.188  1.00  0.00    -0.550 OA
ATOM      5  O   UNL     1      88.440 324.852 195.883  1.00  0.00    -0.550 OA
ENDBRANCH   2   3
ENDBRANCH   1   2
BRANCH   1   6
ATOM      6  C   UNL     1      85.922 325.480 193.377  1.00  0.00     0.000 C 
BRANCH   6   7
ATOM      7  C   UNL     1      86.749 324.376 192.693  1.00  0.00    -0.000 C 
BRANCH   7   8
ATOM      8  C   UNL     1      88.162 324.836 192.311  1.00  0.00    -0.003 C 
ATOM      9  C   UNL     1      88.535 324.361 190.910  1.00  0.00     0.004 C 
ENDBRANCH   7   8
ENDBRANCH   6   7
ENDBRANCH   1   6
TORSDOF 5
ENDMDL
MODEL 2
REMARK VINA RESULT:    -4.473      1.433      2.148
REMARK INTER + INTRA:          -6.074
REMARK INTER:                  -5.829
REMARK INTRA:                  -0.245
REMARK UNBOUND:                -0.293
REMARK SMILES CCCCCCC(=O)[O-]
REMARK SMILES IDX 5 1 6 2 7 3 8 4 9 5 4 6 3 7 2 8 1 9
REMARK H PARENT
REMARK Flexibility Score: inf
ROOT
ATOM      1  C   UNL     1      87.876 325.917 193.281  1.00  0.00     0.006 C 
ENDROOT
BRANCH   1   2
ATOM      2  C   UNL     1      86.498 325.995 193.950  1.00  0.00     0.053 C 
BRANCH   2   3
ATOM      3  C   UNL     1      86.635 326.379 195.389  1.00  0.00     0.041 C 
ATOM      4  O   UNL     1      85.876 327.251 195.886  1.00  0.00    -0.550 OA
ATOM      5  O   UNL     1      87.634 325.811 196.168  1.00  0.00    -0.550 OA
ENDBRANCH   2   3
ENDBRANCH   1   2
BRANCH   1   6
ATOM      6  C   UNL     1      88.232 324.497 192.802  1.00  0.00     0.000 C 
BRANCH   6   7
ATOM      7  C   UNL     1      88.495 324.370 191.290  1.00  0.00    -0.000 C 
BRANCH   7   8
ATOM      8  C   UNL     1      87.571 323.353 190.606  1.00  0.00    -0.003 C 
ATOM      9  C   UNL     1      86.224 323.268 191.318  1.00  0.00     0.004 C 
ENDBRANCH   7   8
ENDBRANCH   6   7
ENDBRANCH   1   6
TORSDOF 5
ENDMDL
MODEL 3
REMARK VINA RESULT:    -4.467      2.972      4.913
REMARK INTER + INTRA:          -6.067
REMARK INTER:                  -5.917
REMARK INTRA:                  -0.149
REMARK UNBOUND:                -0.293
REMARK SMILES CCCCCCC(=O)[O-]
REMARK SMILES IDX 5 1 6 2 7 3 8 4 9 5 4 6 3 7 2 8 1 9
REMARK H PARENT
REMARK Flexibility Score: inf
ROOT
ATOM      1  C   UNL     1      88.139 324.764 193.142  1.00  0.00     0.006 C 
ENDROOT
BRANCH   1   2
ATOM      2  C   UNL     1      88.318 324.639 191.623  1.00  0.00     0.053 C 
BRANCH   2   3
ATOM      3  C   UNL     1      87.285 323.722 191.049  1.00  0.00     0.041 C 
ATOM      4  O   UNL     1      87.563 322.998 190.058  1.00  0.00    -0.550 OA
ATOM      5  O   UNL     1      86.001 323.704 191.576  1.00  0.00    -0.550 OA
ENDBRANCH   2   3
ENDBRANCH   1   2
BRANCH   1   6
ATOM      6  C   UNL     1      88.112 326.225 193.626  1.00  0.00     0.000 C 
BRANCH   6   7
ATOM      7  C   UNL     1      86.830 326.638 194.372  1.00  0.00    -0.000 C 
BRANCH   7   8
ATOM      8  C   UNL     1      86.936 326.449 195.892  1.00  0.00    -0.003 C 
ATOM      9  C   UNL     1      88.393 326.438 196.345  1.00  0.00     0.004 C 
ENDBRANCH   7   8
ENDBRANCH   6   7
ENDBRANCH   1   6
TORSDOF 5
ENDMDL
MODEL 4
REMARK VINA RESULT:    -4.394      1.198      1.962
REMARK INTER + INTRA:          -5.972
REMARK INTER:                  -5.715
REMARK INTRA:                  -0.258
REMARK UNBOUND:                -0.293
REMARK SMILES CCCCCCC(=O)[O-]
REMARK SMILES IDX 5 1 6 2 7 3 8 4 9 5 4 6 3 7 2 8 1 9
REMARK H PARENT
REMARK Flexibility Score: inf
ROOT
ATOM      1  C   UNL     1      86.945 326.489 195.852  1.00  0.00     0.006 C 
ENDROOT
BRANCH   1   2
ATOM      2  C   UNL     1      88.340 326.375 196.481  1.00  0.00     0.053 C 
BRANCH   2   3
ATOM      3  C   UNL     1      88.590 324.977 196.949  1.00  0.00     0.041 C 
ATOM      4  O   UNL     1      88.183 323.999 196.269  1.00  0.00    -0.550 OA
ATOM      5  O   UNL     1      89.229 324.754 198.162  1.00  0.00    -0.550 OA
ENDBRANCH   2   3
ENDBRANCH   1   2
BRANCH   1   6
ATOM      6  C   UNL     1      86.984 326.953 194.384  1.00  0.00     0.000 C 
BRANCH   6   7
ATOM      7  C   UNL     1      88.040 326.252 193.510  1.00  0.00    -0.000 C 
BRANCH   7   8
ATOM      8  C   UNL     1      87.497 325.003 192.800  1.00  0.00    -0.003 C 
ATOM      9  C   UNL     1      88.349 324.647 191.586  1.00  0.00     0.004 C 
ENDBRANCH   7   8
ENDBRANCH   6   7
ENDBRANCH   1   6
TORSDOF 5
ENDMDL
MODEL 5
REMARK VINA RESULT:    -4.388     20.278     21.633
REMARK INTER + INTRA:          -5.964
REMARK INTER:                  -5.817
REMARK INTRA:                  -0.146
REMARK UNBOUND:                -0.293
REMARK SMILES CCCCCCC(=O)[O-]
REMARK SMILES IDX 5 1 6 2 7 3 8 4 9 5 4 6 3 7 2 8 1 9
REMARK H PARENT
REMARK Flexibility Score: inf
ROOT
ATOM      1  C   UNL     1     105.475 311.559 193.247  1.00  0.00     0.006 C 
ENDROOT
BRANCH   1   2
ATOM      2  C   UNL     1     106.033 311.806 194.654  1.00  0.00     0.053 C 
BRANCH   2   3
ATOM      3  C   UNL     1     104.951 312.286 195.569  1.00  0.00     0.041 C 
ATOM      4  O   UNL     1     104.622 313.501 195.578  1.00  0.00    -0.550 OA
ATOM      5  O   UNL     1     104.341 311.401 196.447  1.00  0.00    -0.550 OA
ENDBRANCH   2   3
ENDBRANCH   1   2
BRANCH   1   6
ATOM      6  C   UNL     1     105.602 312.786 192.326  1.00  0.00     0.000 C 
BRANCH   6   7
ATOM      7  C   UNL     1     104.266 313.346 191.803  1.00  0.00    -0.000 C 
BRANCH   7   8
ATOM      8  C   UNL     1     104.448 314.392 190.694  1.00  0.00    -0.003 C 
ATOM      9  C   UNL     1     103.418 314.202 189.585  1.00  0.00     0.004 C 
ENDBRANCH   7   8
ENDBRANCH   6   7
ENDBRANCH   1   6
TORSDOF 5
ENDMDL
MODEL 6
REMARK VINA RESULT:    -4.364     20.050     21.176
REMARK INTER + INTRA:          -5.933
REMARK INTER:                  -5.812
REMARK INTRA:                  -0.121
REMARK UNBOUND:                -0.293
REMARK SMILES CCCCCCC(=O)[O-]
REMARK SMILES IDX 5 1 6 2 7 3 8 4 9 5 4 6 3 7 2 8 1 9
REMARK H PARENT
REMARK Flexibility Score: inf
ROOT
ATOM      1  C   UNL     1     104.276 313.427 192.349  1.00  0.00     0.006 C 
ENDROOT
BRANCH   1   2
ATOM      2  C   UNL     1     104.706 312.011 192.754  1.00  0.00     0.053 C 
BRANCH   2   3
ATOM      3  C   UNL     1     104.860 311.916 194.239  1.00  0.00     0.041 C 
ATOM      4  O   UNL     1     103.843 311.848 194.977  1.00  0.00    -0.550 OA
ATOM      5  O   UNL     1     106.125 311.953 194.810  1.00  0.00    -0.550 OA
ENDBRANCH   2   3
ENDBRANCH   1   2
BRANCH   1   6
ATOM      6  C   UNL     1     103.953 313.550 190.848  1.00  0.00     0.000 C 
BRANCH   6   7
ATOM      7  C   UNL     1     104.761 314.625 190.097  1.00  0.00    -0.000 C 
BRANCH   7   8
ATOM      8  C   UNL     1     104.090 315.075 188.792  1.00  0.00    -0.003 C 
ATOM      9  C   UNL     1     102.730 314.407 188.615  1.00  0.00     0.004 C 
ENDBRANCH   7   8
ENDBRANCH   6   7
ENDBRANCH   1   6
TORSDOF 5
ENDMDL
MODEL 7
REMARK VINA RESULT:    -4.319      1.474      2.170
REMARK INTER + INTRA:          -5.875
REMARK INTER:                  -5.810
REMARK INTRA:                  -0.064
REMARK UNBOUND:                -0.293
REMARK SMILES CCCCCCC(=O)[O-]
REMARK SMILES IDX 5 1 6 2 7 3 8 4 9 5 4 6 3 7 2 8 1 9
REMARK H PARENT
REMARK Flexibility Score: inf
ROOT
ATOM      1  C   UNL     1      87.977 325.418 193.538  1.00  0.00     0.006 C 
ENDROOT
BRANCH   1   2
ATOM      2  C   UNL     1      88.101 325.091 195.032  1.00  0.00     0.053 C 
BRANCH   2   3
ATOM      3  C   UNL     1      87.471 326.168 195.857  1.00  0.00     0.041 C 
ATOM      4  O   UNL     1      88.081 326.642 196.851  1.00  0.00    -0.550 OA
ATOM      5  O   UNL     1      86.191 326.614 195.559  1.00  0.00    -0.550 OA
ENDBRANCH   2   3
ENDBRANCH   1   2
BRANCH   1   6
ATOM      6  C   UNL     1      88.468 324.276 192.630  1.00  0.00     0.000 C 
BRANCH   6   7
ATOM      7  C   UNL     1      88.458 324.594 191.124  1.00  0.00    -0.000 C 
BRANCH   7   8
ATOM      8  C   UNL     1      88.852 323.391 190.255  1.00  0.00    -0.003 C 
ATOM      9  C   UNL     1      89.580 323.841 188.992  1.00  0.00     0.004 C 
ENDBRANCH   7   8
ENDBRANCH   6   7
ENDBRANCH   1   6
TORSDOF 5
ENDMDL
MODEL 8
REMARK VINA RESULT:    -4.317     20.743     21.885
REMARK INTER + INTRA:          -5.873
REMARK INTER:                  -5.726
REMARK INTRA:                  -0.147
REMARK UNBOUND:                -0.293
REMARK SMILES CCCCCCC(=O)[O-]
REMARK SMILES IDX 5 1 6 2 7 3 8 4 9 5 4 6 3 7 2 8 1 9
REMARK H PARENT
REMARK Flexibility Score: inf
ROOT
ATOM      1  C   UNL     1     104.631 313.555 192.050  1.00  0.00     0.006 C 
ENDROOT
BRANCH   1   2
ATOM      2  C   UNL     1     104.008 313.756 190.663  1.00  0.00     0.053 C 
BRANCH   2   3
ATOM      3  C   UNL     1     104.813 314.732 189.864  1.00  0.00     0.041 C 
ATOM      4  O   UNL     1     104.319 315.270 188.839  1.00  0.00    -0.550 OA
ATOM      5  O   UNL     1     106.125 315.009 190.223  1.00  0.00    -0.550 OA
ENDBRANCH   2   3
ENDBRANCH   1   2
BRANCH   1   6
ATOM      6  C   UNL     1     104.353 312.159 192.637  1.00  0.00     0.000 C 
BRANCH   6   7
ATOM      7  C   UNL     1     105.585 311.444 193.222  1.00  0.00    -0.000 C 
BRANCH   7   8
ATOM      8  C   UNL     1     106.040 312.036 194.564  1.00  0.00    -0.003 C 
ATOM      9  C   UNL     1     104.919 311.975 195.598  1.00  0.00     0.004 C 
ENDBRANCH   7   8
ENDBRANCH   6   7
ENDBRANCH   1   6
TORSDOF 5
ENDMDL
MODEL 9
REMARK VINA RESULT:    -4.294     20.704     21.886
REMARK INTER + INTRA:          -5.842
REMARK INTER:                  -5.606
REMARK INTRA:                  -0.236
REMARK UNBOUND:                -0.293
REMARK SMILES CCCCCCC(=O)[O-]
REMARK SMILES IDX 5 1 6 2 7 3 8 4 9 5 4 6 3 7 2 8 1 9
REMARK H PARENT
REMARK Flexibility Score: inf
ROOT
ATOM      1  C   UNL     1     105.599 312.885 192.367  1.00  0.00     0.006 C 
ENDROOT
BRANCH   1   2
ATOM      2  C   UNL     1     104.229 313.300 191.815  1.00  0.00     0.053 C 
BRANCH   2   3
ATOM      3  C   UNL     1     104.386 314.009 190.506  1.00  0.00     0.041 C 
ATOM      4  O   UNL     1     105.451 314.629 190.247  1.00  0.00    -0.550 OA
ATOM      5  O   UNL     1     103.339 314.027 189.596  1.00  0.00    -0.550 OA
ENDBRANCH   2   3
ENDBRANCH   1   2
BRANCH   1   6
ATOM      6  C   UNL     1     105.529 311.642 193.274  1.00  0.00     0.000 C 
BRANCH   6   7
ATOM      7  C   UNL     1     105.955 311.880 194.734  1.00  0.00    -0.000 C 
BRANCH   7   8
ATOM      8  C   UNL     1     104.769 311.889 195.709  1.00  0.00    -0.003 C 
ATOM      9  C   UNL     1     104.088 313.254 195.734  1.00  0.00     0.004 C 
ENDBRANCH   7   8
ENDBRANCH   6   7
ENDBRANCH   1   6
TORSDOF 5
ENDMDL
