MODEL 1
REMARK VINA RESULT:    -6.000      0.000      0.000
REMARK INTER + INTRA:          -8.283
REMARK INTER:                  -7.403
REMARK INTRA:                  -0.880
REMARK UNBOUND:                -0.880
REMARK SMILES CC(C)=CCC[C@H](C)c1ccc(C)cc1
REMARK SMILES IDX 6 1 7 2 8 3 9 4 13 5 12 6 11 7 14 8 10 9 15 10 5 11 4 12
REMARK SMILES IDX 2 13 1 14 3 15
REMARK H PARENT
REMARK Flexibility Score: inf
ROOT
ATOM      1  C   UNL     1       1.050   6.074  19.905  1.00  0.00     0.012 C 
ENDROOT
BRANCH   1   2
ATOM      2  C   UNL     1       2.071   6.760  20.843  1.00  0.00     0.016 C 
ATOM      3  C   UNL     1       1.640   8.198  21.153  1.00  0.00     0.013 C 
BRANCH   2   4
ATOM      4  C   UNL     1       3.479   6.736  20.274  1.00  0.00    -0.045 A 
ATOM      5  C   UNL     1       7.469   6.689  18.620  1.00  0.00     0.044 C 
ATOM      6  C   UNL     1       6.087   6.734  19.202  1.00  0.00    -0.051 A 
ATOM      7  C   UNL     1       5.872   6.378  20.541  1.00  0.00     0.004 A 
ATOM      8  C   UNL     1       4.990   7.067  18.395  1.00  0.00     0.004 A 
ATOM      9  C   UNL     1       4.582   6.385  21.076  1.00  0.00     0.004 A 
ATOM     10  C   UNL     1       3.698   7.074  18.928  1.00  0.00     0.004 A 
ENDBRANCH   2   4
ENDBRANCH   1   2
BRANCH   1  11
ATOM     11  C   UNL     1       0.560   4.708  20.418  1.00  0.00     0.028 C 
BRANCH  11  12
ATOM     12  C   UNL     1       0.786   4.539  21.901  1.00  0.00    -0.028 C 
ATOM     13  C   UNL     1      -0.138   4.795  22.853  1.00  0.00    -0.080 C 
ATOM     14  C   UNL     1      -1.543   5.230  22.510  1.00  0.00     0.039 C 
ATOM     15  C   UNL     1       0.253   4.615  24.297  1.00  0.00     0.039 C 
ENDBRANCH  11  12
ENDBRANCH   1  11
TORSDOF 4
ENDMDL
MODEL 2
REMARK VINA RESULT:    -5.828      0.400      1.312
REMARK INTER + INTRA:          -8.071
REMARK INTER:                  -7.200
REMARK INTRA:                  -0.871
REMARK UNBOUND:                -0.880
REMARK SMILES CC(C)=CCC[C@H](C)c1ccc(C)cc1
REMARK SMILES IDX 6 1 7 2 8 3 9 4 13 5 12 6 11 7 14 8 10 9 15 10 5 11 4 12
REMARK SMILES IDX 2 13 1 14 3 15
REMARK H PARENT
REMARK Flexibility Score: inf
ROOT
ATOM      1  C   UNL     1       0.736   6.208  20.235  1.00  0.00     0.012 C 
ENDROOT
BRANCH   1   2
ATOM      2  C   UNL     1       1.773   7.028  21.039  1.00  0.00     0.016 C 
ATOM      3  C   UNL     1       1.342   8.496  21.138  1.00  0.00     0.013 C 
BRANCH   2   4
ATOM      4  C   UNL     1       3.169   6.919  20.452  1.00  0.00    -0.045 A 
ATOM      5  C   UNL     1       7.154   6.590  18.818  1.00  0.00     0.044 C 
ATOM      6  C   UNL     1       5.766   6.675  19.380  1.00  0.00    -0.051 A 
ATOM      7  C   UNL     1       4.689   7.026  18.553  1.00  0.00     0.004 A 
ATOM      8  C   UNL     1       5.543   6.471  20.749  1.00  0.00     0.004 A 
ATOM      9  C   UNL     1       3.401   7.141  19.081  1.00  0.00     0.004 A 
ATOM     10  C   UNL     1       4.255   6.586  21.279  1.00  0.00     0.004 A 
ENDBRANCH   2   4
ENDBRANCH   1   2
BRANCH   1  11
ATOM     11  C   UNL     1       0.643   4.734  20.669  1.00  0.00     0.028 C 
BRANCH  11  12
ATOM     12  C   UNL     1       0.770   4.569  22.165  1.00  0.00    -0.028 C 
ATOM     13  C   UNL     1      -0.270   4.548  23.027  1.00  0.00    -0.080 C 
ATOM     14  C   UNL     1      -1.703   4.629  22.557  1.00  0.00     0.039 C 
ATOM     15  C   UNL     1       0.022   4.414  24.498  1.00  0.00     0.039 C 
ENDBRANCH  11  12
ENDBRANCH   1  11
TORSDOF 4
ENDMDL
MODEL 3
REMARK VINA RESULT:    -5.811     11.792     13.293
REMARK INTER + INTRA:          -8.049
REMARK INTER:                  -7.064
REMARK INTRA:                  -0.985
REMARK UNBOUND:                -0.880
REMARK SMILES CC(C)=CCC[C@H](C)c1ccc(C)cc1
REMARK SMILES IDX 6 1 7 2 8 3 9 4 13 5 12 6 11 7 14 8 10 9 15 10 5 11 4 12
REMARK SMILES IDX 2 13 1 14 3 15
REMARK H PARENT
REMARK Flexibility Score: inf
ROOT
ATOM      1  C   UNL     1       6.396  -6.767  20.431  1.00  0.00     0.012 C 
ENDROOT
BRANCH   1   2
ATOM      2  C   UNL     1       7.174  -5.786  21.340  1.00  0.00     0.016 C 
ATOM      3  C   UNL     1       8.679  -6.073  21.283  1.00  0.00     0.013 C 
BRANCH   2   4
ATOM      4  C   UNL     1       6.679  -5.820  22.776  1.00  0.00    -0.045 A 
ATOM      5  C   UNL     1       5.305  -5.892  26.870  1.00  0.00     0.044 C 
ATOM      6  C   UNL     1       5.774  -5.838  25.446  1.00  0.00    -0.051 A 
ATOM      7  C   UNL     1       4.906  -6.194  24.402  1.00  0.00     0.004 A 
ATOM      8  C   UNL     1       7.101  -5.498  25.151  1.00  0.00     0.004 A 
ATOM      9  C   UNL     1       5.351  -6.178  23.078  1.00  0.00     0.004 A 
ATOM     10  C   UNL     1       7.548  -5.483  23.827  1.00  0.00     0.004 A 
ENDBRANCH   2   4
ENDBRANCH   1   2
BRANCH   1  11
ATOM     11  C   UNL     1       5.511  -6.069  19.383  1.00  0.00     0.028 C 
BRANCH  11  12
ATOM     12  C   UNL     1       4.078  -6.541  19.440  1.00  0.00    -0.028 C 
ATOM     13  C   UNL     1       3.058  -5.838  19.980  1.00  0.00    -0.080 C 
ATOM     14  C   UNL     1       3.250  -4.449  20.541  1.00  0.00     0.039 C 
ATOM     15  C   UNL     1       1.687  -6.462  19.995  1.00  0.00     0.039 C 
ENDBRANCH  11  12
ENDBRANCH   1  11
TORSDOF 4
ENDMDL
MODEL 4
REMARK VINA RESULT:    -5.768     10.653     11.741
REMARK INTER + INTRA:          -7.997
REMARK INTER:                  -7.471
REMARK INTRA:                  -0.526
REMARK UNBOUND:                -0.880
REMARK SMILES CC(C)=CCC[C@H](C)c1ccc(C)cc1
REMARK SMILES IDX 6 1 7 2 8 3 9 4 13 5 12 6 11 7 14 8 10 9 15 10 5 11 4 12
REMARK SMILES IDX 2 13 1 14 3 15
REMARK H PARENT
REMARK Flexibility Score: inf
ROOT
ATOM      1  C   UNL     1       2.714  -4.482  20.759  1.00  0.00     0.012 C 
ENDROOT
BRANCH   1   2
ATOM      2  C   UNL     1       3.793  -5.263  19.972  1.00  0.00     0.016 C 
ATOM      3  C   UNL     1       3.213  -6.564  19.404  1.00  0.00     0.013 C 
BRANCH   2   4
ATOM      4  C   UNL     1       5.022  -5.551  20.818  1.00  0.00    -0.045 A 
ATOM      5  C   UNL     1       8.490  -6.371  23.258  1.00  0.00     0.044 C 
ATOM      6  C   UNL     1       7.277  -6.115  22.414  1.00  0.00    -0.051 A 
ATOM      7  C   UNL     1       7.353  -6.224  21.017  1.00  0.00     0.004 A 
ATOM      8  C   UNL     1       6.076  -5.700  23.006  1.00  0.00     0.004 A 
ATOM      9  C   UNL     1       6.235  -5.951  20.226  1.00  0.00     0.004 A 
ATOM     10  C   UNL     1       4.957  -5.427  22.216  1.00  0.00     0.004 A 
ENDBRANCH   2   4
ENDBRANCH   1   2
BRANCH   1  11
ATOM     11  C   UNL     1       1.532  -4.015  19.889  1.00  0.00     0.028 C 
BRANCH  11  12
ATOM     12  C   UNL     1       0.202  -4.468  20.440  1.00  0.00    -0.028 C 
ATOM     13  C   UNL     1      -0.596  -3.720  21.234  1.00  0.00    -0.080 C 
ATOM     14  C   UNL     1      -0.250  -2.298  21.606  1.00  0.00     0.039 C 
ATOM     15  C   UNL     1      -1.879  -4.329  21.736  1.00  0.00     0.039 C 
ENDBRANCH  11  12
ENDBRANCH   1  11
TORSDOF 4
ENDMDL
MODEL 5
REMARK VINA RESULT:    -5.754      1.532      2.722
REMARK INTER + INTRA:          -7.979
REMARK INTER:                  -6.470
REMARK INTRA:                  -1.510
REMARK UNBOUND:                -0.880
REMARK SMILES CC(C)=CCC[C@H](C)c1ccc(C)cc1
REMARK SMILES IDX 6 1 7 2 8 3 9 4 13 5 12 6 11 7 14 8 10 9 15 10 5 11 4 12
REMARK SMILES IDX 2 13 1 14 3 15
REMARK H PARENT
REMARK Flexibility Score: inf
ROOT
ATOM      1  C   UNL     1       0.364   9.089  21.381  1.00  0.00     0.012 C 
ENDROOT
BRANCH   1   2
ATOM      2  C   UNL     1       1.431   9.676  20.427  1.00  0.00     0.016 C 
ATOM      3  C   UNL     1       0.779  10.190  19.138  1.00  0.00     0.013 C 
BRANCH   2   4
ATOM      4  C   UNL     1       2.528   8.675  20.109  1.00  0.00    -0.045 A 
ATOM      5  C   UNL     1       5.647   5.815  19.246  1.00  0.00     0.044 C 
ATOM      6  C   UNL     1       4.544   6.786  19.546  1.00  0.00    -0.051 A 
ATOM      7  C   UNL     1       3.857   7.421  18.501  1.00  0.00     0.004 A 
ATOM      8  C   UNL     1       4.235   7.118  20.873  1.00  0.00     0.004 A 
ATOM      9  C   UNL     1       2.854   8.352  18.778  1.00  0.00     0.004 A 
ATOM     10  C   UNL     1       3.231   8.050  21.152  1.00  0.00     0.004 A 
ENDBRANCH   2   4
ENDBRANCH   1   2
BRANCH   1  11
ATOM     11  C   UNL     1      -0.335   7.833  20.829  1.00  0.00     0.028 C 
BRANCH  11  12
ATOM     12  C   UNL     1      -0.172   6.641  21.742  1.00  0.00    -0.028 C 
ATOM     13  C   UNL     1       0.416   5.477  21.387  1.00  0.00    -0.080 C 
ATOM     14  C   UNL     1       1.039   5.275  20.026  1.00  0.00     0.039 C 
ATOM     15  C   UNL     1       0.468   4.363  22.400  1.00  0.00     0.039 C 
ENDBRANCH  11  12
ENDBRANCH   1  11
TORSDOF 4
ENDMDL
MODEL 6
REMARK VINA RESULT:    -5.686     12.739     14.796
REMARK INTER + INTRA:          -7.895
REMARK INTER:                  -7.247
REMARK INTRA:                  -0.648
REMARK UNBOUND:                -0.880
REMARK SMILES CC(C)=CCC[C@H](C)c1ccc(C)cc1
REMARK SMILES IDX 6 1 7 2 8 3 9 4 13 5 12 6 11 7 14 8 10 9 15 10 5 11 4 12
REMARK SMILES IDX 2 13 1 14 3 15
REMARK H PARENT
REMARK Flexibility Score: inf
ROOT
ATOM      1  C   UNL     1       9.171  -5.491  21.121  1.00  0.00     0.012 C 
ENDROOT
BRANCH   1   2
ATOM      2  C   UNL     1       8.097  -6.238  21.945  1.00  0.00     0.016 C 
ATOM      3  C   UNL     1       8.343  -7.752  21.909  1.00  0.00     0.013 C 
BRANCH   2   4
ATOM      4  C   UNL     1       6.688  -5.915  21.478  1.00  0.00    -0.045 A 
ATOM      5  C   UNL     1       2.674  -4.978  20.187  1.00  0.00     0.044 C 
ATOM      6  C   UNL     1       4.075  -5.274  20.633  1.00  0.00    -0.051 A 
ATOM      7  C   UNL     1       5.057  -5.623  19.694  1.00  0.00     0.004 A 
ATOM      8  C   UNL     1       4.399  -5.272  21.997  1.00  0.00     0.004 A 
ATOM      9  C   UNL     1       6.354  -5.934  20.110  1.00  0.00     0.004 A 
ATOM     10  C   UNL     1       5.696  -5.583  22.415  1.00  0.00     0.004 A 
ENDBRANCH   2   4
ENDBRANCH   1   2
BRANCH   1  11
ATOM     11  C   UNL     1      10.615  -5.853  21.514  1.00  0.00     0.028 C 
BRANCH  11  12
ATOM     12  C   UNL     1      11.500  -6.065  20.310  1.00  0.00    -0.028 C 
ATOM     13  C   UNL     1      12.061  -7.246  19.968  1.00  0.00    -0.080 C 
ATOM     14  C   UNL     1      11.800  -8.514  20.746  1.00  0.00     0.039 C 
ATOM     15  C   UNL     1      12.955  -7.289  18.755  1.00  0.00     0.039 C 
ENDBRANCH  11  12
ENDBRANCH   1  11
TORSDOF 4
ENDMDL
MODEL 7
REMARK VINA RESULT:    -5.645     10.303     11.560
REMARK INTER + INTRA:          -7.845
REMARK INTER:                  -7.178
REMARK INTRA:                  -0.667
REMARK UNBOUND:                -0.880
REMARK SMILES CC(C)=CCC[C@H](C)c1ccc(C)cc1
REMARK SMILES IDX 6 1 7 2 8 3 9 4 13 5 12 6 11 7 14 8 10 9 15 10 5 11 4 12
REMARK SMILES IDX 2 13 1 14 3 15
REMARK H PARENT
REMARK Flexibility Score: inf
ROOT
ATOM      1  C   UNL     1       1.385  -3.717  20.315  1.00  0.00     0.012 C 
ENDROOT
BRANCH   1   2
ATOM      2  C   UNL     1       1.733  -5.094  19.702  1.00  0.00     0.016 C 
ATOM      3  C   UNL     1       0.689  -6.144  20.101  1.00  0.00     0.013 C 
BRANCH   2   4
ATOM      4  C   UNL     1       3.128  -5.555  20.085  1.00  0.00    -0.045 A 
ATOM      5  C   UNL     1       7.099  -6.890  21.136  1.00  0.00     0.044 C 
ATOM      6  C   UNL     1       5.732  -6.407  20.752  1.00  0.00    -0.051 A 
ATOM      7  C   UNL     1       5.112  -5.384  21.485  1.00  0.00     0.004 A 
ATOM      8  C   UNL     1       5.035  -7.019  19.701  1.00  0.00     0.004 A 
ATOM      9  C   UNL     1       3.825  -4.956  21.151  1.00  0.00     0.004 A 
ATOM     10  C   UNL     1       3.747  -6.592  19.366  1.00  0.00     0.004 A 
ENDBRANCH   2   4
ENDBRANCH   1   2
BRANCH   1  11
ATOM     11  C   UNL     1       0.258  -3.774  21.363  1.00  0.00     0.028 C 
BRANCH  11  12
ATOM     12  C   UNL     1      -0.947  -2.962  20.953  1.00  0.00    -0.028 C 
ATOM     13  C   UNL     1      -2.227  -3.383  21.054  1.00  0.00    -0.080 C 
ATOM     14  C   UNL     1      -2.587  -4.719  21.659  1.00  0.00     0.039 C 
ATOM     15  C   UNL     1      -3.321  -2.469  20.565  1.00  0.00     0.039 C 
ENDBRANCH  11  12
ENDBRANCH   1  11
TORSDOF 4
ENDMDL
MODEL 8
REMARK VINA RESULT:    -5.629      1.290      6.511
REMARK INTER + INTRA:          -7.825
REMARK INTER:                  -7.027
REMARK INTRA:                  -0.797
REMARK UNBOUND:                -0.880
REMARK SMILES CC(C)=CCC[C@H](C)c1ccc(C)cc1
REMARK SMILES IDX 6 1 7 2 8 3 9 4 13 5 12 6 11 7 14 8 10 9 15 10 5 11 4 12
REMARK SMILES IDX 2 13 1 14 3 15
REMARK H PARENT
REMARK Flexibility Score: inf
ROOT
ATOM      1  C   UNL     1       1.313   7.177  20.752  1.00  0.00     0.012 C 
ENDROOT
BRANCH   1   2
ATOM      2  C   UNL     1       1.180   5.699  21.191  1.00  0.00     0.016 C 
ATOM      3  C   UNL     1       0.794   4.814  20.000  1.00  0.00     0.013 C 
BRANCH   2   4
ATOM      4  C   UNL     1       0.188   5.526  22.328  1.00  0.00    -0.045 A 
ATOM      5  C   UNL     1      -2.662   5.050  25.538  1.00  0.00     0.044 C 
ATOM      6  C   UNL     1      -1.684   5.191  24.410  1.00  0.00    -0.051 A 
ATOM      7  C   UNL     1      -0.419   4.591  24.492  1.00  0.00     0.004 A 
ATOM      8  C   UNL     1      -1.999   5.980  23.295  1.00  0.00     0.004 A 
ATOM      9  C   UNL     1       0.507   4.750  23.459  1.00  0.00     0.004 A 
ATOM     10  C   UNL     1      -1.073   6.140  22.260  1.00  0.00     0.004 A 
ENDBRANCH   2   4
ENDBRANCH   1   2
BRANCH   1  11
ATOM     11  C   UNL     1       2.692   7.790  21.056  1.00  0.00     0.028 C 
BRANCH  11  12
ATOM     12  C   UNL     1       3.764   7.276  20.125  1.00  0.00    -0.028 C 
ATOM     13  C   UNL     1       4.804   6.501  20.506  1.00  0.00    -0.080 C 
ATOM     14  C   UNL     1       4.963   6.014  21.926  1.00  0.00     0.039 C 
ATOM     15  C   UNL     1       5.815   6.100  19.464  1.00  0.00     0.039 C 
ENDBRANCH  11  12
ENDBRANCH   1  11
TORSDOF 4
ENDMDL
MODEL 9
REMARK VINA RESULT:    -5.588     12.657     14.552
REMARK INTER + INTRA:          -7.775
REMARK INTER:                  -7.008
REMARK INTRA:                  -0.767
REMARK UNBOUND:                -0.880
REMARK SMILES CC(C)=CCC[C@H](C)c1ccc(C)cc1
REMARK SMILES IDX 6 1 7 2 8 3 9 4 13 5 12 6 11 7 14 8 10 9 15 10 5 11 4 12
REMARK SMILES IDX 2 13 1 14 3 15
REMARK H PARENT
REMARK Flexibility Score: inf
ROOT
ATOM      1  C   UNL     1       8.296  -7.604  21.909  1.00  0.00     0.012 C 
ENDROOT
BRANCH   1   2
ATOM      2  C   UNL     1       7.679  -6.187  21.979  1.00  0.00     0.016 C 
ATOM      3  C   UNL     1       7.626  -5.691  23.429  1.00  0.00     0.013 C 
BRANCH   2   4
ATOM      4  C   UNL     1       6.299  -6.132  21.345  1.00  0.00    -0.045 A 
ATOM      5  C   UNL     1       2.368  -5.939  19.567  1.00  0.00     0.044 C 
ATOM      6  C   UNL     1       3.741  -5.982  20.169  1.00  0.00    -0.051 A 
ATOM      7  C   UNL     1       4.750  -6.755  19.574  1.00  0.00     0.004 A 
ATOM      8  C   UNL     1       4.010  -5.306  21.367  1.00  0.00     0.004 A 
ATOM      9  C   UNL     1       6.019  -6.824  20.152  1.00  0.00     0.004 A 
ATOM     10  C   UNL     1       5.280  -5.374  21.946  1.00  0.00     0.004 A 
ENDBRANCH   2   4
ENDBRANCH   1   2
BRANCH   1  11
ATOM     11  C   UNL     1       9.786  -7.648  22.295  1.00  0.00     0.028 C 
BRANCH  11  12
ATOM     12  C   UNL     1      10.692  -7.445  21.104  1.00  0.00    -0.028 C 
ATOM     13  C   UNL     1      11.273  -6.271  20.773  1.00  0.00    -0.080 C 
ATOM     14  C   UNL     1      11.116  -5.031  21.622  1.00  0.00     0.039 C 
ATOM     15  C   UNL     1      12.122  -6.218  19.530  1.00  0.00     0.039 C 
ENDBRANCH  11  12
ENDBRANCH   1  11
TORSDOF 4
ENDMDL
