MODEL 1
REMARK VINA RESULT:    -3.736      0.000      0.000
REMARK INTER + INTRA:          -5.899
REMARK INTER:                  -5.483
REMARK INTRA:                  -0.415
REMARK UNBOUND:                -0.415
REMARK SMILES O=C([O-])CCCCCCCC(=O)[O-]
REMARK SMILES IDX 7 1 6 2 5 3 4 4 2 5 1 6 3 7 8 8 9 9 10 10 11 11 12 12 13 13
REMARK H PARENT
REMARK Flexibility Score: inf
ROOT
ATOM      1  C   UNL     1       5.532   3.344  48.260  1.00  0.00     0.000 C 
ENDROOT
BRANCH   1   2
ATOM      2  C   UNL     1       6.379   4.321  49.090  1.00  0.00     0.000 C 
BRANCH   2   3
ATOM      3  C   UNL     1       7.141   5.333  48.219  1.00  0.00     0.006 C 
BRANCH   3   4
ATOM      4  C   UNL     1       7.476   6.627  48.973  1.00  0.00     0.053 C 
BRANCH   4   5
ATOM      5  C   UNL     1       7.655   7.759  48.012  1.00  0.00     0.041 C 
ATOM      6  O   UNL     1       6.707   8.556  47.787  1.00  0.00    -0.550 OA
ATOM      7  O   UNL     1       8.886   7.963  47.400  1.00  0.00    -0.550 OA
ENDBRANCH   4   5
ENDBRANCH   3   4
ENDBRANCH   2   3
ENDBRANCH   1   2
BRANCH   1   8
ATOM      8  C   UNL     1       6.427   2.344  47.513  1.00  0.00     0.000 C 
BRANCH   8   9
ATOM      9  C   UNL     1       6.988   1.248  48.433  1.00  0.00     0.006 C 
BRANCH   9  10
ATOM     10  C   UNL     1       5.914   0.625  49.334  1.00  0.00     0.053 C 
BRANCH  10  11
ATOM     11  C   UNL     1       6.379   0.596  50.756  1.00  0.00     0.041 C 
ATOM     12  O   UNL     1       6.186  -0.425  51.465  1.00  0.00    -0.550 OA
ATOM     13  O   UNL     1       6.984   1.717  51.312  1.00  0.00    -0.550 OA
ENDBRANCH  10  11
ENDBRANCH   9  10
ENDBRANCH   8   9
ENDBRANCH   1   8
TORSDOF 8
ENDMDL
MODEL 2
REMARK VINA RESULT:    -3.699      1.309      6.844
REMARK INTER + INTRA:          -5.845
REMARK INTER:                  -5.554
REMARK INTRA:                  -0.291
REMARK UNBOUND:                -0.415
REMARK SMILES O=C([O-])CCCCCCCC(=O)[O-]
REMARK SMILES IDX 7 1 6 2 5 3 4 4 2 5 1 6 3 7 8 8 9 9 10 10 11 11 12 12 13 13
REMARK H PARENT
REMARK Flexibility Score: inf
ROOT
ATOM      1  C   UNL     1       6.367   4.250  49.015  1.00  0.00     0.000 C 
ENDROOT
BRANCH   1   2
ATOM      2  C   UNL     1       5.593   3.300  48.087  1.00  0.00     0.000 C 
BRANCH   2   3
ATOM      3  C   UNL     1       6.410   2.059  47.694  1.00  0.00     0.006 C 
BRANCH   3   4
ATOM      4  C   UNL     1       6.847   1.231  48.910  1.00  0.00     0.053 C 
BRANCH   4   5
ATOM      5  C   UNL     1       5.740   0.325  49.348  1.00  0.00     0.041 C 
ATOM      6  O   UNL     1       5.629  -0.827  48.853  1.00  0.00    -0.550 OA
ATOM      7  O   UNL     1       4.858   0.735  50.341  1.00  0.00    -0.550 OA
ENDBRANCH   4   5
ENDBRANCH   3   4
ENDBRANCH   2   3
ENDBRANCH   1   2
BRANCH   1   8
ATOM      8  C   UNL     1       7.141   5.298  48.202  1.00  0.00     0.000 C 
BRANCH   8   9
ATOM      9  C   UNL     1       7.307   6.628  48.956  1.00  0.00     0.006 C 
BRANCH   9  10
ATOM     10  C   UNL     1       7.421   7.832  48.012  1.00  0.00     0.053 C 
BRANCH  10  11
ATOM     11  C   UNL     1       8.842   8.294  47.927  1.00  0.00     0.041 C 
ATOM     12  O   UNL     1       9.749   7.495  47.578  1.00  0.00    -0.550 OA
ATOM     13  O   UNL     1       9.171   9.597  48.281  1.00  0.00    -0.550 OA
ENDBRANCH  10  11
ENDBRANCH   9  10
ENDBRANCH   8   9
ENDBRANCH   1   8
TORSDOF 8
ENDMDL
MODEL 3
REMARK VINA RESULT:    -3.686      2.283      3.054
REMARK INTER + INTRA:          -5.825
REMARK INTER:                  -5.050
REMARK INTRA:                  -0.775
REMARK UNBOUND:                -0.415
REMARK SMILES O=C([O-])CCCCCCCC(=O)[O-]
REMARK SMILES IDX 7 1 6 2 5 3 4 4 2 5 1 6 3 7 8 8 9 9 10 10 11 11 12 12 13 13
REMARK H PARENT
REMARK Flexibility Score: inf
ROOT
ATOM      1  C   UNL     1       6.950   1.300  48.739  1.00  0.00     0.000 C 
ENDROOT
BRANCH   1   2
ATOM      2  C   UNL     1       6.415   2.158  47.583  1.00  0.00     0.000 C 
BRANCH   2   3
ATOM      3  C   UNL     1       5.720   3.440  48.067  1.00  0.00     0.006 C 
BRANCH   3   4
ATOM      4  C   UNL     1       6.260   3.931  49.417  1.00  0.00     0.053 C 
BRANCH   4   5
ATOM      5  C   UNL     1       7.071   5.175  49.232  1.00  0.00     0.041 C 
ATOM      6  O   UNL     1       7.359   5.578  48.075  1.00  0.00    -0.550 OA
ATOM      7  O   UNL     1       7.466   5.918  50.338  1.00  0.00    -0.550 OA
ENDBRANCH   4   5
ENDBRANCH   3   4
ENDBRANCH   2   3
ENDBRANCH   1   2
BRANCH   1   8
ATOM      8  C   UNL     1       6.014   0.114  49.019  1.00  0.00     0.000 C 
BRANCH   8   9
ATOM      9  C   UNL     1       5.699  -0.052  50.515  1.00  0.00     0.006 C 
BRANCH   9  10
ATOM     10  C   UNL     1       4.763   1.041  51.047  1.00  0.00     0.053 C 
BRANCH  10  11
ATOM     11  C   UNL     1       3.427   0.953  50.379  1.00  0.00     0.041 C 
ATOM     12  O   UNL     1       2.751  -0.106  50.452  1.00  0.00    -0.550 OA
ATOM     13  O   UNL     1       2.950   2.025  49.635  1.00  0.00    -0.550 OA
ENDBRANCH  10  11
ENDBRANCH   9  10
ENDBRANCH   8   9
ENDBRANCH   1   8
TORSDOF 8
ENDMDL
MODEL 4
REMARK VINA RESULT:    -3.673      1.958      2.894
REMARK INTER + INTRA:          -5.806
REMARK INTER:                  -5.286
REMARK INTRA:                  -0.520
REMARK UNBOUND:                -0.415
REMARK SMILES O=C([O-])CCCCCCCC(=O)[O-]
REMARK SMILES IDX 7 1 6 2 5 3 4 4 2 5 1 6 3 7 8 8 9 9 10 10 11 11 12 12 13 13
REMARK H PARENT
REMARK Flexibility Score: inf
ROOT
ATOM      1  C   UNL     1       6.890   4.634  50.287  1.00  0.00     0.000 C 
ENDROOT
BRANCH   1   2
ATOM      2  C   UNL     1       7.453   6.009  49.898  1.00  0.00     0.000 C 
BRANCH   2   3
ATOM      3  C   UNL     1       7.432   6.252  48.381  1.00  0.00     0.006 C 
BRANCH   3   4
ATOM      4  C   UNL     1       7.518   7.741  48.020  1.00  0.00     0.053 C 
BRANCH   4   5
ATOM      5  C   UNL     1       8.947   8.176  47.941  1.00  0.00     0.041 C 
ATOM      6  O   UNL     1       9.835   7.370  47.559  1.00  0.00    -0.550 OA
ATOM      7  O   UNL     1       9.292   9.488  48.243  1.00  0.00    -0.550 OA
ENDBRANCH   4   5
ENDBRANCH   3   4
ENDBRANCH   2   3
ENDBRANCH   1   2
BRANCH   1   8
ATOM      8  C   UNL     1       5.388   4.550  49.976  1.00  0.00     0.000 C 
BRANCH   8   9
ATOM      9  C   UNL     1       4.999   3.233  49.283  1.00  0.00     0.006 C 
BRANCH   9  10
ATOM     10  C   UNL     1       5.466   3.175  47.823  1.00  0.00     0.053 C 
BRANCH  10  11
ATOM     11  C   UNL     1       6.517   2.123  47.654  1.00  0.00     0.041 C 
ATOM     12  O   UNL     1       6.825   1.374  48.617  1.00  0.00    -0.550 OA
ATOM     13  O   UNL     1       7.190   2.002  46.444  1.00  0.00    -0.550 OA
ENDBRANCH  10  11
ENDBRANCH   9  10
ENDBRANCH   8   9
ENDBRANCH   1   8
TORSDOF 8
ENDMDL
MODEL 5
REMARK VINA RESULT:    -3.652      2.403      5.311
REMARK INTER + INTRA:          -5.775
REMARK INTER:                  -4.893
REMARK INTRA:                  -0.883
REMARK UNBOUND:                -0.415
REMARK SMILES O=C([O-])CCCCCCCC(=O)[O-]
REMARK SMILES IDX 7 1 6 2 5 3 4 4 2 5 1 6 3 7 8 8 9 9 10 10 11 11 12 12 13 13
REMARK H PARENT
REMARK Flexibility Score: inf
ROOT
ATOM      1  C   UNL     1       6.584   1.987  47.398  1.00  0.00     0.000 C 
ENDROOT
BRANCH   1   2
ATOM      2  C   UNL     1       7.065   1.172  48.608  1.00  0.00     0.000 C 
BRANCH   2   3
ATOM      3  C   UNL     1       5.912   0.482  49.355  1.00  0.00     0.006 C 
BRANCH   3   4
ATOM      4  C   UNL     1       6.010   0.651  50.877  1.00  0.00     0.053 C 
BRANCH   4   5
ATOM      5  C   UNL     1       4.873   1.481  51.383  1.00  0.00     0.041 C 
ATOM      6  O   UNL     1       4.883   1.918  52.563  1.00  0.00    -0.550 OA
ATOM      7  O   UNL     1       3.823   1.813  50.535  1.00  0.00    -0.550 OA
ENDBRANCH   4   5
ENDBRANCH   3   4
ENDBRANCH   2   3
ENDBRANCH   1   2
BRANCH   1   8
ATOM      8  C   UNL     1       5.709   3.167  47.845  1.00  0.00     0.000 C 
BRANCH   8   9
ATOM      9  C   UNL     1       6.525   4.298  48.494  1.00  0.00     0.006 C 
BRANCH   9  10
ATOM     10  C   UNL     1       6.073   4.605  49.927  1.00  0.00     0.053 C 
BRANCH  10  11
ATOM     11  C   UNL     1       7.257   4.706  50.837  1.00  0.00     0.041 C 
ATOM     12  O   UNL     1       7.803   3.665  51.286  1.00  0.00    -0.550 OA
ATOM     13  O   UNL     1       7.729   5.954  51.227  1.00  0.00    -0.550 OA
ENDBRANCH  10  11
ENDBRANCH   9  10
ENDBRANCH   8   9
ENDBRANCH   1   8
TORSDOF 8
ENDMDL
MODEL 6
REMARK VINA RESULT:    -3.651      0.469      6.452
REMARK INTER + INTRA:          -5.774
REMARK INTER:                  -5.341
REMARK INTRA:                  -0.433
REMARK UNBOUND:                -0.415
REMARK SMILES O=C([O-])CCCCCCCC(=O)[O-]
REMARK SMILES IDX 7 1 6 2 5 3 4 4 2 5 1 6 3 7 8 8 9 9 10 10 11 11 12 12 13 13
REMARK H PARENT
REMARK Flexibility Score: inf
ROOT
ATOM      1  C   UNL     1       5.471   3.080  47.892  1.00  0.00     0.000 C 
ENDROOT
BRANCH   1   2
ATOM      2  C   UNL     1       6.596   2.139  47.434  1.00  0.00     0.000 C 
BRANCH   2   3
ATOM      3  C   UNL     1       7.044   1.169  48.538  1.00  0.00     0.006 C 
BRANCH   3   4
ATOM      4  C   UNL     1       5.875   0.376  49.138  1.00  0.00     0.053 C 
BRANCH   4   5
ATOM      5  C   UNL     1       5.905   0.454  50.632  1.00  0.00     0.041 C 
ATOM      6  O   UNL     1       5.155  -0.285  51.320  1.00  0.00    -0.550 OA
ATOM      7  O   UNL     1       6.799   1.310  51.265  1.00  0.00    -0.550 OA
ENDBRANCH   4   5
ENDBRANCH   3   4
ENDBRANCH   2   3
ENDBRANCH   1   2
BRANCH   1   8
ATOM      8  C   UNL     1       6.004   4.131  48.876  1.00  0.00     0.000 C 
BRANCH   8   9
ATOM      9  C   UNL     1       7.061   5.052  48.245  1.00  0.00     0.006 C 
BRANCH   9  10
ATOM     10  C   UNL     1       7.236   6.367  49.016  1.00  0.00     0.053 C 
BRANCH  10  11
ATOM     11  C   UNL     1       7.445   7.504  48.066  1.00  0.00     0.041 C 
ATOM     12  O   UNL     1       8.531   7.616  47.440  1.00  0.00    -0.550 OA
ATOM     13  O   UNL     1       6.457   8.468  47.908  1.00  0.00    -0.550 OA
ENDBRANCH  10  11
ENDBRANCH   9  10
ENDBRANCH   8   9
ENDBRANCH   1   8
TORSDOF 8
ENDMDL
MODEL 7
REMARK VINA RESULT:    -3.623      2.369      3.047
REMARK INTER + INTRA:          -5.733
REMARK INTER:                  -4.886
REMARK INTRA:                  -0.847
REMARK UNBOUND:                -0.415
REMARK SMILES O=C([O-])CCCCCCCC(=O)[O-]
REMARK SMILES IDX 7 1 6 2 5 3 4 4 2 5 1 6 3 7 8 8 9 9 10 10 11 11 12 12 13 13
REMARK H PARENT
REMARK Flexibility Score: inf
ROOT
ATOM      1  C   UNL     1       6.614   1.976  47.380  1.00  0.00     0.000 C 
ENDROOT
BRANCH   1   2
ATOM      2  C   UNL     1       5.666   3.125  47.758  1.00  0.00     0.000 C 
BRANCH   2   3
ATOM      3  C   UNL     1       6.406   4.330  48.361  1.00  0.00     0.006 C 
BRANCH   3   4
ATOM      4  C   UNL     1       5.998   4.606  49.814  1.00  0.00     0.053 C 
BRANCH   4   5
ATOM      5  C   UNL     1       7.209   4.697  50.687  1.00  0.00     0.041 C 
ATOM      6  O   UNL     1       7.743   5.814  50.916  1.00  0.00    -0.550 OA
ATOM      7  O   UNL     1       7.720   3.553  51.288  1.00  0.00    -0.550 OA
ENDBRANCH   4   5
ENDBRANCH   3   4
ENDBRANCH   2   3
ENDBRANCH   1   2
BRANCH   1   8
ATOM      8  C   UNL     1       7.004   1.158  48.620  1.00  0.00     0.000 C 
BRANCH   8   9
ATOM      9  C   UNL     1       5.802   0.438  49.257  1.00  0.00     0.006 C 
BRANCH   9  10
ATOM     10  C   UNL     1       5.793   0.545  50.787  1.00  0.00     0.053 C 
BRANCH  10  11
ATOM     11  C   UNL     1       4.699   1.460  51.239  1.00  0.00     0.041 C 
ATOM     12  O   UNL     1       4.847   2.165  52.271  1.00  0.00    -0.550 OA
ATOM     13  O   UNL     1       3.495   1.497  50.546  1.00  0.00    -0.550 OA
ENDBRANCH  10  11
ENDBRANCH   9  10
ENDBRANCH   8   9
ENDBRANCH   1   8
TORSDOF 8
ENDMDL
MODEL 8
REMARK VINA RESULT:    -3.597      2.164      5.689
REMARK INTER + INTRA:          -5.694
REMARK INTER:                  -4.994
REMARK INTRA:                  -0.700
REMARK UNBOUND:                -0.415
REMARK SMILES O=C([O-])CCCCCCCC(=O)[O-]
REMARK SMILES IDX 7 1 6 2 5 3 4 4 2 5 1 6 3 7 8 8 9 9 10 10 11 11 12 12 13 13
REMARK H PARENT
REMARK Flexibility Score: inf
ROOT
ATOM      1  C   UNL     1       7.542   4.228  51.100  1.00  0.00     0.000 C 
ENDROOT
BRANCH   1   2
ATOM      2  C   UNL     1       7.314   2.718  51.270  1.00  0.00     0.000 C 
BRANCH   2   3
ATOM      3  C   UNL     1       6.187   2.183  50.372  1.00  0.00     0.006 C 
BRANCH   3   4
ATOM      4  C   UNL     1       6.717   1.486  49.112  1.00  0.00     0.053 C 
BRANCH   4   5
ATOM      5  C   UNL     1       6.284   2.227  47.886  1.00  0.00     0.041 C 
ATOM      6  O   UNL     1       5.311   3.023  47.937  1.00  0.00    -0.550 OA
ATOM      7  O   UNL     1       6.989   2.076  46.698  1.00  0.00    -0.550 OA
ENDBRANCH   4   5
ENDBRANCH   3   4
ENDBRANCH   2   3
ENDBRANCH   1   2
BRANCH   1   8
ATOM      8  C   UNL     1       6.204   4.974  50.987  1.00  0.00     0.000 C 
BRANCH   8   9
ATOM      9  C   UNL     1       6.220   6.060  49.899  1.00  0.00     0.006 C 
BRANCH   9  10
ATOM     10  C   UNL     1       7.224   5.758  48.778  1.00  0.00     0.053 C 
BRANCH  10  11
ATOM     11  C   UNL     1       7.720   7.030  48.167  1.00  0.00     0.041 C 
ATOM     12  O   UNL     1       8.952   7.207  47.983  1.00  0.00    -0.550 OA
ATOM     13  O   UNL     1       6.823   8.041  47.842  1.00  0.00    -0.550 OA
ENDBRANCH  10  11
ENDBRANCH   9  10
ENDBRANCH   8   9
ENDBRANCH   1   8
TORSDOF 8
ENDMDL
MODEL 9
REMARK VINA RESULT:    -3.591      1.381      2.150
REMARK INTER + INTRA:          -5.686
REMARK INTER:                  -5.322
REMARK INTRA:                  -0.364
REMARK UNBOUND:                -0.415
REMARK SMILES O=C([O-])CCCCCCCC(=O)[O-]
REMARK SMILES IDX 7 1 6 2 5 3 4 4 2 5 1 6 3 7 8 8 9 9 10 10 11 11 12 12 13 13
REMARK H PARENT
REMARK Flexibility Score: inf
ROOT
ATOM      1  C   UNL     1       6.464   4.859  49.587  1.00  0.00     0.000 C 
ENDROOT
BRANCH   1   2
ATOM      2  C   UNL     1       6.869   6.341  49.607  1.00  0.00     0.000 C 
BRANCH   2   3
ATOM      3  C   UNL     1       7.446   6.818  48.265  1.00  0.00     0.006 C 
BRANCH   3   4
ATOM      4  C   UNL     1       7.278   8.328  48.052  1.00  0.00     0.053 C 
BRANCH   4   5
ATOM      5  C   UNL     1       8.526   9.052  48.446  1.00  0.00     0.041 C 
ATOM      6  O   UNL     1       8.497   9.917  49.360  1.00  0.00    -0.550 OA
ATOM      7  O   UNL     1       9.735   8.735  47.837  1.00  0.00    -0.550 OA
ENDBRANCH   4   5
ENDBRANCH   3   4
ENDBRANCH   2   3
ENDBRANCH   1   2
BRANCH   1   8
ATOM      8  C   UNL     1       6.692   4.249  48.196  1.00  0.00     0.000 C 
BRANCH   8   9
ATOM      9  C   UNL     1       5.823   3.006  47.944  1.00  0.00     0.006 C 
BRANCH   9  10
ATOM     10  C   UNL     1       6.655   1.727  47.783  1.00  0.00     0.053 C 
BRANCH  10  11
ATOM     11  C   UNL     1       6.514   0.858  48.993  1.00  0.00     0.041 C 
ATOM     12  O   UNL     1       7.073   1.179  50.073  1.00  0.00    -0.550 OA
ATOM     13  O   UNL     1       5.804  -0.335  48.912  1.00  0.00    -0.550 OA
ENDBRANCH  10  11
ENDBRANCH   9  10
ENDBRANCH   8   9
ENDBRANCH   1   8
TORSDOF 8
ENDMDL
