MODEL 1
REMARK VINA RESULT:    -3.088      0.000      0.000
REMARK INTER + INTRA:          -3.359
REMARK INTER:                  -3.359
REMARK INTRA:                   0.000
REMARK UNBOUND:                 0.000
REMARK SMILES [NH3+]CC(=O)[O-]
REMARK SMILES IDX 2 1 1 2 3 6 4 7 5 8
REMARK H PARENT 1 3 1 4 1 5
REMARK Flexibility Score: inf
ROOT
ATOM      1  C   UNL     1     167.342 170.396 171.152  1.00  0.00     0.312 C 
ENDROOT
BRANCH   1   2
ATOM      2  N   UNL     1     166.952 171.793 171.337  1.00  0.00    -0.353 N 
ATOM      3  H   UNL     1     166.933 172.011 172.359  1.00  0.00     0.344 HD
ATOM      4  H   UNL     1     167.642 172.423 170.867  1.00  0.00     0.344 HD
ATOM      5  H   UNL     1     165.998 171.954 170.939  1.00  0.00     0.344 HD
ENDBRANCH   1   2
BRANCH   1   6
ATOM      6  C   UNL     1     168.586 170.300 170.327  1.00  0.00     0.096 C 
ATOM      7  O   UNL     1     169.711 170.193 170.884  1.00  0.00    -0.544 OA
ATOM      8  O   UNL     1     168.510 170.379 168.942  1.00  0.00    -0.544 OA
ENDBRANCH   1   6
TORSDOF 2
ENDMDL
MODEL 2
REMARK VINA RESULT:    -3.026      2.431      2.622
REMARK INTER + INTRA:          -3.292
REMARK INTER:                  -3.292
REMARK INTRA:                   0.000
REMARK UNBOUND:                 0.000
REMARK SMILES [NH3+]CC(=O)[O-]
REMARK SMILES IDX 2 1 1 2 3 6 4 7 5 8
REMARK H PARENT 1 3 1 4 1 5
REMARK Flexibility Score: inf
ROOT
ATOM      1  C   UNL     1     168.557 170.365 169.862  1.00  0.00     0.312 C 
ENDROOT
BRANCH   1   2
ATOM      2  N   UNL     1     169.912 170.403 170.410  1.00  0.00    -0.353 N 
ATOM      3  H   UNL     1     169.885 170.105 171.411  1.00  0.00     0.344 HD
ATOM      4  H   UNL     1     170.532 169.750 169.878  1.00  0.00     0.344 HD
ATOM      5  H   UNL     1     170.293 171.376 170.356  1.00  0.00     0.344 HD
ENDBRANCH   1   2
BRANCH   1   6
ATOM      6  C   UNL     1     167.541 170.410 170.961  1.00  0.00     0.096 C 
ATOM      7  O   UNL     1     167.223 171.509 171.486  1.00  0.00    -0.544 OA
ATOM      8  O   UNL     1     166.984 169.231 171.441  1.00  0.00    -0.544 OA
ENDBRANCH   1   6
TORSDOF 2
ENDMDL
MODEL 3
REMARK VINA RESULT:    -3.020      2.420      2.616
REMARK INTER + INTRA:          -3.285
REMARK INTER:                  -3.285
REMARK INTRA:                   0.000
REMARK UNBOUND:                 0.000
REMARK SMILES [NH3+]CC(=O)[O-]
REMARK SMILES IDX 2 1 1 2 3 6 4 7 5 8
REMARK H PARENT 1 3 1 4 1 5
REMARK Flexibility Score: inf
ROOT
ATOM      1  C   UNL     1     168.708 170.323 169.984  1.00  0.00     0.312 C 
ENDROOT
BRANCH   1   2
ATOM      2  N   UNL     1     170.021 170.451 170.614  1.00  0.00    -0.353 N 
ATOM      3  H   UNL     1     170.578 171.173 170.104  1.00  0.00     0.344 HD
ATOM      4  H   UNL     1     169.913 170.748 171.611  1.00  0.00     0.344 HD
ATOM      5  H   UNL     1     170.530 169.538 170.570  1.00  0.00     0.344 HD
ENDBRANCH   1   2
BRANCH   1   6
ATOM      6  C   UNL     1     167.622 170.368 171.012  1.00  0.00     0.096 C 
ATOM      7  O   UNL     1     167.072 169.304 171.401  1.00  0.00    -0.544 OA
ATOM      8  O   UNL     1     167.180 171.590 171.504  1.00  0.00    -0.544 OA
ENDBRANCH   1   6
TORSDOF 2
ENDMDL
MODEL 4
REMARK VINA RESULT:    -2.954      0.128      1.455
REMARK INTER + INTRA:          -3.213
REMARK INTER:                  -3.213
REMARK INTRA:                   0.000
REMARK UNBOUND:                 0.000
REMARK SMILES [NH3+]CC(=O)[O-]
REMARK SMILES IDX 2 1 1 2 3 6 4 7 5 8
REMARK H PARENT 1 3 1 4 1 5
REMARK Flexibility Score: inf
ROOT
ATOM      1  C   UNL     1     167.280 170.488 170.972  1.00  0.00     0.312 C 
ENDROOT
BRANCH   1   2
ATOM      2  N   UNL     1     167.028 171.885 171.323  1.00  0.00    -0.353 N 
ATOM      3  H   UNL     1     167.930 172.413 171.292  1.00  0.00     0.344 HD
ATOM      4  H   UNL     1     166.361 172.311 170.641  1.00  0.00     0.344 HD
ATOM      5  H   UNL     1     166.633 171.945 172.290  1.00  0.00     0.344 HD
ENDBRANCH   1   2
BRANCH   1   6
ATOM      6  C   UNL     1     168.562 170.357 170.211  1.00  0.00     0.096 C 
ATOM      7  O   UNL     1     168.555 170.349 168.951  1.00  0.00    -0.544 OA
ATOM      8  O   UNL     1     169.761 170.192 170.892  1.00  0.00    -0.544 OA
ENDBRANCH   1   6
TORSDOF 2
ENDMDL
MODEL 5
REMARK VINA RESULT:    -2.782      1.682      2.086
REMARK INTER + INTRA:          -3.025
REMARK INTER:                  -3.025
REMARK INTRA:                   0.000
REMARK UNBOUND:                 0.000
REMARK SMILES [NH3+]CC(=O)[O-]
REMARK SMILES IDX 2 1 1 2 3 6 4 7 5 8
REMARK H PARENT 1 3 1 4 1 5
REMARK Flexibility Score: inf
ROOT
ATOM      1  C   UNL     1     168.340 170.742 170.040  1.00  0.00     0.312 C 
ENDROOT
BRANCH   1   2
ATOM      2  N   UNL     1     167.891 171.987 170.661  1.00  0.00    -0.353 N 
ATOM      3  H   UNL     1     167.239 171.762 171.447  1.00  0.00     0.344 HD
ATOM      4  H   UNL     1     168.710 172.515 171.039  1.00  0.00     0.344 HD
ATOM      5  H   UNL     1     167.385 172.575 169.959  1.00  0.00     0.344 HD
ENDBRANCH   1   2
BRANCH   1   6
ATOM      6  C   UNL     1     168.239 169.603 171.006  1.00  0.00     0.096 C 
ATOM      7  O   UNL     1     167.117 169.260 171.465  1.00  0.00    -0.544 OA
ATOM      8  O   UNL     1     169.387 168.953 171.438  1.00  0.00    -0.544 OA
ENDBRANCH   1   6
TORSDOF 2
ENDMDL
MODEL 6
REMARK VINA RESULT:    -2.571      8.881      9.205
REMARK INTER + INTRA:          -2.797
REMARK INTER:                  -2.797
REMARK INTRA:                   0.000
REMARK UNBOUND:                 0.000
REMARK SMILES [NH3+]CC(=O)[O-]
REMARK SMILES IDX 2 1 1 2 3 6 4 7 5 8
REMARK H PARENT 1 3 1 4 1 5
REMARK Flexibility Score: inf
ROOT
ATOM      1  C   UNL     1     162.680 178.675 169.060  1.00  0.00     0.312 C 
ENDROOT
BRANCH   1   2
ATOM      2  N   UNL     1     162.353 177.956 170.290  1.00  0.00    -0.353 N 
ATOM      3  H   UNL     1     162.209 178.646 171.062  1.00  0.00     0.344 HD
ATOM      4  H   UNL     1     161.475 177.404 170.160  1.00  0.00     0.344 HD
ATOM      5  H   UNL     1     163.139 177.316 170.550  1.00  0.00     0.344 HD
ENDBRANCH   1   2
BRANCH   1   6
ATOM      6  C   UNL     1     164.103 178.429 168.666  1.00  0.00     0.096 C 
ATOM      7  O   UNL     1     164.405 177.421 167.974  1.00  0.00    -0.544 OA
ATOM      8  O   UNL     1     165.104 179.286 169.107  1.00  0.00    -0.544 OA
ENDBRANCH   1   6
TORSDOF 2
ENDMDL
MODEL 7
REMARK VINA RESULT:    -2.569     11.467     11.659
REMARK INTER + INTRA:          -2.794
REMARK INTER:                  -2.794
REMARK INTRA:                   0.000
REMARK UNBOUND:                 0.000
REMARK SMILES [NH3+]CC(=O)[O-]
REMARK SMILES IDX 2 1 1 2 3 6 4 7 5 8
REMARK H PARENT 1 3 1 4 1 5
REMARK Flexibility Score: inf
ROOT
ATOM      1  C   UNL     1     160.227 161.398 169.954  1.00  0.00     0.312 C 
ENDROOT
BRANCH   1   2
ATOM      2  N   UNL     1     158.932 161.919 170.387  1.00  0.00    -0.353 N 
ATOM      3  H   UNL     1     159.074 162.840 170.861  1.00  0.00     0.344 HD
ATOM      4  H   UNL     1     158.305 162.055 169.561  1.00  0.00     0.344 HD
ATOM      5  H   UNL     1     158.487 161.256 171.063  1.00  0.00     0.344 HD
ENDBRANCH   1   2
BRANCH   1   6
ATOM      6  C   UNL     1     160.821 162.272 168.894  1.00  0.00     0.096 C 
ATOM      7  O   UNL     1     160.292 163.381 168.616  1.00  0.00    -0.544 OA
ATOM      8  O   UNL     1     161.929 161.840 168.177  1.00  0.00    -0.544 OA
ENDBRANCH   1   6
TORSDOF 2
ENDMDL
MODEL 8
REMARK VINA RESULT:    -2.506     11.656     12.019
REMARK INTER + INTRA:          -2.725
REMARK INTER:                  -2.725
REMARK INTRA:                   0.000
REMARK UNBOUND:                 0.000
REMARK SMILES [NH3+]CC(=O)[O-]
REMARK SMILES IDX 2 1 1 2 3 6 4 7 5 8
REMARK H PARENT 1 3 1 4 1 5
REMARK Flexibility Score: inf
ROOT
ATOM      1  C   UNL     1     177.504 161.688 170.178  1.00  0.00     0.312 C 
ENDROOT
BRANCH   1   2
ATOM      2  N   UNL     1     176.862 161.307 171.435  1.00  0.00    -0.353 N 
ATOM      3  H   UNL     1     175.842 161.527 171.380  1.00  0.00     0.344 HD
ATOM      4  H   UNL     1     176.979 160.281 171.600  1.00  0.00     0.344 HD
ATOM      5  H   UNL     1     177.283 161.843 172.229  1.00  0.00     0.344 HD
ENDBRANCH   1   2
BRANCH   1   6
ATOM      6  C   UNL     1     176.688 162.716 169.459  1.00  0.00     0.096 C 
ATOM      7  O   UNL     1     177.249 163.566 168.717  1.00  0.00    -0.544 OA
ATOM      8  O   UNL     1     175.313 162.769 169.648  1.00  0.00    -0.544 OA
ENDBRANCH   1   6
TORSDOF 2
ENDMDL
MODEL 9
REMARK VINA RESULT:    -2.493     11.331     11.790
REMARK INTER + INTRA:          -2.712
REMARK INTER:                  -2.712
REMARK INTRA:                   0.000
REMARK UNBOUND:                 0.000
REMARK SMILES [NH3+]CC(=O)[O-]
REMARK SMILES IDX 2 1 1 2 3 6 4 7 5 8
REMARK H PARENT 1 3 1 4 1 5
REMARK Flexibility Score: inf
ROOT
ATOM      1  C   UNL     1     177.298 163.035 168.267  1.00  0.00     0.312 C 
ENDROOT
BRANCH   1   2
ATOM      2  N   UNL     1     177.693 164.440 168.352  1.00  0.00    -0.353 N 
ATOM      3  H   UNL     1     177.312 164.953 167.525  1.00  0.00     0.344 HD
ATOM      4  H   UNL     1     177.308 164.869 169.224  1.00  0.00     0.344 HD
ATOM      5  H   UNL     1     178.736 164.519 168.349  1.00  0.00     0.344 HD
ENDBRANCH   1   2
BRANCH   1   6
ATOM      6  C   UNL     1     176.507 162.635 169.474  1.00  0.00     0.096 C 
ATOM      7  O   UNL     1     175.333 163.062 169.633  1.00  0.00    -0.544 OA
ATOM      8  O   UNL     1     177.085 161.832 170.449  1.00  0.00    -0.544 OA
ENDBRANCH   1   6
TORSDOF 2
ENDMDL
