MODEL 1
REMARK VINA RESULT:    -3.629      0.000      0.000
REMARK INTER + INTRA:          -8.845
REMARK INTER:                  -6.811
REMARK INTRA:                  -2.034
REMARK UNBOUND:                -2.034
REMARK SMILES O=C([O-])CCCCCCCCCCCCCCC(=O)[O-]
REMARK SMILES IDX 10 1 9 2 8 3 7 4 6 5 5 6 4 7 2 8 1 9 3 10 11 11 12 12 13 13
REMARK SMILES IDX 14 14 15 15 16 16 17 17 18 18 19 19 20 20
REMARK H PARENT
REMARK Flexibility Score: inf
ROOT
ATOM      1  C   UNL     1    -117.388  12.002  23.876  1.00  0.00     0.000 C 
ENDROOT
BRANCH   1   2
ATOM      2  C   UNL     1    -117.517  11.257  22.536  1.00  0.00     0.000 C 
BRANCH   2   3
ATOM      3  C   UNL     1    -116.437  11.674  21.524  1.00  0.00     0.000 C 
BRANCH   3   4
ATOM      4  C   UNL     1    -115.640  10.473  20.986  1.00  0.00     0.000 C 
BRANCH   4   5
ATOM      5  C   UNL     1    -115.216   9.501  22.099  1.00  0.00     0.000 C 
BRANCH   5   6
ATOM      6  C   UNL     1    -113.819   9.816  22.662  1.00  0.00     0.006 C 
BRANCH   6   7
ATOM      7  C   UNL     1    -113.890  10.583  23.990  1.00  0.00     0.053 C 
BRANCH   7   8
ATOM      8  C   UNL     1    -112.602  11.283  24.296  1.00  0.00     0.041 C 
ATOM      9  O   UNL     1    -111.546  10.960  23.691  1.00  0.00    -0.550 OA
ATOM     10  O   UNL     1    -112.574  12.317  25.224  1.00  0.00    -0.550 OA
ENDBRANCH   7   8
ENDBRANCH   6   7
ENDBRANCH   5   6
ENDBRANCH   4   5
ENDBRANCH   3   4
ENDBRANCH   2   3
ENDBRANCH   1   2
BRANCH   1  11
ATOM     11  C   UNL     1    -116.720  13.382  23.735  1.00  0.00     0.000 C 
BRANCH  11  12
ATOM     12  C   UNL     1    -117.616  14.587  24.077  1.00  0.00     0.000 C 
BRANCH  12  13
ATOM     13  C   UNL     1    -119.040  14.179  24.487  1.00  0.00     0.000 C 
BRANCH  13  14
ATOM     14  C   UNL     1    -120.082  14.445  23.384  1.00  0.00     0.000 C 
BRANCH  14  15
ATOM     15  C   UNL     1    -119.554  15.188  22.144  1.00  0.00     0.000 C 
BRANCH  15  16
ATOM     16  C   UNL     1    -119.454  14.288  20.901  1.00  0.00     0.006 C 
BRANCH  16  17
ATOM     17  C   UNL     1    -118.137  14.496  20.140  1.00  0.00     0.053 C 
BRANCH  17  18
ATOM     18  C   UNL     1    -118.174  13.870  18.780  1.00  0.00     0.041 C 
ATOM     19  O   UNL     1    -117.687  14.476  17.790  1.00  0.00    -0.550 OA
ATOM     20  O   UNL     1    -118.725  12.606  18.610  1.00  0.00    -0.550 OA
ENDBRANCH  17  18
ENDBRANCH  16  17
ENDBRANCH  15  16
ENDBRANCH  14  15
ENDBRANCH  13  14
ENDBRANCH  12  13
ENDBRANCH  11  12
ENDBRANCH   1  11
TORSDOF 15
ENDMDL
MODEL 2
REMARK VINA RESULT:    -3.525      1.257      6.541
REMARK INTER + INTRA:          -8.650
REMARK INTER:                  -6.825
REMARK INTRA:                  -1.825
REMARK UNBOUND:                -2.034
REMARK SMILES O=C([O-])CCCCCCCCCCCCCCC(=O)[O-]
REMARK SMILES IDX 10 1 9 2 8 3 7 4 6 5 5 6 4 7 2 8 1 9 3 10 11 11 12 12 13 13
REMARK SMILES IDX 14 14 15 15 16 16 17 17 18 18 19 19 20 20
REMARK H PARENT
REMARK Flexibility Score: inf
ROOT
ATOM      1  C   UNL     1    -118.833  13.971  24.350  1.00  0.00     0.000 C 
ENDROOT
BRANCH   1   2
ATOM      2  C   UNL     1    -119.821  14.300  23.216  1.00  0.00     0.000 C 
BRANCH   2   3
ATOM      3  C   UNL     1    -119.258  15.335  22.228  1.00  0.00     0.000 C 
BRANCH   3   4
ATOM      4  C   UNL     1    -119.432  14.904  20.762  1.00  0.00     0.000 C 
BRANCH   4   5
ATOM      5  C   UNL     1    -118.173  14.229  20.193  1.00  0.00     0.000 C 
BRANCH   5   6
ATOM      6  C   UNL     1    -118.498  12.995  19.334  1.00  0.00     0.006 C 
BRANCH   6   7
ATOM      7  C   UNL     1    -117.242  12.388  18.693  1.00  0.00     0.053 C 
BRANCH   7   8
ATOM      8  C   UNL     1    -117.231  12.576  17.207  1.00  0.00     0.041 C 
ATOM      9  O   UNL     1    -118.269  12.967  16.610  1.00  0.00    -0.550 OA
ATOM     10  O   UNL     1    -116.065  12.353  16.485  1.00  0.00    -0.550 OA
ENDBRANCH   7   8
ENDBRANCH   6   7
ENDBRANCH   5   6
ENDBRANCH   4   5
ENDBRANCH   3   4
ENDBRANCH   2   3
ENDBRANCH   1   2
BRANCH   1  11
ATOM     11  C   UNL     1    -117.426  14.545  24.107  1.00  0.00     0.000 C 
BRANCH  11  12
ATOM     12  C   UNL     1    -116.293  13.505  24.030  1.00  0.00     0.000 C 
BRANCH  12  13
ATOM     13  C   UNL     1    -116.792  12.100  23.653  1.00  0.00     0.000 C 
BRANCH  13  14
ATOM     14  C   UNL     1    -116.421  11.697  22.214  1.00  0.00     0.000 C 
BRANCH  14  15
ATOM     15  C   UNL     1    -115.329  10.619  22.092  1.00  0.00     0.000 C 
BRANCH  15  16
ATOM     16  C   UNL     1    -114.850  10.091  23.456  1.00  0.00     0.006 C 
BRANCH  16  17
ATOM     17  C   UNL     1    -113.372  10.416  23.717  1.00  0.00     0.053 C 
BRANCH  17  18
ATOM     18  C   UNL     1    -113.210  11.452  24.786  1.00  0.00     0.041 C 
ATOM     19  O   UNL     1    -112.372  12.381  24.646  1.00  0.00    -0.550 OA
ATOM     20  O   UNL     1    -114.002  11.405  25.927  1.00  0.00    -0.550 OA
ENDBRANCH  17  18
ENDBRANCH  16  17
ENDBRANCH  15  16
ENDBRANCH  14  15
ENDBRANCH  13  14
ENDBRANCH  12  13
ENDBRANCH  11  12
ENDBRANCH   1  11
TORSDOF 15
ENDMDL
MODEL 3
REMARK VINA RESULT:    -3.504      1.891      6.501
REMARK INTER + INTRA:          -8.611
REMARK INTER:                  -7.036
REMARK INTRA:                  -1.575
REMARK UNBOUND:                -2.034
REMARK SMILES O=C([O-])CCCCCCCCCCCCCCC(=O)[O-]
REMARK SMILES IDX 10 1 9 2 8 3 7 4 6 5 5 6 4 7 2 8 1 9 3 10 11 11 12 12 13 13
REMARK SMILES IDX 14 14 15 15 16 16 17 17 18 18 19 19 20 20
REMARK H PARENT
REMARK Flexibility Score: inf
ROOT
ATOM      1  C   UNL     1    -119.007  14.079  23.909  1.00  0.00     0.000 C 
ENDROOT
BRANCH   1   2
ATOM      2  C   UNL     1    -119.600  14.925  22.769  1.00  0.00     0.000 C 
BRANCH   2   3
ATOM      3  C   UNL     1    -119.628  14.171  21.429  1.00  0.00     0.000 C 
BRANCH   3   4
ATOM      4  C   UNL     1    -118.611  14.728  20.419  1.00  0.00     0.000 C 
BRANCH   4   5
ATOM      5  C   UNL     1    -117.763  13.625  19.766  1.00  0.00     0.000 C 
BRANCH   5   6
ATOM      6  C   UNL     1    -117.799  12.304  20.555  1.00  0.00     0.006 C 
BRANCH   6   7
ATOM      7  C   UNL     1    -116.561  11.436  20.287  1.00  0.00     0.053 C 
BRANCH   7   8
ATOM      8  C   UNL     1    -116.625  10.779  18.942  1.00  0.00     0.041 C 
ATOM      9  O   UNL     1    -115.626  10.808  18.175  1.00  0.00    -0.550 OA
ATOM     10  O   UNL     1    -117.775  10.105  18.550  1.00  0.00    -0.550 OA
ENDBRANCH   7   8
ENDBRANCH   6   7
ENDBRANCH   5   6
ENDBRANCH   4   5
ENDBRANCH   3   4
ENDBRANCH   2   3
ENDBRANCH   1   2
BRANCH   1  11
ATOM     11  C   UNL     1    -117.530  14.406  24.195  1.00  0.00     0.000 C 
BRANCH  11  12
ATOM     12  C   UNL     1    -116.511  13.388  23.651  1.00  0.00     0.000 C 
BRANCH  12  13
ATOM     13  C   UNL     1    -116.755  11.960  24.165  1.00  0.00     0.000 C 
BRANCH  13  14
ATOM     14  C   UNL     1    -115.470  11.273  24.665  1.00  0.00     0.000 C 
BRANCH  14  15
ATOM     15  C   UNL     1    -114.268  12.208  24.892  1.00  0.00     0.000 C 
BRANCH  15  16
ATOM     16  C   UNL     1    -112.998  11.459  25.327  1.00  0.00     0.006 C 
BRANCH  16  17
ATOM     17  C   UNL     1    -112.134  11.038  24.129  1.00  0.00     0.053 C 
BRANCH  17  18
ATOM     18  C   UNL     1    -111.605   9.645  24.286  1.00  0.00     0.041 C 
ATOM     19  O   UNL     1    -111.134   9.031  23.293  1.00  0.00    -0.550 OA
ATOM     20  O   UNL     1    -111.609   9.035  25.534  1.00  0.00    -0.550 OA
ENDBRANCH  17  18
ENDBRANCH  16  17
ENDBRANCH  15  16
ENDBRANCH  14  15
ENDBRANCH  13  14
ENDBRANCH  12  13
ENDBRANCH  11  12
ENDBRANCH   1  11
TORSDOF 15
ENDMDL
MODEL 4
REMARK VINA RESULT:    -3.414     16.937     19.005
REMARK INTER + INTRA:          -8.442
REMARK INTER:                  -7.735
REMARK INTRA:                  -0.707
REMARK UNBOUND:                -2.034
REMARK SMILES O=C([O-])CCCCCCCCCCCCCCC(=O)[O-]
REMARK SMILES IDX 10 1 9 2 8 3 7 4 6 5 5 6 4 7 2 8 1 9 3 10 11 11 12 12 13 13
REMARK SMILES IDX 14 14 15 15 16 16 17 17 18 18 19 19 20 20
REMARK H PARENT
REMARK Flexibility Score: inf
ROOT
ATOM      1  C   UNL     1    -103.741  27.018  20.392  1.00  0.00     0.000 C 
ENDROOT
BRANCH   1   2
ATOM      2  C   UNL     1    -103.542  27.983  21.574  1.00  0.00     0.000 C 
BRANCH   2   3
ATOM      3  C   UNL     1    -104.787  28.844  21.846  1.00  0.00     0.000 C 
BRANCH   3   4
ATOM      4  C   UNL     1    -106.046  27.996  22.093  1.00  0.00     0.000 C 
BRANCH   4   5
ATOM      5  C   UNL     1    -107.344  28.776  21.828  1.00  0.00     0.000 C 
BRANCH   5   6
ATOM      6  C   UNL     1    -108.552  27.854  21.584  1.00  0.00     0.006 C 
BRANCH   6   7
ATOM      7  C   UNL     1    -109.588  27.946  22.713  1.00  0.00     0.053 C 
BRANCH   7   8
ATOM      8  C   UNL     1    -110.394  26.689  22.829  1.00  0.00     0.041 C 
ATOM      9  O   UNL     1    -110.343  25.997  23.880  1.00  0.00    -0.550 OA
ATOM     10  O   UNL     1    -111.231  26.301  21.790  1.00  0.00    -0.550 OA
ENDBRANCH   7   8
ENDBRANCH   6   7
ENDBRANCH   5   6
ENDBRANCH   4   5
ENDBRANCH   3   4
ENDBRANCH   2   3
ENDBRANCH   1   2
BRANCH   1  11
ATOM     11  C   UNL     1    -102.414  26.568  19.753  1.00  0.00     0.000 C 
BRANCH  11  12
ATOM     12  C   UNL     1    -102.127  25.057  19.823  1.00  0.00     0.000 C 
BRANCH  12  13
ATOM     13  C   UNL     1    -100.636  24.720  19.662  1.00  0.00     0.000 C 
BRANCH  13  14
ATOM     14  C   UNL     1    -100.282  24.220  18.249  1.00  0.00     0.000 C 
BRANCH  14  15
ATOM     15  C   UNL     1    -101.481  23.811  17.375  1.00  0.00     0.000 C 
BRANCH  15  16
ATOM     16  C   UNL     1    -101.475  22.318  17.006  1.00  0.00     0.006 C 
BRANCH  16  17
ATOM     17  C   UNL     1    -102.895  21.751  16.863  1.00  0.00     0.053 C 
BRANCH  17  18
ATOM     18  C   UNL     1    -103.768  22.139  18.016  1.00  0.00     0.041 C 
ATOM     19  O   UNL     1    -103.395  21.915  19.197  1.00  0.00    -0.550 OA
ATOM     20  O   UNL     1    -104.984  22.771  17.787  1.00  0.00    -0.550 OA
ENDBRANCH  17  18
ENDBRANCH  16  17
ENDBRANCH  15  16
ENDBRANCH  14  15
ENDBRANCH  13  14
ENDBRANCH  12  13
ENDBRANCH  11  12
ENDBRANCH   1  11
TORSDOF 15
ENDMDL
MODEL 5
REMARK VINA RESULT:    -3.405      1.855      3.099
REMARK INTER + INTRA:          -8.424
REMARK INTER:                  -7.071
REMARK INTRA:                  -1.353
REMARK UNBOUND:                -2.034
REMARK SMILES O=C([O-])CCCCCCCCCCCCCCC(=O)[O-]
REMARK SMILES IDX 10 1 9 2 8 3 7 4 6 5 5 6 4 7 2 8 1 9 3 10 11 11 12 12 13 13
REMARK SMILES IDX 14 14 15 15 16 16 17 17 18 18 19 19 20 20
REMARK H PARENT
REMARK Flexibility Score: inf
ROOT
ATOM      1  C   UNL     1    -117.940  14.556  23.441  1.00  0.00     0.000 C 
ENDROOT
BRANCH   1   2
ATOM      2  C   UNL     1    -118.167  13.171  24.071  1.00  0.00     0.000 C 
BRANCH   2   3
ATOM      3  C   UNL     1    -117.069  12.164  23.691  1.00  0.00     0.000 C 
BRANCH   3   4
ATOM      4  C   UNL     1    -115.669  12.626  24.132  1.00  0.00     0.000 C 
BRANCH   4   5
ATOM      5  C   UNL     1    -114.836  11.485  24.739  1.00  0.00     0.000 C 
BRANCH   5   6
ATOM      6  C   UNL     1    -113.577  11.991  25.464  1.00  0.00     0.006 C 
BRANCH   6   7
ATOM      7  C   UNL     1    -112.325  11.903  24.580  1.00  0.00     0.053 C 
BRANCH   7   8
ATOM      8  C   UNL     1    -112.005  10.488  24.211  1.00  0.00     0.041 C 
ATOM      9  O   UNL     1    -111.840  10.169  23.003  1.00  0.00    -0.550 OA
ATOM     10  O   UNL     1    -111.853   9.526  25.203  1.00  0.00    -0.550 OA
ENDBRANCH   7   8
ENDBRANCH   6   7
ENDBRANCH   5   6
ENDBRANCH   4   5
ENDBRANCH   3   4
ENDBRANCH   2   3
ENDBRANCH   1   2
BRANCH   1  11
ATOM     11  C   UNL     1    -119.017  14.930  22.406  1.00  0.00     0.000 C 
BRANCH  11  12
ATOM     12  C   UNL     1    -118.604  14.756  20.932  1.00  0.00     0.000 C 
BRANCH  12  13
ATOM     13  C   UNL     1    -119.252  13.530  20.267  1.00  0.00     0.000 C 
BRANCH  13  14
ATOM     14  C   UNL     1    -118.355  12.279  20.308  1.00  0.00     0.000 C 
BRANCH  14  15
ATOM     15  C   UNL     1    -117.260  12.219  19.227  1.00  0.00     0.000 C 
BRANCH  15  16
ATOM     16  C   UNL     1    -117.810  12.402  17.803  1.00  0.00     0.006 C 
BRANCH  16  17
ATOM     17  C   UNL     1    -117.090  13.527  17.044  1.00  0.00     0.053 C 
BRANCH  17  18
ATOM     18  C   UNL     1    -117.725  14.861  17.292  1.00  0.00     0.041 C 
ATOM     19  O   UNL     1    -117.028  15.828  17.697  1.00  0.00    -0.550 OA
ATOM     20  O   UNL     1    -119.081  15.043  17.050  1.00  0.00    -0.550 OA
ENDBRANCH  17  18
ENDBRANCH  16  17
ENDBRANCH  15  16
ENDBRANCH  14  15
ENDBRANCH  13  14
ENDBRANCH  12  13
ENDBRANCH  11  12
ENDBRANCH   1  11
TORSDOF 15
ENDMDL
MODEL 6
REMARK VINA RESULT:    -3.403      1.406      2.371
REMARK INTER + INTRA:          -8.421
REMARK INTER:                  -6.490
REMARK INTRA:                  -1.932
REMARK UNBOUND:                -2.034
REMARK SMILES O=C([O-])CCCCCCCCCCCCCCC(=O)[O-]
REMARK SMILES IDX 10 1 9 2 8 3 7 4 6 5 5 6 4 7 2 8 1 9 3 10 11 11 12 12 13 13
REMARK SMILES IDX 14 14 15 15 16 16 17 17 18 18 19 19 20 20
REMARK H PARENT
REMARK Flexibility Score: inf
ROOT
ATOM      1  C   UNL     1    -117.497  14.496  24.081  1.00  0.00     0.000 C 
ENDROOT
BRANCH   1   2
ATOM      2  C   UNL     1    -116.601  13.256  23.922  1.00  0.00     0.000 C 
BRANCH   2   3
ATOM      3  C   UNL     1    -117.386  11.940  24.055  1.00  0.00     0.000 C 
BRANCH   3   4
ATOM      4  C   UNL     1    -116.499  10.701  23.848  1.00  0.00     0.000 C 
BRANCH   4   5
ATOM      5  C   UNL     1    -115.218  11.018  23.059  1.00  0.00     0.000 C 
BRANCH   5   6
ATOM      6  C   UNL     1    -114.144   9.926  23.207  1.00  0.00     0.006 C 
BRANCH   6   7
ATOM      7  C   UNL     1    -112.812  10.489  23.722  1.00  0.00     0.053 C 
BRANCH   7   8
ATOM      8  C   UNL     1    -113.013  11.426  24.873  1.00  0.00     0.041 C 
ATOM      9  O   UNL     1    -112.553  12.597  24.825  1.00  0.00    -0.550 OA
ATOM     10  O   UNL     1    -113.740  11.017  25.984  1.00  0.00    -0.550 OA
ENDBRANCH   7   8
ENDBRANCH   6   7
ENDBRANCH   5   6
ENDBRANCH   4   5
ENDBRANCH   3   4
ENDBRANCH   2   3
ENDBRANCH   1   2
BRANCH   1  11
ATOM     11  C   UNL     1    -118.951  14.145  24.447  1.00  0.00     0.000 C 
BRANCH  11  12
ATOM     12  C   UNL     1    -119.984  14.363  23.326  1.00  0.00     0.000 C 
BRANCH  12  13
ATOM     13  C   UNL     1    -119.454  15.245  22.184  1.00  0.00     0.000 C 
BRANCH  13  14
ATOM     14  C   UNL     1    -119.464  14.532  20.819  1.00  0.00     0.000 C 
BRANCH  14  15
ATOM     15  C   UNL     1    -118.969  13.074  20.834  1.00  0.00     0.000 C 
BRANCH  15  16
ATOM     16  C   UNL     1    -117.468  12.946  20.527  1.00  0.00     0.006 C 
BRANCH  16  17
ATOM     17  C   UNL     1    -117.121  11.596  19.883  1.00  0.00     0.053 C 
BRANCH  17  18
ATOM     18  C   UNL     1    -116.845  11.731  18.417  1.00  0.00     0.041 C 
ATOM     19  O   UNL     1    -117.397  12.647  17.751  1.00  0.00    -0.550 OA
ATOM     20  O   UNL     1    -115.960  10.862  17.792  1.00  0.00    -0.550 OA
ENDBRANCH  17  18
ENDBRANCH  16  17
ENDBRANCH  15  16
ENDBRANCH  14  15
ENDBRANCH  13  14
ENDBRANCH  12  13
ENDBRANCH  11  12
ENDBRANCH   1  11
TORSDOF 15
ENDMDL
MODEL 7
REMARK VINA RESULT:    -3.355     16.979     18.238
REMARK INTER + INTRA:          -8.331
REMARK INTER:                  -7.219
REMARK INTRA:                  -1.112
REMARK UNBOUND:                -2.034
REMARK SMILES O=C([O-])CCCCCCCCCCCCCCC(=O)[O-]
REMARK SMILES IDX 10 1 9 2 8 3 7 4 6 5 5 6 4 7 2 8 1 9 3 10 11 11 12 12 13 13
REMARK SMILES IDX 14 14 15 15 16 16 17 17 18 18 19 19 20 20
REMARK H PARENT
REMARK Flexibility Score: inf
ROOT
ATOM      1  C   UNL     1    -102.910  26.285  19.262  1.00  0.00     0.000 C 
ENDROOT
BRANCH   1   2
ATOM      2  C   UNL     1    -102.250  25.150  20.064  1.00  0.00     0.000 C 
BRANCH   2   3
ATOM      3  C   UNL     1    -100.828  24.831  19.573  1.00  0.00     0.000 C 
BRANCH   3   4
ATOM      4  C   UNL     1    -100.680  24.997  18.051  1.00  0.00     0.000 C 
BRANCH   4   5
ATOM      5  C   UNL     1    -100.422  23.663  17.334  1.00  0.00     0.000 C 
BRANCH   5   6
ATOM      6  C   UNL     1    -101.695  23.072  16.702  1.00  0.00     0.006 C 
BRANCH   6   7
ATOM      7  C   UNL     1    -102.362  22.029  17.610  1.00  0.00     0.053 C 
BRANCH   7   8
ATOM      8  C   UNL     1    -103.768  22.411  17.955  1.00  0.00     0.041 C 
ATOM      9  O   UNL     1    -104.460  21.673  18.706  1.00  0.00    -0.550 OA
ATOM     10  O   UNL     1    -104.304  23.600  17.476  1.00  0.00    -0.550 OA
ENDBRANCH   7   8
ENDBRANCH   6   7
ENDBRANCH   5   6
ENDBRANCH   4   5
ENDBRANCH   3   4
ENDBRANCH   2   3
ENDBRANCH   1   2
BRANCH   1  11
ATOM     11  C   UNL     1    -104.026  27.004  20.043  1.00  0.00     0.000 C 
BRANCH  11  12
ATOM     12  C   UNL     1    -103.571  27.738  21.318  1.00  0.00     0.000 C 
BRANCH  12  13
ATOM     13  C   UNL     1    -104.744  28.186  22.205  1.00  0.00     0.000 C 
BRANCH  13  14
ATOM     14  C   UNL     1    -106.057  28.363  21.419  1.00  0.00     0.000 C 
BRANCH  14  15
ATOM     15  C   UNL     1    -107.346  28.213  22.248  1.00  0.00     0.000 C 
BRANCH  15  16
ATOM     16  C   UNL     1    -108.591  27.955  21.382  1.00  0.00     0.006 C 
BRANCH  16  17
ATOM     17  C   UNL     1    -109.889  28.022  22.199  1.00  0.00     0.053 C 
BRANCH  17  18
ATOM     18  C   UNL     1    -110.384  26.659  22.572  1.00  0.00     0.041 C 
ATOM     19  O   UNL     1    -109.849  26.029  23.522  1.00  0.00    -0.550 OA
ATOM     20  O   UNL     1    -111.453  26.094  21.887  1.00  0.00    -0.550 OA
ENDBRANCH  17  18
ENDBRANCH  16  17
ENDBRANCH  15  16
ENDBRANCH  14  15
ENDBRANCH  13  14
ENDBRANCH  12  13
ENDBRANCH  11  12
ENDBRANCH   1  11
TORSDOF 15
ENDMDL
MODEL 8
REMARK VINA RESULT:    -3.334      2.883      3.746
REMARK INTER + INTRA:          -8.291
REMARK INTER:                  -6.428
REMARK INTRA:                  -1.863
REMARK UNBOUND:                -2.034
REMARK SMILES O=C([O-])CCCCCCCCCCCCCCC(=O)[O-]
REMARK SMILES IDX 10 1 9 2 8 3 7 4 6 5 5 6 4 7 2 8 1 9 3 10 11 11 12 12 13 13
REMARK SMILES IDX 14 14 15 15 16 16 17 17 18 18 19 19 20 20
REMARK H PARENT
REMARK Flexibility Score: inf
ROOT
ATOM      1  C   UNL     1    -116.319  11.616  21.738  1.00  0.00     0.000 C 
ENDROOT
BRANCH   1   2
ATOM      2  C   UNL     1    -115.764  10.509  20.824  1.00  0.00     0.000 C 
BRANCH   2   3
ATOM      3  C   UNL     1    -114.893   9.497  21.587  1.00  0.00     0.000 C 
BRANCH   3   4
ATOM      4  C   UNL     1    -113.586   9.169  20.845  1.00  0.00     0.000 C 
BRANCH   4   5
ATOM      5  C   UNL     1    -112.366   9.150  21.780  1.00  0.00     0.000 C 
BRANCH   5   6
ATOM      6  C   UNL     1    -112.737   9.439  23.246  1.00  0.00     0.006 C 
BRANCH   6   7
ATOM      7  C   UNL     1    -111.912  10.591  23.835  1.00  0.00     0.053 C 
BRANCH   7   8
ATOM      8  C   UNL     1    -112.658  11.313  24.915  1.00  0.00     0.041 C 
ATOM      9  O   UNL     1    -112.500  12.552  25.076  1.00  0.00    -0.550 OA
ATOM     10  O   UNL     1    -113.556  10.623  25.721  1.00  0.00    -0.550 OA
ENDBRANCH   7   8
ENDBRANCH   6   7
ENDBRANCH   5   6
ENDBRANCH   4   5
ENDBRANCH   3   4
ENDBRANCH   2   3
ENDBRANCH   1   2
BRANCH   1  11
ATOM     11  C   UNL     1    -115.933  11.425  23.216  1.00  0.00     0.000 C 
BRANCH  11  12
ATOM     12  C   UNL     1    -116.151  12.653  24.119  1.00  0.00     0.000 C 
BRANCH  12  13
ATOM     13  C   UNL     1    -116.821  13.827  23.385  1.00  0.00     0.000 C 
BRANCH  13  14
ATOM     14  C   UNL     1    -117.873  14.552  24.245  1.00  0.00     0.000 C 
BRANCH  14  15
ATOM     15  C   UNL     1    -119.332  14.380  23.786  1.00  0.00     0.000 C 
BRANCH  15  16
ATOM     16  C   UNL     1    -120.087  13.299  24.578  1.00  0.00     0.006 C 
BRANCH  16  17
ATOM     17  C   UNL     1    -120.013  11.924  23.899  1.00  0.00     0.053 C 
BRANCH  17  18
ATOM     18  C   UNL     1    -119.334  10.910  24.767  1.00  0.00     0.041 C 
ATOM     19  O   UNL     1    -119.059  11.184  25.965  1.00  0.00    -0.550 OA
ATOM     20  O   UNL     1    -119.028   9.653  24.261  1.00  0.00    -0.550 OA
ENDBRANCH  17  18
ENDBRANCH  16  17
ENDBRANCH  15  16
ENDBRANCH  14  15
ENDBRANCH  13  14
ENDBRANCH  12  13
ENDBRANCH  11  12
ENDBRANCH   1  11
TORSDOF 15
ENDMDL
MODEL 9
REMARK VINA RESULT:    -3.286      1.208      2.180
REMARK INTER + INTRA:          -8.201
REMARK INTER:                  -6.556
REMARK INTRA:                  -1.645
REMARK UNBOUND:                -2.034
REMARK SMILES O=C([O-])CCCCCCCCCCCCCCC(=O)[O-]
REMARK SMILES IDX 10 1 9 2 8 3 7 4 6 5 5 6 4 7 2 8 1 9 3 10 11 11 12 12 13 13
REMARK SMILES IDX 14 14 15 15 16 16 17 17 18 18 19 19 20 20
REMARK H PARENT
REMARK Flexibility Score: inf
ROOT
ATOM      1  C   UNL     1    -116.148  11.443  21.662  1.00  0.00     0.000 C 
ENDROOT
BRANCH   1   2
ATOM      2  C   UNL     1    -115.607  10.415  20.653  1.00  0.00     0.000 C 
BRANCH   2   3
ATOM      3  C   UNL     1    -114.810   9.288  21.331  1.00  0.00     0.000 C 
BRANCH   3   4
ATOM      4  C   UNL     1    -113.409   9.108  20.722  1.00  0.00     0.000 C 
BRANCH   4   5
ATOM      5  C   UNL     1    -112.301   9.086  21.787  1.00  0.00     0.000 C 
BRANCH   5   6
ATOM      6  C   UNL     1    -112.813   9.478  23.184  1.00  0.00     0.006 C 
BRANCH   6   7
ATOM      7  C   UNL     1    -112.015  10.644  23.786  1.00  0.00     0.053 C 
BRANCH   7   8
ATOM      8  C   UNL     1    -112.756  11.301  24.909  1.00  0.00     0.041 C 
ATOM      9  O   UNL     1    -112.535  12.508  25.194  1.00  0.00    -0.550 OA
ATOM     10  O   UNL     1    -113.717  10.591  25.619  1.00  0.00    -0.550 OA
ENDBRANCH   7   8
ENDBRANCH   6   7
ENDBRANCH   5   6
ENDBRANCH   4   5
ENDBRANCH   3   4
ENDBRANCH   2   3
ENDBRANCH   1   2
BRANCH   1  11
ATOM     11  C   UNL     1    -116.217  10.896  23.100  1.00  0.00     0.000 C 
BRANCH  11  12
ATOM     12  C   UNL     1    -116.604  11.924  24.179  1.00  0.00     0.000 C 
BRANCH  12  13
ATOM     13  C   UNL     1    -116.459  13.379  23.703  1.00  0.00     0.000 C 
BRANCH  13  14
ATOM     14  C   UNL     1    -117.589  14.293  24.212  1.00  0.00     0.000 C 
BRANCH  14  15
ATOM     15  C   UNL     1    -118.535  14.838  23.127  1.00  0.00     0.000 C 
BRANCH  15  16
ATOM     16  C   UNL     1    -118.697  13.880  21.934  1.00  0.00     0.006 C 
BRANCH  16  17
ATOM     17  C   UNL     1    -118.256  14.523  20.611  1.00  0.00     0.053 C 
BRANCH  17  18
ATOM     18  C   UNL     1    -118.785  13.776  19.425  1.00  0.00     0.041 C 
ATOM     19  O   UNL     1    -119.815  14.185  18.828  1.00  0.00    -0.550 OA
ATOM     20  O   UNL     1    -118.126  12.643  18.965  1.00  0.00    -0.550 OA
ENDBRANCH  17  18
ENDBRANCH  16  17
ENDBRANCH  15  16
ENDBRANCH  14  15
ENDBRANCH  13  14
ENDBRANCH  12  13
ENDBRANCH  11  12
ENDBRANCH   1  11
TORSDOF 15
ENDMDL
