MODEL 1
REMARK VINA RESULT:    62.930      0.000      0.000
REMARK INTER + INTRA:          82.197
REMARK INTER:                  83.164
REMARK INTRA:                  -0.967
REMARK UNBOUND:                -0.967
REMARK SMILES CC[C@@H](C=C[C@H](C)[C@@H]1CC[C@H]2C3=CC[C@H]4C[C@H](O)CC[C@]4(C)[C@@H]3CC[C@]21C)C(C)C
REMARK SMILES IDX 6 1 7 2 5 3 4 4 3 5 2 6 1 7 28 8 29 9 30 10 8 11 9 12 26 13
REMARK SMILES IDX 10 14 11 15 25 16 27 17 12 18 24 19 23 20 13 21 21 22 14 23
REMARK SMILES IDX 15 24 20 25 22 26 16 27 19 28 17 29 18 30
REMARK H PARENT 18 31
REMARK Flexibility Score: inf
ROOT
ATOM      1  C   UNL     1     -26.007  30.045  -8.922  1.00  0.00     0.012 C 
ATOM      2  C   UNL     1     -27.331  30.787  -8.615  1.00  0.00     0.012 C 
ENDROOT
BRANCH   1   3
ATOM      3  C   UNL     1     -25.006  31.073  -9.431  1.00  0.00    -0.028 C 
ATOM      4  C   UNL     1     -24.955  32.337  -8.972  1.00  0.00    -0.027 C 
BRANCH   4   5
ATOM      5  C   UNL     1     -24.007  33.365  -9.564  1.00  0.00     0.014 C 
BRANCH   5   6
ATOM      6  C   UNL     1     -22.588  33.151  -8.983  1.00  0.00     0.004 C 
ATOM      7  C   UNL     1     -21.878  31.941  -9.589  1.00  0.00     0.004 C 
ENDBRANCH   5   6
BRANCH   5   8
ATOM      8  C   UNL     1     -24.548  34.804  -9.292  1.00  0.00    -0.011 C 
ATOM      9  C   UNL     1     -23.437  35.870  -9.343  1.00  0.00     0.008 C 
ATOM     10  C   UNL     1     -25.641  35.185 -10.306  1.00  0.00     0.008 C 
ENDBRANCH   5   8
ENDBRANCH   4   5
ENDBRANCH   1   3
BRANCH   1  11
ATOM     11  C   UNL     1     -25.453  29.222  -7.697  1.00  0.00     0.002 C 
ATOM     12  C   UNL     1     -24.927  30.155  -6.570  1.00  0.00     0.005 C 
ATOM     13  C   UNL     1     -24.270  28.208  -7.958  1.00  0.00    -0.023 C 
ATOM     14  C   UNL     1     -23.482  29.782  -6.269  1.00  0.00     0.009 C 
ATOM     15  C   UNL     1     -23.023  28.973  -7.467  1.00  0.00     0.021 C 
ATOM     16  C   UNL     1     -24.513  26.921  -7.092  1.00  0.00     0.008 C 
ATOM     17  C   UNL     1     -24.058  27.778  -9.432  1.00  0.00     0.012 C 
ATOM     18  C   UNL     1     -21.853  28.044  -7.168  1.00  0.00    -0.067 C 
ATOM     19  C   UNL     1     -23.263  26.034  -6.910  1.00  0.00     0.009 C 
ATOM     20  C   UNL     1     -22.119  26.845  -6.254  1.00  0.00     0.021 C 
ATOM     21  C   UNL     1     -20.734  28.137  -7.929  1.00  0.00    -0.027 C 
ATOM     22  C   UNL     1     -20.807  26.051  -5.911  1.00  0.00    -0.023 C 
ATOM     23  C   UNL     1     -19.596  27.145  -7.883  1.00  0.00     0.031 C 
ATOM     24  C   UNL     1     -20.038  25.815  -7.252  1.00  0.00     0.002 C 
ATOM     25  C   UNL     1     -21.087  24.692  -5.172  1.00  0.00     0.010 C 
ATOM     26  C   UNL     1     -19.971  26.926  -4.926  1.00  0.00     0.012 C 
ATOM     27  C   UNL     1     -18.879  24.813  -7.105  1.00  0.00     0.036 C 
ATOM     28  C   UNL     1     -20.807  23.458  -6.038  1.00  0.00     0.032 C 
ATOM     29  C   UNL     1     -19.340  23.449  -6.514  1.00  0.00     0.114 C 
BRANCH  29  30
ATOM     30  O   UNL     1     -19.180  22.426  -7.465  1.00  0.00    -0.393 OA
ATOM     31  H   UNL     1     -20.056  22.317  -7.919  1.00  0.00     0.210 HD
ENDBRANCH  29  30
ENDBRANCH   1  11
TORSDOF 6
ENDMDL
