MODEL 1
REMARK VINA RESULT:    -4.472      0.000      0.000
REMARK INTER + INTRA:          -7.369
REMARK INTER:                  -6.826
REMARK INTRA:                  -0.543
REMARK UNBOUND:                -0.543
REMARK SMILES O=C([O-])CCCCCCCCC(=O)[O-]
REMARK SMILES IDX 7 1 6 2 5 3 4 4 2 5 1 6 3 7 8 8 9 9 10 10 11 11 12 12 13 13
REMARK SMILES IDX 14 14
REMARK H PARENT
REMARK Flexibility Score: inf
ROOT
ATOM      1  C   UNL     1      -7.547 -32.907  41.875  1.00  0.00     0.000 C 
ENDROOT
BRANCH   1   2
ATOM      2  C   UNL     1      -8.933 -32.909  41.204  1.00  0.00     0.000 C 
BRANCH   2   3
ATOM      3  C   UNL     1      -9.933 -33.937  41.771  1.00  0.00     0.006 C 
BRANCH   3   4
ATOM      4  C   UNL     1     -10.497 -33.584  43.156  1.00  0.00     0.053 C 
BRANCH   4   5
ATOM      5  C   UNL     1      -9.881 -34.413  44.240  1.00  0.00     0.041 C 
ATOM      6  O   UNL     1      -9.835 -33.979  45.421  1.00  0.00    -0.550 OA
ATOM      7  O   UNL     1      -9.386 -35.679  43.952  1.00  0.00    -0.550 OA
ENDBRANCH   4   5
ENDBRANCH   3   4
ENDBRANCH   2   3
ENDBRANCH   1   2
BRANCH   1   8
ATOM      8  C   UNL     1      -7.323 -31.689  42.787  1.00  0.00     0.000 C 
BRANCH   8   9
ATOM      9  C   UNL     1      -6.989 -32.097  44.239  1.00  0.00     0.000 C 
BRANCH   9  10
ATOM     10  C   UNL     1      -5.830 -31.295  44.856  1.00  0.00     0.006 C 
BRANCH  10  11
ATOM     11  C   UNL     1      -5.864 -29.809  44.483  1.00  0.00     0.053 C 
BRANCH  11  12
ATOM     12  C   UNL     1      -4.590 -29.138  44.885  1.00  0.00     0.041 C 
ATOM     13  O   UNL     1      -4.608 -27.962  45.334  1.00  0.00    -0.550 OA
ATOM     14  O   UNL     1      -3.376 -29.793  44.720  1.00  0.00    -0.550 OA
ENDBRANCH  11  12
ENDBRANCH  10  11
ENDBRANCH   9  10
ENDBRANCH   8   9
ENDBRANCH   1   8
TORSDOF 9
ENDMDL
MODEL 2
REMARK VINA RESULT:    -4.468      1.202      6.152
REMARK INTER + INTRA:          -7.362
REMARK INTER:                  -6.871
REMARK INTRA:                  -0.491
REMARK UNBOUND:                -0.543
REMARK SMILES O=C([O-])CCCCCCCCC(=O)[O-]
REMARK SMILES IDX 7 1 6 2 5 3 4 4 2 5 1 6 3 7 8 8 9 9 10 10 11 11 12 12 13 13
REMARK SMILES IDX 14 14
REMARK H PARENT
REMARK Flexibility Score: inf
ROOT
ATOM      1  C   UNL     1      -7.631 -31.818  42.227  1.00  0.00     0.000 C 
ENDROOT
BRANCH   1   2
ATOM      2  C   UNL     1      -7.264 -32.235  43.663  1.00  0.00     0.000 C 
BRANCH   2   3
ATOM      3  C   UNL     1      -6.349 -31.249  44.419  1.00  0.00     0.006 C 
BRANCH   3   4
ATOM      4  C   UNL     1      -6.470 -29.787  43.961  1.00  0.00     0.053 C 
BRANCH   4   5
ATOM      5  C   UNL     1      -6.672 -28.853  45.114  1.00  0.00     0.041 C 
ATOM      6  O   UNL     1      -7.743 -28.887  45.776  1.00  0.00    -0.550 OA
ATOM      7  O   UNL     1      -5.666 -27.967  45.477  1.00  0.00    -0.550 OA
ENDBRANCH   4   5
ENDBRANCH   3   4
ENDBRANCH   2   3
ENDBRANCH   1   2
BRANCH   1   8
ATOM      8  C   UNL     1      -7.921 -33.018  41.310  1.00  0.00     0.000 C 
BRANCH   8   9
ATOM      9  C   UNL     1      -9.434 -33.288  41.158  1.00  0.00     0.000 C 
BRANCH   9  10
ATOM     10  C   UNL     1      -9.983 -34.322  42.156  1.00  0.00     0.006 C 
BRANCH  10  11
ATOM     11  C   UNL     1     -10.541 -33.685  43.432  1.00  0.00     0.053 C 
BRANCH  11  12
ATOM     12  C   UNL     1     -10.291 -34.569  44.612  1.00  0.00     0.041 C 
ATOM     13  O   UNL     1     -10.575 -35.794  44.556  1.00  0.00    -0.550 OA
ATOM     14  O   UNL     1      -9.790 -34.031  45.790  1.00  0.00    -0.550 OA
ENDBRANCH  11  12
ENDBRANCH  10  11
ENDBRANCH   9  10
ENDBRANCH   8   9
ENDBRANCH   1   8
TORSDOF 9
ENDMDL
MODEL 3
REMARK VINA RESULT:    -4.449      2.200      2.976
REMARK INTER + INTRA:          -7.334
REMARK INTER:                  -6.821
REMARK INTRA:                  -0.512
REMARK UNBOUND:                -0.543
REMARK SMILES O=C([O-])CCCCCCCCC(=O)[O-]
REMARK SMILES IDX 7 1 6 2 5 3 4 4 2 5 1 6 3 7 8 8 9 9 10 10 11 11 12 12 13 13
REMARK SMILES IDX 14 14
REMARK H PARENT
REMARK Flexibility Score: inf
ROOT
ATOM      1  C   UNL     1      -9.623 -33.838  44.672  1.00  0.00     0.000 C 
ENDROOT
BRANCH   1   2
ATOM      2  C   UNL     1     -10.462 -33.570  43.409  1.00  0.00     0.000 C 
BRANCH   2   3
ATOM      3  C   UNL     1      -9.940 -34.240  42.121  1.00  0.00     0.006 C 
BRANCH   3   4
ATOM      4  C   UNL     1      -9.672 -33.270  40.960  1.00  0.00     0.053 C 
BRANCH   4   5
ATOM      5  C   UNL     1      -8.339 -32.600  41.084  1.00  0.00     0.041 C 
ATOM      6  O   UNL     1      -7.282 -33.285  41.079  1.00  0.00    -0.550 OA
ATOM      7  O   UNL     1      -8.262 -31.216  41.174  1.00  0.00    -0.550 OA
ENDBRANCH   4   5
ENDBRANCH   3   4
ENDBRANCH   2   3
ENDBRANCH   1   2
BRANCH   1   8
ATOM      8  C   UNL     1      -8.396 -32.917  44.782  1.00  0.00     0.000 C 
BRANCH   8   9
ATOM      9  C   UNL     1      -8.160 -32.424  46.227  1.00  0.00     0.000 C 
BRANCH   9  10
ATOM     10  C   UNL     1      -6.712 -31.981  46.502  1.00  0.00     0.006 C 
BRANCH  10  11
ATOM     11  C   UNL     1      -5.950 -31.603  45.228  1.00  0.00     0.053 C 
BRANCH  11  12
ATOM     12  C   UNL     1      -5.352 -30.239  45.360  1.00  0.00     0.041 C 
ATOM     13  O   UNL     1      -5.802 -29.430  46.214  1.00  0.00    -0.550 OA
ATOM     14  O   UNL     1      -4.330 -29.842  44.507  1.00  0.00    -0.550 OA
ENDBRANCH  11  12
ENDBRANCH  10  11
ENDBRANCH   9  10
ENDBRANCH   8   9
ENDBRANCH   1   8
TORSDOF 9
ENDMDL
MODEL 4
REMARK VINA RESULT:    -4.441      1.872      5.790
REMARK INTER + INTRA:          -7.321
REMARK INTER:                  -6.842
REMARK INTRA:                  -0.480
REMARK UNBOUND:                -0.543
REMARK SMILES O=C([O-])CCCCCCCCC(=O)[O-]
REMARK SMILES IDX 7 1 6 2 5 3 4 4 2 5 1 6 3 7 8 8 9 9 10 10 11 11 12 12 13 13
REMARK SMILES IDX 14 14
REMARK H PARENT
REMARK Flexibility Score: inf
ROOT
ATOM      1  C   UNL     1      -9.295 -33.583  40.991  1.00  0.00     0.000 C 
ENDROOT
BRANCH   1   2
ATOM      2  C   UNL     1      -7.843 -33.169  41.294  1.00  0.00     0.000 C 
BRANCH   2   3
ATOM      3  C   UNL     1      -7.691 -31.957  42.236  1.00  0.00     0.006 C 
BRANCH   3   4
ATOM      4  C   UNL     1      -7.243 -32.309  43.664  1.00  0.00     0.053 C 
BRANCH   4   5
ATOM      5  C   UNL     1      -6.429 -31.215  44.282  1.00  0.00     0.041 C 
ATOM      6  O   UNL     1      -6.611 -30.018  43.937  1.00  0.00    -0.550 OA
ATOM      7  O   UNL     1      -5.492 -31.515  45.262  1.00  0.00    -0.550 OA
ENDBRANCH   4   5
ENDBRANCH   3   4
ENDBRANCH   2   3
ENDBRANCH   1   2
BRANCH   1   8
ATOM      8  C   UNL     1     -10.218 -33.475  42.217  1.00  0.00     0.000 C 
BRANCH   8   9
ATOM      9  C   UNL     1     -10.209 -34.761  43.073  1.00  0.00     0.000 C 
BRANCH   9  10
ATOM     10  C   UNL     1     -10.529 -34.519  44.558  1.00  0.00     0.006 C 
BRANCH  10  11
ATOM     11  C   UNL     1     -10.538 -35.808  45.386  1.00  0.00     0.053 C 
BRANCH  11  12
ATOM     12  C   UNL     1      -9.892 -35.581  46.715  1.00  0.00     0.041 C 
ATOM     13  O   UNL     1      -9.667 -34.410  47.119  1.00  0.00    -0.550 OA
ATOM     14  O   UNL     1      -9.494 -36.664  47.489  1.00  0.00    -0.550 OA
ENDBRANCH  11  12
ENDBRANCH  10  11
ENDBRANCH   9  10
ENDBRANCH   8   9
ENDBRANCH   1   8
TORSDOF 9
ENDMDL
MODEL 5
REMARK VINA RESULT:    -4.414      3.961      5.855
REMARK INTER + INTRA:          -7.279
REMARK INTER:                  -6.858
REMARK INTRA:                  -0.421
REMARK UNBOUND:                -0.543
REMARK SMILES O=C([O-])CCCCCCCCC(=O)[O-]
REMARK SMILES IDX 7 1 6 2 5 3 4 4 2 5 1 6 3 7 8 8 9 9 10 10 11 11 12 12 13 13
REMARK SMILES IDX 14 14
REMARK H PARENT
REMARK Flexibility Score: inf
ROOT
ATOM      1  C   UNL     1     -10.285 -36.169  44.176  1.00  0.00     0.000 C 
ENDROOT
BRANCH   1   2
ATOM      2  C   UNL     1     -10.914 -37.192  45.140  1.00  0.00     0.000 C 
BRANCH   2   3
ATOM      3  C   UNL     1     -11.295 -36.636  46.527  1.00  0.00     0.006 C 
BRANCH   3   4
ATOM      4  C   UNL     1     -10.484 -37.220  47.695  1.00  0.00     0.053 C 
BRANCH   4   5
ATOM      5  C   UNL     1     -11.250 -38.269  48.440  1.00  0.00     0.041 C 
ATOM      6  O   UNL     1     -11.221 -39.468  48.056  1.00  0.00    -0.550 OA
ATOM      7  O   UNL     1     -11.971 -37.927  49.577  1.00  0.00    -0.550 OA
ENDBRANCH   4   5
ENDBRANCH   3   4
ENDBRANCH   2   3
ENDBRANCH   1   2
BRANCH   1   8
ATOM      8  C   UNL     1     -10.473 -34.714  44.639  1.00  0.00     0.000 C 
BRANCH   8   9
ATOM      9  C   UNL     1     -10.411 -33.712  43.465  1.00  0.00     0.000 C 
BRANCH   9  10
ATOM     10  C   UNL     1      -9.868 -34.320  42.160  1.00  0.00     0.006 C 
BRANCH  10  11
ATOM     11  C   UNL     1      -9.625 -33.273  41.068  1.00  0.00     0.053 C 
BRANCH  11  12
ATOM     12  C   UNL     1      -8.268 -32.663  41.220  1.00  0.00     0.041 C 
ATOM     13  O   UNL     1      -7.248 -33.397  41.295  1.00  0.00    -0.550 OA
ATOM     14  O   UNL     1      -8.134 -31.284  41.329  1.00  0.00    -0.550 OA
ENDBRANCH  11  12
ENDBRANCH  10  11
ENDBRANCH   9  10
ENDBRANCH   8   9
ENDBRANCH   1   8
TORSDOF 9
ENDMDL
MODEL 6
REMARK VINA RESULT:    -4.383      3.934      7.289
REMARK INTER + INTRA:          -7.233
REMARK INTER:                  -6.840
REMARK INTRA:                  -0.393
REMARK UNBOUND:                -0.543
REMARK SMILES O=C([O-])CCCCCCCCC(=O)[O-]
REMARK SMILES IDX 7 1 6 2 5 3 4 4 2 5 1 6 3 7 8 8 9 9 10 10 11 11 12 12 13 13
REMARK SMILES IDX 14 14
REMARK H PARENT
REMARK Flexibility Score: inf
ROOT
ATOM      1  C   UNL     1      -9.831 -34.209  44.525  1.00  0.00     0.000 C 
ENDROOT
BRANCH   1   2
ATOM      2  C   UNL     1      -9.420 -34.467  43.064  1.00  0.00     0.000 C 
BRANCH   2   3
ATOM      3  C   UNL     1     -10.212 -33.668  42.009  1.00  0.00     0.006 C 
BRANCH   3   4
ATOM      4  C   UNL     1      -9.394 -33.249  40.777  1.00  0.00     0.053 C 
BRANCH   4   5
ATOM      5  C   UNL     1      -8.058 -32.690  41.155  1.00  0.00     0.041 C 
ATOM      6  O   UNL     1      -7.967 -31.521  41.616  1.00  0.00    -0.550 OA
ATOM      7  O   UNL     1      -6.916 -33.471  41.029  1.00  0.00    -0.550 OA
ENDBRANCH   4   5
ENDBRANCH   3   4
ENDBRANCH   2   3
ENDBRANCH   1   2
BRANCH   1   8
ATOM      8  C   UNL     1     -10.627 -35.374  45.139  1.00  0.00     0.000 C 
BRANCH   8   9
ATOM      9  C   UNL     1     -10.562 -36.650  44.272  1.00  0.00     0.000 C 
BRANCH   9  10
ATOM     10  C   UNL     1      -9.538 -37.685  44.768  1.00  0.00     0.006 C 
BRANCH  10  11
ATOM     11  C   UNL     1      -9.918 -39.124  44.406  1.00  0.00     0.053 C 
BRANCH  11  12
ATOM     12  C   UNL     1      -8.702 -39.907  44.025  1.00  0.00     0.041 C 
ATOM     13  O   UNL     1      -8.655 -40.507  42.919  1.00  0.00    -0.550 OA
ATOM     14  O   UNL     1      -7.638 -40.016  44.912  1.00  0.00    -0.550 OA
ENDBRANCH  11  12
ENDBRANCH  10  11
ENDBRANCH   9  10
ENDBRANCH   8   9
ENDBRANCH   1   8
TORSDOF 9
ENDMDL
MODEL 7
REMARK VINA RESULT:    -4.371      1.446      2.216
REMARK INTER + INTRA:          -7.213
REMARK INTER:                  -6.389
REMARK INTRA:                  -0.824
REMARK UNBOUND:                -0.543
REMARK SMILES O=C([O-])CCCCCCCCC(=O)[O-]
REMARK SMILES IDX 7 1 6 2 5 3 4 4 2 5 1 6 3 7 8 8 9 9 10 10 11 11 12 12 13 13
REMARK SMILES IDX 14 14
REMARK H PARENT
REMARK Flexibility Score: inf
ROOT
ATOM      1  C   UNL     1      -8.840 -34.031  41.486  1.00  0.00     0.000 C 
ENDROOT
BRANCH   1   2
ATOM      2  C   UNL     1     -10.116 -33.262  41.876  1.00  0.00     0.000 C 
BRANCH   2   3
ATOM      3  C   UNL     1     -10.645 -33.549  43.296  1.00  0.00     0.006 C 
BRANCH   3   4
ATOM      4  C   UNL     1      -9.670 -34.325  44.197  1.00  0.00     0.053 C 
BRANCH   4   5
ATOM      5  C   UNL     1     -10.325 -35.504  44.847  1.00  0.00     0.041 C 
ATOM      6  O   UNL     1     -10.535 -35.507  46.089  1.00  0.00    -0.550 OA
ATOM      7  O   UNL     1     -10.732 -36.586  44.077  1.00  0.00    -0.550 OA
ENDBRANCH   4   5
ENDBRANCH   3   4
ENDBRANCH   2   3
ENDBRANCH   1   2
BRANCH   1   8
ATOM      8  C   UNL     1      -7.614 -33.116  41.324  1.00  0.00     0.000 C 
BRANCH   8   9
ATOM      9  C   UNL     1      -7.974 -31.621  41.473  1.00  0.00     0.000 C 
BRANCH   9  10
ATOM     10  C   UNL     1      -7.257 -30.924  42.642  1.00  0.00     0.006 C 
BRANCH  10  11
ATOM     11  C   UNL     1      -7.013 -31.855  43.834  1.00  0.00     0.053 C 
BRANCH  11  12
ATOM     12  C   UNL     1      -6.076 -31.220  44.812  1.00  0.00     0.041 C 
ATOM     13  O   UNL     1      -5.483 -30.149  44.516  1.00  0.00    -0.550 OA
ATOM     14  O   UNL     1      -5.820 -31.835  46.030  1.00  0.00    -0.550 OA
ENDBRANCH  11  12
ENDBRANCH  10  11
ENDBRANCH   9  10
ENDBRANCH   8   9
ENDBRANCH   1   8
TORSDOF 9
ENDMDL
MODEL 8
REMARK VINA RESULT:    -4.341      3.576      5.324
REMARK INTER + INTRA:          -7.168
REMARK INTER:                  -6.690
REMARK INTRA:                  -0.478
REMARK UNBOUND:                -0.543
REMARK SMILES O=C([O-])CCCCCCCCC(=O)[O-]
REMARK SMILES IDX 7 1 6 2 5 3 4 4 2 5 1 6 3 7 8 8 9 9 10 10 11 11 12 12 13 13
REMARK SMILES IDX 14 14
REMARK H PARENT
REMARK Flexibility Score: inf
ROOT
ATOM      1  C   UNL     1     -10.298 -35.146  44.990  1.00  0.00     0.000 C 
ENDROOT
BRANCH   1   2
ATOM      2  C   UNL     1     -10.751 -36.582  45.311  1.00  0.00     0.000 C 
BRANCH   2   3
ATOM      3  C   UNL     1     -11.028 -37.472  44.082  1.00  0.00     0.006 C 
BRANCH   3   4
ATOM      4  C   UNL     1     -10.924 -38.982  44.350  1.00  0.00     0.053 C 
BRANCH   4   5
ATOM      5  C   UNL     1     -12.004 -39.464  45.268  1.00  0.00     0.041 C 
ATOM      6  O   UNL     1     -11.719 -39.858  46.430  1.00  0.00    -0.550 OA
ATOM      7  O   UNL     1     -13.329 -39.448  44.852  1.00  0.00    -0.550 OA
ENDBRANCH   4   5
ENDBRANCH   3   4
ENDBRANCH   2   3
ENDBRANCH   1   2
BRANCH   1   8
ATOM      8  C   UNL     1      -9.768 -34.992  43.553  1.00  0.00     0.000 C 
BRANCH   8   9
ATOM      9  C   UNL     1     -10.375 -33.768  42.833  1.00  0.00     0.000 C 
BRANCH   9  10
ATOM     10  C   UNL     1      -9.842 -33.563  41.404  1.00  0.00     0.006 C 
BRANCH  10  11
ATOM     11  C   UNL     1      -8.313 -33.475  41.343  1.00  0.00     0.053 C 
BRANCH  11  12
ATOM     12  C   UNL     1      -7.840 -32.179  41.917  1.00  0.00     0.041 C 
ATOM     13  O   UNL     1      -7.272 -32.153  43.040  1.00  0.00    -0.550 OA
ATOM     14  O   UNL     1      -8.068 -30.991  41.234  1.00  0.00    -0.550 OA
ENDBRANCH  11  12
ENDBRANCH  10  11
ENDBRANCH   9  10
ENDBRANCH   8   9
ENDBRANCH   1   8
TORSDOF 9
ENDMDL
MODEL 9
REMARK VINA RESULT:    -4.323      3.263      5.002
REMARK INTER + INTRA:          -7.141
REMARK INTER:                  -6.692
REMARK INTRA:                  -0.450
REMARK UNBOUND:                -0.543
REMARK SMILES O=C([O-])CCCCCCCCC(=O)[O-]
REMARK SMILES IDX 7 1 6 2 5 3 4 4 2 5 1 6 3 7 8 8 9 9 10 10 11 11 12 12 13 13
REMARK SMILES IDX 14 14
REMARK H PARENT
REMARK Flexibility Score: inf
ROOT
ATOM      1  C   UNL     1     -10.204 -34.385  44.677  1.00  0.00     0.000 C 
ENDROOT
BRANCH   1   2
ATOM      2  C   UNL     1      -9.943 -35.887  44.459  1.00  0.00     0.000 C 
BRANCH   2   3
ATOM      3  C   UNL     1     -10.302 -36.795  45.653  1.00  0.00     0.006 C 
BRANCH   3   4
ATOM      4  C   UNL     1      -9.624 -38.174  45.635  1.00  0.00     0.053 C 
BRANCH   4   5
ATOM      5  C   UNL     1      -8.812 -38.416  46.869  1.00  0.00     0.041 C 
ATOM      6  O   UNL     1      -8.458 -39.585  47.176  1.00  0.00    -0.550 OA
ATOM      7  O   UNL     1      -8.420 -37.347  47.665  1.00  0.00    -0.550 OA
ENDBRANCH   4   5
ENDBRANCH   3   4
ENDBRANCH   2   3
ENDBRANCH   1   2
BRANCH   1   8
ATOM      8  C   UNL     1     -10.614 -33.654  43.388  1.00  0.00     0.000 C 
BRANCH   8   9
ATOM      9  C   UNL     1     -10.086 -34.359  42.119  1.00  0.00     0.000 C 
BRANCH   9  10
ATOM     10  C   UNL     1      -9.548 -33.392  41.051  1.00  0.00     0.006 C 
BRANCH  10  11
ATOM     11  C   UNL     1      -8.044 -33.131  41.182  1.00  0.00     0.053 C 
BRANCH  11  12
ATOM     12  C   UNL     1      -7.795 -31.803  41.823  1.00  0.00     0.041 C 
ATOM     13  O   UNL     1      -7.363 -31.740  43.004  1.00  0.00    -0.550 OA
ATOM     14  O   UNL     1      -8.088 -30.633  41.133  1.00  0.00    -0.550 OA
ENDBRANCH  11  12
ENDBRANCH  10  11
ENDBRANCH   9  10
ENDBRANCH   8   9
ENDBRANCH   1   8
TORSDOF 9
ENDMDL
