MODEL 1
REMARK VINA RESULT:    -3.189      0.000      0.000
REMARK INTER + INTRA:          -3.469
REMARK INTER:                  -3.469
REMARK INTRA:                   0.000
REMARK UNBOUND:                 0.000
REMARK SMILES [NH3+]CC(=O)[O-]
REMARK SMILES IDX 2 1 1 2 3 6 4 7 5 8
REMARK H PARENT 1 3 1 4 1 5
REMARK Flexibility Score: inf
ROOT
ATOM      1  C   UNL     1     154.284 152.773 165.904  1.00  0.00     0.312 C 
ENDROOT
BRANCH   1   2
ATOM      2  N   UNL     1     154.679 154.177 165.992  1.00  0.00    -0.353 N 
ATOM      3  H   UNL     1     154.327 154.684 165.149  1.00  0.00     0.344 HD
ATOM      4  H   UNL     1     154.265 154.613 166.848  1.00  0.00     0.344 HD
ATOM      5  H   UNL     1     155.722 154.255 166.024  1.00  0.00     0.344 HD
ENDBRANCH   1   2
BRANCH   1   6
ATOM      6  C   UNL     1     153.264 152.444 166.950  1.00  0.00     0.096 C 
ATOM      7  O   UNL     1     153.397 152.880 168.124  1.00  0.00    -0.544 OA
ATOM      8  O   UNL     1     152.195 151.612 166.642  1.00  0.00    -0.544 OA
ENDBRANCH   1   6
TORSDOF 2
ENDMDL
MODEL 2
REMARK VINA RESULT:    -3.164     12.014     12.601
REMARK INTER + INTRA:          -3.442
REMARK INTER:                  -3.442
REMARK INTRA:                   0.000
REMARK UNBOUND:                 0.000
REMARK SMILES [NH3+]CC(=O)[O-]
REMARK SMILES IDX 2 1 1 2 3 6 4 7 5 8
REMARK H PARENT 1 3 1 4 1 5
REMARK Flexibility Score: inf
ROOT
ATOM      1  C   UNL     1     160.728 162.358 165.903  1.00  0.00     0.312 C 
ENDROOT
BRANCH   1   2
ATOM      2  N   UNL     1     160.328 160.952 165.913  1.00  0.00    -0.353 N 
ATOM      3  H   UNL     1     160.861 160.440 165.174  1.00  0.00     0.344 HD
ATOM      4  H   UNL     1     160.541 160.525 166.843  1.00  0.00     0.344 HD
ATOM      5  H   UNL     1     159.305 160.869 165.711  1.00  0.00     0.344 HD
ENDBRANCH   1   2
BRANCH   1   6
ATOM      6  C   UNL     1     161.761 162.622 166.954  1.00  0.00     0.096 C 
ATOM      7  O   UNL     1     161.643 162.115 168.100  1.00  0.00    -0.544 OA
ATOM      8  O   UNL     1     162.828 163.469 166.683  1.00  0.00    -0.544 OA
ENDBRANCH   1   6
TORSDOF 2
ENDMDL
MODEL 3
REMARK VINA RESULT:    -3.066     12.573     13.121
REMARK INTER + INTRA:          -3.335
REMARK INTER:                  -3.335
REMARK INTRA:                   0.000
REMARK UNBOUND:                 0.000
REMARK SMILES [NH3+]CC(=O)[O-]
REMARK SMILES IDX 2 1 1 2 3 6 4 7 5 8
REMARK H PARENT 1 3 1 4 1 5
REMARK Flexibility Score: inf
ROOT
ATOM      1  C   UNL     1     160.938 163.250 165.723  1.00  0.00     0.312 C 
ENDROOT
BRANCH   1   2
ATOM      2  N   UNL     1     159.559 163.368 166.192  1.00  0.00    -0.353 N 
ATOM      3  H   UNL     1     158.922 163.436 165.366  1.00  0.00     0.344 HD
ATOM      4  H   UNL     1     159.298 162.526 166.755  1.00  0.00     0.344 HD
ATOM      5  H   UNL     1     159.451 164.231 166.774  1.00  0.00     0.344 HD
ENDBRANCH   1   2
BRANCH   1   6
ATOM      6  C   UNL     1     161.860 162.945 166.863  1.00  0.00     0.096 C 
ATOM      7  O   UNL     1     161.913 161.783 167.342  1.00  0.00    -0.544 OA
ATOM      8  O   UNL     1     162.623 163.958 167.431  1.00  0.00    -0.544 OA
ENDBRANCH   1   6
TORSDOF 2
ENDMDL
MODEL 4
REMARK VINA RESULT:    -3.050     15.894     16.237
REMARK INTER + INTRA:          -3.317
REMARK INTER:                  -3.317
REMARK INTRA:                   0.000
REMARK UNBOUND:                 0.000
REMARK SMILES [NH3+]CC(=O)[O-]
REMARK SMILES IDX 2 1 1 2 3 6 4 7 5 8
REMARK H PARENT 1 3 1 4 1 5
REMARK Flexibility Score: inf
ROOT
ATOM      1  C   UNL     1     163.481 166.285 165.525  1.00  0.00     0.312 C 
ENDROOT
BRANCH   1   2
ATOM      2  N   UNL     1     162.267 165.897 164.811  1.00  0.00    -0.353 N 
ATOM      3  H   UNL     1     162.230 164.855 164.740  1.00  0.00     0.344 HD
ATOM      4  H   UNL     1     161.423 166.233 165.329  1.00  0.00     0.344 HD
ATOM      5  H   UNL     1     162.274 166.302 163.846  1.00  0.00     0.344 HD
ENDBRANCH   1   2
BRANCH   1   6
ATOM      6  C   UNL     1     163.999 165.145 166.347  1.00  0.00     0.096 C 
ATOM      7  O   UNL     1     163.396 164.794 167.395  1.00  0.00    -0.544 OA
ATOM      8  O   UNL     1     165.176 164.504 165.983  1.00  0.00    -0.544 OA
ENDBRANCH   1   6
TORSDOF 2
ENDMDL
MODEL 5
REMARK VINA RESULT:    -3.036      3.947      4.180
REMARK INTER + INTRA:          -3.302
REMARK INTER:                  -3.302
REMARK INTRA:                   0.000
REMARK UNBOUND:                 0.000
REMARK SMILES [NH3+]CC(=O)[O-]
REMARK SMILES IDX 2 1 1 2 3 6 4 7 5 8
REMARK H PARENT 1 3 1 4 1 5
REMARK Flexibility Score: inf
ROOT
ATOM      1  C   UNL     1     151.450 148.677 165.566  1.00  0.00     0.312 C 
ENDROOT
BRANCH   1   2
ATOM      2  N   UNL     1     152.658 149.001 164.812  1.00  0.00    -0.353 N 
ATOM      3  H   UNL     1     152.876 148.215 164.160  1.00  0.00     0.344 HD
ATOM      4  H   UNL     1     152.510 149.874 164.254  1.00  0.00     0.344 HD
ATOM      5  H   UNL     1     153.465 149.132 165.466  1.00  0.00     0.344 HD
ENDBRANCH   1   2
BRANCH   1   6
ATOM      6  C   UNL     1     150.990 149.859 166.362  1.00  0.00     0.096 C 
ATOM      7  O   UNL     1     151.602 150.195 167.409  1.00  0.00    -0.544 OA
ATOM      8  O   UNL     1     149.853 150.558 165.976  1.00  0.00    -0.544 OA
ENDBRANCH   1   6
TORSDOF 2
ENDMDL
MODEL 6
REMARK VINA RESULT:    -3.014     18.573     18.908
REMARK INTER + INTRA:          -3.278
REMARK INTER:                  -3.278
REMARK INTRA:                   0.000
REMARK UNBOUND:                 0.000
REMARK SMILES [NH3+]CC(=O)[O-]
REMARK SMILES IDX 2 1 1 2 3 6 4 7 5 8
REMARK H PARENT 1 3 1 4 1 5
REMARK Flexibility Score: inf
ROOT
ATOM      1  C   UNL     1     165.814 167.310 161.028  1.00  0.00     0.312 C 
ENDROOT
BRANCH   1   2
ATOM      2  N   UNL     1     166.689 166.140 161.064  1.00  0.00    -0.353 N 
ATOM      3  H   UNL     1     166.377 165.504 161.832  1.00  0.00     0.344 HD
ATOM      4  H   UNL     1     166.639 165.626 160.155  1.00  0.00     0.344 HD
ATOM      5  H   UNL     1     167.675 166.436 161.250  1.00  0.00     0.344 HD
ENDBRANCH   1   2
BRANCH   1   6
ATOM      6  C   UNL     1     164.413 166.935 161.402  1.00  0.00     0.096 C 
ATOM      7  O   UNL     1     163.708 166.251 160.613  1.00  0.00    -0.544 OA
ATOM      8  O   UNL     1     163.868 167.385 162.597  1.00  0.00    -0.544 OA
ENDBRANCH   1   6
TORSDOF 2
ENDMDL
MODEL 7
REMARK VINA RESULT:    -2.961     16.295     16.685
REMARK INTER + INTRA:          -3.221
REMARK INTER:                  -3.221
REMARK INTRA:                   0.000
REMARK UNBOUND:                 0.000
REMARK SMILES [NH3+]CC(=O)[O-]
REMARK SMILES IDX 2 1 1 2 3 6 4 7 5 8
REMARK H PARENT 1 3 1 4 1 5
REMARK Flexibility Score: inf
ROOT
ATOM      1  C   UNL     1     165.229 166.041 166.244  1.00  0.00     0.312 C 
ENDROOT
BRANCH   1   2
ATOM      2  N   UNL     1     166.182 165.012 165.832  1.00  0.00    -0.353 N 
ATOM      3  H   UNL     1     165.658 164.146 165.573  1.00  0.00     0.344 HD
ATOM      4  H   UNL     1     166.727 165.341 165.001  1.00  0.00     0.344 HD
ATOM      5  H   UNL     1     166.835 164.792 166.619  1.00  0.00     0.344 HD
ENDBRANCH   1   2
BRANCH   1   6
ATOM      6  C   UNL     1     163.845 165.475 166.332  1.00  0.00     0.096 C 
ATOM      7  O   UNL     1     163.013 165.691 165.412  1.00  0.00    -0.544 OA
ATOM      8  O   UNL     1     163.458 164.754 167.454  1.00  0.00    -0.544 OA
ENDBRANCH   1   6
TORSDOF 2
ENDMDL
MODEL 8
REMARK VINA RESULT:    -2.925     22.392     22.683
REMARK INTER + INTRA:          -3.181
REMARK INTER:                  -3.181
REMARK INTRA:                   0.000
REMARK UNBOUND:                 0.000
REMARK SMILES [NH3+]CC(=O)[O-]
REMARK SMILES IDX 2 1 1 2 3 6 4 7 5 8
REMARK H PARENT 1 3 1 4 1 5
REMARK Flexibility Score: inf
ROOT
ATOM      1  C   UNL     1     148.913 165.439 149.109  1.00  0.00     0.312 C 
ENDROOT
BRANCH   1   2
ATOM      2  N   UNL     1     148.034 164.380 148.618  1.00  0.00    -0.353 N 
ATOM      3  H   UNL     1     147.546 163.938 149.430  1.00  0.00     0.344 HD
ATOM      4  H   UNL     1     147.319 164.779 147.968  1.00  0.00     0.344 HD
ATOM      5  H   UNL     1     148.595 163.650 148.122  1.00  0.00     0.344 HD
ENDBRANCH   1   2
BRANCH   1   6
ATOM      6  C   UNL     1     150.159 165.517 148.282  1.00  0.00     0.096 C 
ATOM      7  O   UNL     1     150.605 166.635 147.912  1.00  0.00    -0.544 OA
ATOM      8  O   UNL     1     150.798 164.353 147.875  1.00  0.00    -0.544 OA
ENDBRANCH   1   6
TORSDOF 2
ENDMDL
MODEL 9
REMARK VINA RESULT:    -2.921     21.247     21.329
REMARK INTER + INTRA:          -3.177
REMARK INTER:                  -3.177
REMARK INTRA:                   0.000
REMARK UNBOUND:                 0.000
REMARK SMILES [NH3+]CC(=O)[O-]
REMARK SMILES IDX 2 1 1 2 3 6 4 7 5 8
REMARK H PARENT 1 3 1 4 1 5
REMARK Flexibility Score: inf
ROOT
ATOM      1  C   UNL     1     165.763 149.484 149.673  1.00  0.00     0.312 C 
ENDROOT
BRANCH   1   2
ATOM      2  N   UNL     1     166.724 150.557 149.425  1.00  0.00    -0.353 N 
ATOM      3  H   UNL     1     167.245 150.759 150.308  1.00  0.00     0.344 HD
ATOM      4  H   UNL     1     167.406 150.265 148.687  1.00  0.00     0.344 HD
ATOM      5  H   UNL     1     166.223 151.424 149.122  1.00  0.00     0.344 HD
ENDBRANCH   1   2
BRANCH   1   6
ATOM      6  C   UNL     1     164.519 149.692 148.865  1.00  0.00     0.096 C 
ATOM      7  O   UNL     1     164.060 150.851 148.696  1.00  0.00    -0.544 OA
ATOM      8  O   UNL     1     163.838 148.599 148.344  1.00  0.00    -0.544 OA
ENDBRANCH   1   6
TORSDOF 2
ENDMDL
