MODEL 1
REMARK VINA RESULT:    -5.436      0.000      0.000
REMARK INTER + INTRA:          -5.964
REMARK INTER:                  -5.913
REMARK INTRA:                  -0.051
REMARK UNBOUND:                -0.051
REMARK SMILES CCc1cccc(O)c1
REMARK SMILES IDX 3 1 9 2 7 3 6 4 5 5 4 6 2 7 1 8 8 9
REMARK H PARENT 8 10
REMARK Flexibility Score: inf
ROOT
ATOM      1  C   UNL     1       7.603 -12.345  -1.563  1.00  0.00    -0.045 A 
ATOM      2  C   UNL     1       7.100 -11.116  -2.019  1.00  0.00     0.049 A 
ATOM      3  C   UNL     1       7.380  -9.932  -1.319  1.00  0.00     0.115 A 
ATOM      4  C   UNL     1       8.170  -9.978  -0.167  1.00  0.00     0.046 A 
ATOM      5  C   UNL     1       8.686 -11.197   0.284  1.00  0.00     0.004 A 
ATOM      6  C   UNL     1       8.408 -12.376  -0.412  1.00  0.00     0.004 A 
ENDROOT
BRANCH   1   7
ATOM      7  C   UNL     1       7.331 -13.610  -2.333  1.00  0.00     0.032 C 
ATOM      8  C   UNL     1       7.178 -13.314  -3.821  1.00  0.00     0.009 C 
ENDBRANCH   1   7
BRANCH   3   9
ATOM      9  O   UNL     1       6.879  -8.711  -1.761  1.00  0.00    -0.508 OA
ATOM     10  H   UNL     1       6.019  -8.652  -2.294  1.00  0.00     0.293 HD
ENDBRANCH   3   9
TORSDOF 2
ENDMDL
MODEL 2
REMARK VINA RESULT:    -5.035      1.020      1.602
REMARK INTER + INTRA:          -5.528
REMARK INTER:                  -5.482
REMARK INTRA:                  -0.046
REMARK UNBOUND:                -0.051
REMARK SMILES CCc1cccc(O)c1
REMARK SMILES IDX 3 1 9 2 7 3 6 4 5 5 4 6 2 7 1 8 8 9
REMARK H PARENT 8 10
REMARK Flexibility Score: inf
ROOT
ATOM      1  C   UNL     1       7.150 -12.717  -3.024  1.00  0.00    -0.045 A 
ATOM      2  C   UNL     1       7.038 -11.319  -2.945  1.00  0.00     0.049 A 
ATOM      3  C   UNL     1       7.403 -10.644  -1.770  1.00  0.00     0.115 A 
ATOM      4  C   UNL     1       7.888 -11.368  -0.677  1.00  0.00     0.046 A 
ATOM      5  C   UNL     1       8.014 -12.758  -0.753  1.00  0.00     0.004 A 
ATOM      6  C   UNL     1       7.651 -13.431  -1.923  1.00  0.00     0.004 A 
ENDROOT
BRANCH   1   7
ATOM      7  C   UNL     1       6.790 -13.437  -4.296  1.00  0.00     0.032 C 
ATOM      8  C   UNL     1       5.372 -13.087  -4.733  1.00  0.00     0.009 C 
ENDBRANCH   1   7
BRANCH   3   9
ATOM      9  O   UNL     1       7.289  -9.260  -1.682  1.00  0.00    -0.508 OA
ATOM     10  H   UNL     1       6.629  -8.821  -1.051  1.00  0.00     0.293 HD
ENDBRANCH   3   9
TORSDOF 2
ENDMDL
MODEL 3
REMARK VINA RESULT:    -5.002      1.862      2.516
REMARK INTER + INTRA:          -5.491
REMARK INTER:                  -5.443
REMARK INTRA:                  -0.049
REMARK UNBOUND:                -0.051
REMARK SMILES CCc1cccc(O)c1
REMARK SMILES IDX 3 1 9 2 7 3 6 4 5 5 4 6 2 7 1 8 8 9
REMARK H PARENT 8 10
REMARK Flexibility Score: inf
ROOT
ATOM      1  C   UNL     1       6.803 -12.253  -2.381  1.00  0.00    -0.045 A 
ATOM      2  C   UNL     1       7.628 -12.876  -1.430  1.00  0.00     0.049 A 
ATOM      3  C   UNL     1       8.324 -12.107  -0.485  1.00  0.00     0.115 A 
ATOM      4  C   UNL     1       8.188 -10.716  -0.485  1.00  0.00     0.046 A 
ATOM      5  C   UNL     1       7.357 -10.091  -1.420  1.00  0.00     0.004 A 
ATOM      6  C   UNL     1       6.664 -10.856  -2.362  1.00  0.00     0.004 A 
ENDROOT
BRANCH   1   7
ATOM      7  C   UNL     1       6.030 -13.080  -3.374  1.00  0.00     0.032 C 
ATOM      8  C   UNL     1       6.863 -13.341  -4.624  1.00  0.00     0.009 C 
ENDBRANCH   1   7
BRANCH   3   9
ATOM      9  O   UNL     1       9.149 -12.717   0.457  1.00  0.00    -0.508 OA
ATOM     10  H   UNL     1       9.336 -13.713   0.433  1.00  0.00     0.293 HD
ENDBRANCH   3   9
TORSDOF 2
ENDMDL
MODEL 4
REMARK VINA RESULT:    -4.868      1.595      3.459
REMARK INTER + INTRA:          -5.346
REMARK INTER:                  -5.275
REMARK INTRA:                  -0.071
REMARK UNBOUND:                -0.051
REMARK SMILES CCc1cccc(O)c1
REMARK SMILES IDX 3 1 9 2 7 3 6 4 5 5 4 6 2 7 1 8 8 9
REMARK H PARENT 8 10
REMARK Flexibility Score: inf
ROOT
ATOM      1  C   UNL     1       7.624 -11.436  -1.236  1.00  0.00    -0.045 A 
ATOM      2  C   UNL     1       6.876 -11.066  -2.366  1.00  0.00     0.049 A 
ATOM      3  C   UNL     1       6.483 -12.032  -3.304  1.00  0.00     0.115 A 
ATOM      4  C   UNL     1       6.832 -13.372  -3.107  1.00  0.00     0.046 A 
ATOM      5  C   UNL     1       7.564 -13.749  -1.978  1.00  0.00     0.004 A 
ATOM      6  C   UNL     1       7.956 -12.787  -1.043  1.00  0.00     0.004 A 
ENDROOT
BRANCH   1   7
ATOM      7  C   UNL     1       8.017 -10.404  -0.213  1.00  0.00     0.032 C 
ATOM      8  C   UNL     1       9.326 -10.789   0.468  1.00  0.00     0.009 C 
ENDBRANCH   1   7
BRANCH   3   9
ATOM      9  O   UNL     1       5.747 -11.672  -4.429  1.00  0.00    -0.508 OA
ATOM     10  H   UNL     1       6.150 -11.107  -5.168  1.00  0.00     0.293 HD
ENDBRANCH   3   9
TORSDOF 2
ENDMDL
MODEL 5
REMARK VINA RESULT:    -4.852      3.146      4.201
REMARK INTER + INTRA:          -5.329
REMARK INTER:                  -5.270
REMARK INTRA:                  -0.059
REMARK UNBOUND:                -0.051
REMARK SMILES CCc1cccc(O)c1
REMARK SMILES IDX 3 1 9 2 7 3 6 4 5 5 4 6 2 7 1 8 8 9
REMARK H PARENT 8 10
REMARK Flexibility Score: inf
ROOT
ATOM      1  C   UNL     1       5.352 -13.196  -4.340  1.00  0.00    -0.045 A 
ATOM      2  C   UNL     1       4.633 -13.324  -3.140  1.00  0.00     0.049 A 
ATOM      3  C   UNL     1       5.312 -13.455  -1.918  1.00  0.00     0.115 A 
ATOM      4  C   UNL     1       6.709 -13.448  -1.897  1.00  0.00     0.046 A 
ATOM      5  C   UNL     1       7.430 -13.307  -3.086  1.00  0.00     0.004 A 
ATOM      6  C   UNL     1       6.756 -13.178  -4.303  1.00  0.00     0.004 A 
ENDROOT
BRANCH   1   7
ATOM      7  C   UNL     1       4.625 -13.023  -5.646  1.00  0.00     0.032 C 
ATOM      8  C   UNL     1       4.725 -11.581  -6.133  1.00  0.00     0.009 C 
ENDBRANCH   1   7
BRANCH   3   9
ATOM      9  O   UNL     1       4.606 -13.588  -0.726  1.00  0.00    -0.508 OA
ATOM     10  H   UNL     1       4.768 -14.368  -0.098  1.00  0.00     0.293 HD
ENDBRANCH   3   9
TORSDOF 2
ENDMDL
MODEL 6
REMARK VINA RESULT:    -4.720      2.500      4.318
REMARK INTER + INTRA:          -5.185
REMARK INTER:                  -5.137
REMARK INTRA:                  -0.047
REMARK UNBOUND:                -0.051
REMARK SMILES CCc1cccc(O)c1
REMARK SMILES IDX 3 1 9 2 7 3 6 4 5 5 4 6 2 7 1 8 8 9
REMARK H PARENT 8 10
REMARK Flexibility Score: inf
ROOT
ATOM      1  C   UNL     1       6.915 -13.289  -2.302  1.00  0.00    -0.045 A 
ATOM      2  C   UNL     1       5.563 -13.389  -1.935  1.00  0.00     0.049 A 
ATOM      3  C   UNL     1       4.559 -13.362  -2.915  1.00  0.00     0.115 A 
ATOM      4  C   UNL     1       4.909 -13.244  -4.263  1.00  0.00     0.046 A 
ATOM      5  C   UNL     1       6.254 -13.158  -4.636  1.00  0.00     0.004 A 
ATOM      6  C   UNL     1       7.254 -13.185  -3.661  1.00  0.00     0.004 A 
ENDROOT
BRANCH   1   7
ATOM      7  C   UNL     1       7.993 -13.351  -1.253  1.00  0.00     0.032 C 
ATOM      8  C   UNL     1       8.162 -11.998  -0.571  1.00  0.00     0.009 C 
ENDBRANCH   1   7
BRANCH   3   9
ATOM      9  O   UNL     1       3.217 -13.454  -2.559  1.00  0.00    -0.508 OA
ATOM     10  H   UNL     1       2.858 -14.250  -2.044  1.00  0.00     0.293 HD
ENDBRANCH   3   9
TORSDOF 2
ENDMDL
MODEL 7
REMARK VINA RESULT:    -4.684      2.102      3.623
REMARK INTER + INTRA:          -5.146
REMARK INTER:                  -5.072
REMARK INTRA:                  -0.074
REMARK UNBOUND:                -0.051
REMARK SMILES CCc1cccc(O)c1
REMARK SMILES IDX 3 1 9 2 7 3 6 4 5 5 4 6 2 7 1 8 8 9
REMARK H PARENT 8 10
REMARK Flexibility Score: inf
ROOT
ATOM      1  C   UNL     1       7.275 -10.153  -0.897  1.00  0.00    -0.045 A 
ATOM      2  C   UNL     1       6.945 -11.431  -1.379  1.00  0.00     0.049 A 
ATOM      3  C   UNL     1       7.714 -12.546  -1.014  1.00  0.00     0.115 A 
ATOM      4  C   UNL     1       8.809 -12.384  -0.160  1.00  0.00     0.046 A 
ATOM      5  C   UNL     1       9.134 -11.117   0.334  1.00  0.00     0.004 A 
ATOM      6  C   UNL     1       8.369 -10.006  -0.029  1.00  0.00     0.004 A 
ENDROOT
BRANCH   1   7
ATOM      7  C   UNL     1       6.429  -8.962  -1.261  1.00  0.00     0.032 C 
ATOM      8  C   UNL     1       6.528  -7.882  -0.190  1.00  0.00     0.009 C 
ENDBRANCH   1   7
BRANCH   3   9
ATOM      9  O   UNL     1       7.397 -13.814  -1.493  1.00  0.00    -0.508 OA
ATOM     10  H   UNL     1       7.383 -14.623  -0.882  1.00  0.00     0.293 HD
ENDBRANCH   3   9
TORSDOF 2
ENDMDL
MODEL 8
REMARK VINA RESULT:    -4.505      2.954      4.334
REMARK INTER + INTRA:          -4.951
REMARK INTER:                  -4.878
REMARK INTRA:                  -0.073
REMARK UNBOUND:                -0.051
REMARK SMILES CCc1cccc(O)c1
REMARK SMILES IDX 3 1 9 2 7 3 6 4 5 5 4 6 2 7 1 8 8 9
REMARK H PARENT 8 10
REMARK Flexibility Score: inf
ROOT
ATOM      1  C   UNL     1       4.781 -13.364  -3.266  1.00  0.00    -0.045 A 
ATOM      2  C   UNL     1       5.482 -13.390  -2.049  1.00  0.00     0.049 A 
ATOM      3  C   UNL     1       6.884 -13.337  -2.037  1.00  0.00     0.115 A 
ATOM      4  C   UNL     1       7.585 -13.250  -3.244  1.00  0.00     0.046 A 
ATOM      5  C   UNL     1       6.893 -13.209  -4.458  1.00  0.00     0.004 A 
ATOM      6  C   UNL     1       5.496 -13.262  -4.470  1.00  0.00     0.004 A 
ENDROOT
BRANCH   1   7
ATOM      7  C   UNL     1       3.276 -13.386  -3.276  1.00  0.00     0.032 C 
ATOM      8  C   UNL     1       2.753 -13.936  -4.598  1.00  0.00     0.009 C 
ENDBRANCH   1   7
BRANCH   3   9
ATOM      9  O   UNL     1       7.586 -13.370  -0.836  1.00  0.00    -0.508 OA
ATOM     10  H   UNL     1       7.187 -13.004   0.022  1.00  0.00     0.293 HD
ENDBRANCH   3   9
TORSDOF 2
ENDMDL
MODEL 9
REMARK VINA RESULT:    -4.334      2.149      3.517
REMARK INTER + INTRA:          -4.765
REMARK INTER:                  -4.689
REMARK INTRA:                  -0.076
REMARK UNBOUND:                -0.051
REMARK SMILES CCc1cccc(O)c1
REMARK SMILES IDX 3 1 9 2 7 3 6 4 5 5 4 6 2 7 1 8 8 9
REMARK H PARENT 8 10
REMARK Flexibility Score: inf
ROOT
ATOM      1  C   UNL     1       6.333 -11.452  -2.223  1.00  0.00    -0.045 A 
ATOM      2  C   UNL     1       7.157 -11.518  -1.087  1.00  0.00     0.049 A 
ATOM      3  C   UNL     1       7.991 -12.627  -0.880  1.00  0.00     0.115 A 
ATOM      4  C   UNL     1       8.007 -13.666  -1.815  1.00  0.00     0.046 A 
ATOM      5  C   UNL     1       7.201 -13.600  -2.955  1.00  0.00     0.004 A 
ATOM      6  C   UNL     1       6.370 -12.496  -3.162  1.00  0.00     0.004 A 
ENDROOT
BRANCH   1   7
ATOM      7  C   UNL     1       5.464 -10.246  -2.462  1.00  0.00     0.032 C 
ATOM      8  C   UNL     1       4.849 -10.291  -3.856  1.00  0.00     0.009 C 
ENDBRANCH   1   7
BRANCH   3   9
ATOM      9  O   UNL     1       8.804 -12.703   0.247  1.00  0.00    -0.508 OA
ATOM     10  H   UNL     1       9.010 -13.590   0.694  1.00  0.00     0.293 HD
ENDBRANCH   3   9
TORSDOF 2
ENDMDL
