MODEL 1
REMARK VINA RESULT:    -4.885      0.000      0.000
REMARK INTER + INTRA:          -5.329
REMARK INTER:                  -5.313
REMARK INTRA:                  -0.015
REMARK UNBOUND:                -0.015
REMARK SMILES OCc1ccccc1
REMARK SMILES IDX 2 1 3 2 6 3 5 4 7 5 4 6 8 7 1 8
REMARK H PARENT 1 9
REMARK Flexibility Score: inf
ROOT
ATOM      1  C   UNL     1       7.486 -24.993 -23.826  1.00  0.00     0.191 C 
ENDROOT
BRANCH   1   2
ATOM      2  C   UNL     1       8.713 -24.692 -24.643  1.00  0.00    -0.023 A 
ATOM      3  C   UNL     1      11.041 -24.116 -26.099  1.00  0.00     0.000 A 
ATOM      4  C   UNL     1      10.140 -23.093 -25.788  1.00  0.00     0.000 A 
ATOM      5  C   UNL     1      10.787 -25.424 -25.676  1.00  0.00     0.000 A 
ATOM      6  C   UNL     1       8.982 -23.378 -25.057  1.00  0.00     0.006 A 
ATOM      7  C   UNL     1       9.630 -25.712 -24.945  1.00  0.00     0.006 A 
ENDBRANCH   1   2
BRANCH   1   8
ATOM      8  O   UNL     1       6.399 -24.246 -24.297  1.00  0.00    -0.392 OA
ATOM      9  H   UNL     1       6.094 -24.684 -25.134  1.00  0.00     0.211 HD
ENDBRANCH   1   8
TORSDOF 2
ENDMDL
MODEL 2
REMARK VINA RESULT:    -4.867      0.028      1.714
REMARK INTER + INTRA:          -5.309
REMARK INTER:                  -5.293
REMARK INTRA:                  -0.016
REMARK UNBOUND:                -0.015
REMARK SMILES OCc1ccccc1
REMARK SMILES IDX 2 1 3 2 6 3 5 4 7 5 4 6 8 7 1 8
REMARK H PARENT 1 9
REMARK Flexibility Score: inf
ROOT
ATOM      1  C   UNL     1       7.472 -24.989 -23.820  1.00  0.00     0.191 C 
ENDROOT
BRANCH   1   2
ATOM      2  C   UNL     1       8.726 -24.679 -24.590  1.00  0.00    -0.023 A 
ATOM      3  C   UNL     1      11.027 -24.118 -26.096  1.00  0.00     0.000 A 
ATOM      4  C   UNL     1      10.779 -25.422 -25.658  1.00  0.00     0.000 A 
ATOM      5  C   UNL     1      10.123 -23.095 -25.792  1.00  0.00     0.000 A 
ATOM      6  C   UNL     1       9.629 -25.704 -24.912  1.00  0.00     0.006 A 
ATOM      7  C   UNL     1       8.973 -23.374 -25.047  1.00  0.00     0.006 A 
ENDBRANCH   1   2
BRANCH   1   8
ATOM      8  O   UNL     1       6.402 -24.238 -24.321  1.00  0.00    -0.392 OA
ATOM      9  H   UNL     1       6.775 -23.358 -24.594  1.00  0.00     0.211 HD
ENDBRANCH   1   8
TORSDOF 2
ENDMDL
MODEL 3
REMARK VINA RESULT:    -4.316      6.935      7.695
REMARK INTER + INTRA:          -4.710
REMARK INTER:                  -4.696
REMARK INTRA:                  -0.014
REMARK UNBOUND:                -0.015
REMARK SMILES OCc1ccccc1
REMARK SMILES IDX 2 1 3 2 6 3 5 4 7 5 4 6 8 7 1 8
REMARK H PARENT 1 9
REMARK Flexibility Score: inf
ROOT
ATOM      1  C   UNL     1      10.649 -17.990 -19.700  1.00  0.00     0.191 C 
ENDROOT
BRANCH   1   2
ATOM      2  C   UNL     1       9.658 -18.275 -20.795  1.00  0.00    -0.023 A 
ATOM      3  C   UNL     1       7.849 -18.874 -22.855  1.00  0.00     0.000 A 
ATOM      4  C   UNL     1       8.994 -18.119 -23.127  1.00  0.00     0.000 A 
ATOM      5  C   UNL     1       7.611 -19.339 -21.558  1.00  0.00     0.000 A 
ATOM      6  C   UNL     1       9.899 -17.825 -22.102  1.00  0.00     0.006 A 
ATOM      7  C   UNL     1       8.514 -19.046 -20.531  1.00  0.00     0.006 A 
ENDBRANCH   1   2
BRANCH   1   8
ATOM      8  O   UNL     1       9.979 -17.636 -18.523  1.00  0.00    -0.392 OA
ATOM      9  H   UNL     1       9.911 -16.645 -18.522  1.00  0.00     0.211 HD
ENDBRANCH   1   8
TORSDOF 2
ENDMDL
MODEL 4
REMARK VINA RESULT:    -3.984     10.725     11.539
REMARK INTER + INTRA:          -4.348
REMARK INTER:                  -4.338
REMARK INTRA:                  -0.010
REMARK UNBOUND:                -0.015
REMARK SMILES OCc1ccccc1
REMARK SMILES IDX 2 1 3 2 6 3 5 4 7 5 4 6 8 7 1 8
REMARK H PARENT 1 9
REMARK Flexibility Score: inf
ROOT
ATOM      1  C   UNL     1      17.668 -17.076 -18.698  1.00  0.00     0.191 C 
ENDROOT
BRANCH   1   2
ATOM      2  C   UNL     1      16.251 -17.452 -19.036  1.00  0.00    -0.023 A 
ATOM      3  C   UNL     1      13.631 -18.230 -19.675  1.00  0.00     0.000 A 
ATOM      4  C   UNL     1      14.529 -17.893 -20.693  1.00  0.00     0.000 A 
ATOM      5  C   UNL     1      14.043 -18.189 -18.339  1.00  0.00     0.000 A 
ATOM      6  C   UNL     1      15.836 -17.511 -20.376  1.00  0.00     0.006 A 
ATOM      7  C   UNL     1      15.350 -17.806 -18.019  1.00  0.00     0.006 A 
ENDBRANCH   1   2
BRANCH   1   8
ATOM      8  O   UNL     1      18.478 -18.218 -18.683  1.00  0.00    -0.392 OA
ATOM      9  H   UNL     1      18.971 -18.227 -19.545  1.00  0.00     0.211 HD
ENDBRANCH   1   8
TORSDOF 2
ENDMDL
MODEL 5
REMARK VINA RESULT:    -3.954      9.145      9.807
REMARK INTER + INTRA:          -4.315
REMARK INTER:                  -4.304
REMARK INTRA:                  -0.011
REMARK UNBOUND:                -0.015
REMARK SMILES OCc1ccccc1
REMARK SMILES IDX 2 1 3 2 6 3 5 4 7 5 4 6 8 7 1 8
REMARK H PARENT 1 9
REMARK Flexibility Score: inf
ROOT
ATOM      1  C   UNL     1      14.680 -18.722 -17.049  1.00  0.00     0.191 C 
ENDROOT
BRANCH   1   2
ATOM      2  C   UNL     1      14.173 -18.813 -18.462  1.00  0.00    -0.023 A 
ATOM      3  C   UNL     1      13.153 -18.998 -21.070  1.00  0.00     0.000 A 
ATOM      4  C   UNL     1      13.628 -20.143 -20.422  1.00  0.00     0.000 A 
ATOM      5  C   UNL     1      13.176 -17.764 -20.414  1.00  0.00     0.000 A 
ATOM      6  C   UNL     1      14.131 -20.053 -19.120  1.00  0.00     0.006 A 
ATOM      7  C   UNL     1      13.679 -17.670 -19.112  1.00  0.00     0.006 A 
ENDBRANCH   1   2
BRANCH   1   8
ATOM      8  O   UNL     1      13.819 -19.407 -16.183  1.00  0.00    -0.392 OA
ATOM      9  H   UNL     1      14.394 -19.890 -15.533  1.00  0.00     0.211 HD
ENDBRANCH   1   8
TORSDOF 2
ENDMDL
MODEL 6
REMARK VINA RESULT:    -3.919      8.180      9.231
REMARK INTER + INTRA:          -4.278
REMARK INTER:                  -4.260
REMARK INTRA:                  -0.018
REMARK UNBOUND:                -0.015
REMARK SMILES OCc1ccccc1
REMARK SMILES IDX 2 1 3 2 6 3 5 4 7 5 4 6 8 7 1 8
REMARK H PARENT 1 9
REMARK Flexibility Score: inf
ROOT
ATOM      1  C   UNL     1      17.893 -22.548 -25.652  1.00  0.00     0.191 C 
ENDROOT
BRANCH   1   2
ATOM      2  C   UNL     1      17.643 -23.509 -24.522  1.00  0.00    -0.023 A 
ATOM      3  C   UNL     1      17.221 -25.254 -22.365  1.00  0.00     0.000 A 
ATOM      4  C   UNL     1      18.352 -25.403 -23.173  1.00  0.00     0.000 A 
ATOM      5  C   UNL     1      16.306 -24.229 -22.625  1.00  0.00     0.000 A 
ATOM      6  C   UNL     1      18.567 -24.530 -24.245  1.00  0.00     0.006 A 
ATOM      7  C   UNL     1      16.518 -23.355 -23.696  1.00  0.00     0.006 A 
ENDBRANCH   1   2
BRANCH   1   8
ATOM      8  O   UNL     1      18.802 -23.100 -26.561  1.00  0.00    -0.392 OA
ATOM      9  H   UNL     1      19.670 -22.641 -26.409  1.00  0.00     0.211 HD
ENDBRANCH   1   8
TORSDOF 2
ENDMDL
MODEL 7
REMARK VINA RESULT:    -3.885      8.339      8.861
REMARK INTER + INTRA:          -4.241
REMARK INTER:                  -4.224
REMARK INTRA:                  -0.017
REMARK UNBOUND:                -0.015
REMARK SMILES OCc1ccccc1
REMARK SMILES IDX 2 1 3 2 6 3 5 4 7 5 4 6 8 7 1 8
REMARK H PARENT 1 9
REMARK Flexibility Score: inf
ROOT
ATOM      1  C   UNL     1      10.616 -18.273 -20.169  1.00  0.00     0.191 C 
ENDROOT
BRANCH   1   2
ATOM      2  C   UNL     1      12.101 -18.426 -19.981  1.00  0.00    -0.023 A 
ATOM      3  C   UNL     1      14.857 -18.746 -19.558  1.00  0.00     0.000 A 
ATOM      4  C   UNL     1      14.209 -17.594 -19.103  1.00  0.00     0.000 A 
ATOM      5  C   UNL     1      14.129 -19.744 -20.214  1.00  0.00     0.000 A 
ATOM      6  C   UNL     1      12.834 -17.436 -19.308  1.00  0.00     0.006 A 
ATOM      7  C   UNL     1      12.755 -19.588 -20.421  1.00  0.00     0.006 A 
ENDBRANCH   1   2
BRANCH   1   8
ATOM      8  O   UNL     1      10.073 -17.524 -19.119  1.00  0.00    -0.392 OA
ATOM      9  H   UNL     1       9.464 -18.131 -18.621  1.00  0.00     0.211 HD
ENDBRANCH   1   8
TORSDOF 2
ENDMDL
MODEL 8
REMARK VINA RESULT:    -3.867      8.432      9.692
REMARK INTER + INTRA:          -4.221
REMARK INTER:                  -4.205
REMARK INTRA:                  -0.016
REMARK UNBOUND:                -0.015
REMARK SMILES OCc1ccccc1
REMARK SMILES IDX 2 1 3 2 6 3 5 4 7 5 4 6 8 7 1 8
REMARK H PARENT 1 9
REMARK Flexibility Score: inf
ROOT
ATOM      1  C   UNL     1      19.947 -24.755 -24.623  1.00  0.00     0.191 C 
ENDROOT
BRANCH   1   2
ATOM      2  C   UNL     1      18.590 -24.510 -24.022  1.00  0.00    -0.023 A 
ATOM      3  C   UNL     1      16.092 -24.004 -22.847  1.00  0.00     0.000 A 
ATOM      4  C   UNL     1      16.874 -25.072 -22.396  1.00  0.00     0.000 A 
ATOM      5  C   UNL     1      16.560 -23.182 -23.876  1.00  0.00     0.000 A 
ATOM      6  C   UNL     1      18.122 -25.322 -22.977  1.00  0.00     0.006 A 
ATOM      7  C   UNL     1      17.807 -23.429 -24.460  1.00  0.00     0.006 A 
ENDBRANCH   1   2
BRANCH   1   8
ATOM      8  O   UNL     1      20.236 -26.125 -24.617  1.00  0.00    -0.392 OA
ATOM      9  H   UNL     1      20.810 -26.291 -23.824  1.00  0.00     0.211 HD
ENDBRANCH   1   8
TORSDOF 2
ENDMDL
MODEL 9
REMARK VINA RESULT:    -3.844      9.425     10.136
REMARK INTER + INTRA:          -4.196
REMARK INTER:                  -4.180
REMARK INTRA:                  -0.016
REMARK UNBOUND:                -0.015
REMARK SMILES OCc1ccccc1
REMARK SMILES IDX 2 1 3 2 6 3 5 4 7 5 4 6 8 7 1 8
REMARK H PARENT 1 9
REMARK Flexibility Score: inf
ROOT
ATOM      1  C   UNL     1      12.691 -18.357 -20.789  1.00  0.00     0.191 C 
ENDROOT
BRANCH   1   2
ATOM      2  C   UNL     1      13.946 -18.012 -20.033  1.00  0.00    -0.023 A 
ATOM      3  C   UNL     1      16.304 -17.448 -18.620  1.00  0.00     0.000 A 
ATOM      4  C   UNL     1      15.116 -17.701 -17.927  1.00  0.00     0.000 A 
ATOM      5  C   UNL     1      16.318 -17.486 -20.018  1.00  0.00     0.000 A 
ATOM      6  C   UNL     1      13.942 -17.988 -18.630  1.00  0.00     0.006 A 
ATOM      7  C   UNL     1      15.145 -17.773 -20.724  1.00  0.00     0.006 A 
ENDBRANCH   1   2
BRANCH   1   8
ATOM      8  O   UNL     1      11.967 -19.335 -20.097  1.00  0.00    -0.392 OA
ATOM      9  H   UNL     1      11.229 -18.864 -19.628  1.00  0.00     0.211 HD
ENDBRANCH   1   8
TORSDOF 2
ENDMDL
