MODEL 1
REMARK VINA RESULT:    -3.645      0.000      0.000
REMARK INTER + INTRA:          -3.741
REMARK INTER:                  -4.497
REMARK INTRA:                   0.757
REMARK UNBOUND:                 0.757
REMARK SMILES CC1=CC=CC(C)(C)CC1=O
REMARK SMILES IDX 1 1 2 2 3 3 10 4 11 5 9 6 4 8 5 9 6 10 7 11 8 12
REMARK H PARENT
REMARK Flexibility Score: 80.00
ROOT
ATOM      1  C   UNL     1      99.899 118.714 124.466  1.00  0.00     0.048 C 
ATOM      2  C   UNL     1     100.760 117.479 124.590  1.00  0.00    -0.008 C 
ATOM      3  C   UNL     1     101.524 117.357 125.696  1.00  0.00     0.007 C 
ENDROOT
BRANCH   2   4
ATOM      4  C   UNL     1     100.752 116.532 123.446  1.00  0.00     0.159 C 
ATOM      5  O   UNL     1     100.224 116.896 122.359  1.00  0.00    -0.295 OA
BRANCH   4   6
ATOM      6  C   UNL     1     101.330 115.152 123.512  1.00  0.00     0.091 CG0
ATOM      7  G   UNL     1     102.837 115.138 123.846  1.00  0.00     0.000 G0
ENDBRANCH   4   6
ENDBRANCH   2   4
BRANCH   3   8
ATOM      8  C   UNL     1     102.476 116.289 126.082  1.00  0.00    -0.003 C 
ATOM      9  C   UNL     1     103.050 115.351 125.317  1.00  0.00    -0.020 C 
BRANCH   9  10
ATOM     10  C   UNL     1     102.830 115.146 123.836  1.00  0.00    -0.010 CG0
ATOM     11  C   UNL     1     103.619 116.205 123.032  1.00  0.00     0.016 C 
ATOM     12  C   UNL     1     103.380 113.752 123.455  1.00  0.00     0.016 C 
ATOM     13  G   UNL     1     101.318 115.167 123.526  1.00  0.00     0.000 G0
ENDBRANCH   9  10
ENDBRANCH   3   8
TORSDOF 0
ENDMDL
MODEL 2
REMARK VINA RESULT:    -3.604      0.962      1.197
REMARK INTER + INTRA:          -3.690
REMARK INTER:                  -4.441
REMARK INTRA:                   0.750
REMARK UNBOUND:                 0.757
REMARK SMILES CC1=CC=CC(C)(C)CC1=O
REMARK SMILES IDX 1 1 2 2 3 3 10 4 11 5 9 6 4 8 5 9 6 10 7 11 8 12
REMARK H PARENT
REMARK Flexibility Score: 80.00
ROOT
ATOM      1  C   UNL     1     101.007 118.407 126.178  1.00  0.00     0.048 C 
ATOM      2  C   UNL     1     101.395 117.113 125.501  1.00  0.00    -0.008 C 
ATOM      3  C   UNL     1     102.290 116.322 126.130  1.00  0.00     0.007 C 
ENDROOT
BRANCH   2   4
ATOM      4  C   UNL     1     100.815 116.853 124.159  1.00  0.00     0.159 C 
ATOM      5  O   UNL     1     100.190 117.781 123.577  1.00  0.00    -0.295 OA
BRANCH   4   6
ATOM      6  C   UNL     1     100.920 115.534 123.457  1.00  0.00     0.091 CG0
ATOM      7  G   UNL     1     102.378 115.090 123.209  1.00  0.00     0.000 G0
ENDBRANCH   4   6
ENDBRANCH   2   4
BRANCH   3   8
ATOM      8  C   UNL     1     102.875 115.027 125.710  1.00  0.00    -0.003 C 
ATOM      9  C   UNL     1     102.929 114.481 124.488  1.00  0.00    -0.020 C 
BRANCH   9  10
ATOM     10  C   UNL     1     102.364 115.070 123.218  1.00  0.00    -0.010 CG0
ATOM     11  C   UNL     1     103.285 116.201 122.703  1.00  0.00     0.016 C 
ATOM     12  C   UNL     1     102.328 113.959 122.143  1.00  0.00     0.016 C 
ATOM     13  G   UNL     1     100.916 115.547 123.464  1.00  0.00     0.000 G0
ENDBRANCH   9  10
ENDBRANCH   3   8
TORSDOF 0
ENDMDL
MODEL 3
REMARK VINA RESULT:    -3.503      2.780      3.896
REMARK INTER + INTRA:          -3.565
REMARK INTER:                  -4.340
REMARK INTRA:                   0.775
REMARK UNBOUND:                 0.757
REMARK SMILES CC1=CC=CC(C)(C)CC1=O
REMARK SMILES IDX 1 1 2 2 3 3 10 4 11 5 9 6 4 8 5 9 6 10 7 11 8 12
REMARK H PARENT
REMARK Flexibility Score: 80.00
ROOT
ATOM      1  C   UNL     1     100.860 118.876 126.146  1.00  0.00     0.048 C 
ATOM      2  C   UNL     1     100.554 118.375 124.754  1.00  0.00    -0.008 C 
ATOM      3  C   UNL     1     100.783 117.070 124.494  1.00  0.00     0.007 C 
ENDROOT
BRANCH   2   4
ATOM      4  C   UNL     1     100.095 119.379 123.761  1.00  0.00     0.159 C 
ATOM      5  O   UNL     1     100.186 120.604 124.048  1.00  0.00    -0.295 OA
BRANCH   4   6
ATOM      6  C   UNL     1      99.513 119.016 122.429  1.00  0.00     0.091 CG0
ATOM      7  G   UNL     1     100.482 118.206 121.541  1.00  0.00     0.000 G0
ENDBRANCH   4   6
ENDBRANCH   2   4
BRANCH   3   8
ATOM      8  C   UNL     1     100.609 116.306 123.237  1.00  0.00    -0.003 C 
ATOM      9  C   UNL     1     100.488 116.759 121.982  1.00  0.00    -0.020 C 
BRANCH   9  10
ATOM     10  C   UNL     1     100.477 118.206 121.549  1.00  0.00    -0.010 CG0
ATOM     11  C   UNL     1     101.913 118.779 121.581  1.00  0.00     0.016 C 
ATOM     12  C   UNL     1      99.970 118.271 120.090  1.00  0.00     0.016 C 
ATOM     13  G   UNL     1      99.496 119.007 122.434  1.00  0.00     0.000 G0
ENDBRANCH   9  10
ENDBRANCH   3   8
TORSDOF 0
ENDMDL
MODEL 4
REMARK VINA RESULT:    -3.475      1.784      3.427
REMARK INTER + INTRA:          -3.531
REMARK INTER:                  -4.284
REMARK INTRA:                   0.753
REMARK UNBOUND:                 0.757
REMARK SMILES CC1=CC=CC(C)(C)CC1=O
REMARK SMILES IDX 1 1 2 2 3 3 10 4 11 5 9 6 4 8 5 9 6 10 7 11 8 12
REMARK H PARENT
REMARK Flexibility Score: 80.00
ROOT
ATOM      1  C   UNL     1     102.904 115.123 126.400  1.00  0.00     0.048 C 
ATOM      2  C   UNL     1     102.352 116.228 125.530  1.00  0.00    -0.008 C 
ATOM      3  C   UNL     1     101.636 117.200 126.133  1.00  0.00     0.007 C 
ENDROOT
BRANCH   2   4
ATOM      4  C   UNL     1     102.579 116.113 124.067  1.00  0.00     0.159 C 
ATOM      5  O   UNL     1     103.045 115.035 123.607  1.00  0.00    -0.295 OA
BRANCH   4   6
ATOM      6  C   UNL     1     102.297 117.220 123.099  1.00  0.00     0.091 CG0
ATOM      7  G   UNL     1     100.821 117.677 123.109  1.00  0.00     0.000 G0
ENDBRANCH   4   6
ENDBRANCH   2   4
BRANCH   3   8
ATOM      8  C   UNL     1     100.956 118.381 125.552  1.00  0.00    -0.003 C 
ATOM      9  C   UNL     1     100.598 118.609 124.281  1.00  0.00    -0.020 C 
BRANCH   9  10
ATOM     10  C   UNL     1     100.836 117.692 123.104  1.00  0.00    -0.010 CG0
ATOM     11  C   UNL     1      99.827 116.522 123.133  1.00  0.00     0.016 C 
ATOM     12  C   UNL     1     100.596 118.498 121.807  1.00  0.00     0.016 C 
ATOM     13  G   UNL     1     102.304 117.213 123.107  1.00  0.00     0.000 G0
ENDBRANCH   9  10
ENDBRANCH   3   8
TORSDOF 0
ENDMDL
MODEL 5
REMARK VINA RESULT:    -3.473      1.730      2.633
REMARK INTER + INTRA:          -3.529
REMARK INTER:                  -4.302
REMARK INTRA:                   0.774
REMARK UNBOUND:                 0.757
REMARK SMILES CC1=CC=CC(C)(C)CC1=O
REMARK SMILES IDX 1 1 2 2 3 3 10 4 11 5 9 6 4 8 5 9 6 10 7 11 8 12
REMARK H PARENT
REMARK Flexibility Score: 80.00
ROOT
ATOM      1  C   UNL     1     100.884 117.807 126.541  1.00  0.00     0.048 C 
ATOM      2  C   UNL     1     101.454 117.167 125.297  1.00  0.00    -0.008 C 
ATOM      3  C   UNL     1     100.899 117.499 124.111  1.00  0.00     0.007 C 
ENDROOT
BRANCH   2   4
ATOM      4  C   UNL     1     102.532 116.164 125.487  1.00  0.00     0.159 C 
ATOM      5  O   UNL     1     102.777 115.748 126.653  1.00  0.00    -0.295 OA
BRANCH   4   6
ATOM      6  C   UNL     1     103.362 115.621 124.365  1.00  0.00     0.091 CG0
ATOM      7  G   UNL     1     102.527 114.911 123.277  1.00  0.00     0.000 G0
ENDBRANCH   4   6
ENDBRANCH   2   4
BRANCH   3   8
ATOM      8  C   UNL     1     101.220 117.024 122.745  1.00  0.00    -0.003 C 
ATOM      9  C   UNL     1     101.892 115.929 122.367  1.00  0.00    -0.020 C 
BRANCH   9  10
ATOM     10  C   UNL     1     102.521 114.904 123.281  1.00  0.00    -0.010 CG0
ATOM     11  C   UNL     1     101.428 113.990 123.883  1.00  0.00     0.016 C 
ATOM     12  C   UNL     1     103.469 114.021 122.437  1.00  0.00     0.016 C 
ATOM     13  G   UNL     1     103.364 115.617 124.361  1.00  0.00     0.000 G0
ENDBRANCH   9  10
ENDBRANCH   3   8
TORSDOF 0
ENDMDL
MODEL 6
REMARK VINA RESULT:    -3.466      9.950     11.576
REMARK INTER + INTRA:          -3.520
REMARK INTER:                  -4.281
REMARK INTRA:                   0.761
REMARK UNBOUND:                 0.757
REMARK SMILES CC1=CC=CC(C)(C)CC1=O
REMARK SMILES IDX 1 1 2 2 3 3 10 4 11 5 9 6 4 8 5 9 6 10 7 11 8 12
REMARK H PARENT
REMARK Flexibility Score: 80.00
ROOT
ATOM      1  C   UNL     1     102.118 104.625 118.473  1.00  0.00     0.048 C 
ATOM      2  C   UNL     1     101.374 105.789 117.863  1.00  0.00    -0.008 C 
ATOM      3  C   UNL     1     100.670 105.560 116.733  1.00  0.00     0.007 C 
ENDROOT
BRANCH   2   4
ATOM      4  C   UNL     1     101.539 107.112 118.516  1.00  0.00     0.159 C 
ATOM      5  O   UNL     1     102.435 107.250 119.393  1.00  0.00    -0.295 OA
BRANCH   4   6
ATOM      6  C   UNL     1     100.685 108.301 118.199  1.00  0.00     0.091 CG0
ATOM      7  G   UNL     1     100.785 108.747 116.724  1.00  0.00     0.000 G0
ENDBRANCH   4   6
ENDBRANCH   2   4
BRANCH   3   8
ATOM      8  C   UNL     1      99.874 106.494 115.903  1.00  0.00    -0.003 C 
ATOM      9  C   UNL     1      99.906 107.833 115.870  1.00  0.00    -0.020 C 
BRANCH   9  10
ATOM     10  C   UNL     1     100.774 108.730 116.720  1.00  0.00    -0.010 CG0
ATOM     11  C   UNL     1     102.224 108.726 116.183  1.00  0.00     0.016 C 
ATOM     12  C   UNL     1     100.229 110.172 116.614  1.00  0.00     0.016 C 
ATOM     13  G   UNL     1     100.686 108.291 118.199  1.00  0.00     0.000 G0
ENDBRANCH   9  10
ENDBRANCH   3   8
TORSDOF 0
ENDMDL
MODEL 7
REMARK VINA RESULT:    -3.418     10.036     11.554
REMARK INTER + INTRA:          -3.461
REMARK INTER:                  -4.203
REMARK INTRA:                   0.742
REMARK UNBOUND:                 0.757
REMARK SMILES CC1=CC=CC(C)(C)CC1=O
REMARK SMILES IDX 1 1 2 2 3 3 10 4 11 5 9 6 4 8 5 9 6 10 7 11 8 12
REMARK H PARENT
REMARK Flexibility Score: 80.00
ROOT
ATOM      1  C   UNL     1      99.875 107.490 114.865  1.00  0.00     0.048 C 
ATOM      2  C   UNL     1     100.810 106.997 115.944  1.00  0.00    -0.008 C 
ATOM      3  C   UNL     1     100.612 105.750 116.423  1.00  0.00     0.007 C 
ENDROOT
BRANCH   2   4
ATOM      4  C   UNL     1     101.827 107.956 116.445  1.00  0.00     0.159 C 
ATOM      5  O   UNL     1     101.739 109.168 116.107  1.00  0.00    -0.295 OA
BRANCH   4   6
ATOM      6  C   UNL     1     102.970 107.560 117.328  1.00  0.00     0.091 CG0
ATOM      7  G   UNL     1     102.519 106.921 118.660  1.00  0.00     0.000 G0
ENDBRANCH   4   6
ENDBRANCH   2   4
BRANCH   3   8
ATOM      8  C   UNL     1     101.338 105.012 117.483  1.00  0.00    -0.003 C 
ATOM      9  C   UNL     1     102.141 105.486 118.444  1.00  0.00    -0.020 C 
BRANCH   9  10
ATOM     10  C   UNL     1     102.526 106.931 118.658  1.00  0.00    -0.010 CG0
ATOM     11  C   UNL     1     101.364 107.693 119.337  1.00  0.00     0.016 C 
ATOM     12  C   UNL     1     103.743 106.972 119.611  1.00  0.00     0.016 C 
ATOM     13  G   UNL     1     102.947 107.563 117.314  1.00  0.00     0.000 G0
ENDBRANCH   9  10
ENDBRANCH   3   8
TORSDOF 0
ENDMDL
MODEL 8
REMARK VINA RESULT:    -3.250     10.036     11.346
REMARK INTER + INTRA:          -3.253
REMARK INTER:                  -4.015
REMARK INTRA:                   0.762
REMARK UNBOUND:                 0.757
REMARK SMILES CC1=CC=CC(C)(C)CC1=O
REMARK SMILES IDX 1 1 2 2 3 3 10 4 11 5 9 6 4 8 5 9 6 10 7 11 8 12
REMARK H PARENT
REMARK Flexibility Score: 80.00
ROOT
ATOM      1  C   UNL     1     102.705 105.189 120.063  1.00  0.00     0.048 C 
ATOM      2  C   UNL     1     101.931 105.912 118.987  1.00  0.00    -0.008 C 
ATOM      3  C   UNL     1     101.662 105.237 117.849  1.00  0.00     0.007 C 
ENDROOT
BRANCH   2   4
ATOM      4  C   UNL     1     101.591 107.335 119.239  1.00  0.00     0.159 C 
ATOM      5  O   UNL     1     102.113 107.919 120.228  1.00  0.00    -0.295 OA
BRANCH   4   6
ATOM      6  C   UNL     1     100.645 108.122 118.385  1.00  0.00     0.091 CG0
ATOM      7  G   UNL     1     101.078 108.195 116.904  1.00  0.00     0.000 G0
ENDBRANCH   4   6
ENDBRANCH   2   4
BRANCH   3   8
ATOM      8  C   UNL     1     100.956 105.680 116.624  1.00  0.00    -0.003 C 
ATOM      9  C   UNL     1     100.706 106.925 116.196  1.00  0.00    -0.020 C 
BRANCH   9  10
ATOM     10  C   UNL     1     101.077 108.207 116.903  1.00  0.00    -0.010 CG0
ATOM     11  C   UNL     1     102.588 108.487 116.730  1.00  0.00     0.016 C 
ATOM     12  C   UNL     1     100.298 109.367 116.242  1.00  0.00     0.016 C 
ATOM     13  G   UNL     1     100.652 108.126 118.386  1.00  0.00     0.000 G0
ENDBRANCH   9  10
ENDBRANCH   3   8
TORSDOF 0
ENDMDL
MODEL 9
REMARK VINA RESULT:    -3.011      9.649     11.255
REMARK INTER + INTRA:          -2.959
REMARK INTER:                  -3.724
REMARK INTRA:                   0.765
REMARK UNBOUND:                 0.757
REMARK SMILES CC1=CC=CC(C)(C)CC1=O
REMARK SMILES IDX 1 1 2 2 3 3 10 4 11 5 9 6 4 8 5 9 6 10 7 11 8 12
REMARK H PARENT
REMARK Flexibility Score: 80.00
ROOT
ATOM      1  C   UNL     1     101.413 107.798 119.587  1.00  0.00     0.048 C 
ATOM      2  C   UNL     1     100.909 107.872 118.165  1.00  0.00    -0.008 C 
ATOM      3  C   UNL     1     100.732 106.709 117.502  1.00  0.00     0.007 C 
ENDROOT
BRANCH   2   4
ATOM      4  C   UNL     1     100.719 109.226 117.586  1.00  0.00     0.159 C 
ATOM      5  O   UNL     1     101.149 110.226 118.223  1.00  0.00    -0.295 OA
BRANCH   4   6
ATOM      6  C   UNL     1     100.027 109.476 116.281  1.00  0.00     0.091 CG0
ATOM      7  G   UNL     1     100.688 108.747 115.091  1.00  0.00     0.000 G0
ENDBRANCH   4   6
ENDBRANCH   2   4
BRANCH   3   8
ATOM      8  C   UNL     1     100.282 106.466 116.112  1.00  0.00    -0.003 C 
ATOM      9  C   UNL     1     100.262 107.308 115.070  1.00  0.00    -0.020 C 
BRANCH   9  10
ATOM     10  C   UNL     1     100.686 108.758 115.082  1.00  0.00    -0.010 CG0
ATOM     11  C   UNL     1     102.229 108.858 115.091  1.00  0.00     0.016 C 
ATOM     12  C   UNL     1     100.172 109.423 113.784  1.00  0.00     0.016 C 
ATOM     13  G   UNL     1     100.035 109.481 116.282  1.00  0.00     0.000 G0
ENDBRANCH   9  10
ENDBRANCH   3   8
TORSDOF 0
ENDMDL
