MODEL 1
REMARK VINA RESULT:    -5.482      0.000      0.000
REMARK INTER + INTRA:         -15.889
REMARK INTER:                 -12.533
REMARK INTRA:                  -3.356
REMARK UNBOUND:                -3.356
REMARK SMILES CCCCCCCCCCCCCCCCCCCCCCCC(=O)[O-]
REMARK SMILES IDX 13 1 14 2 15 3 16 4 17 5 18 6 19 7 20 8 21 9 22 10 23 11
REMARK SMILES IDX 24 12 25 13 26 14 12 15 11 16 10 17 9 18 8 19 7 20 6 21 5 22
REMARK SMILES IDX 4 23 3 24 2 25 1 26
REMARK H PARENT
REMARK Flexibility Score: inf
ROOT
ATOM      1  C   UNL     1      46.130 -14.252 -36.619  1.00  0.00     0.000 C 
ENDROOT
BRANCH   1   2
ATOM      2  C   UNL     1      44.838 -13.647 -36.042  1.00  0.00     0.000 C 
BRANCH   2   3
ATOM      3  C   UNL     1      44.970 -12.139 -35.757  1.00  0.00     0.000 C 
BRANCH   3   4
ATOM      4  C   UNL     1      43.688 -11.331 -36.033  1.00  0.00     0.000 C 
BRANCH   4   5
ATOM      5  C   UNL     1      42.525 -12.215 -36.520  1.00  0.00     0.000 C 
BRANCH   5   6
ATOM      6  C   UNL     1      41.652 -11.501 -37.574  1.00  0.00     0.000 C 
BRANCH   6   7
ATOM      7  C   UNL     1      42.050 -10.033 -37.839  1.00  0.00     0.000 C 
BRANCH   7   8
ATOM      8  C   UNL     1      42.631  -9.740 -39.236  1.00  0.00     0.000 C 
BRANCH   8   9
ATOM      9  C   UNL     1      42.524 -10.911 -40.242  1.00  0.00     0.000 C 
BRANCH   9  10
ATOM     10  C   UNL     1      43.885 -11.461 -40.714  1.00  0.00     0.006 C 
BRANCH  10  11
ATOM     11  C   UNL     1      44.974 -11.469 -39.631  1.00  0.00     0.053 C 
BRANCH  11  12
ATOM     12  C   UNL     1      45.902 -12.639 -39.776  1.00  0.00     0.041 C 
ATOM     13  O   UNL     1      45.440 -13.803 -39.918  1.00  0.00    -0.550 OA
ATOM     14  O   UNL     1      47.279 -12.444 -39.758  1.00  0.00    -0.550 OA
ENDBRANCH  11  12
ENDBRANCH  10  11
ENDBRANCH   9  10
ENDBRANCH   8   9
ENDBRANCH   7   8
ENDBRANCH   6   7
ENDBRANCH   5   6
ENDBRANCH   4   5
ENDBRANCH   3   4
ENDBRANCH   2   3
ENDBRANCH   1   2
BRANCH   1  15
ATOM     15  C   UNL     1      47.387 -13.462 -36.215  1.00  0.00     0.000 C 
BRANCH  15  16
ATOM     16  C   UNL     1      48.468 -14.353 -35.577  1.00  0.00     0.000 C 
BRANCH  16  17
ATOM     17  C   UNL     1      48.964 -13.814 -34.224  1.00  0.00     0.000 C 
BRANCH  17  18
ATOM     18  C   UNL     1      47.947 -12.872 -33.553  1.00  0.00    -0.000 C 
BRANCH  18  19
ATOM     19  C   UNL     1      47.399 -13.429 -32.227  1.00  0.00    -0.000 C 
BRANCH  19  20
ATOM     20  C   UNL     1      45.965 -13.996 -32.292  1.00  0.00    -0.000 C 
BRANCH  20  21
ATOM     21  C   UNL     1      45.815 -15.309 -33.082  1.00  0.00    -0.000 C 
BRANCH  21  22
ATOM     22  C   UNL     1      45.288 -16.467 -32.220  1.00  0.00    -0.000 C 
BRANCH  22  23
ATOM     23  C   UNL     1      43.845 -16.826 -32.605  1.00  0.00    -0.000 C 
BRANCH  23  24
ATOM     24  C   UNL     1      43.514 -16.486 -34.069  1.00  0.00    -0.000 C 
BRANCH  24  25
ATOM     25  C   UNL     1      42.790 -17.603 -34.842  1.00  0.00    -0.003 C 
ATOM     26  C   UNL     1      42.796 -18.941 -34.107  1.00  0.00     0.004 C 
ENDBRANCH  24  25
ENDBRANCH  23  24
ENDBRANCH  22  23
ENDBRANCH  21  22
ENDBRANCH  20  21
ENDBRANCH  19  20
ENDBRANCH  18  19
ENDBRANCH  17  18
ENDBRANCH  16  17
ENDBRANCH  15  16
ENDBRANCH   1  15
TORSDOF 22
ENDMDL
MODEL 2
REMARK VINA RESULT:    -5.376      2.250      3.278
REMARK INTER + INTRA:         -15.646
REMARK INTER:                 -12.292
REMARK INTRA:                  -3.353
REMARK UNBOUND:                -3.356
REMARK SMILES CCCCCCCCCCCCCCCCCCCCCCCC(=O)[O-]
REMARK SMILES IDX 13 1 14 2 15 3 16 4 17 5 18 6 19 7 20 8 21 9 22 10 23 11
REMARK SMILES IDX 24 12 25 13 26 14 12 15 11 16 10 17 9 18 8 19 7 20 6 21 5 22
REMARK SMILES IDX 4 23 3 24 2 25 1 26
REMARK H PARENT
REMARK Flexibility Score: inf
ROOT
ATOM      1  C   UNL     1      45.194 -12.221 -35.697  1.00  0.00     0.000 C 
ENDROOT
BRANCH   1   2
ATOM      2  C   UNL     1      43.739 -11.755 -35.517  1.00  0.00     0.000 C 
BRANCH   2   3
ATOM      3  C   UNL     1      42.762 -12.505 -36.443  1.00  0.00     0.000 C 
BRANCH   3   4
ATOM      4  C   UNL     1      42.037 -11.601 -37.458  1.00  0.00     0.000 C 
BRANCH   4   5
ATOM      5  C   UNL     1      42.635 -10.183 -37.520  1.00  0.00     0.000 C 
BRANCH   5   6
ATOM      6  C   UNL     1      43.368  -9.917 -38.852  1.00  0.00     0.000 C 
BRANCH   6   7
ATOM      7  C   UNL     1      44.726 -10.637 -38.983  1.00  0.00     0.000 C 
BRANCH   7   8
ATOM      8  C   UNL     1      44.818 -11.693 -40.103  1.00  0.00     0.000 C 
BRANCH   8   9
ATOM      9  C   UNL     1      43.519 -11.888 -40.919  1.00  0.00     0.000 C 
BRANCH   9  10
ATOM     10  C   UNL     1      43.531 -11.197 -42.297  1.00  0.00     0.006 C 
BRANCH  10  11
ATOM     11  C   UNL     1      43.299 -12.146 -43.482  1.00  0.00     0.053 C 
BRANCH  11  12
ATOM     12  C   UNL     1      42.099 -11.749 -44.293  1.00  0.00     0.041 C 
ATOM     13  O   UNL     1      41.981 -12.140 -45.484  1.00  0.00    -0.550 OA
ATOM     14  O   UNL     1      41.111 -10.950 -43.729  1.00  0.00    -0.550 OA
ENDBRANCH  11  12
ENDBRANCH  10  11
ENDBRANCH   9  10
ENDBRANCH   8   9
ENDBRANCH   7   8
ENDBRANCH   6   7
ENDBRANCH   5   6
ENDBRANCH   4   5
ENDBRANCH   3   4
ENDBRANCH   2   3
ENDBRANCH   1   2
BRANCH   1  15
ATOM     15  C   UNL     1      45.335 -13.339 -36.745  1.00  0.00     0.000 C 
BRANCH  15  16
ATOM     16  C   UNL     1      46.670 -14.094 -36.631  1.00  0.00     0.000 C 
BRANCH  16  17
ATOM     17  C   UNL     1      47.879 -13.152 -36.490  1.00  0.00     0.000 C 
BRANCH  17  18
ATOM     18  C   UNL     1      48.936 -13.689 -35.507  1.00  0.00    -0.000 C 
BRANCH  18  19
ATOM     19  C   UNL     1      48.723 -13.188 -34.067  1.00  0.00    -0.000 C 
BRANCH  19  20
ATOM     20  C   UNL     1      48.905 -14.253 -32.965  1.00  0.00    -0.000 C 
BRANCH  20  21
ATOM     21  C   UNL     1      47.620 -14.644 -32.213  1.00  0.00    -0.000 C 
BRANCH  21  22
ATOM     22  C   UNL     1      46.398 -14.756 -33.136  1.00  0.00    -0.000 C 
BRANCH  22  23
ATOM     23  C   UNL     1      45.104 -14.427 -32.376  1.00  0.00    -0.000 C 
BRANCH  23  24
ATOM     24  C   UNL     1      43.837 -14.677 -33.215  1.00  0.00    -0.000 C 
BRANCH  24  25
ATOM     25  C   UNL     1      44.045 -15.582 -34.442  1.00  0.00    -0.003 C 
ATOM     26  C   UNL     1      43.076 -16.761 -34.489  1.00  0.00     0.004 C 
ENDBRANCH  24  25
ENDBRANCH  23  24
ENDBRANCH  22  23
ENDBRANCH  21  22
ENDBRANCH  20  21
ENDBRANCH  19  20
ENDBRANCH  18  19
ENDBRANCH  17  18
ENDBRANCH  16  17
ENDBRANCH  15  16
ENDBRANCH   1  15
TORSDOF 22
ENDMDL
MODEL 3
REMARK VINA RESULT:    -5.366      2.367      8.092
REMARK INTER + INTRA:         -15.623
REMARK INTER:                 -12.543
REMARK INTRA:                  -3.080
REMARK UNBOUND:                -3.356
REMARK SMILES CCCCCCCCCCCCCCCCCCCCCCCC(=O)[O-]
REMARK SMILES IDX 13 1 14 2 15 3 16 4 17 5 18 6 19 7 20 8 21 9 22 10 23 11
REMARK SMILES IDX 24 12 25 13 26 14 12 15 11 16 10 17 9 18 8 19 7 20 6 21 5 22
REMARK SMILES IDX 4 23 3 24 2 25 1 26
REMARK H PARENT
REMARK Flexibility Score: inf
ROOT
ATOM      1  C   UNL     1      43.463 -13.710 -35.583  1.00  0.00     0.000 C 
ENDROOT
BRANCH   1   2
ATOM      2  C   UNL     1      44.712 -14.205 -36.332  1.00  0.00     0.000 C 
BRANCH   2   3
ATOM      3  C   UNL     1      45.936 -13.298 -36.098  1.00  0.00     0.000 C 
BRANCH   3   4
ATOM      4  C   UNL     1      47.147 -14.022 -35.479  1.00  0.00     0.000 C 
BRANCH   4   5
ATOM      5  C   UNL     1      48.087 -13.063 -34.726  1.00  0.00     0.000 C 
BRANCH   5   6
ATOM      6  C   UNL     1      47.854 -13.096 -33.201  1.00  0.00     0.000 C 
BRANCH   6   7
ATOM      7  C   UNL     1      46.830 -14.154 -32.739  1.00  0.00     0.000 C 
BRANCH   7   8
ATOM      8  C   UNL     1      45.462 -13.607 -32.285  1.00  0.00     0.000 C 
BRANCH   8   9
ATOM      9  C   UNL     1      44.325 -14.655 -32.244  1.00  0.00     0.000 C 
BRANCH   9  10
ATOM     10  C   UNL     1      44.666 -15.981 -32.952  1.00  0.00     0.006 C 
BRANCH  10  11
ATOM     11  C   UNL     1      43.771 -17.162 -32.550  1.00  0.00     0.053 C 
BRANCH  11  12
ATOM     12  C   UNL     1      43.142 -17.822 -33.742  1.00  0.00     0.041 C 
ATOM     13  O   UNL     1      42.703 -19.000 -33.658  1.00  0.00    -0.550 OA
ATOM     14  O   UNL     1      43.037 -17.133 -34.946  1.00  0.00    -0.550 OA
ENDBRANCH  11  12
ENDBRANCH  10  11
ENDBRANCH   9  10
ENDBRANCH   8   9
ENDBRANCH   7   8
ENDBRANCH   6   7
ENDBRANCH   5   6
ENDBRANCH   4   5
ENDBRANCH   3   4
ENDBRANCH   2   3
ENDBRANCH   1   2
BRANCH   1  15
ATOM     15  C   UNL     1      43.086 -12.264 -35.945  1.00  0.00     0.000 C 
BRANCH  15  16
ATOM     16  C   UNL     1      41.641 -12.137 -36.458  1.00  0.00     0.000 C 
BRANCH  16  17
ATOM     17  C   UNL     1      41.533 -11.280 -37.731  1.00  0.00     0.000 C 
BRANCH  17  18
ATOM     18  C   UNL     1      42.300  -9.950 -37.616  1.00  0.00    -0.000 C 
BRANCH  18  19
ATOM     19  C   UNL     1      41.942  -8.953 -38.733  1.00  0.00    -0.000 C 
BRANCH  19  20
ATOM     20  C   UNL     1      41.132  -9.542 -39.907  1.00  0.00    -0.000 C 
BRANCH  20  21
ATOM     21  C   UNL     1      41.585  -9.091 -41.307  1.00  0.00    -0.000 C 
BRANCH  21  22
ATOM     22  C   UNL     1      42.533 -10.094 -41.980  1.00  0.00    -0.000 C 
BRANCH  22  23
ATOM     23  C   UNL     1      43.755 -10.376 -41.093  1.00  0.00    -0.000 C 
BRANCH  23  24
ATOM     24  C   UNL     1      43.898 -11.864 -40.726  1.00  0.00    -0.000 C 
BRANCH  24  25
ATOM     25  C   UNL     1      44.721 -12.138 -39.455  1.00  0.00    -0.003 C 
ATOM     26  C   UNL     1      46.209 -12.340 -39.736  1.00  0.00     0.004 C 
ENDBRANCH  24  25
ENDBRANCH  23  24
ENDBRANCH  22  23
ENDBRANCH  21  22
ENDBRANCH  20  21
ENDBRANCH  19  20
ENDBRANCH  18  19
ENDBRANCH  17  18
ENDBRANCH  16  17
ENDBRANCH  15  16
ENDBRANCH   1  15
TORSDOF 22
ENDMDL
MODEL 4
REMARK VINA RESULT:    -5.339      2.837      8.144
REMARK INTER + INTRA:         -15.562
REMARK INTER:                 -12.299
REMARK INTRA:                  -3.262
REMARK UNBOUND:                -3.356
REMARK SMILES CCCCCCCCCCCCCCCCCCCCCCCC(=O)[O-]
REMARK SMILES IDX 13 1 14 2 15 3 16 4 17 5 18 6 19 7 20 8 21 9 22 10 23 11
REMARK SMILES IDX 24 12 25 13 26 14 12 15 11 16 10 17 9 18 8 19 7 20 6 21 5 22
REMARK SMILES IDX 4 23 3 24 2 25 1 26
REMARK H PARENT
REMARK Flexibility Score: inf
ROOT
ATOM      1  C   UNL     1      43.522 -13.606 -35.396  1.00  0.00     0.000 C 
ENDROOT
BRANCH   1   2
ATOM      2  C   UNL     1      44.049 -14.888 -36.065  1.00  0.00     0.000 C 
BRANCH   2   3
ATOM      3  C   UNL     1      45.309 -14.633 -36.915  1.00  0.00     0.000 C 
BRANCH   3   4
ATOM      4  C   UNL     1      46.599 -14.458 -36.091  1.00  0.00     0.000 C 
BRANCH   4   5
ATOM      5  C   UNL     1      46.957 -12.978 -35.860  1.00  0.00     0.000 C 
BRANCH   5   6
ATOM      6  C   UNL     1      48.144 -12.810 -34.889  1.00  0.00     0.000 C 
BRANCH   6   7
ATOM      7  C   UNL     1      48.801 -14.137 -34.454  1.00  0.00     0.000 C 
BRANCH   7   8
ATOM      8  C   UNL     1      48.765 -14.438 -32.943  1.00  0.00     0.000 C 
BRANCH   8   9
ATOM      9  C   UNL     1      47.404 -14.951 -32.416  1.00  0.00     0.000 C 
BRANCH   9  10
ATOM     10  C   UNL     1      46.484 -13.843 -31.866  1.00  0.00     0.006 C 
BRANCH  10  11
ATOM     11  C   UNL     1      45.010 -13.981 -32.277  1.00  0.00     0.053 C 
BRANCH  11  12
ATOM     12  C   UNL     1      44.148 -12.932 -31.639  1.00  0.00     0.041 C 
ATOM     13  O   UNL     1      43.600 -12.044 -32.345  1.00  0.00    -0.550 OA
ATOM     14  O   UNL     1      43.948 -12.937 -30.263  1.00  0.00    -0.550 OA
ENDBRANCH  11  12
ENDBRANCH  10  11
ENDBRANCH   9  10
ENDBRANCH   8   9
ENDBRANCH   7   8
ENDBRANCH   6   7
ENDBRANCH   5   6
ENDBRANCH   4   5
ENDBRANCH   3   4
ENDBRANCH   2   3
ENDBRANCH   1   2
BRANCH   1  15
ATOM     15  C   UNL     1      43.199 -12.497 -36.411  1.00  0.00     0.000 C 
BRANCH  15  16
ATOM     16  C   UNL     1      41.690 -12.219 -36.526  1.00  0.00     0.000 C 
BRANCH  16  17
ATOM     17  C   UNL     1      41.345 -11.267 -37.684  1.00  0.00     0.000 C 
BRANCH  17  18
ATOM     18  C   UNL     1      42.298 -10.060 -37.763  1.00  0.00    -0.000 C 
BRANCH  18  19
ATOM     19  C   UNL     1      41.971  -9.114 -38.932  1.00  0.00    -0.000 C 
BRANCH  19  20
ATOM     20  C   UNL     1      40.964  -9.664 -39.964  1.00  0.00    -0.000 C 
BRANCH  20  21
ATOM     21  C   UNL     1      41.592 -10.363 -41.184  1.00  0.00    -0.000 C 
BRANCH  21  22
ATOM     22  C   UNL     1      43.093 -10.070 -41.333  1.00  0.00    -0.000 C 
BRANCH  22  23
ATOM     23  C   UNL     1      43.893 -11.371 -41.496  1.00  0.00    -0.000 C 
BRANCH  23  24
ATOM     24  C   UNL     1      44.160 -12.082 -40.157  1.00  0.00    -0.000 C 
BRANCH  24  25
ATOM     25  C   UNL     1      45.360 -11.534 -39.365  1.00  0.00    -0.003 C 
ATOM     26  C   UNL     1      46.654 -12.300 -39.631  1.00  0.00     0.004 C 
ENDBRANCH  24  25
ENDBRANCH  23  24
ENDBRANCH  22  23
ENDBRANCH  21  22
ENDBRANCH  20  21
ENDBRANCH  19  20
ENDBRANCH  18  19
ENDBRANCH  17  18
ENDBRANCH  16  17
ENDBRANCH  15  16
ENDBRANCH   1  15
TORSDOF 22
ENDMDL
MODEL 5
REMARK VINA RESULT:    -5.282      2.303      8.009
REMARK INTER + INTRA:         -15.432
REMARK INTER:                 -13.070
REMARK INTRA:                  -2.362
REMARK UNBOUND:                -3.356
REMARK SMILES CCCCCCCCCCCCCCCCCCCCCCCC(=O)[O-]
REMARK SMILES IDX 13 1 14 2 15 3 16 4 17 5 18 6 19 7 20 8 21 9 22 10 23 11
REMARK SMILES IDX 24 12 25 13 26 14 12 15 11 16 10 17 9 18 8 19 7 20 6 21 5 22
REMARK SMILES IDX 4 23 3 24 2 25 1 26
REMARK H PARENT
REMARK Flexibility Score: inf
ROOT
ATOM      1  C   UNL     1      43.486 -12.089 -32.976  1.00  0.00     0.000 C 
ENDROOT
BRANCH   1   2
ATOM      2  C   UNL     1      44.464 -13.126 -32.396  1.00  0.00     0.000 C 
BRANCH   2   3
ATOM      3  C   UNL     1      44.416 -14.467 -33.153  1.00  0.00     0.000 C 
BRANCH   3   4
ATOM      4  C   UNL     1      45.723 -15.279 -33.077  1.00  0.00     0.000 C 
BRANCH   4   5
ATOM      5  C   UNL     1      46.843 -14.530 -32.331  1.00  0.00     0.000 C 
BRANCH   5   6
ATOM      6  C   UNL     1      48.041 -14.208 -33.249  1.00  0.00     0.000 C 
BRANCH   6   7
ATOM      7  C   UNL     1      47.776 -13.079 -34.266  1.00  0.00     0.000 C 
BRANCH   7   8
ATOM      8  C   UNL     1      48.176 -13.383 -35.723  1.00  0.00     0.000 C 
BRANCH   8   9
ATOM      9  C   UNL     1      47.281 -14.422 -36.439  1.00  0.00     0.000 C 
BRANCH   9  10
ATOM     10  C   UNL     1      46.023 -13.822 -37.098  1.00  0.00     0.006 C 
BRANCH  10  11
ATOM     11  C   UNL     1      45.831 -14.214 -38.570  1.00  0.00     0.053 C 
BRANCH  11  12
ATOM     12  C   UNL     1      45.937 -13.030 -39.485  1.00  0.00     0.041 C 
ATOM     13  O   UNL     1      44.910 -12.573 -40.054  1.00  0.00    -0.550 OA
ATOM     14  O   UNL     1      47.171 -12.429 -39.708  1.00  0.00    -0.550 OA
ENDBRANCH  11  12
ENDBRANCH  10  11
ENDBRANCH   9  10
ENDBRANCH   8   9
ENDBRANCH   7   8
ENDBRANCH   6   7
ENDBRANCH   5   6
ENDBRANCH   4   5
ENDBRANCH   3   4
ENDBRANCH   2   3
ENDBRANCH   1   2
BRANCH   1  15
ATOM     15  C   UNL     1      43.042 -12.427 -34.409  1.00  0.00     0.000 C 
BRANCH  15  16
ATOM     16  C   UNL     1      43.807 -11.623 -35.473  1.00  0.00     0.000 C 
BRANCH  16  17
ATOM     17  C   UNL     1      43.070 -11.565 -36.823  1.00  0.00     0.000 C 
BRANCH  17  18
ATOM     18  C   UNL     1      43.500 -10.361 -37.681  1.00  0.00    -0.000 C 
BRANCH  18  19
ATOM     19  C   UNL     1      42.370  -9.335 -37.881  1.00  0.00    -0.000 C 
BRANCH  19  20
ATOM     20  C   UNL     1      41.922  -9.124 -39.342  1.00  0.00    -0.000 C 
BRANCH  20  21
ATOM     21  C   UNL     1      41.408 -10.386 -40.059  1.00  0.00    -0.000 C 
BRANCH  21  22
ATOM     22  C   UNL     1      41.103 -10.147 -41.545  1.00  0.00    -0.000 C 
BRANCH  22  23
ATOM     23  C   UNL     1      40.893  -8.652 -41.829  1.00  0.00    -0.000 C 
BRANCH  23  24
ATOM     24  C   UNL     1      41.223  -8.267 -43.283  1.00  0.00    -0.000 C 
BRANCH  24  25
ATOM     25  C   UNL     1      40.331  -8.933 -44.345  1.00  0.00    -0.003 C 
ATOM     26  C   UNL     1      39.397  -7.949 -45.046  1.00  0.00     0.004 C 
ENDBRANCH  24  25
ENDBRANCH  23  24
ENDBRANCH  22  23
ENDBRANCH  21  22
ENDBRANCH  20  21
ENDBRANCH  19  20
ENDBRANCH  18  19
ENDBRANCH  17  18
ENDBRANCH  16  17
ENDBRANCH  15  16
ENDBRANCH   1  15
TORSDOF 22
ENDMDL
MODEL 6
REMARK VINA RESULT:    -5.272      2.124      7.854
REMARK INTER + INTRA:         -15.409
REMARK INTER:                 -12.625
REMARK INTRA:                  -2.784
REMARK UNBOUND:                -3.356
REMARK SMILES CCCCCCCCCCCCCCCCCCCCCCCC(=O)[O-]
REMARK SMILES IDX 13 1 14 2 15 3 16 4 17 5 18 6 19 7 20 8 21 9 22 10 23 11
REMARK SMILES IDX 24 12 25 13 26 14 12 15 11 16 10 17 9 18 8 19 7 20 6 21 5 22
REMARK SMILES IDX 4 23 3 24 2 25 1 26
REMARK H PARENT
REMARK Flexibility Score: inf
ROOT
ATOM      1  C   UNL     1      43.530 -12.763 -35.852  1.00  0.00     0.000 C 
ENDROOT
BRANCH   1   2
ATOM      2  C   UNL     1      42.530 -12.459 -34.722  1.00  0.00     0.000 C 
BRANCH   2   3
ATOM      3  C   UNL     1      43.223 -12.277 -33.358  1.00  0.00     0.000 C 
BRANCH   3   4
ATOM      4  C   UNL     1      43.911 -13.549 -32.827  1.00  0.00     0.000 C 
BRANCH   4   5
ATOM      5  C   UNL     1      45.022 -13.238 -31.806  1.00  0.00     0.000 C 
BRANCH   5   6
ATOM      6  C   UNL     1      46.416 -13.658 -32.317  1.00  0.00     0.000 C 
BRANCH   6   7
ATOM      7  C   UNL     1      46.418 -14.255 -33.740  1.00  0.00     0.000 C 
BRANCH   7   8
ATOM      8  C   UNL     1      47.346 -13.559 -34.755  1.00  0.00     0.000 C 
BRANCH   8   9
ATOM      9  C   UNL     1      47.485 -14.289 -36.113  1.00  0.00     0.000 C 
BRANCH   9  10
ATOM     10  C   UNL     1      47.289 -13.376 -37.340  1.00  0.00     0.006 C 
BRANCH  10  11
ATOM     11  C   UNL     1      46.157 -13.816 -38.281  1.00  0.00     0.053 C 
BRANCH  11  12
ATOM     12  C   UNL     1      46.105 -12.981 -39.526  1.00  0.00     0.041 C 
ATOM     13  O   UNL     1      47.092 -12.271 -39.856  1.00  0.00    -0.550 OA
ATOM     14  O   UNL     1      44.965 -12.988 -40.323  1.00  0.00    -0.550 OA
ENDBRANCH  11  12
ENDBRANCH  10  11
ENDBRANCH   9  10
ENDBRANCH   8   9
ENDBRANCH   7   8
ENDBRANCH   6   7
ENDBRANCH   5   6
ENDBRANCH   4   5
ENDBRANCH   3   4
ENDBRANCH   2   3
ENDBRANCH   1   2
BRANCH   1  15
ATOM     15  C   UNL     1      44.227 -11.499 -36.384  1.00  0.00     0.000 C 
BRANCH  15  16
ATOM     16  C   UNL     1      43.342 -10.697 -37.354  1.00  0.00     0.000 C 
BRANCH  16  17
ATOM     17  C   UNL     1      44.149 -10.009 -38.469  1.00  0.00     0.000 C 
BRANCH  17  18
ATOM     18  C   UNL     1      43.395  -9.974 -39.811  1.00  0.00    -0.000 C 
BRANCH  18  19
ATOM     19  C   UNL     1      42.168 -10.903 -39.832  1.00  0.00    -0.000 C 
BRANCH  19  20
ATOM     20  C   UNL     1      40.942 -10.358 -40.595  1.00  0.00    -0.000 C 
BRANCH  20  21
ATOM     21  C   UNL     1      41.172  -9.034 -41.345  1.00  0.00    -0.000 C 
BRANCH  21  22
ATOM     22  C   UNL     1      41.568  -9.240 -42.815  1.00  0.00    -0.000 C 
BRANCH  22  23
ATOM     23  C   UNL     1      40.574 -10.170 -43.526  1.00  0.00    -0.000 C 
BRANCH  23  24
ATOM     24  C   UNL     1      41.268 -11.280 -44.337  1.00  0.00    -0.000 C 
BRANCH  24  25
ATOM     25  C   UNL     1      42.501 -11.900 -43.657  1.00  0.00    -0.003 C 
ATOM     26  C   UNL     1      43.667 -12.122 -44.618  1.00  0.00     0.004 C 
ENDBRANCH  24  25
ENDBRANCH  23  24
ENDBRANCH  22  23
ENDBRANCH  21  22
ENDBRANCH  20  21
ENDBRANCH  19  20
ENDBRANCH  18  19
ENDBRANCH  17  18
ENDBRANCH  16  17
ENDBRANCH  15  16
ENDBRANCH   1  15
TORSDOF 22
ENDMDL
MODEL 7
REMARK VINA RESULT:    -5.147      2.650      4.520
REMARK INTER + INTRA:         -15.121
REMARK INTER:                 -12.452
REMARK INTRA:                  -2.670
REMARK UNBOUND:                -3.356
REMARK SMILES CCCCCCCCCCCCCCCCCCCCCCCC(=O)[O-]
REMARK SMILES IDX 13 1 14 2 15 3 16 4 17 5 18 6 19 7 20 8 21 9 22 10 23 11
REMARK SMILES IDX 24 12 25 13 26 14 12 15 11 16 10 17 9 18 8 19 7 20 6 21 5 22
REMARK SMILES IDX 4 23 3 24 2 25 1 26
REMARK H PARENT
REMARK Flexibility Score: inf
ROOT
ATOM      1  C   UNL     1      48.030 -13.181 -35.915  1.00  0.00     0.000 C 
ENDROOT
BRANCH   1   2
ATOM      2  C   UNL     1      47.627 -14.583 -36.406  1.00  0.00     0.000 C 
BRANCH   2   3
ATOM      3  C   UNL     1      46.654 -14.531 -37.600  1.00  0.00     0.000 C 
BRANCH   3   4
ATOM      4  C   UNL     1      46.131 -13.119 -37.924  1.00  0.00     0.000 C 
BRANCH   4   5
ATOM      5  C   UNL     1      45.941 -12.892 -39.435  1.00  0.00     0.000 C 
BRANCH   5   6
ATOM      6  C   UNL     1      44.575 -12.251 -39.761  1.00  0.00     0.000 C 
BRANCH   6   7
ATOM      7  C   UNL     1      44.325 -12.021 -41.266  1.00  0.00     0.000 C 
BRANCH   7   8
ATOM      8  C   UNL     1      43.422 -10.823 -41.619  1.00  0.00     0.000 C 
BRANCH   8   9
ATOM      9  C   UNL     1      42.182 -10.656 -40.710  1.00  0.00     0.000 C 
BRANCH   9  10
ATOM     10  C   UNL     1      41.187  -9.580 -41.193  1.00  0.00     0.006 C 
BRANCH  10  11
ATOM     11  C   UNL     1      41.458  -9.062 -42.613  1.00  0.00     0.053 C 
BRANCH  11  12
ATOM     12  C   UNL     1      40.471  -9.603 -43.606  1.00  0.00     0.041 C 
ATOM     13  O   UNL     1      40.020  -8.863 -44.521  1.00  0.00    -0.550 OA
ATOM     14  O   UNL     1      40.052 -10.926 -43.522  1.00  0.00    -0.550 OA
ENDBRANCH  11  12
ENDBRANCH  10  11
ENDBRANCH   9  10
ENDBRANCH   8   9
ENDBRANCH   7   8
ENDBRANCH   6   7
ENDBRANCH   5   6
ENDBRANCH   4   5
ENDBRANCH   3   4
ENDBRANCH   2   3
ENDBRANCH   1   2
BRANCH   1  15
ATOM     15  C   UNL     1      47.807 -12.994 -34.404  1.00  0.00     0.000 C 
BRANCH  15  16
ATOM     16  C   UNL     1      48.295 -14.198 -33.579  1.00  0.00     0.000 C 
BRANCH  16  17
ATOM     17  C   UNL     1      47.265 -14.662 -32.535  1.00  0.00     0.000 C 
BRANCH  17  18
ATOM     18  C   UNL     1      46.151 -13.626 -32.300  1.00  0.00    -0.000 C 
BRANCH  18  19
ATOM     19  C   UNL     1      44.760 -14.266 -32.151  1.00  0.00    -0.000 C 
BRANCH  19  20
ATOM     20  C   UNL     1      44.609 -15.670 -32.774  1.00  0.00    -0.000 C 
BRANCH  20  21
ATOM     21  C   UNL     1      44.058 -15.693 -34.212  1.00  0.00    -0.000 C 
BRANCH  21  22
ATOM     22  C   UNL     1      44.292 -14.373 -34.962  1.00  0.00    -0.000 C 
BRANCH  22  23
ATOM     23  C   UNL     1      42.958 -13.710 -35.336  1.00  0.00    -0.000 C 
BRANCH  23  24
ATOM     24  C   UNL     1      43.059 -12.177 -35.434  1.00  0.00    -0.000 C 
BRANCH  24  25
ATOM     25  C   UNL     1      42.789 -11.601 -36.835  1.00  0.00    -0.003 C 
ATOM     26  C   UNL     1      41.306 -11.574 -37.197  1.00  0.00     0.004 C 
ENDBRANCH  24  25
ENDBRANCH  23  24
ENDBRANCH  22  23
ENDBRANCH  21  22
ENDBRANCH  20  21
ENDBRANCH  19  20
ENDBRANCH  18  19
ENDBRANCH  17  18
ENDBRANCH  16  17
ENDBRANCH  15  16
ENDBRANCH   1  15
TORSDOF 22
ENDMDL
MODEL 8
REMARK VINA RESULT:    -5.014      1.380      2.421
REMARK INTER + INTRA:         -14.819
REMARK INTER:                 -11.338
REMARK INTRA:                  -3.481
REMARK UNBOUND:                -3.356
REMARK SMILES CCCCCCCCCCCCCCCCCCCCCCCC(=O)[O-]
REMARK SMILES IDX 13 1 14 2 15 3 16 4 17 5 18 6 19 7 20 8 21 9 22 10 23 11
REMARK SMILES IDX 24 12 25 13 26 14 12 15 11 16 10 17 9 18 8 19 7 20 6 21 5 22
REMARK SMILES IDX 4 23 3 24 2 25 1 26
REMARK H PARENT
REMARK Flexibility Score: inf
ROOT
ATOM      1  C   UNL     1      45.374 -12.220 -35.676  1.00  0.00     0.000 C 
ENDROOT
BRANCH   1   2
ATOM      2  C   UNL     1      44.055 -11.458 -35.899  1.00  0.00     0.000 C 
BRANCH   2   3
ATOM      3  C   UNL     1      43.063 -12.245 -36.777  1.00  0.00     0.000 C 
BRANCH   3   4
ATOM      4  C   UNL     1      42.163 -11.358 -37.658  1.00  0.00     0.000 C 
BRANCH   4   5
ATOM      5  C   UNL     1      42.377  -9.855 -37.398  1.00  0.00     0.000 C 
BRANCH   5   6
ATOM      6  C   UNL     1      42.100  -9.002 -38.654  1.00  0.00     0.000 C 
BRANCH   6   7
ATOM      7  C   UNL     1      41.095  -9.633 -39.641  1.00  0.00     0.000 C 
BRANCH   7   8
ATOM      8  C   UNL     1      41.001  -8.957 -41.023  1.00  0.00     0.000 C 
BRANCH   8   9
ATOM      9  C   UNL     1      41.515  -9.817 -42.202  1.00  0.00     0.000 C 
BRANCH   9  10
ATOM     10  C   UNL     1      42.438 -10.978 -41.778  1.00  0.00     0.006 C 
BRANCH  10  11
ATOM     11  C   UNL     1      43.871 -10.552 -41.427  1.00  0.00     0.053 C 
BRANCH  11  12
ATOM     12  C   UNL     1      44.506 -11.482 -40.436  1.00  0.00     0.041 C 
ATOM     13  O   UNL     1      45.172 -11.022 -39.470  1.00  0.00    -0.550 OA
ATOM     14  O   UNL     1      44.361 -12.857 -40.577  1.00  0.00    -0.550 OA
ENDBRANCH  11  12
ENDBRANCH  10  11
ENDBRANCH   9  10
ENDBRANCH   8   9
ENDBRANCH   7   8
ENDBRANCH   6   7
ENDBRANCH   5   6
ENDBRANCH   4   5
ENDBRANCH   3   4
ENDBRANCH   2   3
ENDBRANCH   1   2
BRANCH   1  15
ATOM     15  C   UNL     1      45.518 -13.441 -36.600  1.00  0.00     0.000 C 
BRANCH  15  16
ATOM     16  C   UNL     1      46.880 -14.140 -36.451  1.00  0.00     0.000 C 
BRANCH  16  17
ATOM     17  C   UNL     1      48.049 -13.149 -36.320  1.00  0.00     0.000 C 
BRANCH  17  18
ATOM     18  C   UNL     1      49.080 -13.585 -35.262  1.00  0.00    -0.000 C 
BRANCH  18  19
ATOM     19  C   UNL     1      48.597 -13.344 -33.821  1.00  0.00    -0.000 C 
BRANCH  19  20
ATOM     20  C   UNL     1      48.453 -14.612 -32.953  1.00  0.00    -0.000 C 
BRANCH  20  21
ATOM     21  C   UNL     1      47.082 -14.790 -32.275  1.00  0.00    -0.000 C 
BRANCH  21  22
ATOM     22  C   UNL     1      46.240 -13.506 -32.285  1.00  0.00    -0.000 C 
BRANCH  22  23
ATOM     23  C   UNL     1      44.759 -13.823 -32.541  1.00  0.00    -0.000 C 
BRANCH  23  24
ATOM     24  C   UNL     1      44.553 -15.128 -33.330  1.00  0.00    -0.000 C 
BRANCH  24  25
ATOM     25  C   UNL     1      43.347 -15.121 -34.285  1.00  0.00    -0.003 C 
ATOM     26  C   UNL     1      43.502 -16.094 -35.453  1.00  0.00     0.004 C 
ENDBRANCH  24  25
ENDBRANCH  23  24
ENDBRANCH  22  23
ENDBRANCH  21  22
ENDBRANCH  20  21
ENDBRANCH  19  20
ENDBRANCH  18  19
ENDBRANCH  17  18
ENDBRANCH  16  17
ENDBRANCH  15  16
ENDBRANCH   1  15
TORSDOF 22
ENDMDL
MODEL 9
REMARK VINA RESULT:    -5.010      3.117      8.720
REMARK INTER + INTRA:         -14.809
REMARK INTER:                 -12.338
REMARK INTRA:                  -2.471
REMARK UNBOUND:                -3.356
REMARK SMILES CCCCCCCCCCCCCCCCCCCCCCCC(=O)[O-]
REMARK SMILES IDX 13 1 14 2 15 3 16 4 17 5 18 6 19 7 20 8 21 9 22 10 23 11
REMARK SMILES IDX 24 12 25 13 26 14 12 15 11 16 10 17 9 18 8 19 7 20 6 21 5 22
REMARK SMILES IDX 4 23 3 24 2 25 1 26
REMARK H PARENT
REMARK Flexibility Score: inf
ROOT
ATOM      1  C   UNL     1      43.676 -12.318 -35.249  1.00  0.00     0.000 C 
ENDROOT
BRANCH   1   2
ATOM      2  C   UNL     1      43.378 -13.685 -35.890  1.00  0.00     0.000 C 
BRANCH   2   3
ATOM      3  C   UNL     1      44.604 -14.619 -35.880  1.00  0.00     0.000 C 
BRANCH   3   4
ATOM      4  C   UNL     1      45.384 -14.648 -37.208  1.00  0.00     0.000 C 
BRANCH   4   5
ATOM      5  C   UNL     1      46.906 -14.537 -37.004  1.00  0.00     0.000 C 
BRANCH   5   6
ATOM      6  C   UNL     1      47.344 -13.098 -36.658  1.00  0.00     0.000 C 
BRANCH   6   7
ATOM      7  C   UNL     1      48.480 -13.014 -35.617  1.00  0.00     0.000 C 
BRANCH   7   8
ATOM      8  C   UNL     1      48.607 -14.221 -34.667  1.00  0.00     0.000 C 
BRANCH   8   9
ATOM      9  C   UNL     1      48.706 -13.858 -33.166  1.00  0.00     0.000 C 
BRANCH   9  10
ATOM     10  C   UNL     1      47.658 -14.558 -32.278  1.00  0.00     0.006 C 
BRANCH  10  11
ATOM     11  C   UNL     1      46.354 -14.920 -33.005  1.00  0.00     0.053 C 
BRANCH  11  12
ATOM     12  C   UNL     1      45.149 -14.356 -32.311  1.00  0.00     0.041 C 
ATOM     13  O   UNL     1      44.156 -15.092 -32.064  1.00  0.00    -0.550 OA
ATOM     14  O   UNL     1      45.124 -13.018 -31.933  1.00  0.00    -0.550 OA
ENDBRANCH  11  12
ENDBRANCH  10  11
ENDBRANCH   9  10
ENDBRANCH   8   9
ENDBRANCH   7   8
ENDBRANCH   6   7
ENDBRANCH   5   6
ENDBRANCH   4   5
ENDBRANCH   3   4
ENDBRANCH   2   3
ENDBRANCH   1   2
BRANCH   1  15
ATOM     15  C   UNL     1      43.873 -11.204 -36.291  1.00  0.00     0.000 C 
BRANCH  15  16
ATOM     16  C   UNL     1      43.454 -11.634 -37.707  1.00  0.00     0.000 C 
BRANCH  16  17
ATOM     17  C   UNL     1      44.221 -10.885 -38.810  1.00  0.00     0.000 C 
BRANCH  17  18
ATOM     18  C   UNL     1      44.155 -11.604 -40.170  1.00  0.00    -0.000 C 
BRANCH  18  19
ATOM     19  C   UNL     1      43.167 -10.943 -41.149  1.00  0.00    -0.000 C 
BRANCH  19  20
ATOM     20  C   UNL     1      41.808 -10.537 -40.541  1.00  0.00    -0.000 C 
BRANCH  20  21
ATOM     21  C   UNL     1      40.776  -9.996 -41.547  1.00  0.00    -0.000 C 
BRANCH  21  22
ATOM     22  C   UNL     1      41.424  -9.279 -42.741  1.00  0.00    -0.000 C 
BRANCH  22  23
ATOM     23  C   UNL     1      40.688  -9.613 -44.047  1.00  0.00    -0.000 C 
BRANCH  23  24
ATOM     24  C   UNL     1      40.022 -11.000 -44.021  1.00  0.00    -0.000 C 
BRANCH  24  25
ATOM     25  C   UNL     1      40.686 -12.051 -44.927  1.00  0.00    -0.003 C 
ATOM     26  C   UNL     1      42.207 -11.923 -44.979  1.00  0.00     0.004 C 
ENDBRANCH  24  25
ENDBRANCH  23  24
ENDBRANCH  22  23
ENDBRANCH  21  22
ENDBRANCH  20  21
ENDBRANCH  19  20
ENDBRANCH  18  19
ENDBRANCH  17  18
ENDBRANCH  16  17
ENDBRANCH  15  16
ENDBRANCH   1  15
TORSDOF 22
ENDMDL
