MODEL 1
REMARK VINA RESULT:    -4.414      0.000      0.000
REMARK INTER + INTRA:          -4.543
REMARK INTER:                  -4.543
REMARK INTRA:                   0.000
REMARK UNBOUND:                 0.000
REMARK SMILES O=c1ccc2ccc(O)cc2o1
REMARK SMILES IDX 6 1 7 2 8 3 10 4 11 5 5 6 4 7 3 8 2 9 1 10 12 11 9 12
REMARK H PARENT 9 13
REMARK Flexibility Score: inf
ROOT
ATOM      1  C   UNL     1     -33.605 -21.131 -36.112  1.00  0.00     0.016 A 
ATOM      2  C   UNL     1     -33.775 -22.308 -36.849  1.00  0.00     0.047 A 
ATOM      3  C   UNL     1     -33.074 -23.469 -36.500  1.00  0.00     0.119 A 
ATOM      4  C   UNL     1     -32.198 -23.455 -35.405  1.00  0.00     0.094 A 
ATOM      5  C   UNL     1     -32.022 -22.284 -34.661  1.00  0.00     0.142 A 
ATOM      6  C   UNL     1     -32.731 -21.114 -35.017  1.00  0.00     0.018 A 
ATOM      7  C   UNL     1     -32.534 -19.958 -34.254  1.00  0.00     0.019 A 
ATOM      8  C   UNL     1     -31.653 -19.992 -33.175  1.00  0.00     0.094 A 
ATOM      9  C   UNL     1     -30.986 -21.187 -32.881  1.00  0.00     0.336 A 
ATOM     10  O   UNL     1     -30.186 -21.237 -31.910  1.00  0.00    -0.246 OA
ATOM     11  O   UNL     1     -31.191 -22.273 -33.622  1.00  0.00    -0.423 OA
ENDROOT
BRANCH   3  12
ATOM     12  O   UNL     1     -33.256 -24.630 -37.248  1.00  0.00    -0.508 OA
ATOM     13  H   UNL     1     -32.578 -24.925 -37.941  1.00  0.00     0.293 HD
ENDBRANCH   3  12
TORSDOF 1
ENDMDL
MODEL 2
REMARK VINA RESULT:    -4.337      2.136      5.168
REMARK INTER + INTRA:          -4.464
REMARK INTER:                  -4.464
REMARK INTRA:                   0.000
REMARK UNBOUND:                 0.000
REMARK SMILES O=c1ccc2ccc(O)cc2o1
REMARK SMILES IDX 6 1 7 2 8 3 10 4 11 5 5 6 4 7 3 8 2 9 1 10 12 11 9 12
REMARK H PARENT 9 13
REMARK Flexibility Score: inf
ROOT
ATOM      1  C   UNL     1     -30.823 -19.875 -30.895  1.00  0.00     0.016 A 
ATOM      2  C   UNL     1     -30.320 -20.507 -29.753  1.00  0.00     0.047 A 
ATOM      3  C   UNL     1     -30.100 -21.890 -29.748  1.00  0.00     0.119 A 
ATOM      4  C   UNL     1     -30.385 -22.648 -30.894  1.00  0.00     0.094 A 
ATOM      5  C   UNL     1     -30.887 -22.025 -32.041  1.00  0.00     0.142 A 
ATOM      6  C   UNL     1     -31.108 -20.629 -32.042  1.00  0.00     0.018 A 
ATOM      7  C   UNL     1     -31.611 -20.034 -33.204  1.00  0.00     0.019 A 
ATOM      8  C   UNL     1     -31.879 -20.828 -34.318  1.00  0.00     0.094 A 
ATOM      9  C   UNL     1     -31.636 -22.204 -34.244  1.00  0.00     0.336 A 
ATOM     10  O   UNL     1     -31.871 -22.937 -35.241  1.00  0.00    -0.246 OA
ATOM     11  O   UNL     1     -31.156 -22.745 -33.127  1.00  0.00    -0.423 OA
ENDROOT
BRANCH   3  12
ATOM     12  O   UNL     1     -29.600 -22.501 -28.601  1.00  0.00    -0.508 OA
ATOM     13  H   UNL     1     -28.973 -23.295 -28.655  1.00  0.00     0.293 HD
ENDBRANCH   3  12
TORSDOF 1
ENDMDL
MODEL 3
REMARK VINA RESULT:    -4.116      0.767      4.224
REMARK INTER + INTRA:          -4.236
REMARK INTER:                  -4.236
REMARK INTRA:                   0.000
REMARK UNBOUND:                 0.000
REMARK SMILES O=c1ccc2ccc(O)cc2o1
REMARK SMILES IDX 6 1 7 2 8 3 10 4 11 5 5 6 4 7 3 8 2 9 1 10 12 11 9 12
REMARK H PARENT 9 13
REMARK Flexibility Score: inf
ROOT
ATOM      1  C   UNL     1     -32.620 -19.987 -34.310  1.00  0.00     0.016 A 
ATOM      2  C   UNL     1     -31.754 -19.875 -33.218  1.00  0.00     0.047 A 
ATOM      3  C   UNL     1     -30.976 -20.967 -32.816  1.00  0.00     0.119 A 
ATOM      4  C   UNL     1     -31.063 -22.183 -33.512  1.00  0.00     0.094 A 
ATOM      5  C   UNL     1     -31.926 -22.305 -34.606  1.00  0.00     0.142 A 
ATOM      6  C   UNL     1     -32.710 -21.199 -35.008  1.00  0.00     0.018 A 
ATOM      7  C   UNL     1     -33.564 -21.352 -36.105  1.00  0.00     0.019 A 
ATOM      8  C   UNL     1     -33.617 -22.579 -36.766  1.00  0.00     0.094 A 
ATOM      9  C   UNL     1     -32.811 -23.629 -36.311  1.00  0.00     0.336 A 
ATOM     10  O   UNL     1     -32.846 -24.744 -36.895  1.00  0.00    -0.246 OA
ATOM     11  O   UNL     1     -32.007 -23.458 -35.265  1.00  0.00    -0.423 OA
ENDROOT
BRANCH   3  12
ATOM     12  O   UNL     1     -30.120 -20.835 -31.725  1.00  0.00    -0.508 OA
ATOM     13  H   UNL     1     -29.901 -21.623 -31.126  1.00  0.00     0.293 HD
ENDBRANCH   3  12
TORSDOF 1
ENDMDL
MODEL 4
REMARK VINA RESULT:    -3.841      2.510      3.340
REMARK INTER + INTRA:          -3.954
REMARK INTER:                  -3.954
REMARK INTRA:                   0.000
REMARK UNBOUND:                 0.000
REMARK SMILES O=c1ccc2ccc(O)cc2o1
REMARK SMILES IDX 6 1 7 2 8 3 10 4 11 5 5 6 4 7 3 8 2 9 1 10 12 11 9 12
REMARK H PARENT 9 13
REMARK Flexibility Score: inf
ROOT
ATOM      1  C   UNL     1     -32.626 -22.828 -39.124  1.00  0.00     0.016 A 
ATOM      2  C   UNL     1     -31.765 -23.927 -39.044  1.00  0.00     0.047 A 
ATOM      3  C   UNL     1     -31.235 -24.323 -37.810  1.00  0.00     0.119 A 
ATOM      4  C   UNL     1     -31.570 -23.616 -36.645  1.00  0.00     0.094 A 
ATOM      5  C   UNL     1     -32.431 -22.516 -36.715  1.00  0.00     0.142 A 
ATOM      6  C   UNL     1     -32.963 -22.119 -37.963  1.00  0.00     0.018 A 
ATOM      7  C   UNL     1     -33.821 -21.016 -38.001  1.00  0.00     0.019 A 
ATOM      8  C   UNL     1     -34.125 -20.344 -36.817  1.00  0.00     0.094 A 
ATOM      9  C   UNL     1     -33.561 -20.794 -35.618  1.00  0.00     0.336 A 
ATOM     10  O   UNL     1     -33.824 -20.200 -34.539  1.00  0.00    -0.246 OA
ATOM     11  O   UNL     1     -32.748 -21.847 -35.609  1.00  0.00    -0.423 OA
ENDROOT
BRANCH   3  12
ATOM     12  O   UNL     1     -30.378 -25.420 -37.752  1.00  0.00    -0.508 OA
ATOM     13  H   UNL     1     -29.781 -25.583 -36.950  1.00  0.00     0.293 HD
ENDBRANCH   3  12
TORSDOF 1
ENDMDL
MODEL 5
REMARK VINA RESULT:    -3.839      2.040      4.936
REMARK INTER + INTRA:          -3.951
REMARK INTER:                  -3.951
REMARK INTRA:                   0.000
REMARK UNBOUND:                 0.000
REMARK SMILES O=c1ccc2ccc(O)cc2o1
REMARK SMILES IDX 6 1 7 2 8 3 10 4 11 5 5 6 4 7 3 8 2 9 1 10 12 11 9 12
REMARK H PARENT 9 13
REMARK Flexibility Score: inf
ROOT
ATOM      1  C   UNL     1     -30.722 -22.619 -32.547  1.00  0.00     0.016 A 
ATOM      2  C   UNL     1     -30.189 -21.922 -31.458  1.00  0.00     0.047 A 
ATOM      3  C   UNL     1     -30.453 -20.557 -31.293  1.00  0.00     0.119 A 
ATOM      4  C   UNL     1     -31.258 -19.882 -32.223  1.00  0.00     0.094 A 
ATOM      5  C   UNL     1     -31.796 -20.571 -33.315  1.00  0.00     0.142 A 
ATOM      6  C   UNL     1     -31.527 -21.949 -33.478  1.00  0.00     0.018 A 
ATOM      7  C   UNL     1     -32.079 -22.610 -34.580  1.00  0.00     0.019 A 
ATOM      8  C   UNL     1     -32.873 -21.897 -35.478  1.00  0.00     0.094 A 
ATOM      9  C   UNL     1     -33.097 -20.535 -35.253  1.00  0.00     0.336 A 
ATOM     10  O   UNL     1     -33.811 -19.875 -36.053  1.00  0.00    -0.246 OA
ATOM     11  O   UNL     1     -32.560 -19.929 -34.196  1.00  0.00    -0.423 OA
ENDROOT
BRANCH   3  12
ATOM     12  O   UNL     1     -29.912 -19.880 -30.202  1.00  0.00    -0.508 OA
ATOM     13  H   UNL     1     -30.141 -18.911 -30.013  1.00  0.00     0.293 HD
ENDBRANCH   3  12
TORSDOF 1
ENDMDL
MODEL 6
REMARK VINA RESULT:    -2.990      1.300      2.192
REMARK INTER + INTRA:          -3.077
REMARK INTER:                  -3.077
REMARK INTRA:                   0.000
REMARK UNBOUND:                 0.000
REMARK SMILES O=c1ccc2ccc(O)cc2o1
REMARK SMILES IDX 6 1 7 2 8 3 10 4 11 5 5 6 4 7 3 8 2 9 1 10 12 11 9 12
REMARK H PARENT 9 13
REMARK Flexibility Score: inf
ROOT
ATOM      1  C   UNL     1     -32.180 -23.942 -35.520  1.00  0.00     0.016 A 
ATOM      2  C   UNL     1     -32.920 -23.661 -36.673  1.00  0.00     0.047 A 
ATOM      3  C   UNL     1     -33.389 -22.364 -36.915  1.00  0.00     0.119 A 
ATOM      4  C   UNL     1     -33.115 -21.338 -35.998  1.00  0.00     0.094 A 
ATOM      5  C   UNL     1     -32.376 -21.610 -34.842  1.00  0.00     0.142 A 
ATOM      6  C   UNL     1     -31.904 -22.920 -34.601  1.00  0.00     0.018 A 
ATOM      7  C   UNL     1     -31.168 -23.160 -33.437  1.00  0.00     0.019 A 
ATOM      8  C   UNL     1     -30.921 -22.109 -32.554  1.00  0.00     0.094 A 
ATOM      9  C   UNL     1     -31.419 -20.837 -32.858  1.00  0.00     0.336 A 
ATOM     10  O   UNL     1     -31.206 -19.876 -32.073  1.00  0.00    -0.246 OA
ATOM     11  O   UNL     1     -32.117 -20.635 -33.973  1.00  0.00    -0.423 OA
ENDROOT
BRANCH   3  12
ATOM     12  O   UNL     1     -34.125 -22.105 -38.069  1.00  0.00    -0.508 OA
ATOM     13  H   UNL     1     -35.061 -22.472 -38.193  1.00  0.00     0.293 HD
ENDBRANCH   3  12
TORSDOF 1
ENDMDL
MODEL 7
REMARK VINA RESULT:    -2.858      3.448      6.616
REMARK INTER + INTRA:          -2.941
REMARK INTER:                  -2.941
REMARK INTRA:                   0.000
REMARK UNBOUND:                 0.000
REMARK SMILES O=c1ccc2ccc(O)cc2o1
REMARK SMILES IDX 6 1 7 2 8 3 10 4 11 5 5 6 4 7 3 8 2 9 1 10 12 11 9 12
REMARK H PARENT 9 13
REMARK Flexibility Score: inf
ROOT
ATOM      1  C   UNL     1     -30.752 -24.870 -37.754  1.00  0.00     0.016 A 
ATOM      2  C   UNL     1     -31.241 -23.770 -37.042  1.00  0.00     0.047 A 
ATOM      3  C   UNL     1     -32.563 -23.754 -36.583  1.00  0.00     0.119 A 
ATOM      4  C   UNL     1     -33.406 -24.848 -36.836  1.00  0.00     0.094 A 
ATOM      5  C   UNL     1     -32.926 -25.953 -37.546  1.00  0.00     0.142 A 
ATOM      6  C   UNL     1     -31.590 -25.965 -38.008  1.00  0.00     0.018 A 
ATOM      7  C   UNL     1     -31.140 -27.084 -38.716  1.00  0.00     0.019 A 
ATOM      8  C   UNL     1     -32.013 -28.146 -38.943  1.00  0.00     0.094 A 
ATOM      9  C   UNL     1     -33.322 -28.065 -38.456  1.00  0.00     0.336 A 
ATOM     10  O   UNL     1     -34.125 -29.015 -38.652  1.00  0.00    -0.246 OA
ATOM     11  O   UNL     1     -33.726 -26.989 -37.785  1.00  0.00    -0.423 OA
ENDROOT
BRANCH   3  12
ATOM     12  O   UNL     1     -33.031 -22.648 -35.876  1.00  0.00    -0.508 OA
ATOM     13  H   UNL     1     -32.406 -21.910 -35.574  1.00  0.00     0.293 HD
ENDBRANCH   3  12
TORSDOF 1
ENDMDL
MODEL 8
REMARK VINA RESULT:    -2.800      3.483      5.414
REMARK INTER + INTRA:          -2.881
REMARK INTER:                  -2.881
REMARK INTRA:                   0.000
REMARK UNBOUND:                 0.000
REMARK SMILES O=c1ccc2ccc(O)cc2o1
REMARK SMILES IDX 6 1 7 2 8 3 10 4 11 5 5 6 4 7 3 8 2 9 1 10 12 11 9 12
REMARK H PARENT 9 13
REMARK Flexibility Score: inf
ROOT
ATOM      1  C   UNL     1     -31.110 -27.015 -38.666  1.00  0.00     0.016 A 
ATOM      2  C   UNL     1     -31.967 -28.108 -38.834  1.00  0.00     0.047 A 
ATOM      3  C   UNL     1     -33.286 -28.051 -38.368  1.00  0.00     0.119 A 
ATOM      4  C   UNL     1     -33.754 -26.892 -37.729  1.00  0.00     0.094 A 
ATOM      5  C   UNL     1     -32.904 -25.795 -37.558  1.00  0.00     0.142 A 
ATOM      6  C   UNL     1     -31.573 -25.856 -38.030  1.00  0.00     0.018 A 
ATOM      7  C   UNL     1     -30.748 -24.742 -37.843  1.00  0.00     0.019 A 
ATOM      8  C   UNL     1     -31.257 -23.613 -37.203  1.00  0.00     0.094 A 
ATOM      9  C   UNL     1     -32.585 -23.624 -36.762  1.00  0.00     0.336 A 
ATOM     10  O   UNL     1     -33.062 -22.613 -36.182  1.00  0.00    -0.246 OA
ATOM     11  O   UNL     1     -33.350 -24.696 -36.952  1.00  0.00    -0.423 OA
ENDROOT
BRANCH   3  12
ATOM     12  O   UNL     1     -34.123 -29.150 -38.544  1.00  0.00    -0.508 OA
ATOM     13  H   UNL     1     -34.904 -29.326 -37.922  1.00  0.00     0.293 HD
ENDBRANCH   3  12
TORSDOF 1
ENDMDL
