MODEL 1
REMARK VINA RESULT:    -4.469      0.000      0.000
REMARK INTER + INTRA:          -4.828
REMARK INTER:                  -4.730
REMARK INTRA:                  -0.098
REMARK UNBOUND:                -0.098
REMARK SMILES C=C(C)[C@@H]1CC=C(C)C(=O)C1
REMARK SMILES IDX 8 1 7 2 6 3 5 4 4 5 11 6 9 7 10 8 2 9 1 10 3 11
REMARK H PARENT
REMARK Flexibility Score: inf
ROOT
ATOM      1  C   UNL     1     -14.686  -0.356 -11.600  1.00  0.00     0.048 C 
ATOM      2  C   UNL     1     -14.118   0.973 -12.017  1.00  0.00    -0.012 C 
ATOM      3  C   UNL     1     -14.945   1.996 -12.296  1.00  0.00    -0.019 C 
ATOM      4  C   UNL     1     -14.430   3.351 -12.699  1.00  0.00     0.036 C 
ATOM      5  C   UNL     1     -13.117   3.232 -13.496  1.00  0.00     0.025 C 
ATOM      6  C   UNL     1     -12.077   2.427 -12.693  1.00  0.00     0.089 C 
ATOM      7  C   UNL     1     -12.658   1.117 -12.239  1.00  0.00     0.158 C 
ATOM      8  O   UNL     1     -11.884   0.147 -12.012  1.00  0.00    -0.295 OA
ENDROOT
BRANCH   5   9
ATOM      9  C   UNL     1     -12.579   4.597 -13.902  1.00  0.00    -0.077 C 
ATOM     10  C   UNL     1     -11.260   4.856 -13.912  1.00  0.00     0.008 C 
ATOM     11  C   UNL     1     -13.531   5.695 -14.304  1.00  0.00     0.039 C 
ENDBRANCH   5   9
TORSDOF 1
ENDMDL
MODEL 2
REMARK VINA RESULT:    -4.271      1.567      4.417
REMARK INTER + INTRA:          -4.619
REMARK INTER:                  -4.524
REMARK INTRA:                  -0.095
REMARK UNBOUND:                -0.098
REMARK SMILES C=C(C)[C@@H]1CC=C(C)C(=O)C1
REMARK SMILES IDX 8 1 7 2 6 3 5 4 4 5 11 6 9 7 10 8 2 9 1 10 3 11
REMARK H PARENT
REMARK Flexibility Score: inf
ROOT
ATOM      1  C   UNL     1     -13.258   5.100 -14.040  1.00  0.00     0.048 C 
ATOM      2  C   UNL     1     -13.382   3.703 -13.497  1.00  0.00    -0.012 C 
ATOM      3  C   UNL     1     -14.373   3.404 -12.639  1.00  0.00    -0.019 C 
ATOM      4  C   UNL     1     -14.554   2.019 -12.080  1.00  0.00     0.036 C 
ATOM      5  C   UNL     1     -13.198   1.306 -11.912  1.00  0.00     0.025 C 
ATOM      6  C   UNL     1     -12.429   1.302 -13.246  1.00  0.00     0.089 C 
ATOM      7  C   UNL     1     -12.342   2.692 -13.811  1.00  0.00     0.158 C 
ATOM      8  O   UNL     1     -11.391   2.982 -14.588  1.00  0.00    -0.295 OA
ENDROOT
BRANCH   5   9
ATOM      9  C   UNL     1     -13.368  -0.101 -11.357  1.00  0.00    -0.077 C 
ATOM     10  C   UNL     1     -14.483  -0.816 -11.588  1.00  0.00     0.008 C 
ATOM     11  C   UNL     1     -12.273  -0.724 -10.528  1.00  0.00     0.039 C 
ENDBRANCH   5   9
TORSDOF 1
ENDMDL
MODEL 3
REMARK VINA RESULT:    -4.182      9.216     10.486
REMARK INTER + INTRA:          -4.525
REMARK INTER:                  -4.431
REMARK INTRA:                  -0.093
REMARK UNBOUND:                -0.098
REMARK SMILES C=C(C)[C@@H]1CC=C(C)C(=O)C1
REMARK SMILES IDX 8 1 7 2 6 3 5 4 4 5 11 6 9 7 10 8 2 9 1 10 3 11
REMARK H PARENT
REMARK Flexibility Score: inf
ROOT
ATOM      1  C   UNL     1      -2.670   2.148 -14.795  1.00  0.00     0.048 C 
ATOM      2  C   UNL     1      -3.229   1.831 -13.435  1.00  0.00    -0.012 C 
ATOM      3  C   UNL     1      -4.030   2.717 -12.818  1.00  0.00    -0.019 C 
ATOM      4  C   UNL     1      -4.630   2.443 -11.465  1.00  0.00     0.036 C 
ATOM      5  C   UNL     1      -3.686   1.581 -10.603  1.00  0.00     0.025 C 
ATOM      6  C   UNL     1      -3.315   0.286 -11.351  1.00  0.00     0.089 C 
ATOM      7  C   UNL     1      -2.797   0.600 -12.727  1.00  0.00     0.158 C 
ATOM      8  O   UNL     1      -2.017  -0.215 -13.290  1.00  0.00    -0.295 OA
ENDROOT
BRANCH   5   9
ATOM      9  C   UNL     1      -4.287   1.287  -9.235  1.00  0.00    -0.077 C 
ATOM     10  C   UNL     1      -4.693   2.277  -8.421  1.00  0.00     0.008 C 
ATOM     11  C   UNL     1      -4.436  -0.138  -8.766  1.00  0.00     0.039 C 
ENDBRANCH   5   9
TORSDOF 1
ENDMDL
MODEL 4
REMARK VINA RESULT:    -4.176     16.462     17.721
REMARK INTER + INTRA:          -4.518
REMARK INTER:                  -4.421
REMARK INTRA:                  -0.096
REMARK UNBOUND:                -0.098
REMARK SMILES C=C(C)[C@@H]1CC=C(C)C(=O)C1
REMARK SMILES IDX 8 1 7 2 6 3 5 4 4 5 11 6 9 7 10 8 2 9 1 10 3 11
REMARK H PARENT
REMARK Flexibility Score: inf
ROOT
ATOM      1  C   UNL     1      -4.041  14.364 -24.800  1.00  0.00     0.048 C 
ATOM      2  C   UNL     1      -4.348  12.894 -24.893  1.00  0.00    -0.012 C 
ATOM      3  C   UNL     1      -3.362  12.020 -25.161  1.00  0.00    -0.019 C 
ATOM      4  C   UNL     1      -3.611  10.538 -25.247  1.00  0.00     0.036 C 
ATOM      5  C   UNL     1      -5.022  10.243 -25.792  1.00  0.00     0.025 C 
ATOM      6  C   UNL     1      -6.084  10.965 -24.942  1.00  0.00     0.089 C 
ATOM      7  C   UNL     1      -5.754  12.426 -24.812  1.00  0.00     0.158 C 
ATOM      8  O   UNL     1      -6.685  13.249 -24.597  1.00  0.00    -0.295 OA
ENDROOT
BRANCH   5   9
ATOM      9  C   UNL     1      -5.290   8.746 -25.875  1.00  0.00    -0.077 C 
ATOM     10  C   UNL     1      -4.392   7.848 -25.437  1.00  0.00     0.008 C 
ATOM     11  C   UNL     1      -6.586   8.243 -26.458  1.00  0.00     0.039 C 
ENDBRANCH   5   9
TORSDOF 1
ENDMDL
MODEL 5
REMARK VINA RESULT:    -4.144      5.619      8.636
REMARK INTER + INTRA:          -4.484
REMARK INTER:                  -4.387
REMARK INTRA:                  -0.097
REMARK UNBOUND:                -0.098
REMARK SMILES C=C(C)[C@@H]1CC=C(C)C(=O)C1
REMARK SMILES IDX 8 1 7 2 6 3 5 4 4 5 11 6 9 7 10 8 2 9 1 10 3 11
REMARK H PARENT
REMARK Flexibility Score: inf
ROOT
ATOM      1  C   UNL     1     -14.364  12.964 -15.656  1.00  0.00     0.048 C 
ATOM      2  C   UNL     1     -14.047  11.498 -15.776  1.00  0.00    -0.012 C 
ATOM      3  C   UNL     1     -14.448  10.815 -16.863  1.00  0.00    -0.019 C 
ATOM      4  C   UNL     1     -14.142   9.352 -17.043  1.00  0.00     0.036 C 
ATOM      5  C   UNL     1     -14.109   8.620 -15.687  1.00  0.00     0.025 C 
ATOM      6  C   UNL     1     -13.117   9.311 -14.733  1.00  0.00     0.089 C 
ATOM      7  C   UNL     1     -13.405  10.784 -14.645  1.00  0.00     0.158 C 
ATOM      8  O   UNL     1     -13.061  11.417 -13.610  1.00  0.00    -0.295 OA
ENDROOT
BRANCH   5   9
ATOM      9  C   UNL     1     -13.791   7.141 -15.854  1.00  0.00    -0.077 C 
ATOM     10  C   UNL     1     -13.591   6.343 -14.792  1.00  0.00     0.008 C 
ATOM     11  C   UNL     1     -13.695   6.540 -17.233  1.00  0.00     0.039 C 
ENDBRANCH   5   9
TORSDOF 1
ENDMDL
MODEL 6
REMARK VINA RESULT:    -4.119     12.856     13.698
REMARK INTER + INTRA:          -4.457
REMARK INTER:                  -4.362
REMARK INTRA:                  -0.096
REMARK UNBOUND:                -0.098
REMARK SMILES C=C(C)[C@@H]1CC=C(C)C(=O)C1
REMARK SMILES IDX 8 1 7 2 6 3 5 4 4 5 11 6 9 7 10 8 2 9 1 10 3 11
REMARK H PARENT
REMARK Flexibility Score: inf
ROOT
ATOM      1  C   UNL     1      -0.300   6.246 -14.535  1.00  0.00     0.048 C 
ATOM      2  C   UNL     1      -0.730   7.398 -13.669  1.00  0.00    -0.012 C 
ATOM      3  C   UNL     1      -1.259   7.161 -12.456  1.00  0.00    -0.019 C 
ATOM      4  C   UNL     1      -1.689   8.277 -11.541  1.00  0.00     0.036 C 
ATOM      5  C   UNL     1      -2.208   9.485 -12.345  1.00  0.00     0.025 C 
ATOM      6  C   UNL     1      -1.147   9.942 -13.365  1.00  0.00     0.089 C 
ATOM      7  C   UNL     1      -0.685   8.782 -14.203  1.00  0.00     0.158 C 
ATOM      8  O   UNL     1      -0.223   9.002 -15.355  1.00  0.00    -0.295 OA
ENDROOT
BRANCH   5   9
ATOM      9  C   UNL     1      -2.636  10.625 -11.432  1.00  0.00    -0.077 C 
ATOM     10  C   UNL     1      -1.907  11.748 -11.324  1.00  0.00     0.008 C 
ATOM     11  C   UNL     1      -3.903  10.510 -10.623  1.00  0.00     0.039 C 
ENDBRANCH   5   9
TORSDOF 1
ENDMDL
MODEL 7
REMARK VINA RESULT:    -4.109      6.632      8.948
REMARK INTER + INTRA:          -4.447
REMARK INTER:                  -4.350
REMARK INTRA:                  -0.097
REMARK UNBOUND:                -0.098
REMARK SMILES C=C(C)[C@@H]1CC=C(C)C(=O)C1
REMARK SMILES IDX 8 1 7 2 6 3 5 4 4 5 11 6 9 7 10 8 2 9 1 10 3 11
REMARK H PARENT
REMARK Flexibility Score: inf
ROOT
ATOM      1  C   UNL     1      -8.906  11.517  -9.807  1.00  0.00     0.048 C 
ATOM      2  C   UNL     1      -8.665  10.119 -10.306  1.00  0.00    -0.012 C 
ATOM      3  C   UNL     1      -9.706   9.291 -10.507  1.00  0.00    -0.019 C 
ATOM      4  C   UNL     1      -9.523   7.889 -11.022  1.00  0.00     0.036 C 
ATOM      5  C   UNL     1      -8.190   7.288 -10.533  1.00  0.00     0.025 C 
ATOM      6  C   UNL     1      -7.017   8.209 -10.917  1.00  0.00     0.089 C 
ATOM      7  C   UNL     1      -7.277   9.616 -10.456  1.00  0.00     0.158 C 
ATOM      8  O   UNL     1      -6.299  10.380 -10.234  1.00  0.00    -0.295 OA
ENDROOT
BRANCH   5   9
ATOM      9  C   UNL     1      -7.988   5.872 -11.056  1.00  0.00    -0.077 C 
ATOM     10  C   UNL     1      -8.953   5.232 -11.738  1.00  0.00     0.008 C 
ATOM     11  C   UNL     1      -6.683   5.157 -10.815  1.00  0.00     0.039 C 
ENDBRANCH   5   9
TORSDOF 1
ENDMDL
MODEL 8
REMARK VINA RESULT:    -4.098      5.373      7.796
REMARK INTER + INTRA:          -4.436
REMARK INTER:                  -4.340
REMARK INTRA:                  -0.096
REMARK UNBOUND:                -0.098
REMARK SMILES C=C(C)[C@@H]1CC=C(C)C(=O)C1
REMARK SMILES IDX 8 1 7 2 6 3 5 4 4 5 11 6 9 7 10 8 2 9 1 10 3 11
REMARK H PARENT
REMARK Flexibility Score: inf
ROOT
ATOM      1  C   UNL     1     -13.361   6.296 -14.685  1.00  0.00     0.048 C 
ATOM      2  C   UNL     1     -13.636   7.706 -15.129  1.00  0.00    -0.012 C 
ATOM      3  C   UNL     1     -14.487   7.933 -16.144  1.00  0.00    -0.019 C 
ATOM      4  C   UNL     1     -14.812   9.325 -16.617  1.00  0.00     0.036 C 
ATOM      5  C   UNL     1     -13.603  10.265 -16.450  1.00  0.00     0.025 C 
ATOM      6  C   UNL     1     -13.109  10.244 -14.991  1.00  0.00     0.089 C 
ATOM      7  C   UNL     1     -12.875   8.832 -14.532  1.00  0.00     0.158 C 
ATOM      8  O   UNL     1     -12.049   8.616 -13.603  1.00  0.00    -0.295 OA
ENDROOT
BRANCH   5   9
ATOM      9  C   UNL     1     -13.921  11.679 -16.915  1.00  0.00    -0.077 C 
ATOM     10  C   UNL     1     -14.097  12.682 -16.038  1.00  0.00     0.008 C 
ATOM     11  C   UNL     1     -14.046  11.980 -18.387  1.00  0.00     0.039 C 
ENDBRANCH   5   9
TORSDOF 1
ENDMDL
MODEL 9
REMARK VINA RESULT:    -4.025     12.133     13.843
REMARK INTER + INTRA:          -4.358
REMARK INTER:                  -4.262
REMARK INTRA:                  -0.096
REMARK UNBOUND:                -0.098
REMARK SMILES C=C(C)[C@@H]1CC=C(C)C(=O)C1
REMARK SMILES IDX 8 1 7 2 6 3 5 4 4 5 11 6 9 7 10 8 2 9 1 10 3 11
REMARK H PARENT
REMARK Flexibility Score: inf
ROOT
ATOM      1  C   UNL     1      -2.182  11.910 -10.970  1.00  0.00     0.048 C 
ATOM      2  C   UNL     1      -2.096  10.606 -11.714  1.00  0.00    -0.012 C 
ATOM      3  C   UNL     1      -2.837   9.557 -11.316  1.00  0.00    -0.019 C 
ATOM      4  C   UNL     1      -2.803   8.236 -12.035  1.00  0.00     0.036 C 
ATOM      5  C   UNL     1      -1.408   7.964 -12.630  1.00  0.00     0.025 C 
ATOM      6  C   UNL     1      -0.977   9.133 -13.536  1.00  0.00     0.089 C 
ATOM      7  C   UNL     1      -1.104  10.442 -12.806  1.00  0.00     0.158 C 
ATOM      8  O   UNL     1      -0.382  11.414 -13.158  1.00  0.00    -0.295 OA
ENDROOT
BRANCH   5   9
ATOM      9  C   UNL     1      -1.362   6.634 -13.370  1.00  0.00    -0.077 C 
ATOM     10  C   UNL     1      -2.289   5.684 -13.162  1.00  0.00     0.008 C 
ATOM     11  C   UNL     1      -0.261   6.359 -14.363  1.00  0.00     0.039 C 
ENDBRANCH   5   9
TORSDOF 1
ENDMDL
