MODEL 1
REMARK VINA RESULT:    -4.747      0.000      0.000
REMARK INTER + INTRA:          -9.273
REMARK INTER:                  -8.078
REMARK INTRA:                  -1.195
REMARK UNBOUND:                -1.195
REMARK SMILES CCCCCCCCCCCCCC(=O)[O-]
REMARK SMILES IDX 8 1 9 2 10 3 11 4 12 5 13 6 14 7 15 8 16 9 7 10 6 11 5 12
REMARK SMILES IDX 4 13 3 14 2 15 1 16
REMARK H PARENT
REMARK Flexibility Score: inf
ROOT
ATOM      1  C   UNL     1      11.458 -15.080  13.708  1.00  0.00     0.000 C 
ENDROOT
BRANCH   1   2
ATOM      2  C   UNL     1      10.738 -15.868  12.600  1.00  0.00     0.000 C 
BRANCH   2   3
ATOM      3  C   UNL     1      11.709 -16.412  11.539  1.00  0.00     0.000 C 
BRANCH   3   4
ATOM      4  C   UNL     1      13.183 -16.198  11.924  1.00  0.00     0.000 C 
BRANCH   4   5
ATOM      5  C   UNL     1      13.911 -17.516  12.250  1.00  0.00     0.006 C 
BRANCH   5   6
ATOM      6  C   UNL     1      15.085 -17.368  13.231  1.00  0.00     0.053 C 
BRANCH   6   7
ATOM      7  C   UNL     1      14.636 -16.883  14.575  1.00  0.00     0.041 C 
ATOM      8  O   UNL     1      13.969 -17.637  15.330  1.00  0.00    -0.550 OA
ATOM      9  O   UNL     1      14.927 -15.585  14.979  1.00  0.00    -0.550 OA
ENDBRANCH   6   7
ENDBRANCH   5   6
ENDBRANCH   4   5
ENDBRANCH   3   4
ENDBRANCH   2   3
ENDBRANCH   1   2
BRANCH   1  10
ATOM     10  C   UNL     1      11.047 -15.535  15.119  1.00  0.00     0.000 C 
BRANCH  10  11
ATOM     11  C   UNL     1      11.792 -14.776  16.227  1.00  0.00    -0.000 C 
BRANCH  11  12
ATOM     12  C   UNL     1      12.255 -13.400  15.733  1.00  0.00    -0.000 C 
BRANCH  12  13
ATOM     13  C   UNL     1      11.179 -12.332  15.983  1.00  0.00    -0.000 C 
BRANCH  13  14
ATOM     14  C   UNL     1      11.484 -11.012  15.244  1.00  0.00    -0.000 C 
BRANCH  14  15
ATOM     15  C   UNL     1      12.987 -10.749  15.047  1.00  0.00    -0.003 C 
ATOM     16  C   UNL     1      13.336  -9.262  15.025  1.00  0.00     0.004 C 
ENDBRANCH  14  15
ENDBRANCH  13  14
ENDBRANCH  12  13
ENDBRANCH  11  12
ENDBRANCH  10  11
ENDBRANCH   1  10
TORSDOF 12
ENDMDL
MODEL 2
REMARK VINA RESULT:    -4.538      2.454      5.321
REMARK INTER + INTRA:          -8.916
REMARK INTER:                  -7.648
REMARK INTRA:                  -1.268
REMARK UNBOUND:                -1.195
REMARK SMILES CCCCCCCCCCCCCC(=O)[O-]
REMARK SMILES IDX 8 1 9 2 10 3 11 4 12 5 13 6 14 7 15 8 16 9 7 10 6 11 5 12
REMARK SMILES IDX 4 13 3 14 2 15 1 16
REMARK H PARENT
REMARK Flexibility Score: inf
ROOT
ATOM      1  C   UNL     1      12.476 -15.759   9.991  1.00  0.00     0.000 C 
ENDROOT
BRANCH   1   2
ATOM      2  C   UNL     1      11.115 -16.244  10.522  1.00  0.00     0.000 C 
BRANCH   2   3
ATOM      3  C   UNL     1      10.579 -15.361  11.661  1.00  0.00     0.000 C 
BRANCH   3   4
ATOM      4  C   UNL     1      10.829 -15.975  13.050  1.00  0.00     0.000 C 
BRANCH   4   5
ATOM      5  C   UNL     1      11.520 -14.996  14.017  1.00  0.00     0.006 C 
BRANCH   5   6
ATOM      6  C   UNL     1      11.001 -15.058  15.463  1.00  0.00     0.053 C 
BRANCH   6   7
ATOM      7  C   UNL     1      11.484 -13.901  16.283  1.00  0.00     0.041 C 
ATOM      8  O   UNL     1      12.102 -14.103  17.361  1.00  0.00    -0.550 OA
ATOM      9  O   UNL     1      11.221 -12.600  15.873  1.00  0.00    -0.550 OA
ENDBRANCH   6   7
ENDBRANCH   5   6
ENDBRANCH   4   5
ENDBRANCH   3   4
ENDBRANCH   2   3
ENDBRANCH   1   2
BRANCH   1  10
ATOM     10  C   UNL     1      13.586 -16.809  10.164  1.00  0.00     0.000 C 
BRANCH  10  11
ATOM     11  C   UNL     1      13.605 -17.426  11.572  1.00  0.00    -0.000 C 
BRANCH  11  12
ATOM     12  C   UNL     1      14.538 -16.639  12.501  1.00  0.00    -0.000 C 
BRANCH  12  13
ATOM     13  C   UNL     1      15.719 -17.507  12.962  1.00  0.00    -0.000 C 
BRANCH  13  14
ATOM     14  C   UNL     1      15.800 -17.617  14.499  1.00  0.00    -0.000 C 
BRANCH  14  15
ATOM     15  C   UNL     1      14.424 -17.696  15.182  1.00  0.00    -0.003 C 
ATOM     16  C   UNL     1      14.205 -16.591  16.215  1.00  0.00     0.004 C 
ENDBRANCH  14  15
ENDBRANCH  13  14
ENDBRANCH  12  13
ENDBRANCH  11  12
ENDBRANCH  10  11
ENDBRANCH   1  10
TORSDOF 12
ENDMDL
MODEL 3
REMARK VINA RESULT:    -4.462      2.950      5.638
REMARK INTER + INTRA:          -8.786
REMARK INTER:                  -7.242
REMARK INTRA:                  -1.544
REMARK UNBOUND:                -1.195
REMARK SMILES CCCCCCCCCCCCCC(=O)[O-]
REMARK SMILES IDX 8 1 9 2 10 3 11 4 12 5 13 6 14 7 15 8 16 9 7 10 6 11 5 12
REMARK SMILES IDX 4 13 3 14 2 15 1 16
REMARK H PARENT
REMARK Flexibility Score: inf
ROOT
ATOM      1  C   UNL     1      12.270 -15.999  15.028  1.00  0.00     0.000 C 
ENDROOT
BRANCH   1   2
ATOM      2  C   UNL     1      11.216 -14.880  15.078  1.00  0.00     0.000 C 
BRANCH   2   3
ATOM      3  C   UNL     1      11.471 -13.881  16.219  1.00  0.00     0.000 C 
BRANCH   3   4
ATOM      4  C   UNL     1      11.752 -12.458  15.705  1.00  0.00     0.000 C 
BRANCH   4   5
ATOM      5  C   UNL     1      12.915 -12.409  14.696  1.00  0.00     0.006 C 
BRANCH   5   6
ATOM      6  C   UNL     1      14.103 -11.539  15.136  1.00  0.00     0.053 C 
BRANCH   6   7
ATOM      7  C   UNL     1      14.057 -10.174  14.523  1.00  0.00     0.041 C 
ATOM      8  O   UNL     1      13.293  -9.292  14.996  1.00  0.00    -0.550 OA
ATOM      9  O   UNL     1      14.834  -9.885  13.408  1.00  0.00    -0.550 OA
ENDBRANCH   6   7
ENDBRANCH   5   6
ENDBRANCH   4   5
ENDBRANCH   3   4
ENDBRANCH   2   3
ENDBRANCH   1   2
BRANCH   1  10
ATOM     10  C   UNL     1      13.203 -15.988  16.250  1.00  0.00     0.000 C 
BRANCH  10  11
ATOM     11  C   UNL     1      14.321 -17.037  16.153  1.00  0.00    -0.000 C 
BRANCH  11  12
ATOM     12  C   UNL     1      14.288 -17.749  14.795  1.00  0.00    -0.000 C 
BRANCH  12  13
ATOM     13  C   UNL     1      15.616 -17.568  14.044  1.00  0.00    -0.000 C 
BRANCH  13  14
ATOM     14  C   UNL     1      15.423 -16.894  12.669  1.00  0.00    -0.000 C 
BRANCH  14  15
ATOM     15  C   UNL     1      15.025 -15.411  12.761  1.00  0.00    -0.003 C 
ATOM     16  C   UNL     1      15.884 -14.622  13.748  1.00  0.00     0.004 C 
ENDBRANCH  14  15
ENDBRANCH  13  14
ENDBRANCH  12  13
ENDBRANCH  11  12
ENDBRANCH  10  11
ENDBRANCH   1  10
TORSDOF 12
ENDMDL
MODEL 4
REMARK VINA RESULT:    -4.450      2.825      4.422
REMARK INTER + INTRA:          -8.768
REMARK INTER:                  -7.024
REMARK INTRA:                  -1.744
REMARK UNBOUND:                -1.195
REMARK SMILES CCCCCCCCCCCCCC(=O)[O-]
REMARK SMILES IDX 8 1 9 2 10 3 11 4 12 5 13 6 14 7 15 8 16 9 7 10 6 11 5 12
REMARK SMILES IDX 4 13 3 14 2 15 1 16
REMARK H PARENT
REMARK Flexibility Score: inf
ROOT
ATOM      1  C   UNL     1      14.133 -16.610  16.386  1.00  0.00     0.000 C 
ENDROOT
BRANCH   1   2
ATOM      2  C   UNL     1      14.067 -17.608  15.216  1.00  0.00     0.000 C 
BRANCH   2   3
ATOM      3  C   UNL     1      15.351 -17.610  14.370  1.00  0.00     0.000 C 
BRANCH   3   4
ATOM      4  C   UNL     1      15.071 -17.389  12.874  1.00  0.00     0.000 C 
BRANCH   4   5
ATOM      5  C   UNL     1      14.659 -15.940  12.553  1.00  0.00     0.006 C 
BRANCH   5   6
ATOM      6  C   UNL     1      15.795 -14.912  12.685  1.00  0.00     0.053 C 
BRANCH   6   7
ATOM      7  C   UNL     1      15.587 -13.727  11.793  1.00  0.00     0.041 C 
ATOM      8  O   UNL     1      15.305 -13.893  10.577  1.00  0.00    -0.550 OA
ATOM      9  O   UNL     1      15.737 -12.441  12.296  1.00  0.00    -0.550 OA
ENDBRANCH   6   7
ENDBRANCH   5   6
ENDBRANCH   4   5
ENDBRANCH   3   4
ENDBRANCH   2   3
ENDBRANCH   1   2
BRANCH   1  10
ATOM     10  C   UNL     1      12.943 -15.636  16.399  1.00  0.00     0.000 C 
BRANCH  10  11
ATOM     11  C   UNL     1      13.141 -14.445  15.449  1.00  0.00    -0.000 C 
BRANCH  11  12
ATOM     12  C   UNL     1      11.933 -14.281  14.518  1.00  0.00    -0.000 C 
BRANCH  12  13
ATOM     13  C   UNL     1      11.041 -15.532  14.544  1.00  0.00    -0.000 C 
BRANCH  13  14
ATOM     14  C   UNL     1      11.115 -16.330  13.226  1.00  0.00    -0.000 C 
BRANCH  14  15
ATOM     15  C   UNL     1      10.556 -15.568  12.012  1.00  0.00    -0.003 C 
ATOM     16  C   UNL     1      11.197 -15.992  10.692  1.00  0.00     0.004 C 
ENDBRANCH  14  15
ENDBRANCH  13  14
ENDBRANCH  12  13
ENDBRANCH  11  12
ENDBRANCH  10  11
ENDBRANCH   1  10
TORSDOF 12
ENDMDL
MODEL 5
REMARK VINA RESULT:    -4.437      3.178      6.211
REMARK INTER + INTRA:          -8.744
REMARK INTER:                  -7.549
REMARK INTRA:                  -1.195
REMARK UNBOUND:                -1.195
REMARK SMILES CCCCCCCCCCCCCC(=O)[O-]
REMARK SMILES IDX 8 1 9 2 10 3 11 4 12 5 13 6 14 7 15 8 16 9 7 10 6 11 5 12
REMARK SMILES IDX 4 13 3 14 2 15 1 16
REMARK H PARENT
REMARK Flexibility Score: inf
ROOT
ATOM      1  C   UNL     1      12.121 -13.738  16.690  1.00  0.00     0.000 C 
ENDROOT
BRANCH   1   2
ATOM      2  C   UNL     1      11.291 -12.825  15.771  1.00  0.00     0.000 C 
BRANCH   2   3
ATOM      3  C   UNL     1      12.137 -11.717  15.121  1.00  0.00     0.000 C 
BRANCH   3   4
ATOM      4  C   UNL     1      13.619 -12.108  14.990  1.00  0.00     0.000 C 
BRANCH   4   5
ATOM      5  C   UNL     1      14.438 -11.077  14.190  1.00  0.00     0.006 C 
BRANCH   5   6
ATOM      6  C   UNL     1      14.153  -9.612  14.561  1.00  0.00     0.053 C 
BRANCH   6   7
ATOM      7  C   UNL     1      15.243  -8.695  14.101  1.00  0.00     0.041 C 
ATOM      8  O   UNL     1      15.635  -8.726  12.905  1.00  0.00    -0.550 OA
ATOM      9  O   UNL     1      15.849  -7.827  15.002  1.00  0.00    -0.550 OA
ENDBRANCH   6   7
ENDBRANCH   5   6
ENDBRANCH   4   5
ENDBRANCH   3   4
ENDBRANCH   2   3
ENDBRANCH   1   2
BRANCH   1  10
ATOM     10  C   UNL     1      12.073 -15.213  16.258  1.00  0.00     0.000 C 
BRANCH  10  11
ATOM     11  C   UNL     1      10.963 -15.495  15.233  1.00  0.00    -0.000 C 
BRANCH  11  12
ATOM     12  C   UNL     1      11.518 -16.250  14.019  1.00  0.00    -0.000 C 
BRANCH  12  13
ATOM     13  C   UNL     1      12.722 -15.513  13.412  1.00  0.00    -0.000 C 
BRANCH  13  14
ATOM     14  C   UNL     1      13.902 -16.463  13.121  1.00  0.00    -0.000 C 
BRANCH  14  15
ATOM     15  C   UNL     1      14.070 -17.576  14.170  1.00  0.00    -0.003 C 
ATOM     16  C   UNL     1      15.503 -17.700  14.685  1.00  0.00     0.004 C 
ENDBRANCH  14  15
ENDBRANCH  13  14
ENDBRANCH  12  13
ENDBRANCH  11  12
ENDBRANCH  10  11
ENDBRANCH   1  10
TORSDOF 12
ENDMDL
MODEL 6
REMARK VINA RESULT:    -4.425      1.444      3.111
REMARK INTER + INTRA:          -8.725
REMARK INTER:                  -7.845
REMARK INTRA:                  -0.880
REMARK UNBOUND:                -1.195
REMARK SMILES CCCCCCCCCCCCCC(=O)[O-]
REMARK SMILES IDX 8 1 9 2 10 3 11 4 12 5 13 6 14 7 15 8 16 9 7 10 6 11 5 12
REMARK SMILES IDX 4 13 3 14 2 15 1 16
REMARK H PARENT
REMARK Flexibility Score: inf
ROOT
ATOM      1  C   UNL     1      12.330 -13.130  15.544  1.00  0.00     0.000 C 
ENDROOT
BRANCH   1   2
ATOM      2  C   UNL     1      12.076 -14.502  16.193  1.00  0.00     0.000 C 
BRANCH   2   3
ATOM      3  C   UNL     1      11.249 -15.436  15.293  1.00  0.00     0.000 C 
BRANCH   3   4
ATOM      4  C   UNL     1      11.634 -15.316  13.808  1.00  0.00     0.000 C 
BRANCH   4   5
ATOM      5  C   UNL     1      12.738 -16.308  13.397  1.00  0.00     0.006 C 
BRANCH   5   6
ATOM      6  C   UNL     1      12.974 -17.449  14.401  1.00  0.00     0.053 C 
BRANCH   6   7
ATOM      7  C   UNL     1      14.371 -17.442  14.940  1.00  0.00     0.041 C 
ATOM      8  O   UNL     1      14.583 -17.145  16.145  1.00  0.00    -0.550 OA
ATOM      9  O   UNL     1      15.442 -17.731  14.104  1.00  0.00    -0.550 OA
ENDBRANCH   6   7
ENDBRANCH   5   6
ENDBRANCH   4   5
ENDBRANCH   3   4
ENDBRANCH   2   3
ENDBRANCH   1   2
BRANCH   1  10
ATOM     10  C   UNL     1      11.151 -12.161  15.729  1.00  0.00     0.000 C 
BRANCH  10  11
ATOM     11  C   UNL     1      11.491 -10.724  15.305  1.00  0.00    -0.000 C 
BRANCH  11  12
ATOM     12  C   UNL     1      12.997 -10.567  15.061  1.00  0.00    -0.000 C 
BRANCH  12  13
ATOM     13  C   UNL     1      13.416  -9.090  15.122  1.00  0.00    -0.000 C 
BRANCH  13  14
ATOM     14  C   UNL     1      14.743  -8.828  14.380  1.00  0.00    -0.000 C 
BRANCH  14  15
ATOM     15  C   UNL     1      15.492 -10.113  13.987  1.00  0.00    -0.003 C 
ATOM     16  C   UNL     1      15.583 -10.313  12.475  1.00  0.00     0.004 C 
ENDBRANCH  14  15
ENDBRANCH  13  14
ENDBRANCH  12  13
ENDBRANCH  11  12
ENDBRANCH  10  11
ENDBRANCH   1  10
TORSDOF 12
ENDMDL
MODEL 7
REMARK VINA RESULT:    -4.400      3.928      5.267
REMARK INTER + INTRA:          -8.681
REMARK INTER:                  -7.099
REMARK INTRA:                  -1.582
REMARK UNBOUND:                -1.195
REMARK SMILES CCCCCCCCCCCCCC(=O)[O-]
REMARK SMILES IDX 8 1 9 2 10 3 11 4 12 5 13 6 14 7 15 8 16 9 7 10 6 11 5 12
REMARK SMILES IDX 4 13 3 14 2 15 1 16
REMARK H PARENT
REMARK Flexibility Score: inf
ROOT
ATOM      1  C   UNL     1      15.896 -16.301  13.995  1.00  0.00     0.000 C 
ENDROOT
BRANCH   1   2
ATOM      2  C   UNL     1      15.098 -15.882  12.749  1.00  0.00     0.000 C 
BRANCH   2   3
ATOM      3  C   UNL     1      15.010 -17.004  11.701  1.00  0.00     0.000 C 
BRANCH   3   4
ATOM      4  C   UNL     1      13.563 -17.462  11.448  1.00  0.00     0.000 C 
BRANCH   4   5
ATOM      5  C   UNL     1      13.054 -17.082  10.045  1.00  0.00     0.006 C 
BRANCH   5   6
ATOM      6  C   UNL     1      11.591 -17.467   9.772  1.00  0.00     0.053 C 
BRANCH   6   7
ATOM      7  C   UNL     1      11.145 -17.046   8.406  1.00  0.00     0.041 C 
ATOM      8  O   UNL     1      10.157 -16.278   8.272  1.00  0.00    -0.550 OA
ATOM      9  O   UNL     1      11.801 -17.528   7.281  1.00  0.00    -0.550 OA
ENDBRANCH   6   7
ENDBRANCH   5   6
ENDBRANCH   4   5
ENDBRANCH   3   4
ENDBRANCH   2   3
ENDBRANCH   1   2
BRANCH   1  10
ATOM     10  C   UNL     1      15.505 -17.697  14.507  1.00  0.00     0.000 C 
BRANCH  10  11
ATOM     11  C   UNL     1      14.164 -17.700  15.256  1.00  0.00    -0.000 C 
BRANCH  11  12
ATOM     12  C   UNL     1      14.069 -16.507  16.215  1.00  0.00    -0.000 C 
BRANCH  12  13
ATOM     13  C   UNL     1      12.780 -15.705  15.975  1.00  0.00    -0.000 C 
BRANCH  13  14
ATOM     14  C   UNL     1      11.981 -16.234  14.766  1.00  0.00    -0.000 C 
BRANCH  14  15
ATOM     15  C   UNL     1      11.572 -15.134  13.770  1.00  0.00    -0.003 C 
ATOM     16  C   UNL     1      10.591 -15.625  12.707  1.00  0.00     0.004 C 
ENDBRANCH  14  15
ENDBRANCH  13  14
ENDBRANCH  12  13
ENDBRANCH  11  12
ENDBRANCH  10  11
ENDBRANCH   1  10
TORSDOF 12
ENDMDL
MODEL 8
REMARK VINA RESULT:    -4.360      1.900      3.585
REMARK INTER + INTRA:          -8.614
REMARK INTER:                  -7.164
REMARK INTRA:                  -1.451
REMARK UNBOUND:                -1.195
REMARK SMILES CCCCCCCCCCCCCC(=O)[O-]
REMARK SMILES IDX 8 1 9 2 10 3 11 4 12 5 13 6 14 7 15 8 16 9 7 10 6 11 5 12
REMARK SMILES IDX 4 13 3 14 2 15 1 16
REMARK H PARENT
REMARK Flexibility Score: inf
ROOT
ATOM      1  C   UNL     1      12.798 -15.969   9.827  1.00  0.00     0.000 C 
ENDROOT
BRANCH   1   2
ATOM      2  C   UNL     1      14.027 -16.858  10.085  1.00  0.00     0.000 C 
BRANCH   2   3
ATOM      3  C   UNL     1      14.028 -17.469  11.496  1.00  0.00     0.000 C 
BRANCH   3   4
ATOM      4  C   UNL     1      15.416 -17.423  12.157  1.00  0.00     0.000 C 
BRANCH   4   5
ATOM      5  C   UNL     1      15.458 -16.499  13.389  1.00  0.00     0.006 C 
BRANCH   5   6
ATOM      6  C   UNL     1      15.654 -17.230  14.727  1.00  0.00     0.053 C 
BRANCH   6   7
ATOM      7  C   UNL     1      14.369 -17.374  15.481  1.00  0.00     0.041 C 
ATOM      8  O   UNL     1      13.489 -18.182  15.085  1.00  0.00    -0.550 OA
ATOM      9  O   UNL     1      14.130 -16.592  16.605  1.00  0.00    -0.550 OA
ENDBRANCH   6   7
ENDBRANCH   5   6
ENDBRANCH   4   5
ENDBRANCH   3   4
ENDBRANCH   2   3
ENDBRANCH   1   2
BRANCH   1  10
ATOM     10  C   UNL     1      11.520 -16.526  10.475  1.00  0.00     0.000 C 
BRANCH  10  11
ATOM     11  C   UNL     1      10.628 -15.425  11.070  1.00  0.00    -0.000 C 
BRANCH  11  12
ATOM     12  C   UNL     1      10.250 -15.751  12.520  1.00  0.00    -0.000 C 
BRANCH  12  13
ATOM     13  C   UNL     1      11.494 -15.792  13.420  1.00  0.00    -0.000 C 
BRANCH  13  14
ATOM     14  C   UNL     1      11.161 -15.476  14.893  1.00  0.00    -0.000 C 
BRANCH  14  15
ATOM     15  C   UNL     1      11.695 -14.112  15.365  1.00  0.00    -0.003 C 
ATOM     16  C   UNL     1      13.088 -13.795  14.823  1.00  0.00     0.004 C 
ENDBRANCH  14  15
ENDBRANCH  13  14
ENDBRANCH  12  13
ENDBRANCH  11  12
ENDBRANCH  10  11
ENDBRANCH   1  10
TORSDOF 12
ENDMDL
MODEL 9
REMARK VINA RESULT:    -4.360      2.959      5.259
REMARK INTER + INTRA:          -8.613
REMARK INTER:                  -7.069
REMARK INTRA:                  -1.544
REMARK UNBOUND:                -1.195
REMARK SMILES CCCCCCCCCCCCCC(=O)[O-]
REMARK SMILES IDX 8 1 9 2 10 3 11 4 12 5 13 6 14 7 15 8 16 9 7 10 6 11 5 12
REMARK SMILES IDX 4 13 3 14 2 15 1 16
REMARK H PARENT
REMARK Flexibility Score: inf
ROOT
ATOM      1  C   UNL     1      15.201 -16.726  12.296  1.00  0.00     0.000 C 
ENDROOT
BRANCH   1   2
ATOM      2  C   UNL     1      14.959 -15.207  12.336  1.00  0.00     0.000 C 
BRANCH   2   3
ATOM      3  C   UNL     1      15.727 -14.517  13.475  1.00  0.00     0.000 C 
BRANCH   3   4
ATOM      4  C   UNL     1      14.802 -13.720  14.411  1.00  0.00     0.000 C 
BRANCH   4   5
ATOM      5  C   UNL     1      15.123 -12.213  14.423  1.00  0.00     0.006 C 
BRANCH   5   6
ATOM      6  C   UNL     1      13.909 -11.307  14.687  1.00  0.00     0.053 C 
BRANCH   6   7
ATOM      7  C   UNL     1      14.201  -9.872  14.373  1.00  0.00     0.041 C 
ATOM      8  O   UNL     1      13.787  -8.960  15.136  1.00  0.00    -0.550 OA
ATOM      9  O   UNL     1      14.902  -9.541  13.220  1.00  0.00    -0.550 OA
ENDBRANCH   6   7
ENDBRANCH   5   6
ENDBRANCH   4   5
ENDBRANCH   3   4
ENDBRANCH   2   3
ENDBRANCH   1   2
BRANCH   1  10
ATOM     10  C   UNL     1      14.025 -17.528  12.877  1.00  0.00     0.000 C 
BRANCH  10  11
ATOM     11  C   UNL     1      14.131 -17.720  14.398  1.00  0.00    -0.000 C 
BRANCH  11  12
ATOM     12  C   UNL     1      13.051 -16.913  15.129  1.00  0.00    -0.000 C 
BRANCH  12  13
ATOM     13  C   UNL     1      11.915 -16.517  14.174  1.00  0.00    -0.000 C 
BRANCH  13  14
ATOM     14  C   UNL     1      11.313 -15.139  14.521  1.00  0.00    -0.000 C 
BRANCH  14  15
ATOM     15  C   UNL     1      11.468 -14.756  16.002  1.00  0.00    -0.003 C 
ATOM     16  C   UNL     1      11.381 -13.249  16.242  1.00  0.00     0.004 C 
ENDBRANCH  14  15
ENDBRANCH  13  14
ENDBRANCH  12  13
ENDBRANCH  11  12
ENDBRANCH  10  11
ENDBRANCH   1  10
TORSDOF 12
ENDMDL
