MODEL 1
REMARK VINA RESULT:    -4.117      0.000      0.000
REMARK INTER + INTRA:          -4.117
REMARK INTER:                  -4.117
REMARK INTRA:                   0.000
REMARK UNBOUND:                 0.000
REMARK SMILES CC(C)=C1CC[C@@H](C)CC1=O
REMARK SMILES IDX 8 1 7 2 6 3 5 4 4 5 2 6 1 7 3 8 10 9 11 10 9 11
REMARK H PARENT
REMARK Flexibility Score: inf
ROOT
ATOM      1  C   UNL     1       2.266 -16.364  11.370  1.00  0.00     0.008 C 
ATOM      2  C   UNL     1       2.103 -15.019  10.653  1.00  0.00    -0.006 C 
ATOM      3  C   UNL     1       0.740 -14.946   9.945  1.00  0.00     0.008 C 
ATOM      4  C   UNL     1       0.516 -13.568   9.307  1.00  0.00     0.039 C 
ATOM      5  C   UNL     1       1.668 -13.149   8.403  1.00  0.00    -0.006 C 
ATOM      6  C   UNL     1       1.459 -12.370   7.302  1.00  0.00    -0.070 C 
ATOM      7  C   UNL     1       0.076 -11.875   6.943  1.00  0.00     0.039 C 
ATOM      8  C   UNL     1       2.585 -11.995   6.367  1.00  0.00     0.039 C 
ATOM      9  C   UNL     1       3.036 -13.542   8.859  1.00  0.00     0.159 C 
ATOM     10  O   UNL     1       4.040 -12.822   8.611  1.00  0.00    -0.295 OA
ATOM     11  C   UNL     1       3.234 -14.811   9.636  1.00  0.00     0.084 C 
ENDROOT
TORSDOF 0
ENDMDL
MODEL 2
REMARK VINA RESULT:    -3.848      2.104      5.034
REMARK INTER + INTRA:          -3.848
REMARK INTER:                  -3.848
REMARK INTRA:                   0.000
REMARK UNBOUND:                 0.000
REMARK SMILES CC(C)=C1CC[C@@H](C)CC1=O
REMARK SMILES IDX 8 1 7 2 6 3 5 4 4 5 2 6 1 7 3 8 10 9 11 10 9 11
REMARK H PARENT
REMARK Flexibility Score: inf
ROOT
ATOM      1  C   UNL     1       0.247 -13.378   7.882  1.00  0.00     0.008 C 
ATOM      2  C   UNL     1       1.039 -13.876   9.096  1.00  0.00    -0.006 C 
ATOM      3  C   UNL     1       0.807 -15.380   9.315  1.00  0.00     0.008 C 
ATOM      4  C   UNL     1       1.671 -15.917  10.463  1.00  0.00     0.039 C 
ATOM      5  C   UNL     1       1.509 -15.109  11.744  1.00  0.00    -0.006 C 
ATOM      6  C   UNL     1       1.622 -15.694  12.972  1.00  0.00    -0.070 C 
ATOM      7  C   UNL     1       1.930 -17.167  13.112  1.00  0.00     0.039 C 
ATOM      8  C   UNL     1       1.407 -14.914  14.248  1.00  0.00     0.039 C 
ATOM      9  C   UNL     1       1.338 -13.635  11.571  1.00  0.00     0.159 C 
ATOM     10  O   UNL     1       1.777 -12.820  12.426  1.00  0.00    -0.295 OA
ATOM     11  C   UNL     1       0.639 -13.095  10.357  1.00  0.00     0.084 C 
ENDROOT
TORSDOF 0
ENDMDL
MODEL 3
REMARK VINA RESULT:    -3.803      2.228      3.188
REMARK INTER + INTRA:          -3.803
REMARK INTER:                  -3.803
REMARK INTRA:                   0.000
REMARK UNBOUND:                 0.000
REMARK SMILES CC(C)=C1CC[C@@H](C)CC1=O
REMARK SMILES IDX 8 1 7 2 6 3 5 4 4 5 2 6 1 7 3 8 10 9 11 10 9 11
REMARK H PARENT
REMARK Flexibility Score: inf
ROOT
ATOM      1  C   UNL     1       3.365 -15.610  13.822  1.00  0.00     0.008 C 
ATOM      2  C   UNL     1       3.038 -15.366  12.345  1.00  0.00    -0.006 C 
ATOM      3  C   UNL     1       2.409 -13.976  12.152  1.00  0.00     0.008 C 
ATOM      4  C   UNL     1       2.168 -13.674  10.667  1.00  0.00     0.039 C 
ATOM      5  C   UNL     1       1.382 -14.774   9.966  1.00  0.00    -0.006 C 
ATOM      6  C   UNL     1       0.535 -14.493   8.933  1.00  0.00    -0.070 C 
ATOM      7  C   UNL     1       0.356 -13.079   8.429  1.00  0.00     0.039 C 
ATOM      8  C   UNL     1      -0.292 -15.568   8.267  1.00  0.00     0.039 C 
ATOM      9  C   UNL     1       1.683 -16.172  10.399  1.00  0.00     0.159 C 
ATOM     10  O   UNL     1       1.612 -17.136   9.591  1.00  0.00    -0.295 OA
ATOM     11  C   UNL     1       2.086 -16.450  11.818  1.00  0.00     0.084 C 
ENDROOT
TORSDOF 0
ENDMDL
MODEL 4
REMARK VINA RESULT:    -3.761      1.081      4.155
REMARK INTER + INTRA:          -3.761
REMARK INTER:                  -3.761
REMARK INTRA:                   0.000
REMARK UNBOUND:                 0.000
REMARK SMILES CC(C)=C1CC[C@@H](C)CC1=O
REMARK SMILES IDX 8 1 7 2 6 3 5 4 4 5 2 6 1 7 3 8 10 9 11 10 9 11
REMARK H PARENT
REMARK Flexibility Score: inf
ROOT
ATOM      1  C   UNL     1       0.346 -11.999   7.546  1.00  0.00     0.008 C 
ATOM      2  C   UNL     1       1.008 -13.261   8.112  1.00  0.00    -0.006 C 
ATOM      3  C   UNL     1       0.243 -13.765   9.347  1.00  0.00     0.008 C 
ATOM      4  C   UNL     1       0.830 -15.084   9.867  1.00  0.00     0.039 C 
ATOM      5  C   UNL     1       2.333 -15.001  10.103  1.00  0.00    -0.006 C 
ATOM      6  C   UNL     1       2.936 -15.725  11.091  1.00  0.00    -0.070 C 
ATOM      7  C   UNL     1       2.141 -16.653  11.980  1.00  0.00     0.039 C 
ATOM      8  C   UNL     1       4.417 -15.609  11.371  1.00  0.00     0.039 C 
ATOM      9  C   UNL     1       3.106 -14.180   9.124  1.00  0.00     0.159 C 
ATOM     10  O   UNL     1       4.291 -14.476   8.814  1.00  0.00    -0.295 OA
ATOM     11  C   UNL     1       2.473 -12.981   8.481  1.00  0.00     0.084 C 
ENDROOT
TORSDOF 0
ENDMDL
MODEL 5
REMARK VINA RESULT:    -3.738      2.406      3.322
REMARK INTER + INTRA:          -3.738
REMARK INTER:                  -3.738
REMARK INTRA:                   0.000
REMARK UNBOUND:                 0.000
REMARK SMILES CC(C)=C1CC[C@@H](C)CC1=O
REMARK SMILES IDX 8 1 7 2 6 3 5 4 4 5 2 6 1 7 3 8 10 9 11 10 9 11
REMARK H PARENT
REMARK Flexibility Score: inf
ROOT
ATOM      1  C   UNL     1       2.605 -13.840  14.199  1.00  0.00     0.008 C 
ATOM      2  C   UNL     1       2.479 -14.073  12.689  1.00  0.00    -0.006 C 
ATOM      3  C   UNL     1       1.758 -12.893  12.018  1.00  0.00     0.008 C 
ATOM      4  C   UNL     1       1.712 -13.061  10.493  1.00  0.00     0.039 C 
ATOM      5  C   UNL     1       1.144 -14.409  10.071  1.00  0.00    -0.006 C 
ATOM      6  C   UNL     1       0.437 -14.550   8.912  1.00  0.00    -0.070 C 
ATOM      7  C   UNL     1       0.203 -13.376   7.989  1.00  0.00     0.039 C 
ATOM      8  C   UNL     1      -0.179 -15.870   8.510  1.00  0.00     0.039 C 
ATOM      9  C   UNL     1       1.507 -15.573  10.935  1.00  0.00     0.159 C 
ATOM     10  O   UNL     1       1.647 -16.728  10.451  1.00  0.00    -0.295 OA
ATOM     11  C   UNL     1       1.721 -15.379  12.408  1.00  0.00     0.084 C 
ENDROOT
TORSDOF 0
ENDMDL
MODEL 6
REMARK VINA RESULT:    -3.642      2.000      2.986
REMARK INTER + INTRA:          -3.642
REMARK INTER:                  -3.642
REMARK INTRA:                   0.000
REMARK UNBOUND:                 0.000
REMARK SMILES CC(C)=C1CC[C@@H](C)CC1=O
REMARK SMILES IDX 8 1 7 2 6 3 5 4 4 5 2 6 1 7 3 8 10 9 11 10 9 11
REMARK H PARENT
REMARK Flexibility Score: inf
ROOT
ATOM      1  C   UNL     1       4.616 -14.772  12.972  1.00  0.00     0.008 C 
ATOM      2  C   UNL     1       3.246 -14.700  12.286  1.00  0.00    -0.006 C 
ATOM      3  C   UNL     1       2.978 -15.979  11.477  1.00  0.00     0.008 C 
ATOM      4  C   UNL     1       1.570 -15.969  10.867  1.00  0.00     0.039 C 
ATOM      5  C   UNL     1       1.289 -14.703  10.068  1.00  0.00    -0.006 C 
ATOM      6  C   UNL     1       0.467 -14.718   8.979  1.00  0.00    -0.070 C 
ATOM      7  C   UNL     1      -0.214 -15.991   8.530  1.00  0.00     0.039 C 
ATOM      8  C   UNL     1       0.226 -13.481   8.146  1.00  0.00     0.039 C 
ATOM      9  C   UNL     1       1.870 -13.440  10.616  1.00  0.00     0.159 C 
ATOM     10  O   UNL     1       1.286 -12.333  10.469  1.00  0.00    -0.295 OA
ATOM     11  C   UNL     1       3.170 -13.472  11.366  1.00  0.00     0.084 C 
ENDROOT
TORSDOF 0
ENDMDL
MODEL 7
REMARK VINA RESULT:    -3.627      2.381      3.907
REMARK INTER + INTRA:          -3.627
REMARK INTER:                  -3.627
REMARK INTRA:                   0.000
REMARK UNBOUND:                 0.000
REMARK SMILES CC(C)=C1CC[C@@H](C)CC1=O
REMARK SMILES IDX 8 1 7 2 6 3 5 4 4 5 2 6 1 7 3 8 10 9 11 10 9 11
REMARK H PARENT
REMARK Flexibility Score: inf
ROOT
ATOM      1  C   UNL     1      -0.458 -16.050   8.272  1.00  0.00     0.008 C 
ATOM      2  C   UNL     1       0.373 -15.418   9.395  1.00  0.00    -0.006 C 
ATOM      3  C   UNL     1       0.858 -14.017   8.987  1.00  0.00     0.008 C 
ATOM      4  C   UNL     1       1.605 -13.328  10.137  1.00  0.00     0.039 C 
ATOM      5  C   UNL     1       2.723 -14.191  10.707  1.00  0.00    -0.006 C 
ATOM      6  C   UNL     1       3.858 -13.633  11.221  1.00  0.00    -0.070 C 
ATOM      7  C   UNL     1       4.045 -12.134  11.261  1.00  0.00     0.039 C 
ATOM      8  C   UNL     1       4.997 -14.480  11.738  1.00  0.00     0.039 C 
ATOM      9  C   UNL     1       2.449 -15.658  10.775  1.00  0.00     0.159 C 
ATOM     10  O   UNL     1       2.935 -16.373  11.692  1.00  0.00    -0.295 OA
ATOM     11  C   UNL     1       1.575 -16.309   9.742  1.00  0.00     0.084 C 
ENDROOT
TORSDOF 0
ENDMDL
MODEL 8
REMARK VINA RESULT:    -3.608      1.541      4.520
REMARK INTER + INTRA:          -3.608
REMARK INTER:                  -3.608
REMARK INTRA:                   0.000
REMARK UNBOUND:                 0.000
REMARK SMILES CC(C)=C1CC[C@@H](C)CC1=O
REMARK SMILES IDX 8 1 7 2 6 3 5 4 4 5 2 6 1 7 3 8 10 9 11 10 9 11
REMARK H PARENT
REMARK Flexibility Score: inf
ROOT
ATOM      1  C   UNL     1       0.255 -11.875   6.166  1.00  0.00     0.008 C 
ATOM      2  C   UNL     1       1.058 -12.301   7.400  1.00  0.00    -0.006 C 
ATOM      3  C   UNL     1       2.511 -12.624   7.016  1.00  0.00     0.008 C 
ATOM      4  C   UNL     1       3.355 -12.955   8.255  1.00  0.00     0.039 C 
ATOM      5  C   UNL     1       2.724 -14.038   9.119  1.00  0.00    -0.006 C 
ATOM      6  C   UNL     1       3.492 -14.911   9.835  1.00  0.00    -0.070 C 
ATOM      7  C   UNL     1       5.001 -14.828   9.814  1.00  0.00     0.039 C 
ATOM      8  C   UNL     1       2.879 -16.025  10.652  1.00  0.00     0.039 C 
ATOM      9  C   UNL     1       1.234 -14.009   9.224  1.00  0.00     0.159 C 
ATOM     10  O   UNL     1       0.645 -14.381  10.274  1.00  0.00    -0.295 OA
ATOM     11  C   UNL     1       0.408 -13.522   8.069  1.00  0.00     0.084 C 
ENDROOT
TORSDOF 0
ENDMDL
MODEL 9
REMARK VINA RESULT:    -3.586      1.813      4.162
REMARK INTER + INTRA:          -3.586
REMARK INTER:                  -3.586
REMARK INTRA:                   0.000
REMARK UNBOUND:                 0.000
REMARK SMILES CC(C)=C1CC[C@@H](C)CC1=O
REMARK SMILES IDX 8 1 7 2 6 3 5 4 4 5 2 6 1 7 3 8 10 9 11 10 9 11
REMARK H PARENT
REMARK Flexibility Score: inf
ROOT
ATOM      1  C   UNL     1       5.849 -11.876   7.777  1.00  0.00     0.008 C 
ATOM      2  C   UNL     1       4.673 -12.437   8.583  1.00  0.00    -0.006 C 
ATOM      3  C   UNL     1       5.011 -13.832   9.134  1.00  0.00     0.008 C 
ATOM      4  C   UNL     1       3.884 -14.368  10.028  1.00  0.00     0.039 C 
ATOM      5  C   UNL     1       2.525 -14.324   9.344  1.00  0.00    -0.006 C 
ATOM      6  C   UNL     1       1.564 -15.255   9.614  1.00  0.00    -0.070 C 
ATOM      7  C   UNL     1       1.803 -16.359  10.619  1.00  0.00     0.039 C 
ATOM      8  C   UNL     1       0.232 -15.254   8.901  1.00  0.00     0.039 C 
ATOM      9  C   UNL     1       2.273 -13.146   8.460  1.00  0.00     0.159 C 
ATOM     10  O   UNL     1       1.118 -12.661   8.329  1.00  0.00    -0.295 OA
ATOM     11  C   UNL     1       3.409 -12.510   7.712  1.00  0.00     0.084 C 
ENDROOT
TORSDOF 0
ENDMDL
