MODEL 1
REMARK VINA RESULT:    -3.761      0.000      0.000
REMARK INTER + INTRA:          -7.408
REMARK INTER:                  -5.960
REMARK INTRA:                  -1.448
REMARK UNBOUND:                -1.448
REMARK SMILES CCCCCCCCCCCC(=O)[O-]
REMARK SMILES IDX 7 1 8 2 9 3 10 4 11 5 12 6 13 7 14 8 6 9 5 10 4 11 3 12 2 13
REMARK SMILES IDX 1 14
REMARK H PARENT
REMARK Flexibility Score: inf
ROOT
ATOM      1  C   UNL     1       1.172  10.673 -17.191  1.00  0.00     0.000 C 
ENDROOT
BRANCH   1   2
ATOM      2  C   UNL     1       1.956  10.344 -18.470  1.00  0.00     0.000 C 
BRANCH   2   3
ATOM      3  C   UNL     1       3.417   9.961 -18.184  1.00  0.00     0.000 C 
BRANCH   3   4
ATOM      4  C   UNL     1       4.109   9.321 -19.400  1.00  0.00     0.006 C 
BRANCH   4   5
ATOM      5  C   UNL     1       3.101   8.827 -20.446  1.00  0.00     0.053 C 
BRANCH   5   6
ATOM      6  C   UNL     1       3.543   7.542 -21.078  1.00  0.00     0.041 C 
ATOM      7  O   UNL     1       3.418   6.454 -20.455  1.00  0.00    -0.550 OA
ATOM      8  O   UNL     1       4.124   7.549 -22.339  1.00  0.00    -0.550 OA
ENDBRANCH   5   6
ENDBRANCH   4   5
ENDBRANCH   3   4
ENDBRANCH   2   3
ENDBRANCH   1   2
BRANCH   1   9
ATOM      9  C   UNL     1       1.990  10.326 -15.937  1.00  0.00     0.000 C 
BRANCH   9  10
ATOM     10  C   UNL     1       1.176   9.503 -14.917  1.00  0.00    -0.000 C 
BRANCH  10  11
ATOM     11  C   UNL     1       0.775   8.104 -15.425  1.00  0.00    -0.000 C 
BRANCH  11  12
ATOM     12  C   UNL     1       1.932   7.264 -15.992  1.00  0.00    -0.000 C 
BRANCH  12  13
ATOM     13  C   UNL     1       1.676   6.791 -17.431  1.00  0.00    -0.003 C 
ATOM     14  C   UNL     1       0.181   6.733 -17.730  1.00  0.00     0.004 C 
ENDBRANCH  12  13
ENDBRANCH  11  12
ENDBRANCH  10  11
ENDBRANCH   9  10
ENDBRANCH   1   9
TORSDOF 10
ENDMDL
MODEL 2
REMARK VINA RESULT:    -3.744     23.246     25.406
REMARK INTER + INTRA:          -7.380
REMARK INTER:                  -6.349
REMARK INTRA:                  -1.031
REMARK UNBOUND:                -1.448
REMARK SMILES CCCCCCCCCCCC(=O)[O-]
REMARK SMILES IDX 7 1 8 2 9 3 10 4 11 5 12 6 13 7 14 8 6 9 5 10 4 11 3 12 2 13
REMARK SMILES IDX 1 14
REMARK H PARENT
REMARK Flexibility Score: inf
ROOT
ATOM      1  C   UNL     1     -14.319  -3.854 -33.464  1.00  0.00     0.000 C 
ENDROOT
BRANCH   1   2
ATOM      2  C   UNL     1     -13.931  -4.556 -32.154  1.00  0.00     0.000 C 
BRANCH   2   3
ATOM      3  C   UNL     1     -14.873  -4.198 -30.993  1.00  0.00     0.000 C 
BRANCH   3   4
ATOM      4  C   UNL     1     -15.540  -5.437 -30.369  1.00  0.00     0.006 C 
BRANCH   4   5
ATOM      5  C   UNL     1     -15.210  -6.722 -31.140  1.00  0.00     0.053 C 
BRANCH   5   6
ATOM      6  C   UNL     1     -14.321  -7.631 -30.348  1.00  0.00     0.041 C 
ATOM      7  O   UNL     1     -14.523  -8.875 -30.351  1.00  0.00    -0.550 OA
ATOM      8  O   UNL     1     -13.293  -7.104 -29.578  1.00  0.00    -0.550 OA
ENDBRANCH   5   6
ENDBRANCH   4   5
ENDBRANCH   3   4
ENDBRANCH   2   3
ENDBRANCH   1   2
BRANCH   1   9
ATOM      9  C   UNL     1     -15.565  -2.977 -33.272  1.00  0.00     0.000 C 
BRANCH   9  10
ATOM     10  C   UNL     1     -15.442  -1.619 -33.995  1.00  0.00    -0.000 C 
BRANCH  10  11
ATOM     11  C   UNL     1     -15.200  -0.428 -33.045  1.00  0.00    -0.000 C 
BRANCH  11  12
ATOM     12  C   UNL     1     -15.509  -0.707 -31.565  1.00  0.00    -0.000 C 
BRANCH  12  13
ATOM     13  C   UNL     1     -14.298  -0.475 -30.649  1.00  0.00    -0.003 C 
ATOM     14  C   UNL     1     -13.389   0.615 -31.209  1.00  0.00     0.004 C 
ENDBRANCH  12  13
ENDBRANCH  11  12
ENDBRANCH  10  11
ENDBRANCH   9  10
ENDBRANCH   1   9
TORSDOF 10
ENDMDL
MODEL 3
REMARK VINA RESULT:    -3.667      1.947      4.687
REMARK INTER + INTRA:          -7.259
REMARK INTER:                  -6.246
REMARK INTRA:                  -1.012
REMARK UNBOUND:                -1.448
REMARK SMILES CCCCCCCCCCCC(=O)[O-]
REMARK SMILES IDX 7 1 8 2 9 3 10 4 11 5 12 6 13 7 14 8 6 9 5 10 4 11 3 12 2 13
REMARK SMILES IDX 1 14
REMARK H PARENT
REMARK Flexibility Score: inf
ROOT
ATOM      1  C   UNL     1       1.910  10.401 -18.207  1.00  0.00     0.000 C 
ENDROOT
BRANCH   1   2
ATOM      2  C   UNL     1       1.134  10.697 -16.914  1.00  0.00     0.000 C 
BRANCH   2   3
ATOM      3  C   UNL     1       1.889  10.240 -15.656  1.00  0.00     0.000 C 
BRANCH   3   4
ATOM      4  C   UNL     1       1.186   9.079 -14.932  1.00  0.00     0.006 C 
BRANCH   4   5
ATOM      5  C   UNL     1       1.721   7.711 -15.377  1.00  0.00     0.053 C 
BRANCH   5   6
ATOM      6  C   UNL     1       1.007   7.204 -16.593  1.00  0.00     0.041 C 
ATOM      7  O   UNL     1       1.643   6.589 -17.490  1.00  0.00    -0.550 OA
ATOM      8  O   UNL     1      -0.352   7.442 -16.753  1.00  0.00    -0.550 OA
ENDBRANCH   5   6
ENDBRANCH   4   5
ENDBRANCH   3   4
ENDBRANCH   2   3
ENDBRANCH   1   2
BRANCH   1   9
ATOM      9  C   UNL     1       3.365  10.013 -17.900  1.00  0.00     0.000 C 
BRANCH   9  10
ATOM     10  C   UNL     1       4.125   9.551 -19.162  1.00  0.00    -0.000 C 
BRANCH  10  11
ATOM     11  C   UNL     1       3.435   8.397 -19.916  1.00  0.00    -0.000 C 
BRANCH  11  12
ATOM     12  C   UNL     1       3.774   8.307 -21.413  1.00  0.00    -0.000 C 
BRANCH  12  13
ATOM     13  C   UNL     1       2.789   9.087 -22.296  1.00  0.00    -0.003 C 
ATOM     14  C   UNL     1       1.360   8.939 -21.783  1.00  0.00     0.004 C 
ENDBRANCH  12  13
ENDBRANCH  11  12
ENDBRANCH  10  11
ENDBRANCH   9  10
ENDBRANCH   1   9
TORSDOF 10
ENDMDL
MODEL 4
REMARK VINA RESULT:    -3.636      1.993      4.236
REMARK INTER + INTRA:          -7.210
REMARK INTER:                  -6.043
REMARK INTRA:                  -1.167
REMARK UNBOUND:                -1.448
REMARK SMILES CCCCCCCCCCCC(=O)[O-]
REMARK SMILES IDX 7 1 8 2 9 3 10 4 11 5 12 6 13 7 14 8 6 9 5 10 4 11 3 12 2 13
REMARK SMILES IDX 1 14
REMARK H PARENT
REMARK Flexibility Score: inf
ROOT
ATOM      1  C   UNL     1       1.421  10.164 -16.048  1.00  0.00     0.000 C 
ENDROOT
BRANCH   1   2
ATOM      2  C   UNL     1       1.269   9.152 -14.903  1.00  0.00     0.000 C 
BRANCH   2   3
ATOM      3  C   UNL     1       1.471   7.701 -15.367  1.00  0.00     0.000 C 
BRANCH   3   4
ATOM      4  C   UNL     1       0.616   7.350 -16.598  1.00  0.00     0.006 C 
BRANCH   4   5
ATOM      5  C   UNL     1       1.388   6.498 -17.615  1.00  0.00     0.053 C 
BRANCH   5   6
ATOM      6  C   UNL     1       0.501   5.493 -18.283  1.00  0.00     0.041 C 
ATOM      7  O   UNL     1       0.980   4.407 -18.704  1.00  0.00    -0.550 OA
ATOM      8  O   UNL     1      -0.847   5.770 -18.473  1.00  0.00    -0.550 OA
ENDBRANCH   5   6
ENDBRANCH   4   5
ENDBRANCH   3   4
ENDBRANCH   2   3
ENDBRANCH   1   2
BRANCH   1   9
ATOM      9  C   UNL     1       2.898  10.349 -16.430  1.00  0.00     0.000 C 
BRANCH   9  10
ATOM     10  C   UNL     1       3.148  10.107 -17.934  1.00  0.00    -0.000 C 
BRANCH  10  11
ATOM     11  C   UNL     1       1.857   9.985 -18.767  1.00  0.00    -0.000 C 
BRANCH  11  12
ATOM     12  C   UNL     1       2.002   9.184 -20.073  1.00  0.00    -0.000 C 
BRANCH  12  13
ATOM     13  C   UNL     1       3.435   8.686 -20.310  1.00  0.00    -0.003 C 
ATOM     14  C   UNL     1       3.892   8.989 -21.734  1.00  0.00     0.004 C 
ENDBRANCH  12  13
ENDBRANCH  11  12
ENDBRANCH  10  11
ENDBRANCH   9  10
ENDBRANCH   1   9
TORSDOF 10
ENDMDL
MODEL 5
REMARK VINA RESULT:    -3.614      1.405      1.714
REMARK INTER + INTRA:          -7.174
REMARK INTER:                  -5.975
REMARK INTRA:                  -1.200
REMARK UNBOUND:                -1.448
REMARK SMILES CCCCCCCCCCCC(=O)[O-]
REMARK SMILES IDX 7 1 8 2 9 3 10 4 11 5 12 6 13 7 14 8 6 9 5 10 4 11 3 12 2 13
REMARK SMILES IDX 1 14
REMARK H PARENT
REMARK Flexibility Score: inf
ROOT
ATOM      1  C   UNL     1       1.911  10.481 -18.117  1.00  0.00     0.000 C 
ENDROOT
BRANCH   1   2
ATOM      2  C   UNL     1       3.353  10.053 -17.804  1.00  0.00     0.000 C 
BRANCH   2   3
ATOM      3  C   UNL     1       4.124   9.618 -19.060  1.00  0.00     0.000 C 
BRANCH   3   4
ATOM      4  C   UNL     1       3.428   8.473 -19.815  1.00  0.00     0.006 C 
BRANCH   4   5
ATOM      5  C   UNL     1       3.426   8.697 -21.333  1.00  0.00     0.053 C 
BRANCH   5   6
ATOM      6  C   UNL     1       2.043   8.938 -21.857  1.00  0.00     0.041 C 
ATOM      7  O   UNL     1       1.046   8.792 -21.101  1.00  0.00    -0.550 OA
ATOM      8  O   UNL     1       1.853   9.288 -23.187  1.00  0.00    -0.550 OA
ENDBRANCH   5   6
ENDBRANCH   4   5
ENDBRANCH   3   4
ENDBRANCH   2   3
ENDBRANCH   1   2
BRANCH   1   9
ATOM      9  C   UNL     1       1.114  10.722 -16.825  1.00  0.00     0.000 C 
BRANCH   9  10
ATOM     10  C   UNL     1       1.809  10.117 -15.587  1.00  0.00    -0.000 C 
BRANCH  10  11
ATOM     11  C   UNL     1       1.015   8.976 -14.923  1.00  0.00    -0.000 C 
BRANCH  11  12
ATOM     12  C   UNL     1       0.495   7.899 -15.890  1.00  0.00    -0.000 C 
BRANCH  12  13
ATOM     13  C   UNL     1       1.626   7.107 -16.563  1.00  0.00    -0.003 C 
ATOM     14  C   UNL     1       1.119   6.372 -17.800  1.00  0.00     0.004 C 
ENDBRANCH  12  13
ENDBRANCH  11  12
ENDBRANCH  10  11
ENDBRANCH   9  10
ENDBRANCH   1   9
TORSDOF 10
ENDMDL
MODEL 6
REMARK VINA RESULT:    -3.595     22.800     25.037
REMARK INTER + INTRA:          -7.145
REMARK INTER:                  -6.617
REMARK INTRA:                  -0.528
REMARK UNBOUND:                -1.448
REMARK SMILES CCCCCCCCCCCC(=O)[O-]
REMARK SMILES IDX 7 1 8 2 9 3 10 4 11 5 12 6 13 7 14 8 6 9 5 10 4 11 3 12 2 13
REMARK SMILES IDX 1 14
REMARK H PARENT
REMARK Flexibility Score: inf
ROOT
ATOM      1  C   UNL     1     -14.881  -7.546 -30.628  1.00  0.00     0.000 C 
ENDROOT
BRANCH   1   2
ATOM      2  C   UNL     1     -13.607  -7.093 -29.899  1.00  0.00     0.000 C 
BRANCH   2   3
ATOM      3  C   UNL     1     -12.972  -8.219 -29.068  1.00  0.00     0.000 C 
BRANCH   3   4
ATOM      4  C   UNL     1     -11.502  -7.936 -28.713  1.00  0.00     0.006 C 
BRANCH   4   5
ATOM      5  C   UNL     1     -11.081  -6.509 -29.089  1.00  0.00     0.053 C 
BRANCH   5   6
ATOM      6  C   UNL     1      -9.865  -6.502 -29.964  1.00  0.00     0.041 C 
ATOM      7  O   UNL     1      -9.760  -5.661 -30.896  1.00  0.00    -0.550 OA
ATOM      8  O   UNL     1      -8.864  -7.446 -29.774  1.00  0.00    -0.550 OA
ENDBRANCH   5   6
ENDBRANCH   4   5
ENDBRANCH   3   4
ENDBRANCH   2   3
ENDBRANCH   1   2
BRANCH   1   9
ATOM      9  C   UNL     1     -15.676  -6.340 -31.152  1.00  0.00     0.000 C 
BRANCH   9  10
ATOM     10  C   UNL     1     -14.999  -4.997 -30.804  1.00  0.00    -0.000 C 
BRANCH  10  11
ATOM     11  C   UNL     1     -15.678  -3.772 -31.449  1.00  0.00    -0.000 C 
BRANCH  11  12
ATOM     12  C   UNL     1     -15.663  -3.758 -32.987  1.00  0.00    -0.000 C 
BRANCH  12  13
ATOM     13  C   UNL     1     -14.620  -2.789 -33.564  1.00  0.00    -0.003 C 
ATOM     14  C   UNL     1     -15.290  -1.675 -34.362  1.00  0.00     0.004 C 
ENDBRANCH  12  13
ENDBRANCH  11  12
ENDBRANCH  10  11
ENDBRANCH   9  10
ENDBRANCH   1   9
TORSDOF 10
ENDMDL
MODEL 7
REMARK VINA RESULT:    -3.562     23.192     25.228
REMARK INTER + INTRA:          -7.092
REMARK INTER:                  -6.404
REMARK INTRA:                  -0.689
REMARK UNBOUND:                -1.448
REMARK SMILES CCCCCCCCCCCC(=O)[O-]
REMARK SMILES IDX 7 1 8 2 9 3 10 4 11 5 12 6 13 7 14 8 6 9 5 10 4 11 3 12 2 13
REMARK SMILES IDX 1 14
REMARK H PARENT
REMARK Flexibility Score: inf
ROOT
ATOM      1  C   UNL     1     -15.014  -7.628 -30.634  1.00  0.00     0.000 C 
ENDROOT
BRANCH   1   2
ATOM      2  C   UNL     1     -15.386  -6.200 -31.060  1.00  0.00     0.000 C 
BRANCH   2   3
ATOM      3  C   UNL     1     -14.218  -5.214 -30.899  1.00  0.00     0.000 C 
BRANCH   3   4
ATOM      4  C   UNL     1     -13.829  -4.536 -32.224  1.00  0.00     0.006 C 
BRANCH   4   5
ATOM      5  C   UNL     1     -15.057  -4.092 -33.030  1.00  0.00     0.053 C 
BRANCH   5   6
ATOM      6  C   UNL     1     -15.183  -2.600 -33.073  1.00  0.00     0.041 C 
ATOM      7  O   UNL     1     -15.546  -1.965 -32.047  1.00  0.00    -0.550 OA
ATOM      8  O   UNL     1     -14.934  -1.914 -34.254  1.00  0.00    -0.550 OA
ENDBRANCH   5   6
ENDBRANCH   4   5
ENDBRANCH   3   4
ENDBRANCH   2   3
ENDBRANCH   1   2
BRANCH   1   9
ATOM      9  C   UNL     1     -13.688  -7.645 -29.859  1.00  0.00     0.000 C 
BRANCH   9  10
ATOM     10  C   UNL     1     -13.287  -9.069 -29.417  1.00  0.00    -0.000 C 
BRANCH  10  11
ATOM     11  C   UNL     1     -12.338  -9.099 -28.203  1.00  0.00    -0.000 C 
BRANCH  11  12
ATOM     12  C   UNL     1     -11.819  -7.724 -27.751  1.00  0.00    -0.000 C 
BRANCH  12  13
ATOM     13  C   UNL     1     -10.303  -7.567 -27.943  1.00  0.00    -0.003 C 
ATOM     14  C   UNL     1      -9.959  -7.310 -29.407  1.00  0.00     0.004 C 
ENDBRANCH  12  13
ENDBRANCH  11  12
ENDBRANCH  10  11
ENDBRANCH   9  10
ENDBRANCH   1   9
TORSDOF 10
ENDMDL
MODEL 8
REMARK VINA RESULT:    -3.462      1.590      2.360
REMARK INTER + INTRA:          -6.934
REMARK INTER:                  -5.497
REMARK INTRA:                  -1.437
REMARK UNBOUND:                -1.448
REMARK SMILES CCCCCCCCCCCC(=O)[O-]
REMARK SMILES IDX 7 1 8 2 9 3 10 4 11 5 12 6 13 7 14 8 6 9 5 10 4 11 3 12 2 13
REMARK SMILES IDX 1 14
REMARK H PARENT
REMARK Flexibility Score: inf
ROOT
ATOM      1  C   UNL     1       3.803   9.999 -18.181  1.00  0.00     0.000 C 
ENDROOT
BRANCH   1   2
ATOM      2  C   UNL     1       3.749   9.141 -19.454  1.00  0.00     0.000 C 
BRANCH   2   3
ATOM      3  C   UNL     1       2.311   8.886 -19.932  1.00  0.00     0.000 C 
BRANCH   3   4
ATOM      4  C   UNL     1       2.189   7.613 -20.788  1.00  0.00     0.006 C 
BRANCH   4   5
ATOM      5  C   UNL     1       3.141   6.506 -20.317  1.00  0.00     0.053 C 
BRANCH   5   6
ATOM      6  C   UNL     1       2.406   5.241 -19.996  1.00  0.00     0.041 C 
ATOM      7  O   UNL     1       1.146   5.225 -19.993  1.00  0.00    -0.550 OA
ATOM      8  O   UNL     1       3.109   4.090 -19.664  1.00  0.00    -0.550 OA
ENDBRANCH   5   6
ENDBRANCH   4   5
ENDBRANCH   3   4
ENDBRANCH   2   3
ENDBRANCH   1   2
BRANCH   1   9
ATOM      9  C   UNL     1       2.390  10.356 -17.696  1.00  0.00     0.000 C 
BRANCH   9  10
ATOM     10  C   UNL     1       2.276  10.334 -16.157  1.00  0.00    -0.000 C 
BRANCH  10  11
ATOM     11  C   UNL     1       1.337   9.237 -15.617  1.00  0.00    -0.000 C 
BRANCH  11  12
ATOM     12  C   UNL     1       1.937   7.821 -15.602  1.00  0.00    -0.000 C 
BRANCH  12  13
ATOM     13  C   UNL     1       1.515   6.982 -16.817  1.00  0.00    -0.003 C 
ATOM     14  C   UNL     1       0.107   7.351 -17.275  1.00  0.00     0.004 C 
ENDBRANCH  12  13
ENDBRANCH  11  12
ENDBRANCH  10  11
ENDBRANCH   9  10
ENDBRANCH   1   9
TORSDOF 10
ENDMDL
