MODEL 1
REMARK VINA RESULT:    -6.227      0.000      0.000
REMARK INTER + INTRA:         -10.247
REMARK INTER:                  -9.685
REMARK INTRA:                  -0.562
REMARK UNBOUND:                -0.562
REMARK SMILES COc1cc(CNC(=O)CCCCC=CC(C)C)ccc1O
REMARK SMILES IDX 11 1 12 2 13 3 14 4 15 5 16 6 17 7 18 8 10 9 8 10 9 11 7 12
REMARK SMILES IDX 6 14 5 15 4 16 19 17 3 18 20 19 21 20 2 21 1 22 22 23
REMARK H PARENT 7 13 22 24
REMARK Flexibility Score: inf
ROOT
ATOM      1  C   UNL     1       7.996  -6.184  43.240  1.00  0.00     0.010 C 
ENDROOT
BRANCH   1   2
ATOM      2  C   UNL     1       8.971  -7.381  43.228  1.00  0.00     0.005 C 
BRANCH   2   3
ATOM      3  C   UNL     1       8.532  -8.565  44.105  1.00  0.00     0.027 C 
BRANCH   3   4
ATOM      4  C   UNL     1       7.638  -9.526  43.371  1.00  0.00    -0.031 C 
ATOM      5  C   UNL     1       7.028 -10.539  44.004  1.00  0.00    -0.028 C 
BRANCH   5   6
ATOM      6  C   UNL     1       6.124 -11.500  43.266  1.00  0.00     0.005 C 
ATOM      7  C   UNL     1       5.707 -10.910  41.914  1.00  0.00     0.012 C 
ATOM      8  C   UNL     1       6.823 -12.850  43.065  1.00  0.00     0.012 C 
ENDBRANCH   5   6
ENDBRANCH   3   4
ENDBRANCH   2   3
ENDBRANCH   1   2
BRANCH   1   9
ATOM      9  C   UNL     1       7.436  -5.801  41.860  1.00  0.00     0.100 C 
BRANCH   9  10
ATOM     10  C   UNL     1       7.922  -4.456  41.403  1.00  0.00     0.220 C 
ATOM     11  O   UNL     1       8.532  -3.706  42.213  1.00  0.00    -0.275 OA
ATOM     12  N   UNL     1       7.674  -4.017  40.059  1.00  0.00    -0.352 N 
ATOM     13  H   UNL     1       7.341  -4.708  39.350  1.00  0.00     0.163 HD
BRANCH  12  14
ATOM     14  C   UNL     1       7.661  -2.602  39.699  1.00  0.00     0.151 C 
BRANCH  14  15
ATOM     15  C   UNL     1       7.227  -2.453  38.266  1.00  0.00    -0.025 A 
ATOM     16  C   UNL     1       7.634  -3.400  37.313  1.00  0.00     0.056 A 
ATOM     17  C   UNL     1       6.354  -1.424  37.888  1.00  0.00     0.009 A 
ATOM     18  C   UNL     1       7.177  -3.321  35.983  1.00  0.00     0.160 A 
ATOM     19  C   UNL     1       5.905  -1.335  36.569  1.00  0.00     0.050 A 
ATOM     20  C   UNL     1       6.308  -2.277  35.617  1.00  0.00     0.157 A 
BRANCH  18  21
ATOM     21  O   UNL     1       7.555  -4.261  35.010  1.00  0.00    -0.493 OA
ATOM     22  C   UNL     1       8.852  -4.840  34.910  1.00  0.00     0.278 C 
ENDBRANCH  18  21
BRANCH  20  23
ATOM     23  O   UNL     1       5.831  -2.160  34.310  1.00  0.00    -0.504 OA
ATOM     24  H   UNL     1       4.847  -2.246  34.084  1.00  0.00     0.293 HD
ENDBRANCH  20  23
ENDBRANCH  14  15
ENDBRANCH  12  14
ENDBRANCH   9  10
ENDBRANCH   1   9
TORSDOF 10
ENDMDL
MODEL 2
REMARK VINA RESULT:    -6.128      3.157      9.038
REMARK INTER + INTRA:         -10.094
REMARK INTER:                  -9.444
REMARK INTRA:                  -0.650
REMARK UNBOUND:                -0.562
REMARK SMILES COc1cc(CNC(=O)CCCCC=CC(C)C)ccc1O
REMARK SMILES IDX 11 1 12 2 13 3 14 4 15 5 16 6 17 7 18 8 10 9 8 10 9 11 7 12
REMARK SMILES IDX 6 14 5 15 4 16 19 17 3 18 20 19 21 20 2 21 1 22 22 23
REMARK H PARENT 7 13 22 24
REMARK Flexibility Score: inf
ROOT
ATOM      1  C   UNL     1       8.613  -4.760  40.077  1.00  0.00     0.010 C 
ENDROOT
BRANCH   1   2
ATOM      2  C   UNL     1       8.515  -3.674  38.984  1.00  0.00     0.005 C 
BRANCH   2   3
ATOM      3  C   UNL     1       7.443  -2.604  39.250  1.00  0.00     0.027 C 
BRANCH   3   4
ATOM      4  C   UNL     1       6.521  -2.408  38.078  1.00  0.00    -0.031 C 
ATOM      5  C   UNL     1       6.579  -1.305  37.316  1.00  0.00    -0.028 C 
BRANCH   5   6
ATOM      6  C   UNL     1       5.657  -1.113  36.134  1.00  0.00     0.005 C 
ATOM      7  C   UNL     1       5.524   0.375  35.796  1.00  0.00     0.012 C 
ATOM      8  C   UNL     1       6.172  -1.892  34.918  1.00  0.00     0.012 C 
ENDBRANCH   5   6
ENDBRANCH   3   4
ENDBRANCH   2   3
ENDBRANCH   1   2
BRANCH   1   9
ATOM      9  C   UNL     1       7.978  -4.373  41.424  1.00  0.00     0.100 C 
BRANCH   9  10
ATOM     10  C   UNL     1       7.842  -5.549  42.346  1.00  0.00     0.220 C 
ATOM     11  O   UNL     1       7.143  -5.444  43.391  1.00  0.00    -0.275 OA
ATOM     12  N   UNL     1       8.521  -6.779  42.053  1.00  0.00    -0.352 N 
ATOM     13  H   UNL     1       8.938  -6.918  41.105  1.00  0.00     0.163 HD
BRANCH  12  14
ATOM     14  C   UNL     1       8.841  -7.752  43.093  1.00  0.00     0.151 C 
BRANCH  14  15
ATOM     15  C   UNL     1       7.887  -8.911  43.007  1.00  0.00    -0.025 A 
ATOM     16  C   UNL     1       7.362  -9.291  41.761  1.00  0.00     0.056 A 
ATOM     17  C   UNL     1       7.578  -9.668  44.146  1.00  0.00     0.009 A 
ATOM     18  C   UNL     1       6.527 -10.420  41.649  1.00  0.00     0.160 A 
ATOM     19  C   UNL     1       6.744 -10.783  44.042  1.00  0.00     0.050 A 
ATOM     20  C   UNL     1       6.220 -11.164  42.803  1.00  0.00     0.157 A 
BRANCH  18  21
ATOM     21  O   UNL     1       5.999 -10.833  40.415  1.00  0.00    -0.493 OA
ATOM     22  C   UNL     1       6.664 -11.703  39.504  1.00  0.00     0.278 C 
ENDBRANCH  18  21
BRANCH  20  23
ATOM     23  O   UNL     1       5.396 -12.289  42.737  1.00  0.00    -0.504 OA
ATOM     24  H   UNL     1       4.385 -12.218  42.721  1.00  0.00     0.293 HD
ENDBRANCH  20  23
ENDBRANCH  14  15
ENDBRANCH  12  14
ENDBRANCH   9  10
ENDBRANCH   1   9
TORSDOF 10
ENDMDL
MODEL 3
REMARK VINA RESULT:    -6.081      1.118      2.307
REMARK INTER + INTRA:         -10.021
REMARK INTER:                  -9.400
REMARK INTRA:                  -0.621
REMARK UNBOUND:                -0.562
REMARK SMILES COc1cc(CNC(=O)CCCCC=CC(C)C)ccc1O
REMARK SMILES IDX 11 1 12 2 13 3 14 4 15 5 16 6 17 7 18 8 10 9 8 10 9 11 7 12
REMARK SMILES IDX 6 14 5 15 4 16 19 17 3 18 20 19 21 20 2 21 1 22 22 23
REMARK H PARENT 7 13 22 24
REMARK Flexibility Score: inf
ROOT
ATOM      1  C   UNL     1       8.719  -6.413  42.795  1.00  0.00     0.010 C 
ENDROOT
BRANCH   1   2
ATOM      2  C   UNL     1       8.888  -7.948  42.771  1.00  0.00     0.005 C 
BRANCH   2   3
ATOM      3  C   UNL     1       8.023  -8.696  43.799  1.00  0.00     0.027 C 
BRANCH   3   4
ATOM      4  C   UNL     1       7.279  -9.854  43.193  1.00  0.00    -0.031 C 
ATOM      5  C   UNL     1       7.253 -10.055  41.868  1.00  0.00    -0.028 C 
BRANCH   5   6
ATOM      6  C   UNL     1       6.510 -11.223  41.261  1.00  0.00     0.005 C 
ATOM      7  C   UNL     1       5.145 -11.396  41.935  1.00  0.00     0.012 C 
ATOM      8  C   UNL     1       6.337 -11.024  39.750  1.00  0.00     0.012 C 
ENDBRANCH   5   6
ENDBRANCH   3   4
ENDBRANCH   2   3
ENDBRANCH   1   2
BRANCH   1   9
ATOM      9  C   UNL     1       7.661  -5.871  41.818  1.00  0.00     0.100 C 
BRANCH   9  10
ATOM     10  C   UNL     1       7.943  -4.455  41.405  1.00  0.00     0.220 C 
ATOM     11  O   UNL     1       8.375  -3.632  42.258  1.00  0.00    -0.275 OA
ATOM     12  N   UNL     1       7.701  -4.035  40.054  1.00  0.00    -0.352 N 
ATOM     13  H   UNL     1       7.526  -4.757  39.320  1.00  0.00     0.163 HD
BRANCH  12  14
ATOM     14  C   UNL     1       7.474  -2.635  39.709  1.00  0.00     0.151 C 
BRANCH  14  15
ATOM     15  C   UNL     1       7.004  -2.539  38.284  1.00  0.00    -0.025 A 
ATOM     16  C   UNL     1       6.306  -1.398  37.856  1.00  0.00     0.056 A 
ATOM     17  C   UNL     1       7.326  -3.539  37.356  1.00  0.00     0.009 A 
ATOM     18  C   UNL     1       5.923  -1.255  36.508  1.00  0.00     0.160 A 
ATOM     19  C   UNL     1       6.942  -3.407  36.020  1.00  0.00     0.050 A 
ATOM     20  C   UNL     1       6.247  -2.272  35.591  1.00  0.00     0.157 A 
BRANCH  18  21
ATOM     21  O   UNL     1       5.237  -0.120  36.048  1.00  0.00    -0.493 OA
ATOM     22  C   UNL     1       5.861   1.018  35.461  1.00  0.00     0.278 C 
ENDBRANCH  18  21
BRANCH  20  23
ATOM     23  O   UNL     1       5.887  -2.171  34.247  1.00  0.00    -0.504 OA
ATOM     24  H   UNL     1       4.990  -2.494  33.902  1.00  0.00     0.293 HD
ENDBRANCH  20  23
ENDBRANCH  14  15
ENDBRANCH  12  14
ENDBRANCH   9  10
ENDBRANCH   1   9
TORSDOF 10
ENDMDL
MODEL 4
REMARK VINA RESULT:    -5.876      2.642      8.616
REMARK INTER + INTRA:          -9.701
REMARK INTER:                  -8.899
REMARK INTRA:                  -0.803
REMARK UNBOUND:                -0.562
REMARK SMILES COc1cc(CNC(=O)CCCCC=CC(C)C)ccc1O
REMARK SMILES IDX 11 1 12 2 13 3 14 4 15 5 16 6 17 7 18 8 10 9 8 10 9 11 7 12
REMARK SMILES IDX 6 14 5 15 4 16 19 17 3 18 20 19 21 20 2 21 1 22 22 23
REMARK H PARENT 7 13 22 24
REMARK Flexibility Score: inf
ROOT
ATOM      1  C   UNL     1       7.725  -3.341  38.298  1.00  0.00     0.010 C 
ENDROOT
BRANCH   1   2
ATOM      2  C   UNL     1       6.505  -3.017  37.408  1.00  0.00     0.005 C 
BRANCH   2   3
ATOM      3  C   UNL     1       6.806  -3.006  35.900  1.00  0.00     0.027 C 
BRANCH   3   4
ATOM      4  C   UNL     1       8.194  -3.493  35.585  1.00  0.00    -0.031 C 
ATOM      5  C   UNL     1       8.401  -4.586  34.837  1.00  0.00    -0.028 C 
BRANCH   5   6
ATOM      6  C   UNL     1       9.797  -5.070  34.516  1.00  0.00     0.005 C 
ATOM      7  C   UNL     1      10.063  -4.972  33.010  1.00  0.00     0.012 C 
ATOM      8  C   UNL     1      10.839  -4.259  35.296  1.00  0.00     0.012 C 
ENDBRANCH   5   6
ENDBRANCH   3   4
ENDBRANCH   2   3
ENDBRANCH   1   2
BRANCH   1   9
ATOM      9  C   UNL     1       7.592  -2.880  39.759  1.00  0.00     0.100 C 
BRANCH   9  10
ATOM     10  C   UNL     1       8.294  -3.803  40.712  1.00  0.00     0.220 C 
ATOM     11  O   UNL     1       8.853  -3.331  41.739  1.00  0.00    -0.275 OA
ATOM     12  N   UNL     1       8.349  -5.212  40.443  1.00  0.00    -0.352 N 
ATOM     13  H   UNL     1       7.732  -5.614  39.702  1.00  0.00     0.163 HD
BRANCH  12  14
ATOM     14  C   UNL     1       9.386  -6.067  41.012  1.00  0.00     0.151 C 
BRANCH  14  15
ATOM     15  C   UNL     1       8.768  -7.012  42.006  1.00  0.00    -0.025 A 
ATOM     16  C   UNL     1       8.232  -8.233  41.567  1.00  0.00     0.056 A 
ATOM     17  C   UNL     1       8.795  -6.723  43.378  1.00  0.00     0.009 A 
ATOM     18  C   UNL     1       7.717  -9.164  42.491  1.00  0.00     0.160 A 
ATOM     19  C   UNL     1       8.279  -7.638  44.298  1.00  0.00     0.050 A 
ATOM     20  C   UNL     1       7.744  -8.855  43.863  1.00  0.00     0.157 A 
BRANCH  18  21
ATOM     21  O   UNL     1       7.187 -10.399  42.083  1.00  0.00    -0.493 OA
ATOM     22  C   UNL     1       6.242 -10.563  41.031  1.00  0.00     0.278 C 
ENDBRANCH  18  21
BRANCH  20  23
ATOM     23  O   UNL     1       7.244  -9.748  44.813  1.00  0.00    -0.504 OA
ATOM     24  H   UNL     1       6.345  -9.613  45.261  1.00  0.00     0.293 HD
ENDBRANCH  20  23
ENDBRANCH  14  15
ENDBRANCH  12  14
ENDBRANCH   9  10
ENDBRANCH   1   9
TORSDOF 10
ENDMDL
MODEL 5
REMARK VINA RESULT:    -5.859      3.121      8.703
REMARK INTER + INTRA:          -9.675
REMARK INTER:                  -9.298
REMARK INTRA:                  -0.378
REMARK UNBOUND:                -0.562
REMARK SMILES COc1cc(CNC(=O)CCCCC=CC(C)C)ccc1O
REMARK SMILES IDX 11 1 12 2 13 3 14 4 15 5 16 6 17 7 18 8 10 9 8 10 9 11 7 12
REMARK SMILES IDX 6 14 5 15 4 16 19 17 3 18 20 19 21 20 2 21 1 22 22 23
REMARK H PARENT 7 13 22 24
REMARK Flexibility Score: inf
ROOT
ATOM      1  C   UNL     1       9.678  -4.360  40.957  1.00  0.00     0.010 C 
ENDROOT
BRANCH   1   2
ATOM      2  C   UNL     1       8.299  -3.680  40.818  1.00  0.00     0.005 C 
BRANCH   2   3
ATOM      3  C   UNL     1       8.352  -2.245  40.267  1.00  0.00     0.027 C 
BRANCH   3   4
ATOM      4  C   UNL     1       7.434  -2.044  39.093  1.00  0.00    -0.031 C 
ATOM      5  C   UNL     1       7.396  -2.915  38.074  1.00  0.00    -0.028 C 
BRANCH   5   6
ATOM      6  C   UNL     1       6.468  -2.715  36.899  1.00  0.00     0.005 C 
ATOM      7  C   UNL     1       5.629  -1.447  37.090  1.00  0.00     0.012 C 
ATOM      8  C   UNL     1       7.265  -2.635  35.591  1.00  0.00     0.012 C 
ENDBRANCH   5   6
ENDBRANCH   3   4
ENDBRANCH   2   3
ENDBRANCH   1   2
BRANCH   1   9
ATOM      9  C   UNL     1      10.006  -4.862  42.373  1.00  0.00     0.100 C 
BRANCH   9  10
ATOM     10  C   UNL     1       9.055  -5.931  42.830  1.00  0.00     0.220 C 
ATOM     11  O   UNL     1       7.883  -5.617  43.174  1.00  0.00    -0.275 OA
ATOM     12  N   UNL     1       9.486  -7.298  42.897  1.00  0.00    -0.352 N 
ATOM     13  H   UNL     1      10.383  -7.573  42.439  1.00  0.00     0.163 HD
BRANCH  12  14
ATOM     14  C   UNL     1       8.830  -8.273  43.764  1.00  0.00     0.151 C 
BRANCH  14  15
ATOM     15  C   UNL     1       7.886  -9.114  42.950  1.00  0.00    -0.025 A 
ATOM     16  C   UNL     1       7.099 -10.090  43.584  1.00  0.00     0.056 A 
ATOM     17  C   UNL     1       7.722  -8.881  41.578  1.00  0.00     0.009 A 
ATOM     18  C   UNL     1       6.155 -10.836  42.852  1.00  0.00     0.160 A 
ATOM     19  C   UNL     1       6.794  -9.623  40.845  1.00  0.00     0.050 A 
ATOM     20  C   UNL     1       6.009 -10.595  41.473  1.00  0.00     0.157 A 
BRANCH  18  21
ATOM     21  O   UNL     1       5.344 -11.808  43.460  1.00  0.00    -0.493 OA
ATOM     22  C   UNL     1       5.660 -13.195  43.527  1.00  0.00     0.278 C 
ENDBRANCH  18  21
BRANCH  20  23
ATOM     23  O   UNL     1       5.086 -11.311  40.710  1.00  0.00    -0.504 OA
ATOM     24  H   UNL     1       5.160 -11.385  39.702  1.00  0.00     0.293 HD
ENDBRANCH  20  23
ENDBRANCH  14  15
ENDBRANCH  12  14
ENDBRANCH   9  10
ENDBRANCH   1   9
TORSDOF 10
ENDMDL
MODEL 6
REMARK VINA RESULT:    -5.858      3.956      8.867
REMARK INTER + INTRA:          -9.674
REMARK INTER:                  -8.813
REMARK INTRA:                  -0.861
REMARK UNBOUND:                -0.562
REMARK SMILES COc1cc(CNC(=O)CCCCC=CC(C)C)ccc1O
REMARK SMILES IDX 11 1 12 2 13 3 14 4 15 5 16 6 17 7 18 8 10 9 8 10 9 11 7 12
REMARK SMILES IDX 6 14 5 15 4 16 19 17 3 18 20 19 21 20 2 21 1 22 22 23
REMARK H PARENT 7 13 22 24
REMARK Flexibility Score: inf
ROOT
ATOM      1  C   UNL     1       7.927  -4.044  41.038  1.00  0.00     0.010 C 
ENDROOT
BRANCH   1   2
ATOM      2  C   UNL     1       7.991  -2.504  40.955  1.00  0.00     0.005 C 
BRANCH   2   3
ATOM      3  C   UNL     1       9.402  -1.918  41.134  1.00  0.00     0.027 C 
BRANCH   3   4
ATOM      4  C   UNL     1       9.507  -1.028  42.341  1.00  0.00    -0.031 C 
ATOM      5  C   UNL     1       9.328  -1.504  43.583  1.00  0.00    -0.028 C 
BRANCH   5   6
ATOM      6  C   UNL     1       9.441  -0.609  44.795  1.00  0.00     0.005 C 
ATOM      7  C   UNL     1      10.731   0.215  44.733  1.00  0.00     0.012 C 
ATOM      8  C   UNL     1       8.222   0.316  44.896  1.00  0.00     0.012 C 
ENDBRANCH   5   6
ENDBRANCH   3   4
ENDBRANCH   2   3
ENDBRANCH   1   2
BRANCH   1   9
ATOM      9  C   UNL     1       7.738  -4.602  42.459  1.00  0.00     0.100 C 
BRANCH   9  10
ATOM     10  C   UNL     1       8.703  -5.709  42.768  1.00  0.00     0.220 C 
ATOM     11  O   UNL     1       9.803  -5.766  42.154  1.00  0.00    -0.275 OA
ATOM     12  N   UNL     1       8.366  -6.710  43.740  1.00  0.00    -0.352 N 
ATOM     13  H   UNL     1       7.549  -6.553  44.371  1.00  0.00     0.163 HD
BRANCH  12  14
ATOM     14  C   UNL     1       8.987  -8.032  43.735  1.00  0.00     0.151 C 
BRANCH  14  15
ATOM     15  C   UNL     1       7.940  -9.077  43.462  1.00  0.00    -0.025 A 
ATOM     16  C   UNL     1       7.502  -9.298  42.147  1.00  0.00     0.056 A 
ATOM     17  C   UNL     1       7.455  -9.888  44.497  1.00  0.00     0.009 A 
ATOM     18  C   UNL     1       6.578 -10.323  41.861  1.00  0.00     0.160 A 
ATOM     19  C   UNL     1       6.533 -10.900  44.222  1.00  0.00     0.050 A 
ATOM     20  C   UNL     1       6.095 -11.124  42.913  1.00  0.00     0.157 A 
BRANCH  18  21
ATOM     21  O   UNL     1       6.133 -10.578  40.554  1.00  0.00    -0.493 OA
ATOM     22  C   UNL     1       6.799 -11.428  39.626  1.00  0.00     0.278 C 
ENDBRANCH  18  21
BRANCH  20  23
ATOM     23  O   UNL     1       5.179 -12.149  42.675  1.00  0.00    -0.504 OA
ATOM     24  H   UNL     1       5.052 -12.558  41.756  1.00  0.00     0.293 HD
ENDBRANCH  20  23
ENDBRANCH  14  15
ENDBRANCH  12  14
ENDBRANCH   9  10
ENDBRANCH   1   9
TORSDOF 10
ENDMDL
MODEL 7
REMARK VINA RESULT:    -5.692      3.144      5.371
REMARK INTER + INTRA:          -9.416
REMARK INTER:                  -8.197
REMARK INTRA:                  -1.220
REMARK UNBOUND:                -0.562
REMARK SMILES COc1cc(CNC(=O)CCCCC=CC(C)C)ccc1O
REMARK SMILES IDX 11 1 12 2 13 3 14 4 15 5 16 6 17 7 18 8 10 9 8 10 9 11 7 12
REMARK SMILES IDX 6 14 5 15 4 16 19 17 3 18 20 19 21 20 2 21 1 22 22 23
REMARK H PARENT 7 13 22 24
REMARK Flexibility Score: inf
ROOT
ATOM      1  C   UNL     1      12.062  -5.043  37.816  1.00  0.00     0.010 C 
ENDROOT
BRANCH   1   2
ATOM      2  C   UNL     1      11.779  -4.605  39.269  1.00  0.00     0.005 C 
BRANCH   2   3
ATOM      3  C   UNL     1      10.371  -4.027  39.493  1.00  0.00     0.027 C 
BRANCH   3   4
ATOM      4  C   UNL     1       9.607  -4.767  40.556  1.00  0.00    -0.031 C 
ATOM      5  C   UNL     1       8.269  -4.861  40.521  1.00  0.00    -0.028 C 
BRANCH   5   6
ATOM      6  C   UNL     1       7.503  -5.611  41.587  1.00  0.00     0.005 C 
ATOM      7  C   UNL     1       8.002  -7.056  41.687  1.00  0.00     0.012 C 
ATOM      8  C   UNL     1       7.637  -4.905  42.941  1.00  0.00     0.012 C 
ENDBRANCH   5   6
ENDBRANCH   3   4
ENDBRANCH   2   3
ENDBRANCH   1   2
BRANCH   1   9
ATOM      9  C   UNL     1      12.079  -3.894  36.793  1.00  0.00     0.100 C 
BRANCH   9  10
ATOM     10  C   UNL     1      11.069  -4.093  35.700  1.00  0.00     0.220 C 
ATOM     11  O   UNL     1      11.329  -3.698  34.531  1.00  0.00    -0.275 OA
ATOM     12  N   UNL     1       9.805  -4.709  35.989  1.00  0.00    -0.352 N 
ATOM     13  H   UNL     1       9.673  -5.197  36.903  1.00  0.00     0.163 HD
BRANCH  12  14
ATOM     14  C   UNL     1       8.630  -4.493  35.150  1.00  0.00     0.151 C 
BRANCH  14  15
ATOM     15  C   UNL     1       7.771  -3.417  35.755  1.00  0.00    -0.025 A 
ATOM     16  C   UNL     1       7.207  -2.430  34.931  1.00  0.00     0.056 A 
ATOM     17  C   UNL     1       7.461  -3.435  37.122  1.00  0.00     0.009 A 
ATOM     18  C   UNL     1       6.339  -1.458  35.467  1.00  0.00     0.160 A 
ATOM     19  C   UNL     1       6.608  -2.469  37.661  1.00  0.00     0.050 A 
ATOM     20  C   UNL     1       6.044  -1.485  36.843  1.00  0.00     0.157 A 
BRANCH  18  21
ATOM     21  O   UNL     1       5.748  -0.467  34.667  1.00  0.00    -0.493 OA
ATOM     22  C   UNL     1       6.208   0.878  34.577  1.00  0.00     0.278 C 
ENDBRANCH  18  21
BRANCH  20  23
ATOM     23  O   UNL     1       5.190  -0.542  37.416  1.00  0.00    -0.504 OA
ATOM     24  H   UNL     1       5.446  -0.014  38.243  1.00  0.00     0.293 HD
ENDBRANCH  20  23
ENDBRANCH  14  15
ENDBRANCH  12  14
ENDBRANCH   9  10
ENDBRANCH   1   9
TORSDOF 10
ENDMDL
MODEL 8
REMARK VINA RESULT:    -5.683      2.618      7.584
REMARK INTER + INTRA:          -9.402
REMARK INTER:                  -7.494
REMARK INTRA:                  -1.908
REMARK UNBOUND:                -0.562
REMARK SMILES COc1cc(CNC(=O)CCCCC=CC(C)C)ccc1O
REMARK SMILES IDX 11 1 12 2 13 3 14 4 15 5 16 6 17 7 18 8 10 9 8 10 9 11 7 12
REMARK SMILES IDX 6 14 5 15 4 16 19 17 3 18 20 19 21 20 2 21 1 22 22 23
REMARK H PARENT 7 13 22 24
REMARK Flexibility Score: inf
ROOT
ATOM      1  C   UNL     1       7.860  -4.160  35.655  1.00  0.00     0.010 C 
ENDROOT
BRANCH   1   2
ATOM      2  C   UNL     1       9.030  -4.112  34.649  1.00  0.00     0.005 C 
BRANCH   2   3
ATOM      3  C   UNL     1      10.424  -4.200  35.294  1.00  0.00     0.027 C 
BRANCH   3   4
ATOM      4  C   UNL     1      10.374  -4.083  36.792  1.00  0.00    -0.031 C 
ATOM      5  C   UNL     1      11.493  -4.036  37.530  1.00  0.00    -0.028 C 
BRANCH   5   6
ATOM      6  C   UNL     1      11.441  -3.912  39.035  1.00  0.00     0.005 C 
ATOM      7  C   UNL     1      12.204  -5.066  39.694  1.00  0.00     0.012 C 
ATOM      8  C   UNL     1      12.022  -2.565  39.483  1.00  0.00     0.012 C 
ENDBRANCH   5   6
ENDBRANCH   3   4
ENDBRANCH   2   3
ENDBRANCH   1   2
BRANCH   1   9
ATOM      9  C   UNL     1       6.942  -2.926  35.628  1.00  0.00     0.100 C 
BRANCH   9  10
ATOM     10  C   UNL     1       6.648  -2.407  37.006  1.00  0.00     0.220 C 
ATOM     11  O   UNL     1       5.858  -1.435  37.151  1.00  0.00    -0.275 OA
ATOM     12  N   UNL     1       7.280  -3.000  38.150  1.00  0.00    -0.352 N 
ATOM     13  H   UNL     1       7.779  -3.912  38.042  1.00  0.00     0.163 HD
BRANCH  12  14
ATOM     14  C   UNL     1       7.441  -2.274  39.407  1.00  0.00     0.151 C 
BRANCH  14  15
ATOM     15  C   UNL     1       8.103  -3.166  40.421  1.00  0.00    -0.025 A 
ATOM     16  C   UNL     1       8.053  -4.560  40.261  1.00  0.00     0.056 A 
ATOM     17  C   UNL     1       8.839  -2.619  41.481  1.00  0.00     0.009 A 
ATOM     18  C   UNL     1       8.730  -5.410  41.158  1.00  0.00     0.160 A 
ATOM     19  C   UNL     1       9.505  -3.456  42.378  1.00  0.00     0.050 A 
ATOM     20  C   UNL     1       9.458  -4.845  42.222  1.00  0.00     0.157 A 
BRANCH  18  21
ATOM     21  O   UNL     1       8.710  -6.807  41.016  1.00  0.00    -0.493 OA
ATOM     22  C   UNL     1       7.761  -7.667  41.638  1.00  0.00     0.278 C 
ENDBRANCH  18  21
BRANCH  20  23
ATOM     23  O   UNL     1      10.143  -5.649  43.133  1.00  0.00    -0.504 OA
ATOM     24  H   UNL     1      11.142  -5.810  43.067  1.00  0.00     0.293 HD
ENDBRANCH  20  23
ENDBRANCH  14  15
ENDBRANCH  12  14
ENDBRANCH   9  10
ENDBRANCH   1   9
TORSDOF 10
ENDMDL
MODEL 9
REMARK VINA RESULT:    -5.649     16.318     18.588
REMARK INTER + INTRA:          -9.348
REMARK INTER:                  -7.281
REMARK INTRA:                  -2.067
REMARK UNBOUND:                -0.562
REMARK SMILES COc1cc(CNC(=O)CCCCC=CC(C)C)ccc1O
REMARK SMILES IDX 11 1 12 2 13 3 14 4 15 5 16 6 17 7 18 8 10 9 8 10 9 11 7 12
REMARK SMILES IDX 6 14 5 15 4 16 19 17 3 18 20 19 21 20 2 21 1 22 22 23
REMARK H PARENT 7 13 22 24
REMARK Flexibility Score: inf
ROOT
ATOM      1  C   UNL     1      24.532 -11.040  46.413  1.00  0.00     0.010 C 
ENDROOT
BRANCH   1   2
ATOM      2  C   UNL     1      23.095 -11.273  46.928  1.00  0.00     0.005 C 
BRANCH   2   3
ATOM      3  C   UNL     1      22.789 -12.730  47.315  1.00  0.00     0.027 C 
BRANCH   3   4
ATOM      4  C   UNL     1      23.876 -13.679  46.892  1.00  0.00    -0.031 C 
ATOM      5  C   UNL     1      23.681 -15.006  46.873  1.00  0.00    -0.028 C 
BRANCH   5   6
ATOM      6  C   UNL     1      24.771 -15.958  46.440  1.00  0.00     0.005 C 
ATOM      7  C   UNL     1      24.685 -17.266  47.233  1.00  0.00     0.012 C 
ATOM      8  C   UNL     1      24.674 -16.239  44.936  1.00  0.00     0.012 C 
ENDBRANCH   5   6
ENDBRANCH   3   4
ENDBRANCH   2   3
ENDBRANCH   1   2
BRANCH   1   9
ATOM      9  C   UNL     1      24.659  -9.939  45.347  1.00  0.00     0.100 C 
BRANCH   9  10
ATOM     10  C   UNL     1      23.798 -10.208  44.147  1.00  0.00     0.220 C 
ATOM     11  O   UNL     1      23.205  -9.252  43.578  1.00  0.00    -0.275 OA
ATOM     12  N   UNL     1      23.633 -11.549  43.664  1.00  0.00    -0.352 N 
ATOM     13  H   UNL     1      24.267 -12.301  44.018  1.00  0.00     0.163 HD
BRANCH  12  14
ATOM     14  C   UNL     1      22.477 -11.946  42.865  1.00  0.00     0.151 C 
BRANCH  14  15
ATOM     15  C   UNL     1      21.561 -12.801  43.697  1.00  0.00    -0.025 A 
ATOM     16  C   UNL     1      21.734 -14.195  43.714  1.00  0.00     0.056 A 
ATOM     17  C   UNL     1      20.587 -12.217  44.518  1.00  0.00     0.009 A 
ATOM     18  C   UNL     1      20.936 -15.006  44.544  1.00  0.00     0.160 A 
ATOM     19  C   UNL     1      19.787 -13.016  45.337  1.00  0.00     0.050 A 
ATOM     20  C   UNL     1      19.957 -14.404  45.357  1.00  0.00     0.157 A 
BRANCH  18  21
ATOM     21  O   UNL     1      21.095 -16.401  44.594  1.00  0.00    -0.493 OA
ATOM     22  C   UNL     1      21.359 -17.223  43.462  1.00  0.00     0.278 C 
ENDBRANCH  18  21
BRANCH  20  23
ATOM     23  O   UNL     1      19.144 -15.170  46.194  1.00  0.00    -0.504 OA
ATOM     24  H   UNL     1      18.840 -14.839  47.102  1.00  0.00     0.293 HD
ENDBRANCH  20  23
ENDBRANCH  14  15
ENDBRANCH  12  14
ENDBRANCH   9  10
ENDBRANCH   1   9
TORSDOF 10
ENDMDL
