MODEL 1
REMARK VINA RESULT:    -4.204      0.000      0.000
REMARK INTER + INTRA:          -8.703
REMARK INTER:                  -7.154
REMARK INTRA:                  -1.549
REMARK UNBOUND:                -1.549
REMARK SMILES CCCCCCCCCCCCCC(=O)[O-]
REMARK SMILES IDX 8 1 9 2 10 3 11 4 12 5 13 6 14 7 15 8 16 9 7 10 6 11 5 12
REMARK SMILES IDX 4 13 3 14 2 15 1 16
REMARK H PARENT
REMARK Flexibility Score: inf
ROOT
ATOM      1  C   UNL     1      -3.489  60.129  48.633  1.00  0.00     0.000 C 
ENDROOT
BRANCH   1   2
ATOM      2  C   UNL     1      -4.025  60.452  47.227  1.00  0.00     0.000 C 
BRANCH   2   3
ATOM      3  C   UNL     1      -3.346  61.679  46.592  1.00  0.00     0.000 C 
BRANCH   3   4
ATOM      4  C   UNL     1      -2.986  61.535  45.102  1.00  0.00     0.000 C 
BRANCH   4   5
ATOM      5  C   UNL     1      -1.484  61.718  44.825  1.00  0.00     0.006 C 
BRANCH   5   6
ATOM      6  C   UNL     1      -0.631  60.654  45.526  1.00  0.00     0.053 C 
BRANCH   6   7
ATOM      7  C   UNL     1       0.835  60.905  45.345  1.00  0.00     0.041 C 
ATOM      8  O   UNL     1       1.523  60.141  44.618  1.00  0.00    -0.550 OA
ATOM      9  O   UNL     1       1.436  61.999  45.956  1.00  0.00    -0.550 OA
ENDBRANCH   6   7
ENDBRANCH   5   6
ENDBRANCH   4   5
ENDBRANCH   3   4
ENDBRANCH   2   3
ENDBRANCH   1   2
BRANCH   1  10
ATOM     10  C   UNL     1      -2.333  59.112  48.616  1.00  0.00     0.000 C 
BRANCH  10  11
ATOM     11  C   UNL     1      -2.718  57.668  48.988  1.00  0.00    -0.000 C 
BRANCH  11  12
ATOM     12  C   UNL     1      -1.793  56.617  48.353  1.00  0.00    -0.000 C 
BRANCH  12  13
ATOM     13  C   UNL     1      -2.202  56.265  46.912  1.00  0.00    -0.000 C 
BRANCH  13  14
ATOM     14  C   UNL     1      -3.720  56.378  46.687  1.00  0.00    -0.000 C 
BRANCH  14  15
ATOM     15  C   UNL     1      -4.081  57.424  45.622  1.00  0.00    -0.003 C 
ATOM     16  C   UNL     1      -2.885  57.833  44.762  1.00  0.00     0.004 C 
ENDBRANCH  14  15
ENDBRANCH  13  14
ENDBRANCH  12  13
ENDBRANCH  11  12
ENDBRANCH  10  11
ENDBRANCH   1  10
TORSDOF 12
ENDMDL
MODEL 2
REMARK VINA RESULT:    -4.190      1.460      4.093
REMARK INTER + INTRA:          -8.677
REMARK INTER:                  -7.009
REMARK INTRA:                  -1.669
REMARK UNBOUND:                -1.549
REMARK SMILES CCCCCCCCCCCCCC(=O)[O-]
REMARK SMILES IDX 8 1 9 2 10 3 11 4 12 5 13 6 14 7 15 8 16 9 7 10 6 11 5 12
REMARK SMILES IDX 4 13 3 14 2 15 1 16
REMARK H PARENT
REMARK Flexibility Score: inf
ROOT
ATOM      1  C   UNL     1      -1.991  58.140  48.950  1.00  0.00     0.000 C 
ENDROOT
BRANCH   1   2
ATOM      2  C   UNL     1      -2.870  56.939  48.564  1.00  0.00     0.000 C 
BRANCH   2   3
ATOM      3  C   UNL     1      -2.595  56.427  47.138  1.00  0.00     0.000 C 
BRANCH   3   4
ATOM      4  C   UNL     1      -3.414  57.107  46.025  1.00  0.00     0.000 C 
BRANCH   4   5
ATOM      5  C   UNL     1      -2.535  57.780  44.956  1.00  0.00     0.006 C 
BRANCH   5   6
ATOM      6  C   UNL     1      -1.050  57.775  45.340  1.00  0.00     0.053 C 
BRANCH   6   7
ATOM      7  C   UNL     1      -0.170  58.095  44.170  1.00  0.00     0.041 C 
ATOM      8  O   UNL     1      -0.338  57.505  43.071  1.00  0.00    -0.550 OA
ATOM      9  O   UNL     1       0.817  59.067  44.286  1.00  0.00    -0.550 OA
ENDBRANCH   6   7
ENDBRANCH   5   6
ENDBRANCH   4   5
ENDBRANCH   3   4
ENDBRANCH   2   3
ENDBRANCH   1   2
BRANCH   1  10
ATOM     10  C   UNL     1      -2.805  59.422  49.209  1.00  0.00     0.000 C 
BRANCH  10  11
ATOM     11  C   UNL     1      -3.866  59.756  48.145  1.00  0.00    -0.000 C 
BRANCH  11  12
ATOM     12  C   UNL     1      -3.518  61.007  47.321  1.00  0.00    -0.000 C 
BRANCH  12  13
ATOM     13  C   UNL     1      -4.119  60.966  45.906  1.00  0.00    -0.000 C 
BRANCH  13  14
ATOM     14  C   UNL     1      -3.118  61.416  44.827  1.00  0.00    -0.000 C 
BRANCH  14  15
ATOM     15  C   UNL     1      -1.674  61.462  45.348  1.00  0.00    -0.003 C 
ATOM     16  C   UNL     1      -1.034  62.843  45.205  1.00  0.00     0.004 C 
ENDBRANCH  14  15
ENDBRANCH  13  14
ENDBRANCH  12  13
ENDBRANCH  11  12
ENDBRANCH  10  11
ENDBRANCH   1  10
TORSDOF 12
ENDMDL
MODEL 3
REMARK VINA RESULT:    -4.147      2.949      5.213
REMARK INTER + INTRA:          -8.606
REMARK INTER:                  -7.244
REMARK INTRA:                  -1.361
REMARK UNBOUND:                -1.549
REMARK SMILES CCCCCCCCCCCCCC(=O)[O-]
REMARK SMILES IDX 8 1 9 2 10 3 11 4 12 5 13 6 14 7 15 8 16 9 7 10 6 11 5 12
REMARK SMILES IDX 4 13 3 14 2 15 1 16
REMARK H PARENT
REMARK Flexibility Score: inf
ROOT
ATOM      1  C   UNL     1      -3.041  59.416  45.132  1.00  0.00     0.000 C 
ENDROOT
BRANCH   1   2
ATOM      2  C   UNL     1      -4.124  59.884  46.119  1.00  0.00     0.000 C 
BRANCH   2   3
ATOM      3  C   UNL     1      -3.543  60.584  47.361  1.00  0.00     0.000 C 
BRANCH   3   4
ATOM      4  C   UNL     1      -3.490  59.725  48.638  1.00  0.00     0.000 C 
BRANCH   4   5
ATOM      5  C   UNL     1      -2.165  58.960  48.795  1.00  0.00     0.006 C 
BRANCH   5   6
ATOM      6  C   UNL     1      -2.385  57.457  49.006  1.00  0.00     0.053 C 
BRANCH   6   7
ATOM      7  C   UNL     1      -2.337  56.698  47.715  1.00  0.00     0.041 C 
ATOM      8  O   UNL     1      -3.391  56.502  47.056  1.00  0.00    -0.550 OA
ATOM      9  O   UNL     1      -1.122  56.234  47.225  1.00  0.00    -0.550 OA
ENDBRANCH   6   7
ENDBRANCH   5   6
ENDBRANCH   4   5
ENDBRANCH   3   4
ENDBRANCH   2   3
ENDBRANCH   1   2
BRANCH   1  10
ATOM     10  C   UNL     1      -1.728  60.213  45.259  1.00  0.00     0.000 C 
BRANCH  10  11
ATOM     11  C   UNL     1      -0.451  59.364  45.400  1.00  0.00    -0.000 C 
BRANCH  11  12
ATOM     12  C   UNL     1      -0.414  58.170  44.433  1.00  0.00    -0.000 C 
BRANCH  12  13
ATOM     13  C   UNL     1       0.685  58.310  43.366  1.00  0.00    -0.000 C 
BRANCH  13  14
ATOM     14  C   UNL     1       1.742  59.361  43.744  1.00  0.00    -0.000 C 
BRANCH  14  15
ATOM     15  C   UNL     1       3.018  59.244  42.896  1.00  0.00    -0.003 C 
ATOM     16  C   UNL     1       3.890  58.054  43.296  1.00  0.00     0.004 C 
ENDBRANCH  14  15
ENDBRANCH  13  14
ENDBRANCH  12  13
ENDBRANCH  11  12
ENDBRANCH  10  11
ENDBRANCH   1  10
TORSDOF 12
ENDMDL
MODEL 4
REMARK VINA RESULT:    -4.133      1.404      2.199
REMARK INTER + INTRA:          -8.582
REMARK INTER:                  -6.853
REMARK INTRA:                  -1.729
REMARK UNBOUND:                -1.549
REMARK SMILES CCCCCCCCCCCCCC(=O)[O-]
REMARK SMILES IDX 8 1 9 2 10 3 11 4 12 5 13 6 14 7 15 8 16 9 7 10 6 11 5 12
REMARK SMILES IDX 4 13 3 14 2 15 1 16
REMARK H PARENT
REMARK Flexibility Score: inf
ROOT
ATOM      1  C   UNL     1      -2.156  59.213  48.633  1.00  0.00     0.000 C 
ENDROOT
BRANCH   1   2
ATOM      2  C   UNL     1      -3.541  59.859  48.452  1.00  0.00     0.000 C 
BRANCH   2   3
ATOM      3  C   UNL     1      -3.731  60.492  47.062  1.00  0.00     0.000 C 
BRANCH   3   4
ATOM      4  C   UNL     1      -3.852  62.027  47.048  1.00  0.00     0.000 C 
BRANCH   4   5
ATOM      5  C   UNL     1      -2.962  62.692  45.984  1.00  0.00     0.006 C 
BRANCH   5   6
ATOM      6  C   UNL     1      -2.488  61.694  44.920  1.00  0.00     0.053 C 
BRANCH   6   7
ATOM      7  C   UNL     1      -1.030  61.856  44.612  1.00  0.00     0.041 C 
ATOM      8  O   UNL     1      -0.165  61.587  45.487  1.00  0.00    -0.550 OA
ATOM      9  O   UNL     1      -0.627  62.275  43.350  1.00  0.00    -0.550 OA
ENDBRANCH   6   7
ENDBRANCH   5   6
ENDBRANCH   4   5
ENDBRANCH   3   4
ENDBRANCH   2   3
ENDBRANCH   1   2
BRANCH   1  10
ATOM     10  C   UNL     1      -2.230  57.777  49.186  1.00  0.00     0.000 C 
BRANCH  10  11
ATOM     11  C   UNL     1      -2.997  56.771  48.309  1.00  0.00    -0.000 C 
BRANCH  11  12
ATOM     12  C   UNL     1      -2.366  56.581  46.920  1.00  0.00    -0.000 C 
BRANCH  12  13
ATOM     13  C   UNL     1      -3.275  57.084  45.786  1.00  0.00    -0.000 C 
BRANCH  13  14
ATOM     14  C   UNL     1      -2.515  57.938  44.757  1.00  0.00    -0.000 C 
BRANCH  14  15
ATOM     15  C   UNL     1      -1.052  58.181  45.159  1.00  0.00    -0.003 C 
ATOM     16  C   UNL     1      -0.085  58.064  43.980  1.00  0.00     0.004 C 
ENDBRANCH  14  15
ENDBRANCH  13  14
ENDBRANCH  12  13
ENDBRANCH  11  12
ENDBRANCH  10  11
ENDBRANCH   1  10
TORSDOF 12
ENDMDL
MODEL 5
REMARK VINA RESULT:    -4.059      2.321      3.454
REMARK INTER + INTRA:          -8.455
REMARK INTER:                  -6.828
REMARK INTRA:                  -1.627
REMARK UNBOUND:                -1.549
REMARK SMILES CCCCCCCCCCCCCC(=O)[O-]
REMARK SMILES IDX 8 1 9 2 10 3 11 4 12 5 13 6 14 7 15 8 16 9 7 10 6 11 5 12
REMARK SMILES IDX 4 13 3 14 2 15 1 16
REMARK H PARENT
REMARK Flexibility Score: inf
ROOT
ATOM      1  C   UNL     1      -2.079  59.019  48.772  1.00  0.00     0.000 C 
ENDROOT
BRANCH   1   2
ATOM      2  C   UNL     1      -3.482  59.633  48.921  1.00  0.00     0.000 C 
BRANCH   2   3
ATOM      3  C   UNL     1      -4.081  60.094  47.580  1.00  0.00     0.000 C 
BRANCH   3   4
ATOM      4  C   UNL     1      -3.193  61.042  46.753  1.00  0.00     0.000 C 
BRANCH   4   5
ATOM      5  C   UNL     1      -4.002  62.018  45.882  1.00  0.00     0.006 C 
BRANCH   5   6
ATOM      6  C   UNL     1      -4.101  63.412  46.513  1.00  0.00     0.053 C 
BRANCH   6   7
ATOM      7  C   UNL     1      -3.509  64.469  45.629  1.00  0.00     0.041 C 
ATOM      8  O   UNL     1      -3.960  65.643  45.658  1.00  0.00    -0.550 OA
ATOM      9  O   UNL     1      -2.441  64.161  44.796  1.00  0.00    -0.550 OA
ENDBRANCH   6   7
ENDBRANCH   5   6
ENDBRANCH   4   5
ENDBRANCH   3   4
ENDBRANCH   2   3
ENDBRANCH   1   2
BRANCH   1  10
ATOM     10  C   UNL     1      -2.016  57.548  49.224  1.00  0.00     0.000 C 
BRANCH  10  11
ATOM     11  C   UNL     1      -2.871  56.567  48.401  1.00  0.00    -0.000 C 
BRANCH  11  12
ATOM     12  C   UNL     1      -2.383  56.415  46.951  1.00  0.00    -0.000 C 
BRANCH  12  13
ATOM     13  C   UNL     1      -3.328  57.084  45.938  1.00  0.00    -0.000 C 
BRANCH  13  14
ATOM     14  C   UNL     1      -2.571  57.899  44.876  1.00  0.00    -0.000 C 
BRANCH  14  15
ATOM     15  C   UNL     1      -1.061  57.968  45.152  1.00  0.00    -0.003 C 
ATOM     16  C   UNL     1      -0.487  59.373  44.973  1.00  0.00     0.004 C 
ENDBRANCH  14  15
ENDBRANCH  13  14
ENDBRANCH  12  13
ENDBRANCH  11  12
ENDBRANCH  10  11
ENDBRANCH   1  10
TORSDOF 12
ENDMDL
MODEL 6
REMARK VINA RESULT:    -3.959     13.689     15.135
REMARK INTER + INTRA:          -8.286
REMARK INTER:                  -7.112
REMARK INTRA:                  -1.174
REMARK UNBOUND:                -1.549
REMARK SMILES CCCCCCCCCCCCCC(=O)[O-]
REMARK SMILES IDX 8 1 9 2 10 3 11 4 12 5 13 6 14 7 15 8 16 9 7 10 6 11 5 12
REMARK SMILES IDX 4 13 3 14 2 15 1 16
REMARK H PARENT
REMARK Flexibility Score: inf
ROOT
ATOM      1  C   UNL     1       4.756  61.084  59.132  1.00  0.00     0.000 C 
ENDROOT
BRANCH   1   2
ATOM      2  C   UNL     1       5.638  62.233  59.650  1.00  0.00     0.000 C 
BRANCH   2   3
ATOM      3  C   UNL     1       7.078  61.790  59.965  1.00  0.00     0.000 C 
BRANCH   3   4
ATOM      4  C   UNL     1       8.146  62.255  58.957  1.00  0.00     0.000 C 
BRANCH   4   5
ATOM      5  C   UNL     1       9.456  62.700  59.629  1.00  0.00     0.006 C 
BRANCH   5   6
ATOM      6  C   UNL     1      10.544  63.046  58.605  1.00  0.00     0.053 C 
BRANCH   6   7
ATOM      7  C   UNL     1      10.030  63.953  57.529  1.00  0.00     0.041 C 
ATOM      8  O   UNL     1      10.120  63.615  56.320  1.00  0.00    -0.550 OA
ATOM      9  O   UNL     1       9.426  65.159  57.863  1.00  0.00    -0.550 OA
ENDBRANCH   6   7
ENDBRANCH   5   6
ENDBRANCH   4   5
ENDBRANCH   3   4
ENDBRANCH   2   3
ENDBRANCH   1   2
BRANCH   1  10
ATOM     10  C   UNL     1       4.423  61.211  57.634  1.00  0.00     0.000 C 
BRANCH  10  11
ATOM     11  C   UNL     1       5.474  60.626  56.672  1.00  0.00    -0.000 C 
BRANCH  11  12
ATOM     12  C   UNL     1       6.141  59.352  57.214  1.00  0.00    -0.000 C 
BRANCH  12  13
ATOM     13  C   UNL     1       7.632  59.266  56.845  1.00  0.00    -0.000 C 
BRANCH  13  14
ATOM     14  C   UNL     1       7.877  59.440  55.337  1.00  0.00    -0.000 C 
BRANCH  14  15
ATOM     15  C   UNL     1       8.508  60.799  54.996  1.00  0.00    -0.003 C 
ATOM     16  C   UNL     1       8.250  61.229  53.552  1.00  0.00     0.004 C 
ENDBRANCH  14  15
ENDBRANCH  13  14
ENDBRANCH  12  13
ENDBRANCH  11  12
ENDBRANCH  10  11
ENDBRANCH   1  10
TORSDOF 12
ENDMDL
MODEL 7
REMARK VINA RESULT:    -3.953      1.717      3.189
REMARK INTER + INTRA:          -8.275
REMARK INTER:                  -6.565
REMARK INTRA:                  -1.711
REMARK UNBOUND:                -1.549
REMARK SMILES CCCCCCCCCCCCCC(=O)[O-]
REMARK SMILES IDX 8 1 9 2 10 3 11 4 12 5 13 6 14 7 15 8 16 9 7 10 6 11 5 12
REMARK SMILES IDX 4 13 3 14 2 15 1 16
REMARK H PARENT
REMARK Flexibility Score: inf
ROOT
ATOM      1  C   UNL     1      -2.256  59.745  45.396  1.00  0.00     0.000 C 
ENDROOT
BRANCH   1   2
ATOM      2  C   UNL     1      -3.663  60.362  45.446  1.00  0.00     0.000 C 
BRANCH   2   3
ATOM      3  C   UNL     1      -3.981  61.026  46.799  1.00  0.00     0.000 C 
BRANCH   3   4
ATOM      4  C   UNL     1      -3.796  62.554  46.843  1.00  0.00     0.000 C 
BRANCH   4   5
ATOM      5  C   UNL     1      -4.077  63.233  45.492  1.00  0.00     0.006 C 
BRANCH   5   6
ATOM      6  C   UNL     1      -2.920  64.136  45.046  1.00  0.00     0.053 C 
BRANCH   6   7
ATOM      7  C   UNL     1      -1.771  63.344  44.499  1.00  0.00     0.041 C 
ATOM      8  O   UNL     1      -1.793  62.938  43.308  1.00  0.00    -0.550 OA
ATOM      9  O   UNL     1      -0.665  63.079  45.296  1.00  0.00    -0.550 OA
ENDBRANCH   6   7
ENDBRANCH   5   6
ENDBRANCH   4   5
ENDBRANCH   3   4
ENDBRANCH   2   3
ENDBRANCH   1   2
BRANCH   1  10
ATOM     10  C   UNL     1      -2.273  58.232  45.108  1.00  0.00     0.000 C 
BRANCH  10  11
ATOM     11  C   UNL     1      -3.650  57.553  45.223  1.00  0.00    -0.000 C 
BRANCH  11  12
ATOM     12  C   UNL     1      -3.771  56.642  46.455  1.00  0.00    -0.000 C 
BRANCH  12  13
ATOM     13  C   UNL     1      -2.401  56.278  47.054  1.00  0.00    -0.000 C 
BRANCH  13  14
ATOM     14  C   UNL     1      -2.268  56.709  48.524  1.00  0.00    -0.000 C 
BRANCH  14  15
ATOM     15  C   UNL     1      -2.969  58.045  48.812  1.00  0.00    -0.003 C 
ATOM     16  C   UNL     1      -1.987  59.181  49.101  1.00  0.00     0.004 C 
ENDBRANCH  14  15
ENDBRANCH  13  14
ENDBRANCH  12  13
ENDBRANCH  11  12
ENDBRANCH  10  11
ENDBRANCH   1  10
TORSDOF 12
ENDMDL
MODEL 8
REMARK VINA RESULT:    -3.932      2.082      3.663
REMARK INTER + INTRA:          -8.238
REMARK INTER:                  -6.684
REMARK INTRA:                  -1.554
REMARK UNBOUND:                -1.549
REMARK SMILES CCCCCCCCCCCCCC(=O)[O-]
REMARK SMILES IDX 8 1 9 2 10 3 11 4 12 5 13 6 14 7 15 8 16 9 7 10 6 11 5 12
REMARK SMILES IDX 4 13 3 14 2 15 1 16
REMARK H PARENT
REMARK Flexibility Score: inf
ROOT
ATOM      1  C   UNL     1      -1.896  57.762  45.149  1.00  0.00     0.000 C 
ENDROOT
BRANCH   1   2
ATOM      2  C   UNL     1      -1.579  59.255  44.959  1.00  0.00     0.000 C 
BRANCH   2   3
ATOM      3  C   UNL     1      -0.072  59.563  45.030  1.00  0.00     0.000 C 
BRANCH   3   4
ATOM      4  C   UNL     1       0.289  60.977  45.518  1.00  0.00     0.000 C 
BRANCH   4   5
ATOM      5  C   UNL     1      -0.194  62.085  44.567  1.00  0.00     0.006 C 
BRANCH   5   6
ATOM      6  C   UNL     1      -1.346  62.902  45.166  1.00  0.00     0.053 C 
BRANCH   6   7
ATOM      7  C   UNL     1      -2.541  62.929  44.261  1.00  0.00     0.041 C 
ATOM      8  O   UNL     1      -3.548  62.220  44.522  1.00  0.00    -0.550 OA
ATOM      9  O   UNL     1      -2.553  63.759  43.147  1.00  0.00    -0.550 OA
ENDBRANCH   6   7
ENDBRANCH   5   6
ENDBRANCH   4   5
ENDBRANCH   3   4
ENDBRANCH   2   3
ENDBRANCH   1   2
BRANCH   1  10
ATOM     10  C   UNL     1      -3.386  57.496  45.437  1.00  0.00     0.000 C 
BRANCH  10  11
ATOM     11  C   UNL     1      -3.675  56.628  46.676  1.00  0.00    -0.000 C 
BRANCH  11  12
ATOM     12  C   UNL     1      -2.449  56.457  47.588  1.00  0.00    -0.000 C 
BRANCH  12  13
ATOM     13  C   UNL     1      -2.596  57.213  48.920  1.00  0.00    -0.000 C 
BRANCH  13  14
ATOM     14  C   UNL     1      -2.168  58.686  48.811  1.00  0.00    -0.000 C 
BRANCH  14  15
ATOM     15  C   UNL     1      -3.357  59.654  48.916  1.00  0.00    -0.003 C 
ATOM     16  C   UNL     1      -3.540  60.509  47.662  1.00  0.00     0.004 C 
ENDBRANCH  14  15
ENDBRANCH  13  14
ENDBRANCH  12  13
ENDBRANCH  11  12
ENDBRANCH  10  11
ENDBRANCH   1  10
TORSDOF 12
ENDMDL
MODEL 9
REMARK VINA RESULT:    -3.892      1.039      3.770
REMARK INTER + INTRA:          -8.170
REMARK INTER:                  -6.577
REMARK INTRA:                  -1.594
REMARK UNBOUND:                -1.549
REMARK SMILES CCCCCCCCCCCCCC(=O)[O-]
REMARK SMILES IDX 8 1 9 2 10 3 11 4 12 5 13 6 14 7 15 8 16 9 7 10 6 11 5 12
REMARK SMILES IDX 4 13 3 14 2 15 1 16
REMARK H PARENT
REMARK Flexibility Score: inf
ROOT
ATOM      1  C   UNL     1      -2.726  57.099  48.821  1.00  0.00     0.000 C 
ENDROOT
BRANCH   1   2
ATOM      2  C   UNL     1      -2.654  56.488  47.412  1.00  0.00     0.000 C 
BRANCH   2   3
ATOM      3  C   UNL     1      -1.477  57.031  46.581  1.00  0.00     0.000 C 
BRANCH   3   4
ATOM      4  C   UNL     1      -1.871  57.816  45.316  1.00  0.00     0.000 C 
BRANCH   4   5
ATOM      5  C   UNL     1      -0.751  58.741  44.809  1.00  0.00     0.006 C 
BRANCH   5   6
ATOM      6  C   UNL     1      -0.597  59.995  45.678  1.00  0.00     0.053 C 
BRANCH   6   7
ATOM      7  C   UNL     1       0.591  60.814  45.272  1.00  0.00     0.041 C 
ATOM      8  O   UNL     1       0.642  62.039  45.555  1.00  0.00    -0.550 OA
ATOM      9  O   UNL     1       1.655  60.216  44.607  1.00  0.00    -0.550 OA
ENDBRANCH   6   7
ENDBRANCH   5   6
ENDBRANCH   4   5
ENDBRANCH   3   4
ENDBRANCH   2   3
ENDBRANCH   1   2
BRANCH   1  10
ATOM     10  C   UNL     1      -2.238  58.559  48.869  1.00  0.00     0.000 C 
BRANCH  10  11
ATOM     11  C   UNL     1      -3.347  59.627  48.873  1.00  0.00    -0.000 C 
BRANCH  11  12
ATOM     12  C   UNL     1      -3.821  60.004  47.460  1.00  0.00    -0.000 C 
BRANCH  12  13
ATOM     13  C   UNL     1      -3.689  61.511  47.177  1.00  0.00    -0.000 C 
BRANCH  13  14
ATOM     14  C   UNL     1      -3.842  61.845  45.683  1.00  0.00    -0.000 C 
BRANCH  14  15
ATOM     15  C   UNL     1      -2.893  62.965  45.231  1.00  0.00    -0.003 C 
ATOM     16  C   UNL     1      -2.381  62.768  43.803  1.00  0.00     0.004 C 
ENDBRANCH  14  15
ENDBRANCH  13  14
ENDBRANCH  12  13
ENDBRANCH  11  12
ENDBRANCH  10  11
ENDBRANCH   1  10
TORSDOF 12
ENDMDL
