MODEL 1
REMARK VINA RESULT:    -3.843      0.000      0.000
REMARK INTER + INTRA:          -5.826
REMARK INTER:                  -5.190
REMARK INTRA:                  -0.636
REMARK UNBOUND:                -0.636
REMARK SMILES CCCCCCCC(=O)[O-]
REMARK SMILES IDX 5 1 6 2 7 3 8 4 9 5 10 6 4 7 3 8 2 9 1 10
REMARK H PARENT
REMARK Flexibility Score: inf
ROOT
ATOM      1  C   UNL     1      62.759  29.914  13.203  1.00  0.00     0.000 C 
ENDROOT
BRANCH   1   2
ATOM      2  C   UNL     1      62.010  28.662  12.722  1.00  0.00     0.006 C 
BRANCH   2   3
ATOM      3  C   UNL     1      60.671  28.471  13.445  1.00  0.00     0.053 C 
BRANCH   3   4
ATOM      4  C   UNL     1      59.517  28.475  12.490  1.00  0.00     0.041 C 
ATOM      5  O   UNL     1      58.483  27.802  12.742  1.00  0.00    -0.550 OA
ATOM      6  O   UNL     1      59.570  29.249  11.337  1.00  0.00    -0.550 OA
ENDBRANCH   3   4
ENDBRANCH   2   3
ENDBRANCH   1   2
BRANCH   1   7
ATOM      7  C   UNL     1      62.473  31.111  12.285  1.00  0.00     0.000 C 
BRANCH   7   8
ATOM      8  C   UNL     1      61.853  32.300  13.037  1.00  0.00    -0.000 C 
BRANCH   8   9
ATOM      9  C   UNL     1      60.332  32.389  12.850  1.00  0.00    -0.003 C 
ATOM     10  C   UNL     1      59.598  31.984  14.125  1.00  0.00     0.004 C 
ENDBRANCH   8   9
ENDBRANCH   7   8
ENDBRANCH   1   7
TORSDOF 6
ENDMDL
MODEL 2
REMARK VINA RESULT:    -3.763     13.202     14.088
REMARK INTER + INTRA:          -5.719
REMARK INTER:                  -5.206
REMARK INTRA:                  -0.513
REMARK UNBOUND:                -0.636
REMARK SMILES CCCCCCCC(=O)[O-]
REMARK SMILES IDX 5 1 6 2 7 3 8 4 9 5 10 6 4 7 3 8 2 9 1 10
REMARK H PARENT
REMARK Flexibility Score: inf
ROOT
ATOM      1  C   UNL     1      60.730  27.979  25.245  1.00  0.00     0.000 C 
ENDROOT
BRANCH   1   2
ATOM      2  C   UNL     1      61.097  27.461  26.644  1.00  0.00     0.006 C 
BRANCH   2   3
ATOM      3  C   UNL     1      62.238  28.263  27.282  1.00  0.00     0.053 C 
BRANCH   3   4
ATOM      4  C   UNL     1      61.728  29.266  28.271  1.00  0.00     0.041 C 
ATOM      5  O   UNL     1      62.320  30.367  28.419  1.00  0.00    -0.550 OA
ATOM      6  O   UNL     1      60.580  28.997  29.006  1.00  0.00    -0.550 OA
ENDBRANCH   3   4
ENDBRANCH   2   3
ENDBRANCH   1   2
BRANCH   1   7
ATOM      7  C   UNL     1      61.906  28.740  24.616  1.00  0.00     0.000 C 
BRANCH   7   8
ATOM      8  C   UNL     1      62.604  27.938  23.505  1.00  0.00    -0.000 C 
BRANCH   8   9
ATOM      9  C   UNL     1      63.807  27.137  24.021  1.00  0.00    -0.003 C 
ATOM     10  C   UNL     1      63.471  25.653  24.134  1.00  0.00     0.004 C 
ENDBRANCH   8   9
ENDBRANCH   7   8
ENDBRANCH   1   7
TORSDOF 6
ENDMDL
MODEL 3
REMARK VINA RESULT:    -3.742      2.264      3.344
REMARK INTER + INTRA:          -5.690
REMARK INTER:                  -5.132
REMARK INTRA:                  -0.557
REMARK UNBOUND:                -0.636
REMARK SMILES CCCCCCCC(=O)[O-]
REMARK SMILES IDX 5 1 6 2 7 3 8 4 9 5 10 6 4 7 3 8 2 9 1 10
REMARK H PARENT
REMARK Flexibility Score: inf
ROOT
ATOM      1  C   UNL     1      63.197  30.224  11.273  1.00  0.00     0.000 C 
ENDROOT
BRANCH   1   2
ATOM      2  C   UNL     1      63.044  29.009  10.345  1.00  0.00     0.006 C 
BRANCH   2   3
ATOM      3  C   UNL     1      62.132  29.303   9.148  1.00  0.00     0.053 C 
BRANCH   3   4
ATOM      4  C   UNL     1      60.753  28.752   9.350  1.00  0.00     0.041 C 
ATOM      5  O   UNL     1      60.501  27.554   9.058  1.00  0.00    -0.550 OA
ATOM      6  O   UNL     1      59.756  29.554   9.890  1.00  0.00    -0.550 OA
ENDBRANCH   3   4
ENDBRANCH   2   3
ENDBRANCH   1   2
BRANCH   1   7
ATOM      7  C   UNL     1      63.153  29.798  12.747  1.00  0.00     0.000 C 
BRANCH   7   8
ATOM      8  C   UNL     1      62.282  28.552  12.979  1.00  0.00    -0.000 C 
BRANCH   8   9
ATOM      9  C   UNL     1      60.840  28.904  13.369  1.00  0.00    -0.003 C 
ATOM     10  C   UNL     1      59.874  27.797  12.956  1.00  0.00     0.004 C 
ENDBRANCH   8   9
ENDBRANCH   7   8
ENDBRANCH   1   7
TORSDOF 6
ENDMDL
MODEL 4
REMARK VINA RESULT:    -3.741      1.303      1.566
REMARK INTER + INTRA:          -5.689
REMARK INTER:                  -5.243
REMARK INTRA:                  -0.446
REMARK UNBOUND:                -0.636
REMARK SMILES CCCCCCCC(=O)[O-]
REMARK SMILES IDX 5 1 6 2 7 3 8 4 9 5 10 6 4 7 3 8 2 9 1 10
REMARK H PARENT
REMARK Flexibility Score: inf
ROOT
ATOM      1  C   UNL     1      61.493  29.763  14.393  1.00  0.00     0.000 C 
ENDROOT
BRANCH   1   2
ATOM      2  C   UNL     1      61.618  28.623  13.371  1.00  0.00     0.006 C 
BRANCH   2   3
ATOM      3  C   UNL     1      60.264  28.233  12.765  1.00  0.00     0.053 C 
BRANCH   3   4
ATOM      4  C   UNL     1      60.170  28.615  11.319  1.00  0.00     0.041 C 
ATOM      5  O   UNL     1      59.421  29.563  10.963  1.00  0.00    -0.550 OA
ATOM      6  O   UNL     1      60.933  27.947  10.371  1.00  0.00    -0.550 OA
ENDBRANCH   3   4
ENDBRANCH   2   3
ENDBRANCH   1   2
BRANCH   1   7
ATOM      7  C   UNL     1      62.189  31.034  13.886  1.00  0.00     0.000 C 
BRANCH   7   8
ATOM      8  C   UNL     1      61.303  31.858  12.938  1.00  0.00    -0.000 C 
BRANCH   8   9
ATOM      9  C   UNL     1      60.047  32.405  13.631  1.00  0.00    -0.003 C 
ATOM     10  C   UNL     1      60.417  33.339  14.779  1.00  0.00     0.004 C 
ENDBRANCH   8   9
ENDBRANCH   7   8
ENDBRANCH   1   7
TORSDOF 6
ENDMDL
MODEL 5
REMARK VINA RESULT:    -3.712     12.366     13.230
REMARK INTER + INTRA:          -5.649
REMARK INTER:                  -5.047
REMARK INTRA:                  -0.603
REMARK UNBOUND:                -0.636
REMARK SMILES CCCCCCCC(=O)[O-]
REMARK SMILES IDX 5 1 6 2 7 3 8 4 9 5 10 6 4 7 3 8 2 9 1 10
REMARK H PARENT
REMARK Flexibility Score: inf
ROOT
ATOM      1  C   UNL     1      63.644  29.593  25.099  1.00  0.00     0.000 C 
ENDROOT
BRANCH   1   2
ATOM      2  C   UNL     1      62.154  29.441  25.443  1.00  0.00     0.006 C 
BRANCH   2   3
ATOM      3  C   UNL     1      61.496  28.285  24.680  1.00  0.00     0.053 C 
BRANCH   3   4
ATOM      4  C   UNL     1      60.870  27.291  25.610  1.00  0.00     0.041 C 
ATOM      5  O   UNL     1      61.438  26.990  26.692  1.00  0.00    -0.550 OA
ATOM      6  O   UNL     1      59.643  26.720  25.296  1.00  0.00    -0.550 OA
ENDBRANCH   3   4
ENDBRANCH   2   3
ENDBRANCH   1   2
BRANCH   1   7
ATOM      7  C   UNL     1      64.495  28.591  25.891  1.00  0.00     0.000 C 
BRANCH   7   8
ATOM      8  C   UNL     1      65.221  27.583  24.984  1.00  0.00    -0.000 C 
BRANCH   8   9
ATOM      9  C   UNL     1      64.726  26.144  25.185  1.00  0.00    -0.003 C 
ATOM     10  C   UNL     1      63.924  25.666  23.978  1.00  0.00     0.004 C 
ENDBRANCH   8   9
ENDBRANCH   7   8
ENDBRANCH   1   7
TORSDOF 6
ENDMDL
MODEL 6
REMARK VINA RESULT:    -3.682      1.661      2.294
REMARK INTER + INTRA:          -5.609
REMARK INTER:                  -5.015
REMARK INTRA:                  -0.595
REMARK UNBOUND:                -0.636
REMARK SMILES CCCCCCCC(=O)[O-]
REMARK SMILES IDX 5 1 6 2 7 3 8 4 9 5 10 6 4 7 3 8 2 9 1 10
REMARK H PARENT
REMARK Flexibility Score: inf
ROOT
ATOM      1  C   UNL     1      61.393  28.632  13.404  1.00  0.00     0.000 C 
ENDROOT
BRANCH   1   2
ATOM      2  C   UNL     1      60.087  28.184  12.731  1.00  0.00     0.006 C 
BRANCH   2   3
ATOM      3  C   UNL     1      59.744  29.034  11.501  1.00  0.00     0.053 C 
BRANCH   3   4
ATOM      4  C   UNL     1      60.719  28.817  10.385  1.00  0.00     0.041 C 
ATOM      5  O   UNL     1      60.663  27.769   9.690  1.00  0.00    -0.550 OA
ATOM      6  O   UNL     1      61.669  29.787  10.091  1.00  0.00    -0.550 OA
ENDBRANCH   3   4
ENDBRANCH   2   3
ENDBRANCH   1   2
BRANCH   1   7
ATOM      7  C   UNL     1      61.187  29.938  14.185  1.00  0.00     0.000 C 
BRANCH   7   8
ATOM      8  C   UNL     1      62.278  30.981  13.893  1.00  0.00    -0.000 C 
BRANCH   8   9
ATOM      9  C   UNL     1      61.858  31.988  12.814  1.00  0.00    -0.003 C 
ATOM     10  C   UNL     1      60.410  32.429  13.009  1.00  0.00     0.004 C 
ENDBRANCH   8   9
ENDBRANCH   7   8
ENDBRANCH   1   7
TORSDOF 6
ENDMDL
MODEL 7
REMARK VINA RESULT:    -3.655     13.758     14.507
REMARK INTER + INTRA:          -5.572
REMARK INTER:                  -5.067
REMARK INTRA:                  -0.505
REMARK UNBOUND:                -0.636
REMARK SMILES CCCCCCCC(=O)[O-]
REMARK SMILES IDX 5 1 6 2 7 3 8 4 9 5 10 6 4 7 3 8 2 9 1 10
REMARK H PARENT
REMARK Flexibility Score: inf
ROOT
ATOM      1  C   UNL     1      61.030  28.626  28.390  1.00  0.00     0.000 C 
ENDROOT
BRANCH   1   2
ATOM      2  C   UNL     1      61.213  27.166  27.950  1.00  0.00     0.006 C 
BRANCH   2   3
ATOM      3  C   UNL     1      61.834  27.053  26.552  1.00  0.00     0.053 C 
BRANCH   3   4
ATOM      4  C   UNL     1      60.844  27.381  25.475  1.00  0.00     0.041 C 
ATOM      5  O   UNL     1      61.107  28.270  24.624  1.00  0.00    -0.550 OA
ATOM      6  O   UNL     1      59.646  26.683  25.394  1.00  0.00    -0.550 OA
ENDBRANCH   3   4
ENDBRANCH   2   3
ENDBRANCH   1   2
BRANCH   1   7
ATOM      7  C   UNL     1      62.283  29.144  29.109  1.00  0.00     0.000 C 
BRANCH   7   8
ATOM      8  C   UNL     1      62.719  30.533  28.615  1.00  0.00    -0.000 C 
BRANCH   8   9
ATOM      9  C   UNL     1      63.943  30.473  27.691  1.00  0.00    -0.003 C 
ATOM     10  C   UNL     1      63.523  30.327  26.232  1.00  0.00     0.004 C 
ENDBRANCH   8   9
ENDBRANCH   7   8
ENDBRANCH   1   7
TORSDOF 6
ENDMDL
MODEL 8
REMARK VINA RESULT:    -3.607     13.195     14.050
REMARK INTER + INTRA:          -5.507
REMARK INTER:                  -5.019
REMARK INTRA:                  -0.489
REMARK UNBOUND:                -0.636
REMARK SMILES CCCCCCCC(=O)[O-]
REMARK SMILES IDX 5 1 6 2 7 3 8 4 9 5 10 6 4 7 3 8 2 9 1 10
REMARK H PARENT
REMARK Flexibility Score: inf
ROOT
ATOM      1  C   UNL     1      62.038  29.362  25.060  1.00  0.00     0.000 C 
ENDROOT
BRANCH   1   2
ATOM      2  C   UNL     1      62.451  29.041  26.504  1.00  0.00     0.006 C 
BRANCH   2   3
ATOM      3  C   UNL     1      61.921  27.680  26.973  1.00  0.00     0.053 C 
BRANCH   3   4
ATOM      4  C   UNL     1      61.193  27.786  28.278  1.00  0.00     0.041 C 
ATOM      5  O   UNL     1      61.015  26.762  28.989  1.00  0.00    -0.550 OA
ATOM      6  O   UNL     1      60.740  29.021  28.725  1.00  0.00    -0.550 OA
ENDBRANCH   3   4
ENDBRANCH   2   3
ENDBRANCH   1   2
BRANCH   1   7
ATOM      7  C   UNL     1      61.835  28.074  24.248  1.00  0.00     0.000 C 
BRANCH   7   8
ATOM      8  C   UNL     1      63.103  27.644  23.493  1.00  0.00    -0.000 C 
BRANCH   8   9
ATOM      9  C   UNL     1      63.568  26.232  23.875  1.00  0.00    -0.003 C 
ATOM     10  C   UNL     1      64.735  26.286  24.856  1.00  0.00     0.004 C 
ENDBRANCH   8   9
ENDBRANCH   7   8
ENDBRANCH   1   7
TORSDOF 6
ENDMDL
MODEL 9
REMARK VINA RESULT:    -3.587     13.393     14.259
REMARK INTER + INTRA:          -5.481
REMARK INTER:                  -5.001
REMARK INTRA:                  -0.479
REMARK UNBOUND:                -0.636
REMARK SMILES CCCCCCCC(=O)[O-]
REMARK SMILES IDX 5 1 6 2 7 3 8 4 9 5 10 6 4 7 3 8 2 9 1 10
REMARK H PARENT
REMARK Flexibility Score: inf
ROOT
ATOM      1  C   UNL     1      62.485  27.223  24.634  1.00  0.00     0.000 C 
ENDROOT
BRANCH   1   2
ATOM      2  C   UNL     1      61.333  27.784  25.480  1.00  0.00     0.006 C 
BRANCH   2   3
ATOM      3  C   UNL     1      61.833  28.626  26.660  1.00  0.00     0.053 C 
BRANCH   3   4
ATOM      4  C   UNL     1      61.236  28.175  27.958  1.00  0.00     0.041 C 
ATOM      5  O   UNL     1      60.670  29.005  28.718  1.00  0.00    -0.550 OA
ATOM      6  O   UNL     1      61.275  26.833  28.314  1.00  0.00    -0.550 OA
ENDBRANCH   3   4
ENDBRANCH   2   3
ENDBRANCH   1   2
BRANCH   1   7
ATOM      7  C   UNL     1      63.381  26.298  25.470  1.00  0.00     0.000 C 
BRANCH   7   8
ATOM      8  C   UNL     1      64.859  26.370  25.055  1.00  0.00    -0.000 C 
BRANCH   8   9
ATOM      9  C   UNL     1      65.280  27.778  24.611  1.00  0.00    -0.003 C 
ATOM     10  C   UNL     1      65.618  28.655  25.814  1.00  0.00     0.004 C 
ENDBRANCH   8   9
ENDBRANCH   7   8
ENDBRANCH   1   7
TORSDOF 6
ENDMDL
