MODEL 1
REMARK VINA RESULT:    -3.298      0.000      0.000
REMARK INTER + INTRA:          -3.908
REMARK INTER:                  -3.876
REMARK INTRA:                  -0.032
REMARK UNBOUND:                -0.032
REMARK SMILES O=C([O-])CCC(=O)[O-]
REMARK SMILES IDX 4 1 2 2 1 3 3 4 5 5 6 6 7 7 8 8
REMARK H PARENT
REMARK Flexibility Score: inf
ROOT
ATOM      1  C   UNL     1      34.063  44.784  22.410  1.00  0.00     0.059 C 
ENDROOT
BRANCH   1   2
ATOM      2  C   UNL     1      34.980  45.475  21.452  1.00  0.00     0.042 C 
ATOM      3  O   UNL     1      35.215  46.706  21.574  1.00  0.00    -0.550 OA
ATOM      4  O   UNL     1      35.616  44.750  20.452  1.00  0.00    -0.550 OA
ENDBRANCH   1   2
BRANCH   1   5
ATOM      5  C   UNL     1      32.760  44.388  21.712  1.00  0.00     0.059 C 
BRANCH   5   6
ATOM      6  C   UNL     1      31.858  43.663  22.660  1.00  0.00     0.042 C 
ATOM      7  O   UNL     1      30.747  43.221  22.265  1.00  0.00    -0.550 OA
ATOM      8  O   UNL     1      32.221  43.518  23.992  1.00  0.00    -0.550 OA
ENDBRANCH   5   6
ENDBRANCH   1   5
TORSDOF 3
ENDMDL
MODEL 2
REMARK VINA RESULT:    -3.283      0.066      4.274
REMARK INTER + INTRA:          -3.890
REMARK INTER:                  -3.858
REMARK INTRA:                  -0.032
REMARK UNBOUND:                -0.032
REMARK SMILES O=C([O-])CCC(=O)[O-]
REMARK SMILES IDX 4 1 2 2 1 3 3 4 5 5 6 6 7 7 8 8
REMARK H PARENT
REMARK Flexibility Score: inf
ROOT
ATOM      1  C   UNL     1      32.740  44.420  21.714  1.00  0.00     0.059 C 
ENDROOT
BRANCH   1   2
ATOM      2  C   UNL     1      31.859  43.667  22.660  1.00  0.00     0.042 C 
ATOM      3  O   UNL     1      30.762  43.193  22.264  1.00  0.00    -0.550 OA
ATOM      4  O   UNL     1      32.272  43.444  23.967  1.00  0.00    -0.550 OA
ENDBRANCH   1   2
BRANCH   1   5
ATOM      5  C   UNL     1      34.070  44.770  22.384  1.00  0.00     0.059 C 
BRANCH   5   6
ATOM      6  C   UNL     1      34.985  45.442  21.411  1.00  0.00     0.042 C 
ATOM      7  O   UNL     1      35.555  44.773  20.510  1.00  0.00    -0.550 OA
ATOM      8  O   UNL     1      35.249  46.801  21.528  1.00  0.00    -0.550 OA
ENDBRANCH   5   6
ENDBRANCH   1   5
TORSDOF 3
ENDMDL
MODEL 3
REMARK VINA RESULT:    -2.990     18.063     18.821
REMARK INTER + INTRA:          -3.546
REMARK INTER:                  -3.453
REMARK INTRA:                  -0.093
REMARK UNBOUND:                -0.032
REMARK SMILES O=C([O-])CCC(=O)[O-]
REMARK SMILES IDX 4 1 2 2 1 3 3 4 5 5 6 6 7 7 8 8
REMARK H PARENT
REMARK Flexibility Score: inf
ROOT
ATOM      1  C   UNL     1      34.132  28.694  12.374  1.00  0.00     0.059 C 
ENDROOT
BRANCH   1   2
ATOM      2  C   UNL     1      32.977  29.362  13.050  1.00  0.00     0.042 C 
ATOM      3  O   UNL     1      32.256  28.719  13.857  1.00  0.00    -0.550 OA
ATOM      4  O   UNL     1      32.723  30.709  12.826  1.00  0.00    -0.550 OA
ENDBRANCH   1   2
BRANCH   1   5
ATOM      5  C   UNL     1      34.190  27.213  12.752  1.00  0.00     0.059 C 
BRANCH   5   6
ATOM      6  C   UNL     1      35.205  26.986  13.827  1.00  0.00     0.042 C 
ATOM      7  O   UNL     1      34.843  26.875  15.027  1.00  0.00    -0.550 OA
ATOM      8  O   UNL     1      36.557  26.945  13.510  1.00  0.00    -0.550 OA
ENDBRANCH   5   6
ENDBRANCH   1   5
TORSDOF 3
ENDMDL
MODEL 4
REMARK VINA RESULT:    -2.915     18.063     18.702
REMARK INTER + INTRA:          -3.458
REMARK INTER:                  -3.353
REMARK INTRA:                  -0.105
REMARK UNBOUND:                -0.032
REMARK SMILES O=C([O-])CCC(=O)[O-]
REMARK SMILES IDX 4 1 2 2 1 3 3 4 5 5 6 6 7 7 8 8
REMARK H PARENT
REMARK Flexibility Score: inf
ROOT
ATOM      1  C   UNL     1      33.485  28.148  13.636  1.00  0.00     0.059 C 
ENDROOT
BRANCH   1   2
ATOM      2  C   UNL     1      33.799  28.603  12.247  1.00  0.00     0.042 C 
ATOM      3  O   UNL     1      34.119  29.801  12.029  1.00  0.00    -0.550 OA
ATOM      4  O   UNL     1      33.785  27.694  11.197  1.00  0.00    -0.550 OA
ENDBRANCH   1   2
BRANCH   1   5
ATOM      5  C   UNL     1      34.536  27.148  14.123  1.00  0.00     0.059 C 
BRANCH   5   6
ATOM      6  C   UNL     1      35.618  27.851  14.878  1.00  0.00     0.042 C 
ATOM      7  O   UNL     1      36.792  27.882  14.425  1.00  0.00    -0.550 OA
ATOM      8  O   UNL     1      35.342  28.433  16.109  1.00  0.00    -0.550 OA
ENDBRANCH   5   6
ENDBRANCH   1   5
TORSDOF 3
ENDMDL
MODEL 5
REMARK VINA RESULT:    -2.900     17.938     18.596
REMARK INTER + INTRA:          -3.440
REMARK INTER:                  -3.269
REMARK INTRA:                  -0.171
REMARK UNBOUND:                -0.032
REMARK SMILES O=C([O-])CCC(=O)[O-]
REMARK SMILES IDX 4 1 2 2 1 3 3 4 5 5 6 6 7 7 8 8
REMARK H PARENT
REMARK Flexibility Score: inf
ROOT
ATOM      1  C   UNL     1      34.670  26.875  14.288  1.00  0.00     0.059 C 
ENDROOT
BRANCH   1   2
ATOM      2  C   UNL     1      35.632  27.768  15.005  1.00  0.00     0.042 C 
ATOM      3  O   UNL     1      36.821  27.871  14.605  1.00  0.00    -0.550 OA
ATOM      4  O   UNL     1      35.204  28.525  16.087  1.00  0.00    -0.550 OA
ENDBRANCH   1   2
BRANCH   1   5
ATOM      5  C   UNL     1      34.516  27.315  12.830  1.00  0.00     0.059 C 
BRANCH   5   6
ATOM      6  C   UNL     1      33.717  28.576  12.746  1.00  0.00     0.042 C 
ATOM      7  O   UNL     1      34.094  29.517  11.999  1.00  0.00    -0.550 OA
ATOM      8  O   UNL     1      32.580  28.733  13.527  1.00  0.00    -0.550 OA
ENDBRANCH   5   6
ENDBRANCH   1   5
TORSDOF 3
ENDMDL
MODEL 6
REMARK VINA RESULT:    -2.834      2.333      2.841
REMARK INTER + INTRA:          -3.363
REMARK INTER:                  -3.332
REMARK INTRA:                  -0.030
REMARK UNBOUND:                -0.032
REMARK SMILES O=C([O-])CCC(=O)[O-]
REMARK SMILES IDX 4 1 2 2 1 3 3 4 5 5 6 6 7 7 8 8
REMARK H PARENT
REMARK Flexibility Score: inf
ROOT
ATOM      1  C   UNL     1      32.236  44.474  21.305  1.00  0.00     0.059 C 
ENDROOT
BRANCH   1   2
ATOM      2  C   UNL     1      33.591  44.676  21.904  1.00  0.00     0.042 C 
ATOM      3  O   UNL     1      34.502  45.237  21.240  1.00  0.00    -0.550 OA
ATOM      4  O   UNL     1      33.837  44.289  23.215  1.00  0.00    -0.550 OA
ENDBRANCH   1   2
BRANCH   1   5
ATOM      5  C   UNL     1      31.145  44.767  22.337  1.00  0.00     0.059 C 
BRANCH   5   6
ATOM      6  C   UNL     1      30.683  46.185  22.223  1.00  0.00     0.042 C 
ATOM      7  O   UNL     1      29.594  46.541  22.744  1.00  0.00    -0.550 OA
ATOM      8  O   UNL     1      31.432  47.104  21.499  1.00  0.00    -0.550 OA
ENDBRANCH   5   6
ENDBRANCH   1   5
TORSDOF 3
ENDMDL
MODEL 7
REMARK VINA RESULT:    -2.758      2.344      3.658
REMARK INTER + INTRA:          -3.273
REMARK INTER:                  -3.171
REMARK INTRA:                  -0.102
REMARK UNBOUND:                -0.032
REMARK SMILES O=C([O-])CCC(=O)[O-]
REMARK SMILES IDX 4 1 2 2 1 3 3 4 5 5 6 6 7 7 8 8
REMARK H PARENT
REMARK Flexibility Score: inf
ROOT
ATOM      1  C   UNL     1      31.416  44.751  21.771  1.00  0.00     0.059 C 
ENDROOT
BRANCH   1   2
ATOM      2  C   UNL     1      30.991  46.154  22.064  1.00  0.00     0.042 C 
ATOM      3  O   UNL     1      31.664  47.125  21.627  1.00  0.00    -0.550 OA
ATOM      4  O   UNL     1      29.825  46.394  22.779  1.00  0.00    -0.550 OA
ENDBRANCH   1   2
BRANCH   1   5
ATOM      5  C   UNL     1      32.370  44.243  22.854  1.00  0.00     0.059 C 
BRANCH   5   6
ATOM      6  C   UNL     1      33.788  44.549  22.488  1.00  0.00     0.042 C 
ATOM      7  O   UNL     1      34.117  44.676  21.279  1.00  0.00    -0.550 OA
ATOM      8  O   UNL     1      34.756  44.647  23.478  1.00  0.00    -0.550 OA
ENDBRANCH   5   6
ENDBRANCH   1   5
TORSDOF 3
ENDMDL
MODEL 8
REMARK VINA RESULT:    -2.444     17.707     18.446
REMARK INTER + INTRA:          -2.905
REMARK INTER:                  -2.829
REMARK INTRA:                  -0.076
REMARK UNBOUND:                -0.032
REMARK SMILES O=C([O-])CCC(=O)[O-]
REMARK SMILES IDX 4 1 2 2 1 3 3 4 5 5 6 6 7 7 8 8
REMARK H PARENT
REMARK Flexibility Score: inf
ROOT
ATOM      1  C   UNL     1      35.759  27.971  15.457  1.00  0.00     0.059 C 
ENDROOT
BRANCH   1   2
ATOM      2  C   UNL     1      35.353  27.956  16.896  1.00  0.00     0.042 C 
ATOM      3  O   UNL     1      35.346  26.875  17.542  1.00  0.00    -0.550 OA
ATOM      4  O   UNL     1      35.030  29.143  17.540  1.00  0.00    -0.550 OA
ENDBRANCH   1   2
BRANCH   1   5
ATOM      5  C   UNL     1      34.939  26.955  14.659  1.00  0.00     0.059 C 
BRANCH   5   6
ATOM      6  C   UNL     1      34.117  27.646  13.618  1.00  0.00     0.042 C 
ATOM      7  O   UNL     1      33.395  28.628  13.930  1.00  0.00    -0.550 OA
ATOM      8  O   UNL     1      34.111  27.175  12.311  1.00  0.00    -0.550 OA
ENDBRANCH   5   6
ENDBRANCH   1   5
TORSDOF 3
ENDMDL
