MODEL 1
REMARK VINA RESULT:    -1.913      0.000      0.000
REMARK INTER + INTRA:         -10.587
REMARK INTER:                  -4.821
REMARK INTRA:                  -5.766
REMARK UNBOUND:                -5.766
REMARK SMILES CCCCCCCCCCCCCCCCCCCCCCCCCCCC(=O)[O-]
REMARK SMILES IDX 15 1 16 2 17 3 18 4 19 5 20 6 21 7 22 8 23 9 24 10 25 11
REMARK SMILES IDX 26 12 27 13 28 14 29 15 30 16 14 17 13 18 12 19 11 20 10 21
REMARK SMILES IDX 9 22 8 23 7 24 6 25 5 26 4 27 3 28 2 29 1 30
REMARK H PARENT
REMARK Flexibility Score: inf
ROOT
ATOM      1  C   UNL     1      72.426  78.458  77.334  1.00  0.00     0.000 C 
ENDROOT
BRANCH   1   2
ATOM      2  C   UNL     1      72.474  77.512  78.544  1.00  0.00     0.000 C 
BRANCH   2   3
ATOM      3  C   UNL     1      72.123  76.075  78.132  1.00  0.00     0.000 C 
BRANCH   3   4
ATOM      4  C   UNL     1      72.711  75.022  79.085  1.00  0.00     0.000 C 
BRANCH   4   5
ATOM      5  C   UNL     1      73.223  73.776  78.346  1.00  0.00     0.000 C 
BRANCH   5   6
ATOM      6  C   UNL     1      73.787  72.741  79.333  1.00  0.00     0.000 C 
BRANCH   6   7
ATOM      7  C   UNL     1      75.092  72.088  78.838  1.00  0.00     0.000 C 
BRANCH   7   8
ATOM      8  C   UNL     1      75.357  72.233  77.329  1.00  0.00     0.000 C 
BRANCH   8   9
ATOM      9  C   UNL     1      76.846  72.444  77.000  1.00  0.00     0.000 C 
BRANCH   9  10
ATOM     10  C   UNL     1      77.071  72.934  75.561  1.00  0.00     0.000 C 
BRANCH  10  11
ATOM     11  C   UNL     1      78.562  73.032  75.198  1.00  0.00     0.000 C 
BRANCH  11  12
ATOM     12  C   UNL     1      79.062  74.487  75.123  1.00  0.00     0.006 C 
BRANCH  12  13
ATOM     13  C   UNL     1      79.254  75.165  76.489  1.00  0.00     0.053 C 
BRANCH  13  14
ATOM     14  C   UNL     1      79.843  76.536  76.361  1.00  0.00     0.041 C 
ATOM     15  O   UNL     1      79.401  77.485  77.062  1.00  0.00    -0.550 OA
ATOM     16  O   UNL     1      80.875  76.768  75.458  1.00  0.00    -0.550 OA
ENDBRANCH  13  14
ENDBRANCH  12  13
ENDBRANCH  11  12
ENDBRANCH  10  11
ENDBRANCH   9  10
ENDBRANCH   8   9
ENDBRANCH   7   8
ENDBRANCH   6   7
ENDBRANCH   5   6
ENDBRANCH   4   5
ENDBRANCH   3   4
ENDBRANCH   2   3
ENDBRANCH   1   2
BRANCH   1  17
ATOM     17  C   UNL     1      72.251  77.712  75.998  1.00  0.00     0.000 C 
BRANCH  17  18
ATOM     18  C   UNL     1      72.433  78.584  74.744  1.00  0.00     0.000 C 
BRANCH  18  19
ATOM     19  C   UNL     1      73.204  77.868  73.625  1.00  0.00     0.000 C 
BRANCH  19  20
ATOM     20  C   UNL     1      74.614  78.455  73.469  1.00  0.00     0.000 C 
BRANCH  20  21
ATOM     21  C   UNL     1      75.120  79.153  74.745  1.00  0.00     0.000 C 
BRANCH  21  22
ATOM     22  C   UNL     1      76.250  78.412  75.485  1.00  0.00    -0.000 C 
BRANCH  22  23
ATOM     23  C   UNL     1      76.239  76.898  75.231  1.00  0.00    -0.000 C 
BRANCH  23  24
ATOM     24  C   UNL     1      75.606  76.145  76.409  1.00  0.00    -0.000 C 
BRANCH  24  25
ATOM     25  C   UNL     1      76.024  76.772  77.749  1.00  0.00    -0.000 C 
BRANCH  25  26
ATOM     26  C   UNL     1      76.377  75.721  78.812  1.00  0.00    -0.000 C 
BRANCH  26  27
ATOM     27  C   UNL     1      76.000  76.169  80.236  1.00  0.00    -0.000 C 
BRANCH  27  28
ATOM     28  C   UNL     1      76.015  75.009  81.244  1.00  0.00    -0.000 C 
BRANCH  28  29
ATOM     29  C   UNL     1      74.944  75.156  82.335  1.00  0.00    -0.003 C 
ATOM     30  C   UNL     1      74.382  73.796  82.739  1.00  0.00     0.004 C 
ENDBRANCH  28  29
ENDBRANCH  27  28
ENDBRANCH  26  27
ENDBRANCH  25  26
ENDBRANCH  24  25
ENDBRANCH  23  24
ENDBRANCH  22  23
ENDBRANCH  21  22
ENDBRANCH  20  21
ENDBRANCH  19  20
ENDBRANCH  18  19
ENDBRANCH  17  18
ENDBRANCH   1  17
TORSDOF 26
ENDMDL
MODEL 2
REMARK VINA RESULT:    -1.909      3.499      7.428
REMARK INTER + INTRA:         -10.576
REMARK INTER:                  -5.149
REMARK INTRA:                  -5.427
REMARK UNBOUND:                -5.766
REMARK SMILES CCCCCCCCCCCCCCCCCCCCCCCCCCCC(=O)[O-]
REMARK SMILES IDX 15 1 16 2 17 3 18 4 19 5 20 6 21 7 22 8 23 9 24 10 25 11
REMARK SMILES IDX 26 12 27 13 28 14 29 15 30 16 14 17 13 18 12 19 11 20 10 21
REMARK SMILES IDX 9 22 8 23 7 24 6 25 5 26 4 27 3 28 2 29 1 30
REMARK H PARENT
REMARK Flexibility Score: inf
ROOT
ATOM      1  C   UNL     1      75.946  77.123  79.377  1.00  0.00     0.000 C 
ENDROOT
BRANCH   1   2
ATOM      2  C   UNL     1      75.464  77.528  77.975  1.00  0.00     0.000 C 
BRANCH   2   3
ATOM      3  C   UNL     1      74.463  78.690  78.052  1.00  0.00     0.000 C 
BRANCH   3   4
ATOM      4  C   UNL     1      74.534  79.448  79.387  1.00  0.00     0.000 C 
BRANCH   4   5
ATOM      5  C   UNL     1      73.213  80.152  79.738  1.00  0.00     0.000 C 
BRANCH   5   6
ATOM      6  C   UNL     1      72.675  80.948  78.539  1.00  0.00     0.000 C 
BRANCH   6   7
ATOM      7  C   UNL     1      73.194  82.398  78.498  1.00  0.00     0.000 C 
BRANCH   7   8
ATOM      8  C   UNL     1      73.836  82.818  77.163  1.00  0.00     0.000 C 
BRANCH   8   9
ATOM      9  C   UNL     1      75.224  82.189  76.943  1.00  0.00     0.000 C 
BRANCH   9  10
ATOM     10  C   UNL     1      75.245  81.199  75.767  1.00  0.00     0.000 C 
BRANCH  10  11
ATOM     11  C   UNL     1      74.077  81.419  74.791  1.00  0.00     0.000 C 
BRANCH  11  12
ATOM     12  C   UNL     1      73.498  80.099  74.248  1.00  0.00     0.006 C 
BRANCH  12  13
ATOM     13  C   UNL     1      72.425  79.460  75.145  1.00  0.00     0.053 C 
BRANCH  13  14
ATOM     14  C   UNL     1      72.239  78.002  74.851  1.00  0.00     0.041 C 
ATOM     15  O   UNL     1      72.308  77.580  73.667  1.00  0.00    -0.550 OA
ATOM     16  O   UNL     1      71.979  77.113  75.887  1.00  0.00    -0.550 OA
ENDBRANCH  13  14
ENDBRANCH  12  13
ENDBRANCH  11  12
ENDBRANCH  10  11
ENDBRANCH   9  10
ENDBRANCH   8   9
ENDBRANCH   7   8
ENDBRANCH   6   7
ENDBRANCH   5   6
ENDBRANCH   4   5
ENDBRANCH   3   4
ENDBRANCH   2   3
ENDBRANCH   1   2
BRANCH   1  17
ATOM     17  C   UNL     1      76.143  75.603  79.525  1.00  0.00     0.000 C 
BRANCH  17  18
ATOM     18  C   UNL     1      76.373  75.121  80.969  1.00  0.00     0.000 C 
BRANCH  18  19
ATOM     19  C   UNL     1      75.556  73.869  81.317  1.00  0.00     0.000 C 
BRANCH  19  20
ATOM     20  C   UNL     1      75.122  73.889  82.789  1.00  0.00     0.000 C 
BRANCH  20  21
ATOM     21  C   UNL     1      73.689  73.369  83.002  1.00  0.00     0.000 C 
BRANCH  21  22
ATOM     22  C   UNL     1      72.901  73.087  81.708  1.00  0.00    -0.000 C 
BRANCH  22  23
ATOM     23  C   UNL     1      71.884  74.188  81.376  1.00  0.00    -0.000 C 
BRANCH  23  24
ATOM     24  C   UNL     1      72.203  74.848  80.028  1.00  0.00    -0.000 C 
BRANCH  24  25
ATOM     25  C   UNL     1      72.603  76.319  80.219  1.00  0.00    -0.000 C 
BRANCH  25  26
ATOM     26  C   UNL     1      72.268  76.849  81.622  1.00  0.00    -0.000 C 
BRANCH  26  27
ATOM     27  C   UNL     1      73.508  77.367  82.371  1.00  0.00    -0.000 C 
BRANCH  27  28
ATOM     28  C   UNL     1      73.508  76.975  83.857  1.00  0.00    -0.000 C 
BRANCH  28  29
ATOM     29  C   UNL     1      72.136  76.485  84.343  1.00  0.00    -0.003 C 
ATOM     30  C   UNL     1      72.270  75.639  85.605  1.00  0.00     0.004 C 
ENDBRANCH  28  29
ENDBRANCH  27  28
ENDBRANCH  26  27
ENDBRANCH  25  26
ENDBRANCH  24  25
ENDBRANCH  23  24
ENDBRANCH  22  23
ENDBRANCH  21  22
ENDBRANCH  20  21
ENDBRANCH  19  20
ENDBRANCH  18  19
ENDBRANCH  17  18
ENDBRANCH   1  17
TORSDOF 26
ENDMDL
MODEL 3
REMARK VINA RESULT:    -1.882     10.589     13.946
REMARK INTER + INTRA:         -10.508
REMARK INTER:                  -5.189
REMARK INTRA:                  -5.319
REMARK UNBOUND:                -5.766
REMARK SMILES CCCCCCCCCCCCCCCCCCCCCCCCCCCC(=O)[O-]
REMARK SMILES IDX 15 1 16 2 17 3 18 4 19 5 20 6 21 7 22 8 23 9 24 10 25 11
REMARK SMILES IDX 26 12 27 13 28 14 29 15 30 16 14 17 13 18 12 19 11 20 10 21
REMARK SMILES IDX 9 22 8 23 7 24 6 25 5 26 4 27 3 28 2 29 1 30
REMARK H PARENT
REMARK Flexibility Score: inf
ROOT
ATOM      1  C   UNL     1      77.282  87.094  77.594  1.00  0.00     0.000 C 
ENDROOT
BRANCH   1   2
ATOM      2  C   UNL     1      76.493  86.026  76.822  1.00  0.00     0.000 C 
BRANCH   2   3
ATOM      3  C   UNL     1      75.171  86.597  76.289  1.00  0.00     0.000 C 
BRANCH   3   4
ATOM      4  C   UNL     1      74.128  85.508  75.995  1.00  0.00     0.000 C 
BRANCH   4   5
ATOM      5  C   UNL     1      73.054  85.408  77.089  1.00  0.00     0.000 C 
BRANCH   5   6
ATOM      6  C   UNL     1      73.409  84.319  78.114  1.00  0.00     0.000 C 
BRANCH   6   7
ATOM      7  C   UNL     1      73.972  84.890  79.429  1.00  0.00     0.000 C 
BRANCH   7   8
ATOM      8  C   UNL     1      72.940  85.609  80.316  1.00  0.00     0.000 C 
BRANCH   8   9
ATOM      9  C   UNL     1      73.164  87.130  80.382  1.00  0.00     0.000 C 
BRANCH   9  10
ATOM     10  C   UNL     1      74.628  87.525  80.129  1.00  0.00     0.000 C 
BRANCH  10  11
ATOM     11  C   UNL     1      74.843  89.047  80.168  1.00  0.00     0.000 C 
BRANCH  11  12
ATOM     12  C   UNL     1      75.593  89.510  81.431  1.00  0.00     0.006 C 
BRANCH  12  13
ATOM     13  C   UNL     1      76.642  90.607  81.180  1.00  0.00     0.053 C 
BRANCH  13  14
ATOM     14  C   UNL     1      77.976  90.255  81.763  1.00  0.00     0.041 C 
ATOM     15  O   UNL     1      78.066  89.876  82.960  1.00  0.00    -0.550 OA
ATOM     16  O   UNL     1      79.123  90.358  80.984  1.00  0.00    -0.550 OA
ENDBRANCH  13  14
ENDBRANCH  12  13
ENDBRANCH  11  12
ENDBRANCH  10  11
ENDBRANCH   9  10
ENDBRANCH   8   9
ENDBRANCH   7   8
ENDBRANCH   6   7
ENDBRANCH   5   6
ENDBRANCH   4   5
ENDBRANCH   3   4
ENDBRANCH   2   3
ENDBRANCH   1   2
BRANCH   1  17
ATOM     17  C   UNL     1      76.833  88.528  77.259  1.00  0.00     0.000 C 
BRANCH  17  18
ATOM     18  C   UNL     1      77.782  89.634  77.754  1.00  0.00     0.000 C 
BRANCH  18  19
ATOM     19  C   UNL     1      77.464  91.009  77.148  1.00  0.00     0.000 C 
BRANCH  19  20
ATOM     20  C   UNL     1      76.085  91.503  77.605  1.00  0.00     0.000 C 
BRANCH  20  21
ATOM     21  C   UNL     1      75.245  92.090  76.455  1.00  0.00     0.000 C 
BRANCH  21  22
ATOM     22  C   UNL     1      75.677  91.649  75.044  1.00  0.00    -0.000 C 
BRANCH  22  23
ATOM     23  C   UNL     1      74.836  90.485  74.498  1.00  0.00    -0.000 C 
BRANCH  23  24
ATOM     24  C   UNL     1      75.727  89.416  73.851  1.00  0.00    -0.000 C 
BRANCH  24  25
ATOM     25  C   UNL     1      77.112  89.990  73.510  1.00  0.00    -0.000 C 
BRANCH  25  26
ATOM     26  C   UNL     1      78.091  88.917  73.009  1.00  0.00    -0.000 C 
BRANCH  26  27
ATOM     27  C   UNL     1      78.172  87.703  73.950  1.00  0.00    -0.000 C 
BRANCH  27  28
ATOM     28  C   UNL     1      79.589  87.475  74.501  1.00  0.00    -0.000 C 
BRANCH  28  29
ATOM     29  C   UNL     1      80.162  88.718  75.198  1.00  0.00    -0.003 C 
ATOM     30  C   UNL     1      81.484  89.141  74.564  1.00  0.00     0.004 C 
ENDBRANCH  28  29
ENDBRANCH  27  28
ENDBRANCH  26  27
ENDBRANCH  25  26
ENDBRANCH  24  25
ENDBRANCH  23  24
ENDBRANCH  22  23
ENDBRANCH  21  22
ENDBRANCH  20  21
ENDBRANCH  19  20
ENDBRANCH  18  19
ENDBRANCH  17  18
ENDBRANCH   1  17
TORSDOF 26
ENDMDL
MODEL 4
REMARK VINA RESULT:    -1.867     17.557     20.359
REMARK INTER + INTRA:         -10.472
REMARK INTER:                  -4.600
REMARK INTRA:                  -5.872
REMARK UNBOUND:                -5.766
REMARK SMILES CCCCCCCCCCCCCCCCCCCCCCCCCCCC(=O)[O-]
REMARK SMILES IDX 15 1 16 2 17 3 18 4 19 5 20 6 21 7 22 8 23 9 24 10 25 11
REMARK SMILES IDX 26 12 27 13 28 14 29 15 30 16 14 17 13 18 12 19 11 20 10 21
REMARK SMILES IDX 9 22 8 23 7 24 6 25 5 26 4 27 3 28 2 29 1 30
REMARK H PARENT
REMARK Flexibility Score: inf
ROOT
ATOM      1  C   UNL     1      91.166  83.733  93.100  1.00  0.00     0.000 C 
ENDROOT
BRANCH   1   2
ATOM      2  C   UNL     1      91.411  82.473  92.255  1.00  0.00     0.000 C 
BRANCH   2   3
ATOM      3  C   UNL     1      91.140  81.202  93.074  1.00  0.00     0.000 C 
BRANCH   3   4
ATOM      4  C   UNL     1      89.921  80.416  92.567  1.00  0.00     0.000 C 
BRANCH   4   5
ATOM      5  C   UNL     1      88.595  80.957  93.125  1.00  0.00     0.000 C 
BRANCH   5   6
ATOM      6  C   UNL     1      87.404  80.478  92.281  1.00  0.00     0.000 C 
BRANCH   6   7
ATOM      7  C   UNL     1      87.793  80.133  90.831  1.00  0.00     0.000 C 
BRANCH   7   8
ATOM      8  C   UNL     1      87.105  80.991  89.754  1.00  0.00     0.000 C 
BRANCH   8   9
ATOM      9  C   UNL     1      85.713  80.462  89.366  1.00  0.00     0.000 C 
BRANCH   9  10
ATOM     10  C   UNL     1      85.013  81.348  88.322  1.00  0.00     0.000 C 
BRANCH  10  11
ATOM     11  C   UNL     1      85.802  82.632  88.015  1.00  0.00     0.000 C 
BRANCH  11  12
ATOM     12  C   UNL     1      86.269  82.708  86.550  1.00  0.00     0.006 C 
BRANCH  12  13
ATOM     13  C   UNL     1      87.792  82.831  86.374  1.00  0.00     0.053 C 
BRANCH  13  14
ATOM     14  C   UNL     1      88.201  84.208  85.947  1.00  0.00     0.041 C 
ATOM     15  O   UNL     1      88.899  84.370  84.912  1.00  0.00    -0.550 OA
ATOM     16  O   UNL     1      87.819  85.311  86.702  1.00  0.00    -0.550 OA
ENDBRANCH  13  14
ENDBRANCH  12  13
ENDBRANCH  11  12
ENDBRANCH  10  11
ENDBRANCH   9  10
ENDBRANCH   8   9
ENDBRANCH   7   8
ENDBRANCH   6   7
ENDBRANCH   5   6
ENDBRANCH   4   5
ENDBRANCH   3   4
ENDBRANCH   2   3
ENDBRANCH   1   2
BRANCH   1  17
ATOM     17  C   UNL     1      91.781  85.000  92.476  1.00  0.00     0.000 C 
BRANCH  17  18
ATOM     18  C   UNL     1      91.033  86.306  92.799  1.00  0.00     0.000 C 
BRANCH  18  19
ATOM     19  C   UNL     1      90.599  87.071  91.540  1.00  0.00     0.000 C 
BRANCH  19  20
ATOM     20  C   UNL     1      91.319  86.533  90.296  1.00  0.00     0.000 C 
BRANCH  20  21
ATOM     21  C   UNL     1      90.356  85.923  89.260  1.00  0.00     0.000 C 
BRANCH  21  22
ATOM     22  C   UNL     1      90.519  84.408  89.034  1.00  0.00    -0.000 C 
BRANCH  22  23
ATOM     23  C   UNL     1      89.289  83.601  89.475  1.00  0.00    -0.000 C 
BRANCH  23  24
ATOM     24  C   UNL     1      88.247  84.505  90.146  1.00  0.00    -0.000 C 
BRANCH  24  25
ATOM     25  C   UNL     1      88.063  84.125  91.624  1.00  0.00    -0.000 C 
BRANCH  25  26
ATOM     26  C   UNL     1      87.420  85.250  92.451  1.00  0.00    -0.000 C 
BRANCH  26  27
ATOM     27  C   UNL     1      85.887  85.130  92.522  1.00  0.00    -0.000 C 
BRANCH  27  28
ATOM     28  C   UNL     1      85.412  83.672  92.627  1.00  0.00    -0.000 C 
BRANCH  28  29
ATOM     29  C   UNL     1      84.419  83.288  91.521  1.00  0.00    -0.003 C 
ATOM     30  C   UNL     1      83.690  81.991  91.863  1.00  0.00     0.004 C 
ENDBRANCH  28  29
ENDBRANCH  27  28
ENDBRANCH  26  27
ENDBRANCH  25  26
ENDBRANCH  24  25
ENDBRANCH  23  24
ENDBRANCH  22  23
ENDBRANCH  21  22
ENDBRANCH  20  21
ENDBRANCH  19  20
ENDBRANCH  18  19
ENDBRANCH  17  18
ENDBRANCH   1  17
TORSDOF 26
ENDMDL
MODEL 5
REMARK VINA RESULT:    -1.864      2.402      5.386
REMARK INTER + INTRA:         -10.464
REMARK INTER:                  -4.064
REMARK INTRA:                  -6.400
REMARK UNBOUND:                -5.766
REMARK SMILES CCCCCCCCCCCCCCCCCCCCCCCCCCCC(=O)[O-]
REMARK SMILES IDX 15 1 16 2 17 3 18 4 19 5 20 6 21 7 22 8 23 9 24 10 25 11
REMARK SMILES IDX 26 12 27 13 28 14 29 15 30 16 14 17 13 18 12 19 11 20 10 21
REMARK SMILES IDX 9 22 8 23 7 24 6 25 5 26 4 27 3 28 2 29 1 30
REMARK H PARENT
REMARK Flexibility Score: inf
ROOT
ATOM      1  C   UNL     1      77.467  76.348  79.758  1.00  0.00     0.000 C 
ENDROOT
BRANCH   1   2
ATOM      2  C   UNL     1      78.446  76.220  80.935  1.00  0.00     0.000 C 
BRANCH   2   3
ATOM      3  C   UNL     1      79.109  74.835  80.949  1.00  0.00     0.000 C 
BRANCH   3   4
ATOM      4  C   UNL     1      78.694  73.988  82.162  1.00  0.00     0.000 C 
BRANCH   4   5
ATOM      5  C   UNL     1      77.563  73.000  81.835  1.00  0.00     0.000 C 
BRANCH   5   6
ATOM      6  C   UNL     1      77.796  72.323  80.475  1.00  0.00     0.000 C 
BRANCH   6   7
ATOM      7  C   UNL     1      76.500  72.136  79.665  1.00  0.00     0.000 C 
BRANCH   7   8
ATOM      8  C   UNL     1      76.572  72.625  78.207  1.00  0.00     0.000 C 
BRANCH   8   9
ATOM      9  C   UNL     1      77.928  73.263  77.855  1.00  0.00     0.000 C 
BRANCH   9  10
ATOM     10  C   UNL     1      77.951  73.862  76.440  1.00  0.00     0.000 C 
BRANCH  10  11
ATOM     11  C   UNL     1      76.645  74.595  76.089  1.00  0.00     0.000 C 
BRANCH  11  12
ATOM     12  C   UNL     1      76.859  76.097  75.824  1.00  0.00     0.006 C 
BRANCH  12  13
ATOM     13  C   UNL     1      75.709  76.997  76.306  1.00  0.00     0.053 C 
BRANCH  13  14
ATOM     14  C   UNL     1      75.187  77.880  75.214  1.00  0.00     0.041 C 
ATOM     15  O   UNL     1      73.974  77.825  74.879  1.00  0.00    -0.550 OA
ATOM     16  O   UNL     1      76.045  78.755  74.558  1.00  0.00    -0.550 OA
ENDBRANCH  13  14
ENDBRANCH  12  13
ENDBRANCH  11  12
ENDBRANCH  10  11
ENDBRANCH   9  10
ENDBRANCH   8   9
ENDBRANCH   7   8
ENDBRANCH   6   7
ENDBRANCH   5   6
ENDBRANCH   4   5
ENDBRANCH   3   4
ENDBRANCH   2   3
ENDBRANCH   1   2
BRANCH   1  17
ATOM     17  C   UNL     1      76.057  75.825  80.092  1.00  0.00     0.000 C 
BRANCH  17  18
ATOM     18  C   UNL     1      74.934  76.870  79.961  1.00  0.00     0.000 C 
BRANCH  18  19
ATOM     19  C   UNL     1      73.584  76.248  79.578  1.00  0.00     0.000 C 
BRANCH  19  20
ATOM     20  C   UNL     1      73.778  75.052  78.637  1.00  0.00     0.000 C 
BRANCH  20  21
ATOM     21  C   UNL     1      73.124  73.760  79.161  1.00  0.00     0.000 C 
BRANCH  21  22
ATOM     22  C   UNL     1      72.709  73.798  80.645  1.00  0.00    -0.000 C 
BRANCH  22  23
ATOM     23  C   UNL     1      73.516  72.825  81.516  1.00  0.00    -0.000 C 
BRANCH  23  24
ATOM     24  C   UNL     1      73.879  73.461  82.864  1.00  0.00    -0.000 C 
BRANCH  24  25
ATOM     25  C   UNL     1      73.186  74.823  83.031  1.00  0.00    -0.000 C 
BRANCH  25  26
ATOM     26  C   UNL     1      74.158  75.936  83.456  1.00  0.00    -0.000 C 
BRANCH  26  27
ATOM     27  C   UNL     1      75.564  75.401  83.781  1.00  0.00    -0.000 C 
BRANCH  27  28
ATOM     28  C   UNL     1      76.571  76.525  84.073  1.00  0.00    -0.000 C 
BRANCH  28  29
ATOM     29  C   UNL     1      76.217  77.840  83.361  1.00  0.00    -0.003 C 
ATOM     30  C   UNL     1      76.137  78.996  84.354  1.00  0.00     0.004 C 
ENDBRANCH  28  29
ENDBRANCH  27  28
ENDBRANCH  26  27
ENDBRANCH  25  26
ENDBRANCH  24  25
ENDBRANCH  23  24
ENDBRANCH  22  23
ENDBRANCH  21  22
ENDBRANCH  20  21
ENDBRANCH  19  20
ENDBRANCH  18  19
ENDBRANCH  17  18
ENDBRANCH   1  17
TORSDOF 26
ENDMDL
MODEL 6
REMARK VINA RESULT:    -1.845     18.720     21.437
REMARK INTER + INTRA:         -10.416
REMARK INTER:                  -4.444
REMARK INTRA:                  -5.972
REMARK UNBOUND:                -5.766
REMARK SMILES CCCCCCCCCCCCCCCCCCCCCCCCCCCC(=O)[O-]
REMARK SMILES IDX 15 1 16 2 17 3 18 4 19 5 20 6 21 7 22 8 23 9 24 10 25 11
REMARK SMILES IDX 26 12 27 13 28 14 29 15 30 16 14 17 13 18 12 19 11 20 10 21
REMARK SMILES IDX 9 22 8 23 7 24 6 25 5 26 4 27 3 28 2 29 1 30
REMARK H PARENT
REMARK Flexibility Score: inf
ROOT
ATOM      1  C   UNL     1      89.219  85.067  87.983  1.00  0.00     0.000 C 
ENDROOT
BRANCH   1   2
ATOM      2  C   UNL     1      88.037  85.422  88.898  1.00  0.00     0.000 C 
BRANCH   2   3
ATOM      3  C   UNL     1      86.787  84.613  88.521  1.00  0.00     0.000 C 
BRANCH   3   4
ATOM      4  C   UNL     1      87.127  83.263  87.870  1.00  0.00     0.000 C 
BRANCH   4   5
ATOM      5  C   UNL     1      86.835  82.071  88.794  1.00  0.00     0.000 C 
BRANCH   5   6
ATOM      6  C   UNL     1      87.917  80.988  88.659  1.00  0.00     0.000 C 
BRANCH   6   7
ATOM      7  C   UNL     1      88.809  80.869  89.909  1.00  0.00     0.000 C 
BRANCH   7   8
ATOM      8  C   UNL     1      90.034  81.802  89.922  1.00  0.00     0.000 C 
BRANCH   8   9
ATOM      9  C   UNL     1      90.101  82.684  91.181  1.00  0.00     0.000 C 
BRANCH   9  10
ATOM     10  C   UNL     1      88.874  82.510  92.091  1.00  0.00     0.000 C 
BRANCH  10  11
ATOM     11  C   UNL     1      87.931  83.725  92.046  1.00  0.00     0.000 C 
BRANCH  11  12
ATOM     12  C   UNL     1      86.453  83.339  92.244  1.00  0.00     0.006 C 
BRANCH  12  13
ATOM     13  C   UNL     1      86.237  81.943  92.852  1.00  0.00     0.053 C 
BRANCH  13  14
ATOM     14  C   UNL     1      85.390  81.071  91.976  1.00  0.00     0.041 C 
ATOM     15  O   UNL     1      85.799  79.932  91.630  1.00  0.00    -0.550 OA
ATOM     16  O   UNL     1      84.153  81.525  91.533  1.00  0.00    -0.550 OA
ENDBRANCH  13  14
ENDBRANCH  12  13
ENDBRANCH  11  12
ENDBRANCH  10  11
ENDBRANCH   9  10
ENDBRANCH   8   9
ENDBRANCH   7   8
ENDBRANCH   6   7
ENDBRANCH   5   6
ENDBRANCH   4   5
ENDBRANCH   3   4
ENDBRANCH   2   3
ENDBRANCH   1   2
BRANCH   1  17
ATOM     17  C   UNL     1      90.584  85.246  88.673  1.00  0.00     0.000 C 
BRANCH  17  18
ATOM     18  C   UNL     1      90.652  86.414  89.674  1.00  0.00     0.000 C 
BRANCH  18  19
ATOM     19  C   UNL     1      91.388  86.046  90.970  1.00  0.00     0.000 C 
BRANCH  19  20
ATOM     20  C   UNL     1      90.500  86.303  92.196  1.00  0.00     0.000 C 
BRANCH  20  21
ATOM     21  C   UNL     1      91.053  87.405  93.119  1.00  0.00     0.000 C 
BRANCH  21  22
ATOM     22  C   UNL     1      90.242  88.715  93.124  1.00  0.00    -0.000 C 
BRANCH  22  23
ATOM     23  C   UNL     1      90.642  89.670  91.990  1.00  0.00    -0.000 C 
BRANCH  23  24
ATOM     24  C   UNL     1      89.404  90.282  91.321  1.00  0.00    -0.000 C 
BRANCH  24  25
ATOM     25  C   UNL     1      89.223  89.733  89.896  1.00  0.00    -0.000 C 
BRANCH  25  26
ATOM     26  C   UNL     1      87.917  88.942  89.726  1.00  0.00    -0.000 C 
BRANCH  26  27
ATOM     27  C   UNL     1      87.125  88.817  91.039  1.00  0.00    -0.000 C 
BRANCH  27  28
ATOM     28  C   UNL     1      87.115  87.381  91.588  1.00  0.00    -0.000 C 
BRANCH  28  29
ATOM     29  C   UNL     1      85.818  87.039  92.337  1.00  0.00    -0.003 C 
ATOM     30  C   UNL     1      84.618  87.736  91.702  1.00  0.00     0.004 C 
ENDBRANCH  28  29
ENDBRANCH  27  28
ENDBRANCH  26  27
ENDBRANCH  25  26
ENDBRANCH  24  25
ENDBRANCH  23  24
ENDBRANCH  22  23
ENDBRANCH  21  22
ENDBRANCH  20  21
ENDBRANCH  19  20
ENDBRANCH  18  19
ENDBRANCH  17  18
ENDBRANCH   1  17
TORSDOF 26
ENDMDL
MODEL 7
REMARK VINA RESULT:    -1.841     11.798     15.265
REMARK INTER + INTRA:         -10.406
REMARK INTER:                  -5.062
REMARK INTRA:                  -5.343
REMARK UNBOUND:                -5.766
REMARK SMILES CCCCCCCCCCCCCCCCCCCCCCCCCCCC(=O)[O-]
REMARK SMILES IDX 15 1 16 2 17 3 18 4 19 5 20 6 21 7 22 8 23 9 24 10 25 11
REMARK SMILES IDX 26 12 27 13 28 14 29 15 30 16 14 17 13 18 12 19 11 20 10 21
REMARK SMILES IDX 9 22 8 23 7 24 6 25 5 26 4 27 3 28 2 29 1 30
REMARK H PARENT
REMARK Flexibility Score: inf
ROOT
ATOM      1  C   UNL     1      80.458  87.131  76.895  1.00  0.00     0.000 C 
ENDROOT
BRANCH   1   2
ATOM      2  C   UNL     1      79.064  86.657  76.453  1.00  0.00     0.000 C 
BRANCH   2   3
ATOM      3  C   UNL     1      78.073  86.697  77.626  1.00  0.00     0.000 C 
BRANCH   3   4
ATOM      4  C   UNL     1      76.617  86.492  77.181  1.00  0.00     0.000 C 
BRANCH   4   5
ATOM      5  C   UNL     1      76.494  86.199  75.677  1.00  0.00     0.000 C 
BRANCH   5   6
ATOM      6  C   UNL     1      75.157  86.713  75.121  1.00  0.00     0.000 C 
BRANCH   6   7
ATOM      7  C   UNL     1      75.220  88.182  74.663  1.00  0.00     0.000 C 
BRANCH   7   8
ATOM      8  C   UNL     1      76.601  88.646  74.167  1.00  0.00     0.000 C 
BRANCH   8   9
ATOM      9  C   UNL     1      77.058  89.965  74.816  1.00  0.00     0.000 C 
BRANCH   9  10
ATOM     10  C   UNL     1      76.625  90.082  76.287  1.00  0.00     0.000 C 
BRANCH  10  11
ATOM     11  C   UNL     1      77.805  90.384  77.226  1.00  0.00     0.000 C 
BRANCH  11  12
ATOM     12  C   UNL     1      77.405  90.358  78.713  1.00  0.00     0.006 C 
BRANCH  12  13
ATOM     13  C   UNL     1      76.093  89.611  79.004  1.00  0.00     0.053 C 
BRANCH  13  14
ATOM     14  C   UNL     1      75.097  90.476  79.715  1.00  0.00     0.041 C 
ATOM     15  O   UNL     1      74.627  90.119  80.827  1.00  0.00    -0.550 OA
ATOM     16  O   UNL     1      74.681  91.672  79.141  1.00  0.00    -0.550 OA
ENDBRANCH  13  14
ENDBRANCH  12  13
ENDBRANCH  11  12
ENDBRANCH  10  11
ENDBRANCH   9  10
ENDBRANCH   8   9
ENDBRANCH   7   8
ENDBRANCH   6   7
ENDBRANCH   5   6
ENDBRANCH   4   5
ENDBRANCH   3   4
ENDBRANCH   2   3
ENDBRANCH   1   2
BRANCH   1  17
ATOM     17  C   UNL     1      80.809  88.533  76.364  1.00  0.00     0.000 C 
BRANCH  17  18
ATOM     18  C   UNL     1      80.480  88.760  74.877  1.00  0.00     0.000 C 
BRANCH  18  19
ATOM     19  C   UNL     1      81.205  87.776  73.949  1.00  0.00     0.000 C 
BRANCH  19  20
ATOM     20  C   UNL     1      82.146  88.520  72.991  1.00  0.00     0.000 C 
BRANCH  20  21
ATOM     21  C   UNL     1      83.593  87.994  73.038  1.00  0.00     0.000 C 
BRANCH  21  22
ATOM     22  C   UNL     1      83.917  87.092  74.245  1.00  0.00    -0.000 C 
BRANCH  22  23
ATOM     23  C   UNL     1      84.905  87.738  75.226  1.00  0.00    -0.000 C 
BRANCH  23  24
ATOM     24  C   UNL     1      84.384  87.660  76.667  1.00  0.00    -0.000 C 
BRANCH  24  25
ATOM     25  C   UNL     1      84.985  88.782  77.528  1.00  0.00    -0.000 C 
BRANCH  25  26
ATOM     26  C   UNL     1      83.956  89.861  77.901  1.00  0.00    -0.000 C 
BRANCH  26  27
ATOM     27  C   UNL     1      84.102  91.136  77.053  1.00  0.00    -0.000 C 
BRANCH  27  28
ATOM     28  C   UNL     1      82.850  91.434  76.213  1.00  0.00    -0.000 C 
BRANCH  28  29
ATOM     29  C   UNL     1      83.163  91.616  74.720  1.00  0.00    -0.003 C 
ATOM     30  C   UNL     1      84.634  91.332  74.430  1.00  0.00     0.004 C 
ENDBRANCH  28  29
ENDBRANCH  27  28
ENDBRANCH  26  27
ENDBRANCH  25  26
ENDBRANCH  24  25
ENDBRANCH  23  24
ENDBRANCH  22  23
ENDBRANCH  21  22
ENDBRANCH  20  21
ENDBRANCH  19  20
ENDBRANCH  18  19
ENDBRANCH  17  18
ENDBRANCH   1  17
TORSDOF 26
ENDMDL
MODEL 8
REMARK VINA RESULT:    -1.797      2.706      7.067
REMARK INTER + INTRA:         -10.295
REMARK INTER:                  -4.326
REMARK INTRA:                  -5.969
REMARK UNBOUND:                -5.766
REMARK SMILES CCCCCCCCCCCCCCCCCCCCCCCCCCCC(=O)[O-]
REMARK SMILES IDX 15 1 16 2 17 3 18 4 19 5 20 6 21 7 22 8 23 9 24 10 25 11
REMARK SMILES IDX 26 12 27 13 28 14 29 15 30 16 14 17 13 18 12 19 11 20 10 21
REMARK SMILES IDX 9 22 8 23 7 24 6 25 5 26 4 27 3 28 2 29 1 30
REMARK H PARENT
REMARK Flexibility Score: inf
ROOT
ATOM      1  C   UNL     1      76.787  76.029  81.921  1.00  0.00     0.000 C 
ENDROOT
BRANCH   1   2
ATOM      2  C   UNL     1      75.848  76.203  80.717  1.00  0.00     0.000 C 
BRANCH   2   3
ATOM      3  C   UNL     1      76.628  76.120  79.396  1.00  0.00     0.000 C 
BRANCH   3   4
ATOM      4  C   UNL     1      76.664  74.699  78.814  1.00  0.00     0.000 C 
BRANCH   4   5
ATOM      5  C   UNL     1      75.652  74.500  77.675  1.00  0.00     0.000 C 
BRANCH   5   6
ATOM      6  C   UNL     1      74.871  73.189  77.852  1.00  0.00     0.000 C 
BRANCH   6   7
ATOM      7  C   UNL     1      73.397  73.413  78.239  1.00  0.00     0.000 C 
BRANCH   7   8
ATOM      8  C   UNL     1      73.132  73.514  79.752  1.00  0.00     0.000 C 
BRANCH   8   9
ATOM      9  C   UNL     1      72.505  74.858  80.162  1.00  0.00     0.000 C 
BRANCH   9  10
ATOM     10  C   UNL     1      71.876  75.604  78.974  1.00  0.00     0.000 C 
BRANCH  10  11
ATOM     11  C   UNL     1      72.178  77.112  78.999  1.00  0.00     0.000 C 
BRANCH  11  12
ATOM     12  C   UNL     1      73.413  77.487  78.158  1.00  0.00     0.006 C 
BRANCH  12  13
ATOM     13  C   UNL     1      73.170  77.489  76.640  1.00  0.00     0.053 C 
BRANCH  13  14
ATOM     14  C   UNL     1      74.416  77.806  75.870  1.00  0.00     0.041 C 
ATOM     15  O   UNL     1      75.532  77.830  76.452  1.00  0.00    -0.550 OA
ATOM     16  O   UNL     1      74.340  78.088  74.511  1.00  0.00    -0.550 OA
ENDBRANCH  13  14
ENDBRANCH  12  13
ENDBRANCH  11  12
ENDBRANCH  10  11
ENDBRANCH   9  10
ENDBRANCH   8   9
ENDBRANCH   7   8
ENDBRANCH   6   7
ENDBRANCH   5   6
ENDBRANCH   4   5
ENDBRANCH   3   4
ENDBRANCH   2   3
ENDBRANCH   1   2
BRANCH   1  17
ATOM     17  C   UNL     1      76.179  75.151  83.030  1.00  0.00     0.000 C 
BRANCH  17  18
ATOM     18  C   UNL     1      75.334  73.967  82.526  1.00  0.00     0.000 C 
BRANCH  18  19
ATOM     19  C   UNL     1      74.049  73.762  83.341  1.00  0.00     0.000 C 
BRANCH  19  20
ATOM     20  C   UNL     1      74.109  74.539  84.663  1.00  0.00     0.000 C 
BRANCH  20  21
ATOM     21  C   UNL     1      72.722  74.986  85.162  1.00  0.00     0.000 C 
BRANCH  21  22
ATOM     22  C   UNL     1      72.714  76.299  85.969  1.00  0.00    -0.000 C 
BRANCH  22  23
ATOM     23  C   UNL     1      72.639  77.547  85.079  1.00  0.00    -0.000 C 
BRANCH  23  24
ATOM     24  C   UNL     1      72.149  77.193  83.669  1.00  0.00    -0.000 C 
BRANCH  24  25
ATOM     25  C   UNL     1      73.127  77.711  82.602  1.00  0.00    -0.000 C 
BRANCH  25  26
ATOM     26  C   UNL     1      74.323  78.462  83.208  1.00  0.00    -0.000 C 
BRANCH  26  27
ATOM     27  C   UNL     1      74.685  79.733  82.419  1.00  0.00    -0.000 C 
BRANCH  27  28
ATOM     28  C   UNL     1      74.246  79.661  80.948  1.00  0.00    -0.000 C 
BRANCH  28  29
ATOM     29  C   UNL     1      75.380  80.005  79.971  1.00  0.00    -0.003 C 
ATOM     30  C   UNL     1      76.745  79.739  80.599  1.00  0.00     0.004 C 
ENDBRANCH  28  29
ENDBRANCH  27  28
ENDBRANCH  26  27
ENDBRANCH  25  26
ENDBRANCH  24  25
ENDBRANCH  23  24
ENDBRANCH  22  23
ENDBRANCH  21  22
ENDBRANCH  20  21
ENDBRANCH  19  20
ENDBRANCH  18  19
ENDBRANCH  17  18
ENDBRANCH   1  17
TORSDOF 26
ENDMDL
MODEL 9
REMARK VINA RESULT:    -1.770      2.000      5.026
REMARK INTER + INTRA:         -10.226
REMARK INTER:                  -5.173
REMARK INTRA:                  -5.052
REMARK UNBOUND:                -5.766
REMARK SMILES CCCCCCCCCCCCCCCCCCCCCCCCCCCC(=O)[O-]
REMARK SMILES IDX 15 1 16 2 17 3 18 4 19 5 20 6 21 7 22 8 23 9 24 10 25 11
REMARK SMILES IDX 26 12 27 13 28 14 29 15 30 16 14 17 13 18 12 19 11 20 10 21
REMARK SMILES IDX 9 22 8 23 7 24 6 25 5 26 4 27 3 28 2 29 1 30
REMARK H PARENT
REMARK Flexibility Score: inf
ROOT
ATOM      1  C   UNL     1      75.109  78.948  78.956  1.00  0.00     0.000 C 
ENDROOT
BRANCH   1   2
ATOM      2  C   UNL     1      74.306  77.943  79.796  1.00  0.00     0.000 C 
BRANCH   2   3
ATOM      3  C   UNL     1      74.777  76.505  79.532  1.00  0.00     0.000 C 
BRANCH   3   4
ATOM      4  C   UNL     1      73.680  75.624  78.913  1.00  0.00     0.000 C 
BRANCH   4   5
ATOM      5  C   UNL     1      72.331  75.763  79.636  1.00  0.00     0.000 C 
BRANCH   5   6
ATOM      6  C   UNL     1      72.475  75.465  81.137  1.00  0.00     0.000 C 
BRANCH   6   7
ATOM      7  C   UNL     1      71.964  74.065  81.524  1.00  0.00     0.000 C 
BRANCH   7   8
ATOM      8  C   UNL     1      73.050  73.095  82.024  1.00  0.00     0.000 C 
BRANCH   8   9
ATOM      9  C   UNL     1      74.436  73.755  82.136  1.00  0.00     0.000 C 
BRANCH   9  10
ATOM     10  C   UNL     1      75.442  73.194  81.117  1.00  0.00     0.000 C 
BRANCH  10  11
ATOM     11  C   UNL     1      74.780  72.263  80.088  1.00  0.00     0.000 C 
BRANCH  11  12
ATOM     12  C   UNL     1      75.570  72.178  78.767  1.00  0.00     0.006 C 
BRANCH  12  13
ATOM     13  C   UNL     1      76.739  73.170  78.662  1.00  0.00     0.053 C 
BRANCH  13  14
ATOM     14  C   UNL     1      77.060  73.515  77.240  1.00  0.00     0.041 C 
ATOM     15  O   UNL     1      78.231  73.845  76.915  1.00  0.00    -0.550 OA
ATOM     16  O   UNL     1      76.060  73.483  76.274  1.00  0.00    -0.550 OA
ENDBRANCH  13  14
ENDBRANCH  12  13
ENDBRANCH  11  12
ENDBRANCH  10  11
ENDBRANCH   9  10
ENDBRANCH   8   9
ENDBRANCH   7   8
ENDBRANCH   6   7
ENDBRANCH   5   6
ENDBRANCH   4   5
ENDBRANCH   3   4
ENDBRANCH   2   3
ENDBRANCH   1   2
BRANCH   1  17
ATOM     17  C   UNL     1      74.221  80.008  78.281  1.00  0.00     0.000 C 
BRANCH  17  18
ATOM     18  C   UNL     1      72.723  79.658  78.230  1.00  0.00     0.000 C 
BRANCH  18  19
ATOM     19  C   UNL     1      72.210  79.436  76.800  1.00  0.00     0.000 C 
BRANCH  19  20
ATOM     20  C   UNL     1      72.267  77.949  76.422  1.00  0.00     0.000 C 
BRANCH  20  21
ATOM     21  C   UNL     1      72.353  77.718  74.902  1.00  0.00     0.000 C 
BRANCH  21  22
ATOM     22  C   UNL     1      72.259  78.994  74.044  1.00  0.00    -0.000 C 
BRANCH  22  23
ATOM     23  C   UNL     1      73.495  79.212  73.159  1.00  0.00    -0.000 C 
BRANCH  23  24
ATOM     24  C   UNL     1      74.059  80.627  73.336  1.00  0.00    -0.000 C 
BRANCH  24  25
ATOM     25  C   UNL     1      75.501  80.580  73.867  1.00  0.00    -0.000 C 
BRANCH  25  26
ATOM     26  C   UNL     1      75.615  79.840  75.209  1.00  0.00    -0.000 C 
BRANCH  26  27
ATOM     27  C   UNL     1      76.633  78.687  75.165  1.00  0.00    -0.000 C 
BRANCH  27  28
ATOM     28  C   UNL     1      75.984  77.317  75.421  1.00  0.00    -0.000 C 
BRANCH  28  29
ATOM     29  C   UNL     1      76.062  76.385  74.202  1.00  0.00    -0.003 C 
ATOM     30  C   UNL     1      76.589  77.127  72.977  1.00  0.00     0.004 C 
ENDBRANCH  28  29
ENDBRANCH  27  28
ENDBRANCH  26  27
ENDBRANCH  25  26
ENDBRANCH  24  25
ENDBRANCH  23  24
ENDBRANCH  22  23
ENDBRANCH  21  22
ENDBRANCH  20  21
ENDBRANCH  19  20
ENDBRANCH  18  19
ENDBRANCH  17  18
ENDBRANCH   1  17
TORSDOF 26
ENDMDL
