MODEL 1
REMARK VINA RESULT:    -2.990      0.000      0.000
REMARK INTER + INTRA:          -5.996
REMARK INTER:                  -4.564
REMARK INTRA:                  -1.432
REMARK UNBOUND:                -1.432
REMARK SMILES CCCCCCCCCC=CC(=O)[O-]
REMARK SMILES IDX 7 1 8 2 9 3 10 4 11 5 12 6 13 7 14 8 6 9 5 10 4 11 3 12 2 13
REMARK SMILES IDX 1 14
REMARK H PARENT
REMARK Flexibility Score: inf
ROOT
ATOM      1  C   UNL     1      40.965 -37.352  -1.810  1.00  0.00     0.000 C 
ENDROOT
BRANCH   1   2
ATOM      2  C   UNL     1      40.046 -36.151  -2.093  1.00  0.00     0.004 C 
BRANCH   2   3
ATOM      3  C   UNL     1      38.697 -36.565  -2.702  1.00  0.00     0.027 C 
BRANCH   3   4
ATOM      4  C   UNL     1      38.869 -37.675  -3.704  1.00  0.00    -0.025 C 
ATOM      5  C   UNL     1      38.214 -38.848  -3.699  1.00  0.00     0.020 C 
BRANCH   5   6
ATOM      6  C   UNL     1      37.221 -39.302  -2.702  1.00  0.00     0.064 C 
ATOM      7  O   UNL     1      37.537 -39.548  -1.509  1.00  0.00    -0.545 OA
ATOM      8  O   UNL     1      35.904 -39.479  -3.101  1.00  0.00    -0.545 OA
ENDBRANCH   5   6
ENDBRANCH   3   4
ENDBRANCH   2   3
ENDBRANCH   1   2
BRANCH   1   9
ATOM      9  C   UNL     1      42.440 -37.155  -2.216  1.00  0.00     0.000 C 
BRANCH   9  10
ATOM     10  C   UNL     1      42.653 -36.596  -3.634  1.00  0.00     0.000 C 
BRANCH  10  11
ATOM     11  C   UNL     1      42.310 -37.615  -4.734  1.00  0.00    -0.000 C 
BRANCH  11  12
ATOM     12  C   UNL     1      42.877 -39.013  -4.440  1.00  0.00    -0.000 C 
BRANCH  12  13
ATOM     13  C   UNL     1      41.823 -40.120  -4.595  1.00  0.00    -0.003 C 
ATOM     14  C   UNL     1      41.468 -40.734  -3.245  1.00  0.00     0.004 C 
ENDBRANCH  12  13
ENDBRANCH  11  12
ENDBRANCH  10  11
ENDBRANCH   9  10
ENDBRANCH   1   9
TORSDOF 9
ENDMDL
MODEL 2
REMARK VINA RESULT:    -2.816     13.530     15.034
REMARK INTER + INTRA:          -5.730
REMARK INTER:                  -4.365
REMARK INTRA:                  -1.365
REMARK UNBOUND:                -1.432
REMARK SMILES CCCCCCCCCC=CC(=O)[O-]
REMARK SMILES IDX 7 1 8 2 9 3 10 4 11 5 12 6 13 7 14 8 6 9 5 10 4 11 3 12 2 13
REMARK SMILES IDX 1 14
REMARK H PARENT
REMARK Flexibility Score: inf
ROOT
ATOM      1  C   UNL     1      34.374 -37.189  12.077  1.00  0.00     0.000 C 
ENDROOT
BRANCH   1   2
ATOM      2  C   UNL     1      32.875 -37.067  11.748  1.00  0.00     0.004 C 
BRANCH   2   3
ATOM      3  C   UNL     1      32.597 -37.065  10.236  1.00  0.00     0.027 C 
BRANCH   3   4
ATOM      4  C   UNL     1      33.809 -36.625   9.459  1.00  0.00    -0.025 C 
ATOM      5  C   UNL     1      33.998 -36.784   8.139  1.00  0.00     0.020 C 
BRANCH   5   6
ATOM      6  C   UNL     1      33.080 -37.446   7.188  1.00  0.00     0.064 C 
ATOM      7  O   UNL     1      33.257 -38.631   6.802  1.00  0.00    -0.545 OA
ATOM      8  O   UNL     1      31.999 -36.730   6.693  1.00  0.00    -0.545 OA
ENDBRANCH   5   6
ENDBRANCH   3   4
ENDBRANCH   2   3
ENDBRANCH   1   2
BRANCH   1   9
ATOM      9  C   UNL     1      34.691 -37.819  13.449  1.00  0.00     0.000 C 
BRANCH   9  10
ATOM     10  C   UNL     1      35.275 -39.241  13.389  1.00  0.00     0.000 C 
BRANCH  10  11
ATOM     11  C   UNL     1      34.394 -40.215  12.589  1.00  0.00    -0.000 C 
BRANCH  11  12
ATOM     12  C   UNL     1      35.125 -40.811  11.376  1.00  0.00    -0.000 C 
BRANCH  12  13
ATOM     13  C   UNL     1      34.644 -40.213  10.045  1.00  0.00    -0.003 C 
ATOM     14  C   UNL     1      35.821 -39.900   9.126  1.00  0.00     0.004 C 
ENDBRANCH  12  13
ENDBRANCH  11  12
ENDBRANCH  10  11
ENDBRANCH   9  10
ENDBRANCH   1   9
TORSDOF 9
ENDMDL
MODEL 3
REMARK VINA RESULT:    -2.762      2.619      4.641
REMARK INTER + INTRA:          -5.648
REMARK INTER:                  -4.336
REMARK INTRA:                  -1.312
REMARK UNBOUND:                -1.432
REMARK SMILES CCCCCCCCCC=CC(=O)[O-]
REMARK SMILES IDX 7 1 8 2 9 3 10 4 11 5 12 6 13 7 14 8 6 9 5 10 4 11 3 12 2 13
REMARK SMILES IDX 1 14
REMARK H PARENT
REMARK Flexibility Score: inf
ROOT
ATOM      1  C   UNL     1      41.048 -37.619  -0.250  1.00  0.00     0.000 C 
ENDROOT
BRANCH   1   2
ATOM      2  C   UNL     1      41.695 -38.294  -1.472  1.00  0.00     0.004 C 
BRANCH   2   3
ATOM      3  C   UNL     1      42.854 -37.473  -2.060  1.00  0.00     0.027 C 
BRANCH   3   4
ATOM      4  C   UNL     1      42.468 -36.849  -3.374  1.00  0.00    -0.025 C 
ATOM      5  C   UNL     1      42.404 -37.481  -4.557  1.00  0.00     0.020 C 
BRANCH   5   6
ATOM      6  C   UNL     1      42.725 -38.900  -4.820  1.00  0.00     0.064 C 
ATOM      7  O   UNL     1      41.848 -39.803  -4.779  1.00  0.00    -0.545 OA
ATOM      8  O   UNL     1      44.038 -39.248  -5.104  1.00  0.00    -0.545 OA
ENDBRANCH   5   6
ENDBRANCH   3   4
ENDBRANCH   2   3
ENDBRANCH   1   2
BRANCH   1   9
ATOM      9  C   UNL     1      40.145 -36.411  -0.573  1.00  0.00     0.000 C 
BRANCH   9  10
ATOM     10  C   UNL     1      38.764 -36.770  -1.150  1.00  0.00     0.000 C 
BRANCH  10  11
ATOM     11  C   UNL     1      38.588 -36.306  -2.606  1.00  0.00    -0.000 C 
BRANCH  11  12
ATOM     12  C   UNL     1      38.767 -37.451  -3.616  1.00  0.00    -0.000 C 
BRANCH  12  13
ATOM     13  C   UNL     1      38.358 -38.815  -3.040  1.00  0.00    -0.003 C 
ATOM     14  C   UNL     1      37.424 -39.556  -3.991  1.00  0.00     0.004 C 
ENDBRANCH  12  13
ENDBRANCH  11  12
ENDBRANCH  10  11
ENDBRANCH   9  10
ENDBRANCH   1   9
TORSDOF 9
ENDMDL
MODEL 4
REMARK VINA RESULT:    -2.747      2.797      4.828
REMARK INTER + INTRA:          -5.625
REMARK INTER:                  -4.987
REMARK INTRA:                  -0.637
REMARK UNBOUND:                -1.432
REMARK SMILES CCCCCCCCCC=CC(=O)[O-]
REMARK SMILES IDX 7 1 8 2 9 3 10 4 11 5 12 6 13 7 14 8 6 9 5 10 4 11 3 12 2 13
REMARK SMILES IDX 1 14
REMARK H PARENT
REMARK Flexibility Score: inf
ROOT
ATOM      1  C   UNL     1      37.593 -40.003  -4.436  1.00  0.00     0.000 C 
ENDROOT
BRANCH   1   2
ATOM      2  C   UNL     1      36.695 -41.120  -4.997  1.00  0.00     0.004 C 
BRANCH   2   3
ATOM      3  C   UNL     1      35.661 -41.621  -3.976  1.00  0.00     0.027 C 
BRANCH   3   4
ATOM      4  C   UNL     1      34.259 -41.461  -4.497  1.00  0.00    -0.025 C 
ATOM      5  C   UNL     1      33.185 -41.107  -3.772  1.00  0.00     0.020 C 
BRANCH   5   6
ATOM      6  C   UNL     1      33.150 -40.833  -2.319  1.00  0.00     0.064 C 
ATOM      7  O   UNL     1      33.652 -39.791  -1.823  1.00  0.00    -0.545 OA
ATOM      8  O   UNL     1      32.559 -41.764  -1.476  1.00  0.00    -0.545 OA
ENDBRANCH   5   6
ENDBRANCH   3   4
ENDBRANCH   2   3
ENDBRANCH   1   2
BRANCH   1   9
ATOM      9  C   UNL     1      37.070 -39.328  -3.152  1.00  0.00     0.000 C 
BRANCH   9  10
ATOM     10  C   UNL     1      37.900 -38.126  -2.668  1.00  0.00     0.000 C 
BRANCH  10  11
ATOM     11  C   UNL     1      38.938 -37.662  -3.703  1.00  0.00    -0.000 C 
BRANCH  11  12
ATOM     12  C   UNL     1      40.302 -37.344  -3.070  1.00  0.00    -0.000 C 
BRANCH  12  13
ATOM     13  C   UNL     1      41.406 -38.304  -3.537  1.00  0.00    -0.003 C 
ATOM     14  C   UNL     1      42.135 -37.751  -4.758  1.00  0.00     0.004 C 
ENDBRANCH  12  13
ENDBRANCH  11  12
ENDBRANCH  10  11
ENDBRANCH   9  10
ENDBRANCH   1   9
TORSDOF 9
ENDMDL
MODEL 5
REMARK VINA RESULT:    -2.727      1.769      3.186
REMARK INTER + INTRA:          -5.594
REMARK INTER:                  -4.728
REMARK INTRA:                  -0.866
REMARK UNBOUND:                -1.432
REMARK SMILES CCCCCCCCCC=CC(=O)[O-]
REMARK SMILES IDX 7 1 8 2 9 3 10 4 11 5 12 6 13 7 14 8 6 9 5 10 4 11 3 12 2 13
REMARK SMILES IDX 1 14
REMARK H PARENT
REMARK Flexibility Score: inf
ROOT
ATOM      1  C   UNL     1      38.648 -37.761  -2.216  1.00  0.00     0.000 C 
ENDROOT
BRANCH   1   2
ATOM      2  C   UNL     1      38.527 -38.283  -3.659  1.00  0.00     0.004 C 
BRANCH   2   3
ATOM      3  C   UNL     1      37.391 -39.304  -3.829  1.00  0.00     0.027 C 
BRANCH   3   4
ATOM      4  C   UNL     1      36.642 -39.506  -2.539  1.00  0.00    -0.025 C 
ATOM      5  C   UNL     1      35.490 -40.182  -2.395  1.00  0.00     0.020 C 
BRANCH   5   6
ATOM      6  C   UNL     1      34.709 -40.835  -3.466  1.00  0.00     0.064 C 
ATOM      7  O   UNL     1      33.632 -40.349  -3.901  1.00  0.00    -0.545 OA
ATOM      8  O   UNL     1      35.170 -42.032  -3.997  1.00  0.00    -0.545 OA
ENDBRANCH   5   6
ENDBRANCH   3   4
ENDBRANCH   2   3
ENDBRANCH   1   2
BRANCH   1   9
ATOM      9  C   UNL     1      39.036 -36.274  -2.091  1.00  0.00     0.000 C 
BRANCH   9  10
ATOM     10  C   UNL     1      40.549 -35.996  -2.094  1.00  0.00     0.000 C 
BRANCH  10  11
ATOM     11  C   UNL     1      41.378 -37.200  -1.615  1.00  0.00    -0.000 C 
BRANCH  11  12
ATOM     12  C   UNL     1      42.580 -37.489  -2.527  1.00  0.00    -0.000 C 
BRANCH  12  13
ATOM     13  C   UNL     1      42.367 -36.983  -3.962  1.00  0.00    -0.003 C 
ATOM     14  C   UNL     1      42.331 -38.141  -4.954  1.00  0.00     0.004 C 
ENDBRANCH  12  13
ENDBRANCH  11  12
ENDBRANCH  10  11
ENDBRANCH   9  10
ENDBRANCH   1   9
TORSDOF 9
ENDMDL
MODEL 6
REMARK VINA RESULT:    -2.690     15.142     16.575
REMARK INTER + INTRA:          -5.538
REMARK INTER:                  -4.538
REMARK INTRA:                  -1.000
REMARK UNBOUND:                -1.432
REMARK SMILES CCCCCCCCCC=CC(=O)[O-]
REMARK SMILES IDX 7 1 8 2 9 3 10 4 11 5 12 6 13 7 14 8 6 9 5 10 4 11 3 12 2 13
REMARK SMILES IDX 1 14
REMARK H PARENT
REMARK Flexibility Score: inf
ROOT
ATOM      1  C   UNL     1      34.591 -38.418  11.097  1.00  0.00     0.000 C 
ENDROOT
BRANCH   1   2
ATOM      2  C   UNL     1      34.332 -37.932   9.660  1.00  0.00     0.004 C 
BRANCH   2   3
ATOM      3  C   UNL     1      33.615 -36.574   9.611  1.00  0.00     0.027 C 
BRANCH   3   4
ATOM      4  C   UNL     1      32.263 -36.694   8.962  1.00  0.00    -0.025 C 
ATOM      5  C   UNL     1      31.089 -36.820   9.603  1.00  0.00     0.020 C 
BRANCH   5   6
ATOM      6  C   UNL     1      30.885 -36.898  11.065  1.00  0.00     0.064 C 
ATOM      7  O   UNL     1      30.661 -35.875  11.764  1.00  0.00    -0.545 OA
ATOM      8  O   UNL     1      30.960 -38.136  11.687  1.00  0.00    -0.545 OA
ENDBRANCH   5   6
ENDBRANCH   3   4
ENDBRANCH   2   3
ENDBRANCH   1   2
BRANCH   1   9
ATOM      9  C   UNL     1      34.364 -37.358  12.194  1.00  0.00     0.000 C 
BRANCH   9  10
ATOM     10  C   UNL     1      34.875 -37.752  13.592  1.00  0.00     0.000 C 
BRANCH  10  11
ATOM     11  C   UNL     1      34.592 -39.224  13.937  1.00  0.00    -0.000 C 
BRANCH  11  12
ATOM     12  C   UNL     1      35.855 -39.981  14.375  1.00  0.00    -0.000 C 
BRANCH  12  13
ATOM     13  C   UNL     1      35.849 -41.449  13.924  1.00  0.00    -0.003 C 
ATOM     14  C   UNL     1      34.775 -41.696  12.869  1.00  0.00     0.004 C 
ENDBRANCH  12  13
ENDBRANCH  11  12
ENDBRANCH  10  11
ENDBRANCH   9  10
ENDBRANCH   1   9
TORSDOF 9
ENDMDL
MODEL 7
REMARK VINA RESULT:    -2.687      2.874      5.398
REMARK INTER + INTRA:          -5.532
REMARK INTER:                  -3.966
REMARK INTRA:                  -1.567
REMARK UNBOUND:                -1.432
REMARK SMILES CCCCCCCCCC=CC(=O)[O-]
REMARK SMILES IDX 7 1 8 2 9 3 10 4 11 5 12 6 13 7 14 8 6 9 5 10 4 11 3 12 2 13
REMARK SMILES IDX 1 14
REMARK H PARENT
REMARK Flexibility Score: inf
ROOT
ATOM      1  C   UNL     1      39.600 -40.915  -3.340  1.00  0.00     0.000 C 
ENDROOT
BRANCH   1   2
ATOM      2  C   UNL     1      40.792 -40.602  -4.263  1.00  0.00     0.004 C 
BRANCH   2   3
ATOM      3  C   UNL     1      41.754 -39.567  -3.660  1.00  0.00     0.027 C 
BRANCH   3   4
ATOM      4  C   UNL     1      41.889 -38.362  -4.552  1.00  0.00    -0.025 C 
ATOM      5  C   UNL     1      42.561 -37.237  -4.259  1.00  0.00     0.020 C 
BRANCH   5   6
ATOM      6  C   UNL     1      43.274 -36.935  -3.000  1.00  0.00     0.064 C 
ATOM      7  O   UNL     1      42.900 -36.019  -2.222  1.00  0.00    -0.545 OA
ATOM      8  O   UNL     1      44.403 -37.675  -2.676  1.00  0.00    -0.545 OA
ENDBRANCH   5   6
ENDBRANCH   3   4
ENDBRANCH   2   3
ENDBRANCH   1   2
BRANCH   1   9
ATOM      9  C   UNL     1      38.218 -40.868  -4.022  1.00  0.00     0.000 C 
BRANCH   9  10
ATOM     10  C   UNL     1      37.599 -39.463  -4.136  1.00  0.00     0.000 C 
BRANCH  10  11
ATOM     11  C   UNL     1      37.949 -38.558  -2.943  1.00  0.00    -0.000 C 
BRANCH  11  12
ATOM     12  C   UNL     1      38.613 -37.242  -3.375  1.00  0.00    -0.000 C 
BRANCH  12  13
ATOM     13  C   UNL     1      39.451 -36.608  -2.255  1.00  0.00    -0.003 C 
ATOM     14  C   UNL     1      39.760 -37.623  -1.158  1.00  0.00     0.004 C 
ENDBRANCH  12  13
ENDBRANCH  11  12
ENDBRANCH  10  11
ENDBRANCH   9  10
ENDBRANCH   1   9
TORSDOF 9
ENDMDL
MODEL 8
REMARK VINA RESULT:    -2.685      4.741      6.489
REMARK INTER + INTRA:          -5.529
REMARK INTER:                  -4.259
REMARK INTRA:                  -1.270
REMARK UNBOUND:                -1.432
REMARK SMILES CCCCCCCCCC=CC(=O)[O-]
REMARK SMILES IDX 7 1 8 2 9 3 10 4 11 5 12 6 13 7 14 8 6 9 5 10 4 11 3 12 2 13
REMARK SMILES IDX 1 14
REMARK H PARENT
REMARK Flexibility Score: inf
ROOT
ATOM      1  C   UNL     1      35.559 -40.774  -2.666  1.00  0.00     0.000 C 
ENDROOT
BRANCH   1   2
ATOM      2  C   UNL     1      34.195 -40.095  -2.881  1.00  0.00     0.004 C 
BRANCH   2   3
ATOM      3  C   UNL     1      33.371 -40.756  -3.997  1.00  0.00     0.027 C 
BRANCH   3   4
ATOM      4  C   UNL     1      33.808 -42.178  -4.228  1.00  0.00    -0.025 C 
ATOM      5  C   UNL     1      33.017 -43.263  -4.177  1.00  0.00     0.020 C 
BRANCH   5   6
ATOM      6  C   UNL     1      31.575 -43.291  -3.855  1.00  0.00     0.064 C 
ATOM      7  O   UNL     1      30.698 -43.507  -4.732  1.00  0.00    -0.545 OA
ATOM      8  O   UNL     1      31.175 -43.054  -2.547  1.00  0.00    -0.545 OA
ENDBRANCH   5   6
ENDBRANCH   3   4
ENDBRANCH   2   3
ENDBRANCH   1   2
BRANCH   1   9
ATOM      9  C   UNL     1      36.769 -39.817  -2.656  1.00  0.00     0.000 C 
BRANCH   9  10
ATOM     10  C   UNL     1      37.450 -39.619  -4.021  1.00  0.00     0.000 C 
BRANCH  10  11
ATOM     11  C   UNL     1      37.146 -40.757  -5.010  1.00  0.00    -0.000 C 
BRANCH  11  12
ATOM     12  C   UNL     1      38.186 -41.886  -4.949  1.00  0.00    -0.000 C 
BRANCH  12  13
ATOM     13  C   UNL     1      37.558 -43.276  -5.122  1.00  0.00    -0.003 C 
ATOM     14  C   UNL     1      37.248 -43.912  -3.770  1.00  0.00     0.004 C 
ENDBRANCH  12  13
ENDBRANCH  11  12
ENDBRANCH  10  11
ENDBRANCH   9  10
ENDBRANCH   1   9
TORSDOF 9
ENDMDL
MODEL 9
REMARK VINA RESULT:    -2.666      5.509      8.187
REMARK INTER + INTRA:          -5.500
REMARK INTER:                  -3.839
REMARK INTRA:                  -1.661
REMARK UNBOUND:                -1.432
REMARK SMILES CCCCCCCCCC=CC(=O)[O-]
REMARK SMILES IDX 7 1 8 2 9 3 10 4 11 5 12 6 13 7 14 8 6 9 5 10 4 11 3 12 2 13
REMARK SMILES IDX 1 14
REMARK H PARENT
REMARK Flexibility Score: inf
ROOT
ATOM      1  C   UNL     1      32.939 -43.676  -1.744  1.00  0.00     0.000 C 
ENDROOT
BRANCH   1   2
ATOM      2  C   UNL     1      33.518 -42.662  -0.742  1.00  0.00     0.004 C 
BRANCH   2   3
ATOM      3  C   UNL     1      32.441 -41.755  -0.125  1.00  0.00     0.027 C 
BRANCH   3   4
ATOM      4  C   UNL     1      32.353 -40.440  -0.851  1.00  0.00    -0.025 C 
ATOM      5  C   UNL     1      32.879 -39.276  -0.438  1.00  0.00     0.020 C 
BRANCH   5   6
ATOM      6  C   UNL     1      33.621 -39.037   0.818  1.00  0.00     0.064 C 
ATOM      7  O   UNL     1      33.037 -38.906   1.925  1.00  0.00    -0.545 OA
ATOM      8  O   UNL     1      35.005 -38.937   0.770  1.00  0.00    -0.545 OA
ENDBRANCH   5   6
ENDBRANCH   3   4
ENDBRANCH   2   3
ENDBRANCH   1   2
BRANCH   1   9
ATOM      9  C   UNL     1      33.370 -43.464  -3.210  1.00  0.00     0.000 C 
BRANCH   9  10
ATOM     10  C   UNL     1      32.490 -42.486  -4.009  1.00  0.00     0.000 C 
BRANCH  10  11
ATOM     11  C   UNL     1      33.179 -41.134  -4.260  1.00  0.00    -0.000 C 
BRANCH  11  12
ATOM     12  C   UNL     1      34.700 -41.200  -4.057  1.00  0.00    -0.000 C 
BRANCH  12  13
ATOM     13  C   UNL     1      35.232 -40.040  -3.202  1.00  0.00    -0.003 C 
ATOM     14  C   UNL     1      36.231 -40.537  -2.162  1.00  0.00     0.004 C 
ENDBRANCH  12  13
ENDBRANCH  11  12
ENDBRANCH  10  11
ENDBRANCH   9  10
ENDBRANCH   1   9
TORSDOF 9
ENDMDL
