MODEL 1
REMARK VINA RESULT:    -2.595      0.000      0.000
REMARK INTER + INTRA:          -2.961
REMARK INTER:                  -2.899
REMARK INTRA:                  -0.063
REMARK UNBOUND:                -0.063
REMARK SMILES CCCC(=O)[O-]
REMARK SMILES IDX 3 1 4 2 5 3 6 4 2 5 1 6
REMARK H PARENT
REMARK Flexibility Score: inf
ROOT
ATOM      1  C   UNL     1      88.245  82.707  19.304  1.00  0.00     0.052 C 
ENDROOT
BRANCH   1   2
ATOM      2  C   UNL     1      87.237  81.613  19.147  1.00  0.00     0.041 C 
ATOM      3  O   UNL     1      86.945  80.876  20.125  1.00  0.00    -0.550 OA
ATOM      4  O   UNL     1      86.584  81.438  17.934  1.00  0.00    -0.550 OA
ENDBRANCH   1   2
BRANCH   1   5
ATOM      5  C   UNL     1      89.646  82.122  19.496  1.00  0.00     0.003 C 
ATOM      6  C   UNL     1      90.067  81.291  18.287  1.00  0.00     0.004 C 
ENDBRANCH   1   5
TORSDOF 2
ENDMDL
MODEL 2
REMARK VINA RESULT:    -2.567      2.268      2.996
REMARK INTER + INTRA:          -2.929
REMARK INTER:                  -2.872
REMARK INTRA:                  -0.058
REMARK UNBOUND:                -0.063
REMARK SMILES CCCC(=O)[O-]
REMARK SMILES IDX 3 1 4 2 5 3 6 4 2 5 1 6
REMARK H PARENT
REMARK Flexibility Score: inf
ROOT
ATOM      1  C   UNL     1      88.095  81.627  20.082  1.00  0.00     0.052 C 
ENDROOT
BRANCH   1   2
ATOM      2  C   UNL     1      89.260  82.327  19.457  1.00  0.00     0.041 C 
ATOM      3  O   UNL     1      90.143  81.667  18.849  1.00  0.00    -0.550 OA
ATOM      4  O   UNL     1      89.345  83.713  19.501  1.00  0.00    -0.550 OA
ENDBRANCH   1   2
BRANCH   1   5
ATOM      5  C   UNL     1      86.804  81.960  19.331  1.00  0.00     0.003 C 
ATOM      6  C   UNL     1      86.689  81.149  18.044  1.00  0.00     0.004 C 
ENDBRANCH   1   5
TORSDOF 2
ENDMDL
MODEL 3
REMARK VINA RESULT:    -1.700     22.104     22.605
REMARK INTER + INTRA:          -1.962
REMARK INTER:                  -1.950
REMARK INTRA:                  -0.011
REMARK UNBOUND:                -0.063
REMARK SMILES CCCC(=O)[O-]
REMARK SMILES IDX 3 1 4 2 5 3 6 4 2 5 1 6
REMARK H PARENT
REMARK Flexibility Score: inf
ROOT
ATOM      1  C   UNL     1     101.739  98.124  10.354  1.00  0.00     0.052 C 
ENDROOT
BRANCH   1   2
ATOM      2  C   UNL     1     100.847  96.928  10.456  1.00  0.00     0.041 C 
ATOM      3  O   UNL     1     101.333  95.769  10.392  1.00  0.00    -0.550 OA
ATOM      4  O   UNL     1      99.484  97.093  10.671  1.00  0.00    -0.550 OA
ENDBRANCH   1   2
BRANCH   1   5
ATOM      5  C   UNL     1     100.938  99.410  10.572  1.00  0.00     0.003 C 
ATOM      6  C   UNL     1     101.701 100.629  10.062  1.00  0.00     0.004 C 
ENDBRANCH   1   5
TORSDOF 2
ENDMDL
MODEL 4
REMARK VINA RESULT:    -1.570     19.447     19.955
REMARK INTER + INTRA:          -1.816
REMARK INTER:                  -1.810
REMARK INTRA:                  -0.006
REMARK UNBOUND:                -0.063
REMARK SMILES CCCC(=O)[O-]
REMARK SMILES IDX 3 1 4 2 5 3 6 4 2 5 1 6
REMARK H PARENT
REMARK Flexibility Score: inf
ROOT
ATOM      1  C   UNL     1      99.308  96.353  10.779  1.00  0.00     0.052 C 
ENDROOT
BRANCH   1   2
ATOM      2  C   UNL     1      98.944  95.105  11.519  1.00  0.00     0.041 C 
ATOM      3  O   UNL     1      99.228  93.978  11.036  1.00  0.00    -0.550 OA
ATOM      4  O   UNL     1      98.336  95.187  12.765  1.00  0.00    -0.550 OA
ENDBRANCH   1   2
BRANCH   1   5
ATOM      5  C   UNL     1     100.814  96.394  10.506  1.00  0.00     0.003 C 
ATOM      6  C   UNL     1     101.317  97.831  10.404  1.00  0.00     0.004 C 
ENDBRANCH   1   5
TORSDOF 2
ENDMDL
MODEL 5
REMARK VINA RESULT:    -1.549     20.038     20.581
REMARK INTER + INTRA:          -1.792
REMARK INTER:                  -1.758
REMARK INTRA:                  -0.034
REMARK UNBOUND:                -0.063
REMARK SMILES CCCC(=O)[O-]
REMARK SMILES IDX 3 1 4 2 5 3 6 4 2 5 1 6
REMARK H PARENT
REMARK Flexibility Score: inf
ROOT
ATOM      1  C   UNL     1      99.258  96.482  10.755  1.00  0.00     0.052 C 
ENDROOT
BRANCH   1   2
ATOM      2  C   UNL     1     100.729  96.592  10.513  1.00  0.00     0.041 C 
ATOM      3  O   UNL     1     101.432  95.554  10.396  1.00  0.00    -0.550 OA
ATOM      4  O   UNL     1     101.319  97.841  10.367  1.00  0.00    -0.550 OA
ENDBRANCH   1   2
BRANCH   1   5
ATOM      5  C   UNL     1      98.894  95.064  11.203  1.00  0.00     0.003 C 
ATOM      6  C   UNL     1      98.448  95.044  12.662  1.00  0.00     0.004 C 
ENDBRANCH   1   5
TORSDOF 2
ENDMDL
MODEL 6
REMARK VINA RESULT:    -1.170      2.156      3.609
REMARK INTER + INTRA:          -1.369
REMARK INTER:                  -1.350
REMARK INTRA:                  -0.019
REMARK UNBOUND:                -0.063
REMARK SMILES CCCC(=O)[O-]
REMARK SMILES IDX 3 1 4 2 5 3 6 4 2 5 1 6
REMARK H PARENT
REMARK Flexibility Score: inf
ROOT
ATOM      1  C   UNL     1      85.969  81.369  18.559  1.00  0.00     0.052 C 
ENDROOT
BRANCH   1   2
ATOM      2  C   UNL     1      87.420  81.699  18.708  1.00  0.00     0.041 C 
ATOM      3  O   UNL     1      87.776  82.697  19.387  1.00  0.00    -0.550 OA
ATOM      4  O   UNL     1      88.383  80.875  18.139  1.00  0.00    -0.550 OA
ENDBRANCH   1   2
BRANCH   1   5
ATOM      5  C   UNL     1      85.162  81.971  19.713  1.00  0.00     0.003 C 
ATOM      6  C   UNL     1      83.737  82.300  19.277  1.00  0.00     0.004 C 
ENDBRANCH   1   5
TORSDOF 2
ENDMDL
MODEL 7
REMARK VINA RESULT:    -1.062     23.086     23.601
REMARK INTER + INTRA:          -1.249
REMARK INTER:                  -1.236
REMARK INTRA:                  -0.013
REMARK UNBOUND:                -0.063
REMARK SMILES CCCC(=O)[O-]
REMARK SMILES IDX 3 1 4 2 5 3 6 4 2 5 1 6
REMARK H PARENT
REMARK Flexibility Score: inf
ROOT
ATOM      1  C   UNL     1     102.010  98.591  10.133  1.00  0.00     0.052 C 
ENDROOT
BRANCH   1   2
ATOM      2  C   UNL     1     101.518  99.991  10.319  1.00  0.00     0.041 C 
ATOM      3  O   UNL     1     100.335 100.202  10.695  1.00  0.00    -0.550 OA
ATOM      4  O   UNL     1     102.380 101.063  10.127  1.00  0.00    -0.550 OA
ENDBRANCH   1   2
BRANCH   1   5
ATOM      5  C   UNL     1     100.891  97.588  10.422  1.00  0.00     0.003 C 
ATOM      6  C   UNL     1     101.431  96.162  10.484  1.00  0.00     0.004 C 
ENDBRANCH   1   5
TORSDOF 2
ENDMDL
MODEL 8
REMARK VINA RESULT:    -0.609      1.839      2.086
REMARK INTER + INTRA:          -0.743
REMARK INTER:                  -0.720
REMARK INTRA:                  -0.023
REMARK UNBOUND:                -0.063
REMARK SMILES CCCC(=O)[O-]
REMARK SMILES IDX 3 1 4 2 5 3 6 4 2 5 1 6
REMARK H PARENT
REMARK Flexibility Score: inf
ROOT
ATOM      1  C   UNL     1      88.109  81.991  18.068  1.00  0.00     0.052 C 
ENDROOT
BRANCH   1   2
ATOM      2  C   UNL     1      88.005  82.799  19.323  1.00  0.00     0.041 C 
ATOM      3  O   UNL     1      87.035  82.627  20.107  1.00  0.00    -0.550 OA
ATOM      4  O   UNL     1      89.004  83.706  19.652  1.00  0.00    -0.550 OA
ENDBRANCH   1   2
BRANCH   1   5
ATOM      5  C   UNL     1      89.143  80.875  18.234  1.00  0.00     0.003 C 
ATOM      6  C   UNL     1      90.155  80.886  17.092  1.00  0.00     0.004 C 
ENDBRANCH   1   5
TORSDOF 2
ENDMDL
