MODEL 1
REMARK VINA RESULT:    -5.053      0.000      0.000
REMARK INTER + INTRA:          -6.950
REMARK INTER:                  -6.530
REMARK INTRA:                  -0.420
REMARK UNBOUND:                -0.420
REMARK SMILES CCO[C@@H]1O[C@@H](CO)[C@H](O)[C@@H](O)[C@@H]1O
REMARK SMILES IDX 4 1 13 2 11 3 9 4 6 5 5 6 3 7 2 8 1 9 14 10 12 12 7 14 8 15
REMARK SMILES IDX 10 17
REMARK H PARENT 14 11 12 13 8 16 10 18
REMARK Flexibility Score: inf
ROOT
ATOM      1  C   UNL     1      20.539   1.257  40.750  1.00  0.00     0.281 C 
ATOM      2  C   UNL     1      20.414   1.893  42.148  1.00  0.00     0.202 C 
ATOM      3  C   UNL     1      21.408   3.060  42.298  1.00  0.00     0.179 C 
ATOM      4  C   UNL     1      21.250   4.028  41.113  1.00  0.00     0.177 C 
ATOM      5  C   UNL     1      21.323   3.249  39.776  1.00  0.00     0.178 C 
ATOM      6  O   UNL     1      20.336   2.229  39.733  1.00  0.00    -0.341 OA
ENDROOT
BRANCH   1   7
ATOM      7  O   UNL     1      21.796   0.613  40.615  1.00  0.00    -0.350 OA
BRANCH   7   8
ATOM      8  C   UNL     1      21.712  -0.428  39.664  1.00  0.00     0.160 C 
ATOM      9  C   UNL     1      22.777  -0.218  38.600  1.00  0.00     0.035 C 
ENDBRANCH   7   8
ENDBRANCH   1   7
BRANCH   2  10
ATOM     10  O   UNL     1      20.661   0.915  43.125  1.00  0.00    -0.385 OA
ATOM     11  H   UNL     1      20.316   1.272  43.986  1.00  0.00     0.211 HD
ENDBRANCH   2  10
BRANCH   3  12
ATOM     12  O   UNL     1      21.163   3.752  43.495  1.00  0.00    -0.387 OA
ATOM     13  H   UNL     1      21.225   3.090  44.231  1.00  0.00     0.211 HD
ENDBRANCH   3  12
BRANCH   5  14
ATOM     14  C   UNL     1      21.114   4.180  38.574  1.00  0.00     0.191 C 
BRANCH  14  15
ATOM     15  O   UNL     1      22.329   4.763  38.189  1.00  0.00    -0.394 OA
ATOM     16  H   UNL     1      22.806   4.987  39.030  1.00  0.00     0.210 HD
ENDBRANCH  14  15
ENDBRANCH   5  14
BRANCH   4  17
ATOM     17  O   UNL     1      22.224   5.041  41.172  1.00  0.00    -0.387 OA
ATOM     18  H   UNL     1      23.039   4.702  40.717  1.00  0.00     0.211 HD
ENDBRANCH   4  17
TORSDOF 7
ENDMDL
MODEL 2
REMARK VINA RESULT:    -4.946      1.497      3.880
REMARK INTER + INTRA:          -6.812
REMARK INTER:                  -6.373
REMARK INTRA:                  -0.438
REMARK UNBOUND:                -0.420
REMARK SMILES CCO[C@@H]1O[C@@H](CO)[C@H](O)[C@@H](O)[C@@H]1O
REMARK SMILES IDX 4 1 13 2 11 3 9 4 6 5 5 6 3 7 2 8 1 9 14 10 12 12 7 14 8 15
REMARK SMILES IDX 10 17
REMARK H PARENT 14 11 12 13 8 16 10 18
REMARK Flexibility Score: inf
ROOT
ATOM      1  C   UNL     1      21.359   2.669  39.041  1.00  0.00     0.281 C 
ATOM      2  C   UNL     1      22.393   3.688  39.558  1.00  0.00     0.202 C 
ATOM      3  C   UNL     1      21.857   4.409  40.809  1.00  0.00     0.179 C 
ATOM      4  C   UNL     1      21.379   3.371  41.838  1.00  0.00     0.177 C 
ATOM      5  C   UNL     1      20.403   2.370  41.170  1.00  0.00     0.178 C 
ATOM      6  O   UNL     1      21.018   1.735  40.057  1.00  0.00    -0.341 OA
ENDROOT
BRANCH   1   7
ATOM      7  O   UNL     1      20.213   3.343  38.544  1.00  0.00    -0.350 OA
BRANCH   7   8
ATOM      8  C   UNL     1      19.881   2.860  37.259  1.00  0.00     0.160 C 
ATOM      9  C   UNL     1      20.079   3.973  36.243  1.00  0.00     0.035 C 
ENDBRANCH   7   8
ENDBRANCH   1   7
BRANCH   2  10
ATOM     10  O   UNL     1      22.674   4.617  38.543  1.00  0.00    -0.385 OA
ATOM     11  H   UNL     1      23.446   5.161  38.854  1.00  0.00     0.211 HD
ENDBRANCH   2  10
BRANCH   3  12
ATOM     12  O   UNL     1      22.869   5.195  41.383  1.00  0.00    -0.387 OA
ATOM     13  H   UNL     1      23.138   4.750  42.227  1.00  0.00     0.211 HD
ENDBRANCH   3  12
BRANCH   5  14
ATOM     14  C   UNL     1      19.950   1.287  42.157  1.00  0.00     0.191 C 
BRANCH  14  15
ATOM     15  O   UNL     1      20.923   1.088  43.147  1.00  0.00    -0.394 OA
ATOM     16  H   UNL     1      20.938   1.919  43.688  1.00  0.00     0.210 HD
ENDBRANCH  14  15
ENDBRANCH   5  14
BRANCH   4  17
ATOM     17  O   UNL     1      20.783   4.009  42.941  1.00  0.00    -0.387 OA
ATOM     18  H   UNL     1      19.914   4.382  42.640  1.00  0.00     0.211 HD
ENDBRANCH   4  17
TORSDOF 7
ENDMDL
MODEL 3
REMARK VINA RESULT:    -4.687     10.597     12.015
REMARK INTER + INTRA:          -6.478
REMARK INTER:                  -6.111
REMARK INTRA:                  -0.366
REMARK UNBOUND:                -0.420
REMARK SMILES CCO[C@@H]1O[C@@H](CO)[C@H](O)[C@@H](O)[C@@H]1O
REMARK SMILES IDX 4 1 13 2 11 3 9 4 6 5 5 6 3 7 2 8 1 9 14 10 12 12 7 14 8 15
REMARK SMILES IDX 10 17
REMARK H PARENT 14 11 12 13 8 16 10 18
REMARK Flexibility Score: inf
ROOT
ATOM      1  C   UNL     1      32.267   3.651  40.022  1.00  0.00     0.281 C 
ATOM      2  C   UNL     1      31.925   2.650  38.902  1.00  0.00     0.202 C 
ATOM      3  C   UNL     1      32.250   1.213  39.349  1.00  0.00     0.179 C 
ATOM      4  C   UNL     1      31.589   0.934  40.711  1.00  0.00     0.177 C 
ATOM      5  C   UNL     1      31.957   2.052  41.719  1.00  0.00     0.178 C 
ATOM      6  O   UNL     1      31.575   3.325  41.220  1.00  0.00    -0.341 OA
ENDROOT
BRANCH   1   7
ATOM      7  O   UNL     1      33.670   3.699  40.226  1.00  0.00    -0.350 OA
BRANCH   7   8
ATOM      8  C   UNL     1      34.028   4.895  40.887  1.00  0.00     0.160 C 
ATOM      9  C   UNL     1      35.226   4.629  41.784  1.00  0.00     0.035 C 
ENDBRANCH   7   8
ENDBRANCH   1   7
BRANCH   2  10
ATOM     10  O   UNL     1      32.657   2.978  37.749  1.00  0.00    -0.385 OA
ATOM     11  H   UNL     1      33.438   2.365  37.718  1.00  0.00     0.211 HD
ENDBRANCH   2  10
BRANCH   3  12
ATOM     12  O   UNL     1      31.766   0.292  38.406  1.00  0.00    -0.387 OA
ATOM     13  H   UNL     1      30.934   0.677  38.026  1.00  0.00     0.211 HD
ENDBRANCH   3  12
BRANCH   5  14
ATOM     14  C   UNL     1      31.270   1.833  43.072  1.00  0.00     0.191 C 
BRANCH  14  15
ATOM     15  O   UNL     1      31.897   0.797  43.779  1.00  0.00    -0.394 OA
ATOM     16  H   UNL     1      31.681   0.946  44.735  1.00  0.00     0.210 HD
ENDBRANCH  14  15
ENDBRANCH   5  14
BRANCH   4  17
ATOM     17  O   UNL     1      31.965  -0.334  41.190  1.00  0.00    -0.387 OA
ATOM     18  H   UNL     1      31.137  -0.814  41.452  1.00  0.00     0.211 HD
ENDBRANCH   4  17
TORSDOF 7
ENDMDL
MODEL 4
REMARK VINA RESULT:    -4.510      1.369      3.778
REMARK INTER + INTRA:          -6.248
REMARK INTER:                  -5.867
REMARK INTRA:                  -0.381
REMARK UNBOUND:                -0.420
REMARK SMILES CCO[C@@H]1O[C@@H](CO)[C@H](O)[C@@H](O)[C@@H]1O
REMARK SMILES IDX 4 1 13 2 11 3 9 4 6 5 5 6 3 7 2 8 1 9 14 10 12 12 7 14 8 15
REMARK SMILES IDX 10 17
REMARK H PARENT 14 11 12 13 8 16 10 18
REMARK Flexibility Score: inf
ROOT
ATOM      1  C   UNL     1      22.891   3.355  39.840  1.00  0.00     0.281 C 
ATOM      2  C   UNL     1      22.691   3.849  41.286  1.00  0.00     0.202 C 
ATOM      3  C   UNL     1      21.336   3.365  41.836  1.00  0.00     0.179 C 
ATOM      4  C   UNL     1      21.210   1.845  41.631  1.00  0.00     0.177 C 
ATOM      5  C   UNL     1      21.505   1.480  40.154  1.00  0.00     0.178 C 
ATOM      6  O   UNL     1      22.794   1.938  39.771  1.00  0.00    -0.341 OA
ENDROOT
BRANCH   1   7
ATOM      7  O   UNL     1      21.961   3.985  38.973  1.00  0.00    -0.350 OA
BRANCH   7   8
ATOM      8  C   UNL     1      22.547   4.211  37.708  1.00  0.00     0.160 C 
ATOM      9  C   UNL     1      21.457   4.224  36.650  1.00  0.00     0.035 C 
ENDBRANCH   7   8
ENDBRANCH   1   7
BRANCH   2  10
ATOM     10  O   UNL     1      22.752   5.252  41.309  1.00  0.00    -0.385 OA
ATOM     11  H   UNL     1      22.947   5.518  42.245  1.00  0.00     0.211 HD
ENDBRANCH   2  10
BRANCH   3  12
ATOM     12  O   UNL     1      21.240   3.655  43.206  1.00  0.00    -0.387 OA
ATOM     13  H   UNL     1      21.512   4.601  43.322  1.00  0.00     0.211 HD
ENDBRANCH   3  12
BRANCH   5  14
ATOM     14  C   UNL     1      21.441  -0.035  39.929  1.00  0.00     0.191 C 
BRANCH  14  15
ATOM     15  O   UNL     1      20.140  -0.424  39.580  1.00  0.00    -0.394 OA
ATOM     16  H   UNL     1      19.585  -0.285  40.392  1.00  0.00     0.210 HD
ENDBRANCH  14  15
ENDBRANCH   5  14
BRANCH   4  17
ATOM     17  O   UNL     1      19.935   1.400  42.024  1.00  0.00    -0.387 OA
ATOM     18  H   UNL     1      19.957   0.408  42.052  1.00  0.00     0.211 HD
ENDBRANCH   4  17
TORSDOF 7
ENDMDL
MODEL 5
REMARK VINA RESULT:    -4.470     16.895     17.725
REMARK INTER + INTRA:          -6.197
REMARK INTER:                  -5.979
REMARK INTRA:                  -0.218
REMARK UNBOUND:                -0.420
REMARK SMILES CCO[C@@H]1O[C@@H](CO)[C@H](O)[C@@H](O)[C@@H]1O
REMARK SMILES IDX 4 1 13 2 11 3 9 4 6 5 5 6 3 7 2 8 1 9 14 10 12 12 7 14 8 15
REMARK SMILES IDX 10 17
REMARK H PARENT 14 11 12 13 8 16 10 18
REMARK Flexibility Score: inf
ROOT
ATOM      1  C   UNL     1      37.440   7.534  43.783  1.00  0.00     0.281 C 
ATOM      2  C   UNL     1      36.472   8.065  44.858  1.00  0.00     0.202 C 
ATOM      3  C   UNL     1      36.768   9.545  45.162  1.00  0.00     0.179 C 
ATOM      4  C   UNL     1      36.803  10.345  43.848  1.00  0.00     0.177 C 
ATOM      5  C   UNL     1      37.757   9.663  42.835  1.00  0.00     0.178 C 
ATOM      6  O   UNL     1      37.363   8.319  42.600  1.00  0.00    -0.341 OA
ENDROOT
BRANCH   1   7
ATOM      7  O   UNL     1      38.763   7.487  44.295  1.00  0.00    -0.350 OA
BRANCH   7   8
ATOM      8  C   UNL     1      39.480   6.425  43.699  1.00  0.00     0.160 C 
ATOM      9  C   UNL     1      39.606   5.288  44.699  1.00  0.00     0.035 C 
ENDBRANCH   7   8
ENDBRANCH   1   7
BRANCH   2  10
ATOM     10  O   UNL     1      36.605   7.292  46.023  1.00  0.00    -0.385 OA
ATOM     11  H   UNL     1      36.717   6.349  45.734  1.00  0.00     0.211 HD
ENDBRANCH   2  10
BRANCH   3  12
ATOM     12  O   UNL     1      35.771  10.074  45.998  1.00  0.00    -0.387 OA
ATOM     13  H   UNL     1      35.476  10.929  45.590  1.00  0.00     0.211 HD
ENDBRANCH   3  12
BRANCH   5  14
ATOM     14  C   UNL     1      37.772  10.406  41.494  1.00  0.00     0.191 C 
BRANCH  14  15
ATOM     15  O   UNL     1      38.399   9.628  40.510  1.00  0.00    -0.394 OA
ATOM     16  H   UNL     1      37.723   9.490  39.797  1.00  0.00     0.210 HD
ENDBRANCH  14  15
ENDBRANCH   5  14
BRANCH   4  17
ATOM     17  O   UNL     1      37.182  11.677  44.093  1.00  0.00    -0.387 OA
ATOM     18  H   UNL     1      36.809  12.236  43.362  1.00  0.00     0.211 HD
ENDBRANCH   4  17
TORSDOF 7
ENDMDL
MODEL 6
REMARK VINA RESULT:    -4.452      9.974     10.926
REMARK INTER + INTRA:          -6.173
REMARK INTER:                  -5.734
REMARK INTRA:                  -0.439
REMARK UNBOUND:                -0.420
REMARK SMILES CCO[C@@H]1O[C@@H](CO)[C@H](O)[C@@H](O)[C@@H]1O
REMARK SMILES IDX 4 1 13 2 11 3 9 4 6 5 5 6 3 7 2 8 1 9 14 10 12 12 7 14 8 15
REMARK SMILES IDX 10 17
REMARK H PARENT 14 11 12 13 8 16 10 18
REMARK Flexibility Score: inf
ROOT
ATOM      1  C   UNL     1      32.149   1.784  42.142  1.00  0.00     0.281 C 
ATOM      2  C   UNL     1      32.332   0.928  40.874  1.00  0.00     0.202 C 
ATOM      3  C   UNL     1      31.561   1.547  39.693  1.00  0.00     0.179 C 
ATOM      4  C   UNL     1      31.938   3.031  39.552  1.00  0.00     0.177 C 
ATOM      5  C   UNL     1      31.777   3.754  40.913  1.00  0.00     0.178 C 
ATOM      6  O   UNL     1      32.564   3.124  41.913  1.00  0.00    -0.341 OA
ENDROOT
BRANCH   1   7
ATOM      7  O   UNL     1      30.803   1.722  42.585  1.00  0.00    -0.350 OA
BRANCH   7   8
ATOM      8  C   UNL     1      30.741   1.888  43.987  1.00  0.00     0.160 C 
ATOM      9  C   UNL     1      31.887   1.124  44.630  1.00  0.00     0.035 C 
ENDBRANCH   7   8
ENDBRANCH   1   7
BRANCH   2  10
ATOM     10  O   UNL     1      31.875  -0.376  41.125  1.00  0.00    -0.385 OA
ATOM     11  H   UNL     1      30.920  -0.404  40.853  1.00  0.00     0.211 HD
ENDBRANCH   2  10
BRANCH   3  12
ATOM     12  O   UNL     1      31.879   0.874  38.503  1.00  0.00    -0.387 OA
ATOM     13  H   UNL     1      31.780   1.529  37.765  1.00  0.00     0.211 HD
ENDBRANCH   3  12
BRANCH   5  14
ATOM     14  C   UNL     1      32.198   5.226  40.818  1.00  0.00     0.191 C 
BRANCH  14  15
ATOM     15  O   UNL     1      31.124   6.015  40.383  1.00  0.00    -0.394 OA
ATOM     16  H   UNL     1      30.349   5.402  40.297  1.00  0.00     0.210 HD
ENDBRANCH  14  15
ENDBRANCH   5  14
BRANCH   4  17
ATOM     17  O   UNL     1      31.161   3.643  38.551  1.00  0.00    -0.387 OA
ATOM     18  H   UNL     1      30.427   3.018  38.315  1.00  0.00     0.211 HD
ENDBRANCH   4  17
TORSDOF 7
ENDMDL
MODEL 7
REMARK VINA RESULT:    -4.386     10.247     11.474
REMARK INTER + INTRA:          -6.088
REMARK INTER:                  -5.832
REMARK INTRA:                  -0.255
REMARK UNBOUND:                -0.420
REMARK SMILES CCO[C@@H]1O[C@@H](CO)[C@H](O)[C@@H](O)[C@@H]1O
REMARK SMILES IDX 4 1 13 2 11 3 9 4 6 5 5 6 3 7 2 8 1 9 14 10 12 12 7 14 8 15
REMARK SMILES IDX 10 17
REMARK H PARENT 14 11 12 13 8 16 10 18
REMARK Flexibility Score: inf
ROOT
ATOM      1  C   UNL     1      31.451   2.131  41.680  1.00  0.00     0.281 C 
ATOM      2  C   UNL     1      31.474   3.364  40.756  1.00  0.00     0.202 C 
ATOM      3  C   UNL     1      32.687   3.302  39.809  1.00  0.00     0.179 C 
ATOM      4  C   UNL     1      32.717   1.939  39.097  1.00  0.00     0.177 C 
ATOM      5  C   UNL     1      32.615   0.793  40.136  1.00  0.00     0.178 C 
ATOM      6  O   UNL     1      31.440   0.929  40.921  1.00  0.00    -0.341 OA
ENDROOT
BRANCH   1   7
ATOM      7  O   UNL     1      32.548   2.172  42.579  1.00  0.00    -0.350 OA
BRANCH   7   8
ATOM      8  C   UNL     1      32.182   1.609  43.823  1.00  0.00     0.160 C 
ATOM      9  C   UNL     1      30.747   1.995  44.141  1.00  0.00     0.035 C 
ENDBRANCH   7   8
ENDBRANCH   1   7
BRANCH   2  10
ATOM     10  O   UNL     1      31.526   4.529  41.538  1.00  0.00    -0.385 OA
ATOM     11  H   UNL     1      31.321   5.291  40.936  1.00  0.00     0.211 HD
ENDBRANCH   2  10
BRANCH   3  12
ATOM     12  O   UNL     1      32.602   4.322  38.848  1.00  0.00    -0.387 OA
ATOM     13  H   UNL     1      32.178   3.928  38.044  1.00  0.00     0.211 HD
ENDBRANCH   3  12
BRANCH   5  14
ATOM     14  C   UNL     1      32.588  -0.580  39.453  1.00  0.00     0.191 C 
BRANCH  14  15
ATOM     15  O   UNL     1      31.266  -1.022  39.296  1.00  0.00    -0.394 OA
ATOM     16  H   UNL     1      30.768  -0.263  38.896  1.00  0.00     0.210 HD
ENDBRANCH  14  15
ENDBRANCH   5  14
BRANCH   4  17
ATOM     17  O   UNL     1      33.879   1.819  38.313  1.00  0.00    -0.387 OA
ATOM     18  H   UNL     1      33.713   1.112  37.635  1.00  0.00     0.211 HD
ENDBRANCH   4  17
TORSDOF 7
ENDMDL
MODEL 8
REMARK VINA RESULT:    -4.370     10.325     11.240
REMARK INTER + INTRA:          -6.067
REMARK INTER:                  -5.604
REMARK INTRA:                  -0.462
REMARK UNBOUND:                -0.420
REMARK SMILES CCO[C@@H]1O[C@@H](CO)[C@H](O)[C@@H](O)[C@@H]1O
REMARK SMILES IDX 4 1 13 2 11 3 9 4 6 5 5 6 3 7 2 8 1 9 14 10 12 12 7 14 8 15
REMARK SMILES IDX 10 17
REMARK H PARENT 14 11 12 13 8 16 10 18
REMARK Flexibility Score: inf
ROOT
ATOM      1  C   UNL     1      32.742   1.225  39.044  1.00  0.00     0.281 C 
ATOM      2  C   UNL     1      31.699   0.714  40.057  1.00  0.00     0.202 C 
ATOM      3  C   UNL     1      31.622   1.659  41.270  1.00  0.00     0.179 C 
ATOM      4  C   UNL     1      31.422   3.106  40.786  1.00  0.00     0.177 C 
ATOM      5  C   UNL     1      32.491   3.463  39.722  1.00  0.00     0.178 C 
ATOM      6  O   UNL     1      32.441   2.552  38.634  1.00  0.00    -0.341 OA
ENDROOT
BRANCH   1   7
ATOM      7  O   UNL     1      34.047   1.131  39.595  1.00  0.00    -0.350 OA
BRANCH   7   8
ATOM      8  C   UNL     1      34.984   0.826  38.582  1.00  0.00     0.160 C 
ATOM      9  C   UNL     1      34.860  -0.643  38.214  1.00  0.00     0.035 C 
ENDBRANCH   7   8
ENDBRANCH   1   7
BRANCH   2  10
ATOM     10  O   UNL     1      32.051  -0.581  40.470  1.00  0.00    -0.385 OA
ATOM     11  H   UNL     1      31.893  -1.184  39.697  1.00  0.00     0.211 HD
ENDBRANCH   2  10
BRANCH   3  12
ATOM     12  O   UNL     1      30.545   1.297  42.096  1.00  0.00    -0.387 OA
ATOM     13  H   UNL     1      29.929   2.074  42.126  1.00  0.00     0.211 HD
ENDBRANCH   3  12
BRANCH   5  14
ATOM     14  C   UNL     1      32.286   4.882  39.178  1.00  0.00     0.191 C 
BRANCH  14  15
ATOM     15  O   UNL     1      30.924   5.213  39.174  1.00  0.00    -0.394 OA
ATOM     16  H   UNL     1      30.803   5.894  39.885  1.00  0.00     0.210 HD
ENDBRANCH  14  15
ENDBRANCH   5  14
BRANCH   4  17
ATOM     17  O   UNL     1      31.461   3.998  41.872  1.00  0.00    -0.387 OA
ATOM     18  H   UNL     1      30.846   4.750  41.666  1.00  0.00     0.211 HD
ENDBRANCH   4  17
TORSDOF 7
ENDMDL
MODEL 9
REMARK VINA RESULT:    -4.210      3.055      5.041
REMARK INTER + INTRA:          -5.861
REMARK INTER:                  -5.434
REMARK INTRA:                  -0.427
REMARK UNBOUND:                -0.420
REMARK SMILES CCO[C@@H]1O[C@@H](CO)[C@H](O)[C@@H](O)[C@@H]1O
REMARK SMILES IDX 4 1 13 2 11 3 9 4 6 5 5 6 3 7 2 8 1 9 14 10 12 12 7 14 8 15
REMARK SMILES IDX 10 17
REMARK H PARENT 14 11 12 13 8 16 10 18
REMARK Flexibility Score: inf
ROOT
ATOM      1  C   UNL     1      20.887   2.874  37.954  1.00  0.00     0.281 C 
ATOM      2  C   UNL     1      20.133   4.203  37.759  1.00  0.00     0.202 C 
ATOM      3  C   UNL     1      20.683   4.958  36.534  1.00  0.00     0.179 C 
ATOM      4  C   UNL     1      20.699   4.020  35.315  1.00  0.00     0.177 C 
ATOM      5  C   UNL     1      21.422   2.697  35.670  1.00  0.00     0.178 C 
ATOM      6  O   UNL     1      20.805   2.069  36.784  1.00  0.00    -0.341 OA
ENDROOT
BRANCH   1   7
ATOM      7  O   UNL     1      22.234   3.124  38.323  1.00  0.00    -0.350 OA
BRANCH   7   8
ATOM      8  C   UNL     1      22.642   2.219  39.328  1.00  0.00     0.160 C 
ATOM      9  C   UNL     1      21.438   1.842  40.176  1.00  0.00     0.035 C 
ENDBRANCH   7   8
ENDBRANCH   1   7
BRANCH   2  10
ATOM     10  O   UNL     1      20.270   4.988  38.916  1.00  0.00    -0.385 OA
ATOM     11  H   UNL     1      21.076   4.659  39.394  1.00  0.00     0.211 HD
ENDBRANCH   2  10
BRANCH   3  12
ATOM     12  O   UNL     1      19.875   6.070  36.250  1.00  0.00    -0.387 OA
ATOM     13  H   UNL     1      20.454   6.873  36.313  1.00  0.00     0.211 HD
ENDBRANCH   3  12
BRANCH   5  14
ATOM     14  C   UNL     1      21.408   1.717  34.491  1.00  0.00     0.191 C 
BRANCH  14  15
ATOM     15  O   UNL     1      22.483   1.973  33.628  1.00  0.00    -0.394 OA
ATOM     16  H   UNL     1      22.190   1.677  32.727  1.00  0.00     0.210 HD
ENDBRANCH  14  15
ENDBRANCH   5  14
BRANCH   4  17
ATOM     17  O   UNL     1      21.301   4.655  34.214  1.00  0.00    -0.387 OA
ATOM     18  H   UNL     1      20.578   5.053  33.662  1.00  0.00     0.211 HD
ENDBRANCH   4  17
TORSDOF 7
ENDMDL
