MODEL 1
REMARK VINA RESULT:    -4.846      0.000      0.000
REMARK INTER + INTRA:          -6.685
REMARK INTER:                  -6.546
REMARK INTRA:                  -0.139
REMARK UNBOUND:                -0.139
REMARK SMILES CCCCCCCC(=O)[O-]
REMARK SMILES IDX 5 1 6 2 7 3 8 4 9 5 10 6 4 7 3 8 2 9 1 10
REMARK H PARENT
REMARK Flexibility Score: inf
ROOT
ATOM      1  C   UNL     1      -0.246  -0.624  -0.886  1.00  0.00     0.000 C 
ENDROOT
BRANCH   1   2
ATOM      2  C   UNL     1       0.324   0.801  -0.961  1.00  0.00     0.006 C 
BRANCH   2   3
ATOM      3  C   UNL     1       1.666   0.817  -1.698  1.00  0.00     0.053 C 
BRANCH   3   4
ATOM      4  C   UNL     1       2.635   1.720  -1.004  1.00  0.00     0.041 C 
ATOM      5  O   UNL     1       2.459   2.967  -1.015  1.00  0.00    -0.550 OA
ATOM      6  O   UNL     1       3.708   1.183  -0.304  1.00  0.00    -0.550 OA
ENDBRANCH   3   4
ENDBRANCH   2   3
ENDBRANCH   1   2
BRANCH   1   7
ATOM      7  C   UNL     1      -1.591  -0.764  -1.616  1.00  0.00     0.000 C 
BRANCH   7   8
ATOM      8  C   UNL     1      -2.662  -1.453  -0.753  1.00  0.00    -0.000 C 
BRANCH   8   9
ATOM      9  C   UNL     1      -3.165  -2.765  -1.376  1.00  0.00    -0.003 C 
ATOM     10  C   UNL     1      -2.748  -4.000  -0.577  1.00  0.00     0.004 C 
ENDBRANCH   8   9
ENDBRANCH   7   8
ENDBRANCH   1   7
TORSDOF 6
ENDMDL
MODEL 2
REMARK VINA RESULT:    -4.844      3.601      5.959
REMARK INTER + INTRA:          -6.682
REMARK INTER:                  -6.424
REMARK INTRA:                  -0.258
REMARK UNBOUND:                -0.139
REMARK SMILES CCCCCCCC(=O)[O-]
REMARK SMILES IDX 5 1 6 2 7 3 8 4 9 5 10 6 4 7 3 8 2 9 1 10
REMARK H PARENT
REMARK Flexibility Score: inf
ROOT
ATOM      1  C   UNL     1      -0.360   0.015  -0.153  1.00  0.00     0.000 C 
ENDROOT
BRANCH   1   2
ATOM      2  C   UNL     1      -0.548  -1.176  -1.106  1.00  0.00     0.006 C 
BRANCH   2   3
ATOM      3  C   UNL     1      -1.940  -1.151  -1.746  1.00  0.00     0.053 C 
BRANCH   3   4
ATOM      4  C   UNL     1      -2.882  -2.029  -0.985  1.00  0.00     0.041 C 
ATOM      5  O   UNL     1      -3.844  -1.524  -0.347  1.00  0.00    -0.550 OA
ATOM      6  O   UNL     1      -2.728  -3.409  -1.020  1.00  0.00    -0.550 OA
ENDBRANCH   3   4
ENDBRANCH   2   3
ENDBRANCH   1   2
BRANCH   1   7
ATOM      7  C   UNL     1       0.345   1.206  -0.823  1.00  0.00     0.000 C 
BRANCH   7   8
ATOM      8  C   UNL     1       1.612   0.788  -1.589  1.00  0.00    -0.000 C 
BRANCH   8   9
ATOM      9  C   UNL     1       2.856   1.569  -1.137  1.00  0.00    -0.003 C 
ATOM     10  C   UNL     1       2.546   3.021  -0.775  1.00  0.00     0.004 C 
ENDBRANCH   8   9
ENDBRANCH   7   8
ENDBRANCH   1   7
TORSDOF 6
ENDMDL
MODEL 3
REMARK VINA RESULT:    -4.839      0.496      1.307
REMARK INTER + INTRA:          -6.674
REMARK INTER:                  -6.446
REMARK INTRA:                  -0.229
REMARK UNBOUND:                -0.139
REMARK SMILES CCCCCCCC(=O)[O-]
REMARK SMILES IDX 5 1 6 2 7 3 8 4 9 5 10 6 4 7 3 8 2 9 1 10
REMARK H PARENT
REMARK Flexibility Score: inf
ROOT
ATOM      1  C   UNL     1      -0.040  -0.087  -0.234  1.00  0.00     0.000 C 
ENDROOT
BRANCH   1   2
ATOM      2  C   UNL     1       0.355   1.137  -1.074  1.00  0.00     0.006 C 
BRANCH   2   3
ATOM      3  C   UNL     1       1.766   0.976  -1.647  1.00  0.00     0.053 C 
BRANCH   3   4
ATOM      4  C   UNL     1       2.743   1.807  -0.877  1.00  0.00     0.041 C 
ATOM      5  O   UNL     1       3.740   1.268  -0.328  1.00  0.00    -0.550 OA
ATOM      6  O   UNL     1       2.580   3.184  -0.807  1.00  0.00    -0.550 OA
ENDBRANCH   3   4
ENDBRANCH   2   3
ENDBRANCH   1   2
BRANCH   1   7
ATOM      7  C   UNL     1      -0.503  -1.274  -1.093  1.00  0.00     0.000 C 
BRANCH   7   8
ATOM      8  C   UNL     1      -1.879  -1.035  -1.738  1.00  0.00    -0.000 C 
BRANCH   8   9
ATOM      9  C   UNL     1      -3.021  -1.695  -0.948  1.00  0.00    -0.003 C 
ATOM     10  C   UNL     1      -2.934  -3.220  -0.941  1.00  0.00     0.004 C 
ENDBRANCH   8   9
ENDBRANCH   7   8
ENDBRANCH   1   7
TORSDOF 6
ENDMDL
MODEL 4
REMARK VINA RESULT:    -4.661      1.438      2.283
REMARK INTER + INTRA:          -6.434
REMARK INTER:                  -6.251
REMARK INTRA:                  -0.183
REMARK UNBOUND:                -0.139
REMARK SMILES CCCCCCCC(=O)[O-]
REMARK SMILES IDX 5 1 6 2 7 3 8 4 9 5 10 6 4 7 3 8 2 9 1 10
REMARK H PARENT
REMARK Flexibility Score: inf
ROOT
ATOM      1  C   UNL     1       1.478   0.504  -1.566  1.00  0.00     0.000 C 
ENDROOT
BRANCH   1   2
ATOM      2  C   UNL     1       2.560   1.200  -0.726  1.00  0.00     0.006 C 
BRANCH   2   3
ATOM      3  C   UNL     1       2.969   2.535  -1.356  1.00  0.00     0.053 C 
BRANCH   3   4
ATOM      4  C   UNL     1       2.586   3.673  -0.465  1.00  0.00     0.041 C 
ATOM      5  O   UNL     1       1.373   3.906  -0.217  1.00  0.00    -0.550 OA
ATOM      6  O   UNL     1       3.571   4.450   0.133  1.00  0.00    -0.550 OA
ENDBRANCH   3   4
ENDBRANCH   2   3
ENDBRANCH   1   2
BRANCH   1   7
ATOM      7  C   UNL     1       0.144   0.359  -0.816  1.00  0.00     0.000 C 
BRANCH   7   8
ATOM      8  C   UNL     1      -0.512  -1.014  -1.037  1.00  0.00    -0.000 C 
BRANCH   8   9
ATOM      9  C   UNL     1      -1.867  -0.910  -1.754  1.00  0.00    -0.003 C 
ATOM     10  C   UNL     1      -2.865  -1.973  -1.297  1.00  0.00     0.004 C 
ENDBRANCH   8   9
ENDBRANCH   7   8
ENDBRANCH   1   7
TORSDOF 6
ENDMDL
MODEL 5
REMARK VINA RESULT:    -4.383      4.251      6.346
REMARK INTER + INTRA:          -6.059
REMARK INTER:                  -5.902
REMARK INTRA:                  -0.157
REMARK UNBOUND:                -0.139
REMARK SMILES CCCCCCCC(=O)[O-]
REMARK SMILES IDX 5 1 6 2 7 3 8 4 9 5 10 6 4 7 3 8 2 9 1 10
REMARK H PARENT
REMARK Flexibility Score: inf
ROOT
ATOM      1  C   UNL     1      -1.850  -0.819  -1.574  1.00  0.00     0.000 C 
ENDROOT
BRANCH   1   2
ATOM      2  C   UNL     1      -2.736  -2.021  -1.211  1.00  0.00     0.006 C 
BRANCH   2   3
ATOM      3  C   UNL     1      -1.884  -3.219  -0.779  1.00  0.00     0.053 C 
BRANCH   3   4
ATOM      4  C   UNL     1      -2.742  -4.428  -0.581  1.00  0.00     0.041 C 
ATOM      5  O   UNL     1      -3.790  -4.355   0.115  1.00  0.00    -0.550 OA
ATOM      6  O   UNL     1      -2.412  -5.624  -1.205  1.00  0.00    -0.550 OA
ENDBRANCH   3   4
ENDBRANCH   2   3
ENDBRANCH   1   2
BRANCH   1   7
ATOM      7  C   UNL     1      -0.401  -0.981  -1.088  1.00  0.00     0.000 C 
BRANCH   7   8
ATOM      8  C   UNL     1       0.305   0.369  -0.874  1.00  0.00    -0.000 C 
BRANCH   8   9
ATOM      9  C   UNL     1       1.602   0.489  -1.690  1.00  0.00    -0.003 C 
ATOM     10  C   UNL     1       2.481   1.655  -1.239  1.00  0.00     0.004 C 
ENDBRANCH   8   9
ENDBRANCH   7   8
ENDBRANCH   1   7
TORSDOF 6
ENDMDL
MODEL 6
REMARK VINA RESULT:    -4.139      1.098      1.675
REMARK INTER + INTRA:          -5.729
REMARK INTER:                  -5.561
REMARK INTRA:                  -0.168
REMARK UNBOUND:                -0.139
REMARK SMILES CCCCCCCC(=O)[O-]
REMARK SMILES IDX 5 1 6 2 7 3 8 4 9 5 10 6 4 7 3 8 2 9 1 10
REMARK H PARENT
REMARK Flexibility Score: inf
ROOT
ATOM      1  C   UNL     1      -1.502  -0.811  -1.561  1.00  0.00     0.000 C 
ENDROOT
BRANCH   1   2
ATOM      2  C   UNL     1      -0.524  -0.305  -0.490  1.00  0.00     0.006 C 
BRANCH   2   3
ATOM      3  C   UNL     1       0.053   1.061  -0.875  1.00  0.00     0.053 C 
BRANCH   3   4
ATOM      4  C   UNL     1       1.471   0.921  -1.331  1.00  0.00     0.041 C 
ATOM      5  O   UNL     1       2.308   1.830  -1.087  1.00  0.00    -0.550 OA
ATOM      6  O   UNL     1       1.881  -0.235  -1.982  1.00  0.00    -0.550 OA
ENDBRANCH   3   4
ENDBRANCH   2   3
ENDBRANCH   1   2
BRANCH   1   7
ATOM      7  C   UNL     1      -2.806  -1.362  -0.963  1.00  0.00     0.000 C 
BRANCH   7   8
ATOM      8  C   UNL     1      -3.088  -2.811  -1.396  1.00  0.00    -0.000 C 
BRANCH   8   9
ATOM      9  C   UNL     1      -2.685  -3.834  -0.322  1.00  0.00    -0.003 C 
ATOM     10  C   UNL     1      -3.001  -5.274  -0.725  1.00  0.00     0.004 C 
ENDBRANCH   8   9
ENDBRANCH   7   8
ENDBRANCH   1   7
TORSDOF 6
ENDMDL
MODEL 7
REMARK VINA RESULT:    -4.114      3.146      6.101
REMARK INTER + INTRA:          -5.695
REMARK INTER:                  -5.491
REMARK INTRA:                  -0.204
REMARK UNBOUND:                -0.139
REMARK SMILES CCCCCCCC(=O)[O-]
REMARK SMILES IDX 5 1 6 2 7 3 8 4 9 5 10 6 4 7 3 8 2 9 1 10
REMARK H PARENT
REMARK Flexibility Score: inf
ROOT
ATOM      1  C   UNL     1       1.580   0.373  -1.798  1.00  0.00     0.000 C 
ENDROOT
BRANCH   1   2
ATOM      2  C   UNL     1       0.373   0.368  -0.848  1.00  0.00     0.006 C 
BRANCH   2   3
ATOM      3  C   UNL     1      -0.261  -1.025  -0.774  1.00  0.00     0.053 C 
BRANCH   3   4
ATOM      4  C   UNL     1      -1.619  -1.016  -1.400  1.00  0.00     0.041 C 
ATOM      5  O   UNL     1      -1.945  -0.097  -2.197  1.00  0.00    -0.550 OA
ATOM      6  O   UNL     1      -2.510  -2.050  -1.141  1.00  0.00    -0.550 OA
ENDBRANCH   3   4
ENDBRANCH   2   3
ENDBRANCH   1   2
BRANCH   1   7
ATOM      7  C   UNL     1       2.597   1.475  -1.461  1.00  0.00     0.000 C 
BRANCH   7   8
ATOM      8  C   UNL     1       1.961   2.654  -0.705  1.00  0.00    -0.000 C 
BRANCH   8   9
ATOM      9  C   UNL     1       2.987   3.738  -0.337  1.00  0.00    -0.003 C 
ATOM     10  C   UNL     1       2.486   5.152  -0.628  1.00  0.00     0.004 C 
ENDBRANCH   8   9
ENDBRANCH   7   8
ENDBRANCH   1   7
TORSDOF 6
ENDMDL
MODEL 8
REMARK VINA RESULT:    -3.409     13.274     14.458
REMARK INTER + INTRA:          -4.744
REMARK INTER:                  -4.516
REMARK INTRA:                  -0.227
REMARK UNBOUND:                -0.139
REMARK SMILES CCCCCCCC(=O)[O-]
REMARK SMILES IDX 5 1 6 2 7 3 8 4 9 5 10 6 4 7 3 8 2 9 1 10
REMARK H PARENT
REMARK Flexibility Score: inf
ROOT
ATOM      1  C   UNL     1       8.540   4.138   7.679  1.00  0.00     0.000 C 
ENDROOT
BRANCH   1   2
ATOM      2  C   UNL     1       9.346   4.631   8.890  1.00  0.00     0.006 C 
BRANCH   2   3
ATOM      3  C   UNL     1       9.825   6.071   8.680  1.00  0.00     0.053 C 
BRANCH   3   4
ATOM      4  C   UNL     1       8.921   7.032   9.385  1.00  0.00     0.041 C 
ATOM      5  O   UNL     1       7.924   6.609  10.030  1.00  0.00    -0.550 OA
ATOM      6  O   UNL     1       9.205   8.391   9.372  1.00  0.00    -0.550 OA
ENDBRANCH   3   4
ENDBRANCH   2   3
ENDBRANCH   1   2
BRANCH   1   7
ATOM      7  C   UNL     1       8.624   2.615   7.489  1.00  0.00     0.000 C 
BRANCH   7   8
ATOM      8  C   UNL     1       9.740   1.976   8.332  1.00  0.00    -0.000 C 
BRANCH   8   9
ATOM      9  C   UNL     1       9.208   0.906   9.299  1.00  0.00    -0.003 C 
ATOM     10  C   UNL     1      10.116  -0.320   9.386  1.00  0.00     0.004 C 
ENDBRANCH   8   9
ENDBRANCH   7   8
ENDBRANCH   1   7
TORSDOF 6
ENDMDL
MODEL 9
REMARK VINA RESULT:    -3.188     13.008     15.086
REMARK INTER + INTRA:          -4.444
REMARK INTER:                  -4.210
REMARK INTRA:                  -0.234
REMARK UNBOUND:                -0.139
REMARK SMILES CCCCCCCC(=O)[O-]
REMARK SMILES IDX 5 1 6 2 7 3 8 4 9 5 10 6 4 7 3 8 2 9 1 10
REMARK H PARENT
REMARK Flexibility Score: inf
ROOT
ATOM      1  C   UNL     1       8.593   4.529   8.079  1.00  0.00     0.000 C 
ENDROOT
BRANCH   1   2
ATOM      2  C   UNL     1       8.681   3.119   7.474  1.00  0.00     0.006 C 
BRANCH   2   3
ATOM      3  C   UNL     1       9.674   2.250   8.252  1.00  0.00     0.053 C 
BRANCH   3   4
ATOM      4  C   UNL     1       9.024   0.978   8.694  1.00  0.00     0.041 C 
ATOM      5  O   UNL     1       7.849   0.706   8.328  1.00  0.00    -0.550 OA
ATOM      6  O   UNL     1       9.731   0.070   9.471  1.00  0.00    -0.550 OA
ENDBRANCH   3   4
ENDBRANCH   2   3
ENDBRANCH   1   2
BRANCH   1   7
ATOM      7  C   UNL     1       9.673   4.788   9.142  1.00  0.00     0.000 C 
BRANCH   7   8
ATOM      8  C   UNL     1       9.547   6.179   9.785  1.00  0.00    -0.000 C 
BRANCH   8   9
ATOM      9  C   UNL     1      10.124   7.292   8.897  1.00  0.00    -0.003 C 
ATOM     10  C   UNL     1       9.693   8.690   9.340  1.00  0.00     0.004 C 
ENDBRANCH   8   9
ENDBRANCH   7   8
ENDBRANCH   1   7
TORSDOF 6
ENDMDL
