MODEL 1
REMARK VINA RESULT:    -4.268      0.000      0.000
REMARK INTER + INTRA:         -11.514
REMARK INTER:                  -8.260
REMARK INTRA:                  -3.254
REMARK UNBOUND:                -3.254
REMARK SMILES CCCCCCCCCCCCCCCCCC(=O)[O-]
REMARK SMILES IDX 10 1 11 2 12 3 13 4 14 5 15 6 16 7 17 8 18 9 19 10 20 11
REMARK SMILES IDX 9 12 8 13 7 14 6 15 5 16 4 17 3 18 2 19 1 20
REMARK H PARENT
REMARK Flexibility Score: inf
ROOT
ATOM      1  C   UNL     1      18.102 -34.152  19.369  1.00  0.00     0.000 C 
ENDROOT
BRANCH   1   2
ATOM      2  C   UNL     1      19.405 -33.857  20.133  1.00  0.00     0.000 C 
BRANCH   2   3
ATOM      3  C   UNL     1      19.409 -32.466  20.792  1.00  0.00     0.000 C 
BRANCH   3   4
ATOM      4  C   UNL     1      18.029 -31.790  20.753  1.00  0.00     0.000 C 
BRANCH   4   5
ATOM      5  C   UNL     1      18.040 -30.382  21.375  1.00  0.00     0.000 C 
BRANCH   5   6
ATOM      6  C   UNL     1      17.035 -30.241  22.529  1.00  0.00     0.000 C 
BRANCH   6   7
ATOM      7  C   UNL     1      15.576 -30.284  22.051  1.00  0.00     0.006 C 
BRANCH   7   8
ATOM      8  C   UNL     1      14.622 -29.846  23.166  1.00  0.00     0.053 C 
BRANCH   8   9
ATOM      9  C   UNL     1      13.600 -30.908  23.428  1.00  0.00     0.041 C 
ATOM     10  O   UNL     1      13.796 -31.767  24.326  1.00  0.00    -0.550 OA
ATOM     11  O   UNL     1      12.452 -30.977  22.648  1.00  0.00    -0.550 OA
ENDBRANCH   8   9
ENDBRANCH   7   8
ENDBRANCH   6   7
ENDBRANCH   5   6
ENDBRANCH   4   5
ENDBRANCH   3   4
ENDBRANCH   2   3
ENDBRANCH   1   2
BRANCH   1  12
ATOM     12  C   UNL     1      17.558 -35.585  19.529  1.00  0.00     0.000 C 
BRANCH  12  13
ATOM     13  C   UNL     1      16.138 -35.684  20.122  1.00  0.00    -0.000 C 
BRANCH  13  14
ATOM     14  C   UNL     1      15.288 -34.405  19.987  1.00  0.00    -0.000 C 
BRANCH  14  15
ATOM     15  C   UNL     1      14.865 -33.759  21.321  1.00  0.00    -0.000 C 
BRANCH  15  16
ATOM     16  C   UNL     1      15.337 -34.494  22.594  1.00  0.00    -0.000 C 
BRANCH  16  17
ATOM     17  C   UNL     1      16.380 -33.733  23.435  1.00  0.00    -0.000 C 
BRANCH  17  18
ATOM     18  C   UNL     1      17.762 -34.422  23.483  1.00  0.00    -0.000 C 
BRANCH  18  19
ATOM     19  C   UNL     1      17.683 -35.936  23.745  1.00  0.00    -0.003 C 
ATOM     20  C   UNL     1      18.591 -36.745  22.820  1.00  0.00     0.004 C 
ENDBRANCH  18  19
ENDBRANCH  17  18
ENDBRANCH  16  17
ENDBRANCH  15  16
ENDBRANCH  14  15
ENDBRANCH  13  14
ENDBRANCH  12  13
ENDBRANCH   1  12
TORSDOF 16
ENDMDL
MODEL 2
REMARK VINA RESULT:    -4.127      1.822      4.080
REMARK INTER + INTRA:         -11.241
REMARK INTER:                  -9.010
REMARK INTRA:                  -2.231
REMARK UNBOUND:                -3.254
REMARK SMILES CCCCCCCCCCCCCCCCCC(=O)[O-]
REMARK SMILES IDX 10 1 11 2 12 3 13 4 14 5 15 6 16 7 17 8 18 9 19 10 20 11
REMARK SMILES IDX 9 12 8 13 7 14 6 15 5 16 4 17 3 18 2 19 1 20
REMARK H PARENT
REMARK Flexibility Score: inf
ROOT
ATOM      1  C   UNL     1      15.615 -35.080  20.126  1.00  0.00     0.000 C 
ENDROOT
BRANCH   1   2
ATOM      2  C   UNL     1      15.724 -35.016  21.661  1.00  0.00     0.000 C 
BRANCH   2   3
ATOM      3  C   UNL     1      15.013 -33.790  22.260  1.00  0.00     0.000 C 
BRANCH   3   4
ATOM      4  C   UNL     1      14.290 -32.949  21.196  1.00  0.00     0.000 C 
BRANCH   4   5
ATOM      5  C   UNL     1      14.194 -31.461  21.580  1.00  0.00     0.000 C 
BRANCH   5   6
ATOM      6  C   UNL     1      14.657 -31.195  23.022  1.00  0.00     0.000 C 
BRANCH   6   7
ATOM      7  C   UNL     1      13.510 -30.740  23.936  1.00  0.00     0.006 C 
BRANCH   7   8
ATOM      8  C   UNL     1      13.569 -29.229  24.179  1.00  0.00     0.053 C 
BRANCH   8   9
ATOM      9  C   UNL     1      12.190 -28.667  24.323  1.00  0.00     0.041 C 
ATOM     10  O   UNL     1      11.290 -28.979  23.500  1.00  0.00    -0.550 OA
ATOM     11  O   UNL     1      11.910 -27.762  25.339  1.00  0.00    -0.550 OA
ENDBRANCH   8   9
ENDBRANCH   7   8
ENDBRANCH   6   7
ENDBRANCH   5   6
ENDBRANCH   4   5
ENDBRANCH   3   4
ENDBRANCH   2   3
ENDBRANCH   1   2
BRANCH   1  12
ATOM     12  C   UNL     1      16.936 -34.851  19.365  1.00  0.00     0.000 C 
BRANCH  12  13
ATOM     13  C   UNL     1      18.214 -35.211  20.148  1.00  0.00    -0.000 C 
BRANCH  13  14
ATOM     14  C   UNL     1      19.495 -34.511  19.654  1.00  0.00    -0.000 C 
BRANCH  14  15
ATOM     15  C   UNL     1      19.863 -33.217  20.407  1.00  0.00    -0.000 C 
BRANCH  15  16
ATOM     16  C   UNL     1      19.318 -33.109  21.848  1.00  0.00    -0.000 C 
BRANCH  16  17
ATOM     17  C   UNL     1      18.146 -32.126  22.027  1.00  0.00    -0.000 C 
BRANCH  17  18
ATOM     18  C   UNL     1      17.977 -31.140  20.849  1.00  0.00    -0.000 C 
BRANCH  18  19
ATOM     19  C   UNL     1      18.390 -29.699  21.193  1.00  0.00    -0.003 C 
ATOM     20  C   UNL     1      19.905 -29.517  21.260  1.00  0.00     0.004 C 
ENDBRANCH  18  19
ENDBRANCH  17  18
ENDBRANCH  16  17
ENDBRANCH  15  16
ENDBRANCH  14  15
ENDBRANCH  13  14
ENDBRANCH  12  13
ENDBRANCH   1  12
TORSDOF 16
ENDMDL
MODEL 3
REMARK VINA RESULT:    -4.076      2.511      4.345
REMARK INTER + INTRA:         -11.142
REMARK INTER:                  -8.702
REMARK INTRA:                  -2.440
REMARK UNBOUND:                -3.254
REMARK SMILES CCCCCCCCCCCCCCCCCC(=O)[O-]
REMARK SMILES IDX 10 1 11 2 12 3 13 4 14 5 15 6 16 7 17 8 18 9 19 10 20 11
REMARK SMILES IDX 9 12 8 13 7 14 6 15 5 16 4 17 3 18 2 19 1 20
REMARK H PARENT
REMARK Flexibility Score: inf
ROOT
ATOM      1  C   UNL     1      17.848 -34.479  19.178  1.00  0.00     0.000 C 
ENDROOT
BRANCH   1   2
ATOM      2  C   UNL     1      19.367 -34.526  19.428  1.00  0.00     0.000 C 
BRANCH   2   3
ATOM      3  C   UNL     1      19.833 -33.494  20.470  1.00  0.00     0.000 C 
BRANCH   3   4
ATOM      4  C   UNL     1      18.660 -32.809  21.188  1.00  0.00     0.000 C 
BRANCH   4   5
ATOM      5  C   UNL     1      18.440 -33.347  22.613  1.00  0.00     0.000 C 
BRANCH   5   6
ATOM      6  C   UNL     1      17.272 -32.654  23.331  1.00  0.00     0.000 C 
BRANCH   6   7
ATOM      7  C   UNL     1      16.628 -33.541  24.406  1.00  0.00     0.006 C 
BRANCH   7   8
ATOM      8  C   UNL     1      16.639 -35.012  23.981  1.00  0.00     0.053 C 
BRANCH   8   9
ATOM      9  C   UNL     1      17.448 -35.828  24.939  1.00  0.00     0.041 C 
ATOM     10  O   UNL     1      18.559 -36.303  24.586  1.00  0.00    -0.550 OA
ATOM     11  O   UNL     1      16.954 -36.105  26.208  1.00  0.00    -0.550 OA
ENDBRANCH   8   9
ENDBRANCH   7   8
ENDBRANCH   6   7
ENDBRANCH   5   6
ENDBRANCH   4   5
ENDBRANCH   3   4
ENDBRANCH   2   3
ENDBRANCH   1   2
BRANCH   1  12
ATOM     12  C   UNL     1      17.065 -35.713  19.668  1.00  0.00     0.000 C 
BRANCH  12  13
ATOM     13  C   UNL     1      15.815 -35.401  20.515  1.00  0.00    -0.000 C 
BRANCH  13  14
ATOM     14  C   UNL     1      15.026 -34.153  20.071  1.00  0.00    -0.000 C 
BRANCH  14  15
ATOM     15  C   UNL     1      14.455 -33.299  21.221  1.00  0.00    -0.000 C 
BRANCH  15  16
ATOM     16  C   UNL     1      13.478 -32.182  20.796  1.00  0.00    -0.000 C 
BRANCH  16  17
ATOM     17  C   UNL     1      12.846 -31.395  21.960  1.00  0.00    -0.000 C 
BRANCH  17  18
ATOM     18  C   UNL     1      13.336 -31.848  23.354  1.00  0.00    -0.000 C 
BRANCH  18  19
ATOM     19  C   UNL     1      13.938 -30.707  24.192  1.00  0.00    -0.003 C 
ATOM     20  C   UNL     1      14.841 -29.784  23.375  1.00  0.00     0.004 C 
ENDBRANCH  18  19
ENDBRANCH  17  18
ENDBRANCH  16  17
ENDBRANCH  15  16
ENDBRANCH  14  15
ENDBRANCH  13  14
ENDBRANCH  12  13
ENDBRANCH   1  12
TORSDOF 16
ENDMDL
MODEL 4
REMARK VINA RESULT:    -4.056      2.853      5.306
REMARK INTER + INTRA:         -11.103
REMARK INTER:                  -8.089
REMARK INTRA:                  -3.014
REMARK UNBOUND:                -3.254
REMARK SMILES CCCCCCCCCCCCCCCCCC(=O)[O-]
REMARK SMILES IDX 10 1 11 2 12 3 13 4 14 5 15 6 16 7 17 8 18 9 19 10 20 11
REMARK SMILES IDX 9 12 8 13 7 14 6 15 5 16 4 17 3 18 2 19 1 20
REMARK H PARENT
REMARK Flexibility Score: inf
ROOT
ATOM      1  C   UNL     1      17.953 -31.908  24.093  1.00  0.00     0.000 C 
ENDROOT
BRANCH   1   2
ATOM      2  C   UNL     1      17.156 -30.700  23.568  1.00  0.00     0.000 C 
BRANCH   2   3
ATOM      3  C   UNL     1      17.661 -30.200  22.203  1.00  0.00     0.000 C 
BRANCH   3   4
ATOM      4  C   UNL     1      18.098 -31.348  21.279  1.00  0.00     0.000 C 
BRANCH   4   5
ATOM      5  C   UNL     1      19.605 -31.313  20.964  1.00  0.00     0.000 C 
BRANCH   5   6
ATOM      6  C   UNL     1      20.185 -32.714  20.711  1.00  0.00     0.000 C 
BRANCH   6   7
ATOM      7  C   UNL     1      19.141 -33.826  20.882  1.00  0.00     0.006 C 
BRANCH   7   8
ATOM      8  C   UNL     1      18.989 -34.638  19.592  1.00  0.00     0.053 C 
BRANCH   8   9
ATOM      9  C   UNL     1      18.436 -35.996  19.890  1.00  0.00     0.041 C 
ATOM     10  O   UNL     1      18.739 -36.582  20.963  1.00  0.00    -0.550 OA
ATOM     11  O   UNL     1      17.624 -36.636  18.963  1.00  0.00    -0.550 OA
ENDBRANCH   8   9
ENDBRANCH   7   8
ENDBRANCH   6   7
ENDBRANCH   5   6
ENDBRANCH   4   5
ENDBRANCH   3   4
ENDBRANCH   2   3
ENDBRANCH   1   2
BRANCH   1  12
ATOM     12  C   UNL     1      17.099 -33.072  24.634  1.00  0.00     0.000 C 
BRANCH  12  13
ATOM     13  C   UNL     1      16.968 -34.282  23.688  1.00  0.00    -0.000 C 
BRANCH  13  14
ATOM     14  C   UNL     1      15.549 -34.524  23.137  1.00  0.00    -0.000 C 
BRANCH  14  15
ATOM     15  C   UNL     1      15.482 -34.863  21.635  1.00  0.00    -0.000 C 
BRANCH  15  16
ATOM     16  C   UNL     1      15.320 -33.654  20.688  1.00  0.00    -0.000 C 
BRANCH  16  17
ATOM     17  C   UNL     1      14.037 -32.828  20.902  1.00  0.00    -0.000 C 
BRANCH  17  18
ATOM     18  C   UNL     1      14.305 -31.351  21.271  1.00  0.00    -0.000 C 
BRANCH  18  19
ATOM     19  C   UNL     1      13.417 -30.835  22.416  1.00  0.00    -0.003 C 
ATOM     20  C   UNL     1      13.589 -31.635  23.705  1.00  0.00     0.004 C 
ENDBRANCH  18  19
ENDBRANCH  17  18
ENDBRANCH  16  17
ENDBRANCH  15  16
ENDBRANCH  14  15
ENDBRANCH  13  14
ENDBRANCH  12  13
ENDBRANCH   1  12
TORSDOF 16
ENDMDL
MODEL 5
REMARK VINA RESULT:    -4.017      1.577      3.769
REMARK INTER + INTRA:         -11.027
REMARK INTER:                  -8.082
REMARK INTRA:                  -2.945
REMARK UNBOUND:                -3.254
REMARK SMILES CCCCCCCCCCCCCCCCCC(=O)[O-]
REMARK SMILES IDX 10 1 11 2 12 3 13 4 14 5 15 6 16 7 17 8 18 9 19 10 20 11
REMARK SMILES IDX 9 12 8 13 7 14 6 15 5 16 4 17 3 18 2 19 1 20
REMARK H PARENT
REMARK Flexibility Score: inf
ROOT
ATOM      1  C   UNL     1      18.693 -32.556  20.722  1.00  0.00     0.000 C 
ENDROOT
BRANCH   1   2
ATOM      2  C   UNL     1      18.454 -31.920  22.104  1.00  0.00     0.000 C 
BRANCH   2   3
ATOM      3  C   UNL     1      17.015 -32.120  22.612  1.00  0.00     0.000 C 
BRANCH   3   4
ATOM      4  C   UNL     1      16.939 -32.222  24.144  1.00  0.00     0.000 C 
BRANCH   4   5
ATOM      5  C   UNL     1      16.212 -33.495  24.618  1.00  0.00     0.000 C 
BRANCH   5   6
ATOM      6  C   UNL     1      14.775 -33.586  24.079  1.00  0.00     0.000 C 
BRANCH   6   7
ATOM      7  C   UNL     1      13.871 -32.467  24.615  1.00  0.00     0.006 C 
BRANCH   7   8
ATOM      8  C   UNL     1      13.432 -31.531  23.486  1.00  0.00     0.053 C 
BRANCH   8   9
ATOM      9  C   UNL     1      13.648 -30.102  23.876  1.00  0.00     0.041 C 
ATOM     10  O   UNL     1      12.758 -29.476  24.508  1.00  0.00    -0.550 OA
ATOM     11  O   UNL     1      14.814 -29.447  23.500  1.00  0.00    -0.550 OA
ENDBRANCH   8   9
ENDBRANCH   7   8
ENDBRANCH   6   7
ENDBRANCH   5   6
ENDBRANCH   4   5
ENDBRANCH   3   4
ENDBRANCH   2   3
ENDBRANCH   1   2
BRANCH   1  12
ATOM     12  C   UNL     1      20.108 -33.126  20.499  1.00  0.00     0.000 C 
BRANCH  12  13
ATOM     13  C   UNL     1      20.669 -33.963  21.665  1.00  0.00    -0.000 C 
BRANCH  13  14
ATOM     14  C   UNL     1      20.098 -35.391  21.771  1.00  0.00    -0.000 C 
BRANCH  14  15
ATOM     15  C   UNL     1      19.016 -35.582  22.852  1.00  0.00    -0.000 C 
BRANCH  15  16
ATOM     16  C   UNL     1      17.615 -35.966  22.328  1.00  0.00    -0.000 C 
BRANCH  16  17
ATOM     17  C   UNL     1      17.565 -36.368  20.842  1.00  0.00    -0.000 C 
BRANCH  17  18
ATOM     18  C   UNL     1      16.496 -35.603  20.028  1.00  0.00    -0.000 C 
BRANCH  18  19
ATOM     19  C   UNL     1      15.377 -35.005  20.896  1.00  0.00    -0.003 C 
ATOM     20  C   UNL     1      14.628 -33.871  20.199  1.00  0.00     0.004 C 
ENDBRANCH  18  19
ENDBRANCH  17  18
ENDBRANCH  16  17
ENDBRANCH  15  16
ENDBRANCH  14  15
ENDBRANCH  13  14
ENDBRANCH  12  13
ENDBRANCH   1  12
TORSDOF 16
ENDMDL
MODEL 6
REMARK VINA RESULT:    -4.007      1.165      2.525
REMARK INTER + INTRA:         -11.008
REMARK INTER:                  -8.457
REMARK INTRA:                  -2.551
REMARK UNBOUND:                -3.254
REMARK SMILES CCCCCCCCCCCCCCCCCC(=O)[O-]
REMARK SMILES IDX 10 1 11 2 12 3 13 4 14 5 15 6 16 7 17 8 18 9 19 10 20 11
REMARK SMILES IDX 9 12 8 13 7 14 6 15 5 16 4 17 3 18 2 19 1 20
REMARK H PARENT
REMARK Flexibility Score: inf
ROOT
ATOM      1  C   UNL     1      20.086 -33.467  20.479  1.00  0.00     0.000 C 
ENDROOT
BRANCH   1   2
ATOM      2  C   UNL     1      19.112 -32.654  21.351  1.00  0.00     0.000 C 
BRANCH   2   3
ATOM      3  C   UNL     1      19.169 -31.143  21.061  1.00  0.00     0.000 C 
BRANCH   3   4
ATOM      4  C   UNL     1      17.851 -30.427  21.396  1.00  0.00     0.000 C 
BRANCH   4   5
ATOM      5  C   UNL     1      16.652 -31.391  21.459  1.00  0.00     0.000 C 
BRANCH   5   6
ATOM      6  C   UNL     1      15.303 -30.654  21.442  1.00  0.00     0.000 C 
BRANCH   6   7
ATOM      7  C   UNL     1      14.106 -31.611  21.535  1.00  0.00     0.006 C 
BRANCH   7   8
ATOM      8  C   UNL     1      12.970 -30.988  22.353  1.00  0.00     0.053 C 
BRANCH   8   9
ATOM      9  C   UNL     1      13.341 -30.927  23.801  1.00  0.00     0.041 C 
ATOM     10  O   UNL     1      13.164 -29.866  24.456  1.00  0.00    -0.550 OA
ATOM     11  O   UNL     1      13.927 -32.026  24.417  1.00  0.00    -0.550 OA
ENDBRANCH   8   9
ENDBRANCH   7   8
ENDBRANCH   6   7
ENDBRANCH   5   6
ENDBRANCH   4   5
ENDBRANCH   3   4
ENDBRANCH   2   3
ENDBRANCH   1   2
BRANCH   1  12
ATOM     12  C   UNL     1      19.426 -34.304  19.365  1.00  0.00     0.000 C 
BRANCH  12  13
ATOM     13  C   UNL     1      17.886 -34.264  19.341  1.00  0.00    -0.000 C 
BRANCH  13  14
ATOM     14  C   UNL     1      17.197 -35.612  19.633  1.00  0.00    -0.000 C 
BRANCH  14  15
ATOM     15  C   UNL     1      18.156 -36.801  19.842  1.00  0.00    -0.000 C 
BRANCH  15  16
ATOM     16  C   UNL     1      18.230 -37.350  21.283  1.00  0.00    -0.000 C 
BRANCH  16  17
ATOM     17  C   UNL     1      18.684 -36.329  22.344  1.00  0.00    -0.000 C 
BRANCH  17  18
ATOM     18  C   UNL     1      17.643 -36.090  23.462  1.00  0.00    -0.000 C 
BRANCH  18  19
ATOM     19  C   UNL     1      17.003 -34.693  23.413  1.00  0.00    -0.003 C 
ATOM     20  C   UNL     1      15.608 -34.702  22.791  1.00  0.00     0.004 C 
ENDBRANCH  18  19
ENDBRANCH  17  18
ENDBRANCH  16  17
ENDBRANCH  15  16
ENDBRANCH  14  15
ENDBRANCH  13  14
ENDBRANCH  12  13
ENDBRANCH   1  12
TORSDOF 16
ENDMDL
MODEL 7
REMARK VINA RESULT:    -3.981      2.062      4.711
REMARK INTER + INTRA:         -10.959
REMARK INTER:                  -7.869
REMARK INTRA:                  -3.090
REMARK UNBOUND:                -3.254
REMARK SMILES CCCCCCCCCCCCCCCCCC(=O)[O-]
REMARK SMILES IDX 10 1 11 2 12 3 13 4 14 5 15 6 16 7 17 8 18 9 19 10 20 11
REMARK SMILES IDX 9 12 8 13 7 14 6 15 5 16 4 17 3 18 2 19 1 20
REMARK H PARENT
REMARK Flexibility Score: inf
ROOT
ATOM      1  C   UNL     1      19.128 -34.997  19.812  1.00  0.00     0.000 C 
ENDROOT
BRANCH   1   2
ATOM      2  C   UNL     1      17.681 -34.909  19.292  1.00  0.00     0.000 C 
BRANCH   2   3
ATOM      3  C   UNL     1      16.687 -35.711  20.151  1.00  0.00     0.000 C 
BRANCH   3   4
ATOM      4  C   UNL     1      15.602 -34.823  20.782  1.00  0.00     0.000 C 
BRANCH   4   5
ATOM      5  C   UNL     1      15.735 -34.722  22.312  1.00  0.00     0.000 C 
BRANCH   5   6
ATOM      6  C   UNL     1      16.996 -35.424  22.842  1.00  0.00     0.000 C 
BRANCH   6   7
ATOM      7  C   UNL     1      17.394 -34.945  24.245  1.00  0.00     0.006 C 
BRANCH   7   8
ATOM      8  C   UNL     1      17.087 -33.456  24.423  1.00  0.00     0.053 C 
BRANCH   8   9
ATOM      9  C   UNL     1      18.128 -32.804  25.277  1.00  0.00     0.041 C 
ATOM     10  O   UNL     1      18.755 -33.478  26.136  1.00  0.00    -0.550 OA
ATOM     11  O   UNL     1      18.375 -31.442  25.157  1.00  0.00    -0.550 OA
ENDBRANCH   8   9
ENDBRANCH   7   8
ENDBRANCH   6   7
ENDBRANCH   5   6
ENDBRANCH   4   5
ENDBRANCH   3   4
ENDBRANCH   2   3
ENDBRANCH   1   2
BRANCH   1  12
ATOM     12  C   UNL     1      19.791 -33.644  20.138  1.00  0.00     0.000 C 
BRANCH  12  13
ATOM     13  C   UNL     1      19.550 -33.125  21.570  1.00  0.00    -0.000 C 
BRANCH  13  14
ATOM     14  C   UNL     1      18.886 -31.737  21.653  1.00  0.00    -0.000 C 
BRANCH  14  15
ATOM     15  C   UNL     1      17.514 -31.628  20.957  1.00  0.00    -0.000 C 
BRANCH  15  16
ATOM     16  C   UNL     1      16.422 -30.885  21.756  1.00  0.00    -0.000 C 
BRANCH  16  17
ATOM     17  C   UNL     1      14.978 -31.155  21.289  1.00  0.00    -0.000 C 
BRANCH  17  18
ATOM     18  C   UNL     1      13.907 -30.803  22.346  1.00  0.00    -0.000 C 
BRANCH  18  19
ATOM     19  C   UNL     1      14.365 -31.061  23.792  1.00  0.00    -0.003 C 
ATOM     20  C   UNL     1      13.762 -32.331  24.386  1.00  0.00     0.004 C 
ENDBRANCH  18  19
ENDBRANCH  17  18
ENDBRANCH  16  17
ENDBRANCH  15  16
ENDBRANCH  14  15
ENDBRANCH  13  14
ENDBRANCH  12  13
ENDBRANCH   1  12
TORSDOF 16
ENDMDL
MODEL 8
REMARK VINA RESULT:    -3.956      3.130      6.232
REMARK INTER + INTRA:         -10.910
REMARK INTER:                  -7.995
REMARK INTRA:                  -2.915
REMARK UNBOUND:                -3.254
REMARK SMILES CCCCCCCCCCCCCCCCCC(=O)[O-]
REMARK SMILES IDX 10 1 11 2 12 3 13 4 14 5 15 6 16 7 17 8 18 9 19 10 20 11
REMARK SMILES IDX 9 12 8 13 7 14 6 15 5 16 4 17 3 18 2 19 1 20
REMARK H PARENT
REMARK Flexibility Score: inf
ROOT
ATOM      1  C   UNL     1      17.483 -34.146  24.184  1.00  0.00     0.000 C 
ENDROOT
BRANCH   1   2
ATOM      2  C   UNL     1      16.208 -33.327  24.454  1.00  0.00     0.000 C 
BRANCH   2   3
ATOM      3  C   UNL     1      15.030 -33.742  23.555  1.00  0.00     0.000 C 
BRANCH   3   4
ATOM      4  C   UNL     1      15.460 -34.673  22.410  1.00  0.00     0.000 C 
BRANCH   4   5
ATOM      5  C   UNL     1      15.062 -34.132  21.025  1.00  0.00     0.000 C 
BRANCH   5   6
ATOM      6  C   UNL     1      15.876 -34.770  19.888  1.00  0.00     0.000 C 
BRANCH   6   7
ATOM      7  C   UNL     1      16.791 -35.901  20.378  1.00  0.00     0.006 C 
BRANCH   7   8
ATOM      8  C   UNL     1      16.821 -37.056  19.373  1.00  0.00     0.053 C 
BRANCH   8   9
ATOM      9  C   UNL     1      17.858 -38.062  19.762  1.00  0.00     0.041 C 
ATOM     10  O   UNL     1      18.302 -38.875  18.909  1.00  0.00    -0.550 OA
ATOM     11  O   UNL     1      18.300 -38.134  21.077  1.00  0.00    -0.550 OA
ENDBRANCH   8   9
ENDBRANCH   7   8
ENDBRANCH   6   7
ENDBRANCH   5   6
ENDBRANCH   4   5
ENDBRANCH   3   4
ENDBRANCH   2   3
ENDBRANCH   1   2
BRANCH   1  12
ATOM     12  C   UNL     1      18.684 -33.336  23.655  1.00  0.00     0.000 C 
BRANCH  12  13
ATOM     13  C   UNL     1      19.133 -33.690  22.224  1.00  0.00    -0.000 C 
BRANCH  13  14
ATOM     14  C   UNL     1      19.263 -32.487  21.269  1.00  0.00    -0.000 C 
BRANCH  14  15
ATOM     15  C   UNL     1      17.927 -31.851  20.836  1.00  0.00    -0.000 C 
BRANCH  15  16
ATOM     16  C   UNL     1      17.662 -30.430  21.378  1.00  0.00    -0.000 C 
BRANCH  16  17
ATOM     17  C   UNL     1      16.462 -30.314  22.338  1.00  0.00    -0.000 C 
BRANCH  17  18
ATOM     18  C   UNL     1      15.092 -30.481  21.642  1.00  0.00    -0.000 C 
BRANCH  18  19
ATOM     19  C   UNL     1      13.904 -30.482  22.619  1.00  0.00    -0.003 C 
ATOM     20  C   UNL     1      12.699 -31.255  22.087  1.00  0.00     0.004 C 
ENDBRANCH  18  19
ENDBRANCH  17  18
ENDBRANCH  16  17
ENDBRANCH  15  16
ENDBRANCH  14  15
ENDBRANCH  13  14
ENDBRANCH  12  13
ENDBRANCH   1  12
TORSDOF 16
ENDMDL
MODEL 9
REMARK VINA RESULT:    -3.948      1.262      3.086
REMARK INTER + INTRA:         -10.894
REMARK INTER:                  -8.108
REMARK INTRA:                  -2.787
REMARK UNBOUND:                -3.254
REMARK SMILES CCCCCCCCCCCCCCCCCC(=O)[O-]
REMARK SMILES IDX 10 1 11 2 12 3 13 4 14 5 15 6 16 7 17 8 18 9 19 10 20 11
REMARK SMILES IDX 9 12 8 13 7 14 6 15 5 16 4 17 3 18 2 19 1 20
REMARK H PARENT
REMARK Flexibility Score: inf
ROOT
ATOM      1  C   UNL     1      17.920 -34.512  19.148  1.00  0.00     0.000 C 
ENDROOT
BRANCH   1   2
ATOM      2  C   UNL     1      17.087 -35.779  19.415  1.00  0.00     0.000 C 
BRANCH   2   3
ATOM      3  C   UNL     1      15.892 -35.521  20.351  1.00  0.00     0.000 C 
BRANCH   3   4
ATOM      4  C   UNL     1      15.058 -34.304  19.921  1.00  0.00     0.000 C 
BRANCH   4   5
ATOM      5  C   UNL     1      14.622 -33.433  21.113  1.00  0.00     0.000 C 
BRANCH   5   6
ATOM      6  C   UNL     1      13.542 -32.408  20.730  1.00  0.00     0.000 C 
BRANCH   6   7
ATOM      7  C   UNL     1      13.383 -31.298  21.778  1.00  0.00     0.006 C 
BRANCH   7   8
ATOM      8  C   UNL     1      14.708 -30.566  22.006  1.00  0.00     0.053 C 
BRANCH   8   9
ATOM      9  C   UNL     1      15.126 -30.674  23.439  1.00  0.00     0.041 C 
ATOM     10  O   UNL     1      14.379 -31.246  24.275  1.00  0.00    -0.550 OA
ATOM     11  O   UNL     1      16.320 -30.103  23.861  1.00  0.00    -0.550 OA
ENDBRANCH   8   9
ENDBRANCH   7   8
ENDBRANCH   6   7
ENDBRANCH   5   6
ENDBRANCH   4   5
ENDBRANCH   3   4
ENDBRANCH   2   3
ENDBRANCH   1   2
BRANCH   1  12
ATOM     12  C   UNL     1      19.384 -34.577  19.626  1.00  0.00     0.000 C 
BRANCH  12  13
ATOM     13  C   UNL     1      19.848 -33.379  20.478  1.00  0.00    -0.000 C 
BRANCH  13  14
ATOM     14  C   UNL     1      18.732 -32.391  20.870  1.00  0.00    -0.000 C 
BRANCH  14  15
ATOM     15  C   UNL     1      18.449 -32.292  22.382  1.00  0.00    -0.000 C 
BRANCH  15  16
ATOM     16  C   UNL     1      17.701 -33.494  22.998  1.00  0.00    -0.000 C 
BRANCH  16  17
ATOM     17  C   UNL     1      18.415 -34.162  24.189  1.00  0.00    -0.000 C 
BRANCH  17  18
ATOM     18  C   UNL     1      19.140 -35.476  23.822  1.00  0.00    -0.000 C 
BRANCH  18  19
ATOM     19  C   UNL     1      18.323 -36.386  22.889  1.00  0.00    -0.003 C 
ATOM     20  C   UNL     1      19.197 -37.348  22.087  1.00  0.00     0.004 C 
ENDBRANCH  18  19
ENDBRANCH  17  18
ENDBRANCH  16  17
ENDBRANCH  15  16
ENDBRANCH  14  15
ENDBRANCH  13  14
ENDBRANCH  12  13
ENDBRANCH   1  12
TORSDOF 16
ENDMDL
