MODEL 1
REMARK VINA RESULT:    -2.492      0.000      0.000
REMARK INTER + INTRA:          -3.387
REMARK INTER:                  -3.074
REMARK INTRA:                  -0.313
REMARK UNBOUND:                -0.313
REMARK SMILES CCCCCC(C)=O
REMARK SMILES IDX 4 1 3 2 2 3 1 4 5 5 6 6 8 7 7 8
REMARK H PARENT
REMARK Flexibility Score: inf
ROOT
ATOM      1  C   UNL     1     115.021 118.075 121.121  1.00  0.00     0.008 C 
ENDROOT
BRANCH   1   2
ATOM      2  C   UNL     1     114.636 117.830 119.655  1.00  0.00     0.000 C 
BRANCH   2   3
ATOM      3  C   UNL     1     114.654 119.138 118.857  1.00  0.00    -0.003 C 
ATOM      4  C   UNL     1     115.127 120.304 119.720  1.00  0.00     0.004 C 
ENDBRANCH   2   3
ENDBRANCH   1   2
BRANCH   1   5
ATOM      5  C   UNL     1     116.042 117.053 121.644  1.00  0.00     0.075 C 
BRANCH   5   6
ATOM      6  C   UNL     1     117.393 117.672 121.885  1.00  0.00     0.129 C 
ATOM      7  O   UNL     1     117.788 117.846 123.029  1.00  0.00    -0.300 OA
ATOM      8  C   UNL     1     118.240 118.118 120.732  1.00  0.00     0.087 C 
ENDBRANCH   5   6
ENDBRANCH   1   5
TORSDOF 4
ENDMDL
MODEL 2
REMARK VINA RESULT:    -2.477      3.074      4.673
REMARK INTER + INTRA:          -3.369
REMARK INTER:                  -2.996
REMARK INTRA:                  -0.373
REMARK UNBOUND:                -0.313
REMARK SMILES CCCCCC(C)=O
REMARK SMILES IDX 4 1 3 2 2 3 1 4 5 5 6 6 8 7 7 8
REMARK H PARENT
REMARK Flexibility Score: inf
ROOT
ATOM      1  C   UNL     1     118.116 114.981 121.372  1.00  0.00     0.008 C 
ENDROOT
BRANCH   1   2
ATOM      2  C   UNL     1     118.536 115.545 120.006  1.00  0.00     0.000 C 
BRANCH   2   3
ATOM      3  C   UNL     1     118.440 114.472 118.916  1.00  0.00    -0.003 C 
ATOM      4  C   UNL     1     118.010 113.129 119.500  1.00  0.00     0.004 C 
ENDBRANCH   2   3
ENDBRANCH   1   2
BRANCH   1   5
ATOM      5  C   UNL     1     117.138 115.901 122.117  1.00  0.00     0.075 C 
BRANCH   5   6
ATOM      6  C   UNL     1     115.835 116.063 121.379  1.00  0.00     0.129 C 
ATOM      7  O   UNL     1     115.439 117.182 121.083  1.00  0.00    -0.300 OA
ATOM      8  C   UNL     1     114.999 114.866 121.043  1.00  0.00     0.087 C 
ENDBRANCH   5   6
ENDBRANCH   1   5
TORSDOF 4
ENDMDL
MODEL 3
REMARK VINA RESULT:    -2.473      2.134      3.314
REMARK INTER + INTRA:          -3.364
REMARK INTER:                  -2.978
REMARK INTRA:                  -0.386
REMARK UNBOUND:                -0.313
REMARK SMILES CCCCCC(C)=O
REMARK SMILES IDX 4 1 3 2 2 3 1 4 5 5 6 6 8 7 7 8
REMARK H PARENT
REMARK Flexibility Score: inf
ROOT
ATOM      1  C   UNL     1     115.067 115.135 121.554  1.00  0.00     0.008 C 
ENDROOT
BRANCH   1   2
ATOM      2  C   UNL     1     115.667 114.691 120.212  1.00  0.00     0.000 C 
BRANCH   2   3
ATOM      3  C   UNL     1     114.636 114.813 119.083  1.00  0.00    -0.003 C 
ATOM      4  C   UNL     1     113.258 115.171 119.631  1.00  0.00     0.004 C 
ENDBRANCH   2   3
ENDBRANCH   1   2
BRANCH   1   5
ATOM      5  C   UNL     1     115.917 116.202 122.258  1.00  0.00     0.075 C 
BRANCH   5   6
ATOM      6  C   UNL     1     116.044 117.460 121.440  1.00  0.00     0.129 C 
ATOM      7  O   UNL     1     117.147 117.839 121.073  1.00  0.00    -0.300 OA
ATOM      8  C   UNL     1     114.831 118.274 121.108  1.00  0.00     0.087 C 
ENDBRANCH   5   6
ENDBRANCH   1   5
TORSDOF 4
ENDMDL
MODEL 4
REMARK VINA RESULT:    -2.436      2.679      3.715
REMARK INTER + INTRA:          -3.318
REMARK INTER:                  -2.966
REMARK INTRA:                  -0.352
REMARK UNBOUND:                -0.313
REMARK SMILES CCCCCC(C)=O
REMARK SMILES IDX 4 1 3 2 2 3 1 4 5 5 6 6 8 7 7 8
REMARK H PARENT
REMARK Flexibility Score: inf
ROOT
ATOM      1  C   UNL     1     118.088 117.786 120.853  1.00  0.00     0.008 C 
ENDROOT
BRANCH   1   2
ATOM      2  C   UNL     1     117.910 118.521 119.516  1.00  0.00     0.000 C 
BRANCH   2   3
ATOM      3  C   UNL     1     119.223 118.544 118.725  1.00  0.00    -0.003 C 
ATOM      4  C   UNL     1     120.400 118.114 119.596  1.00  0.00     0.004 C 
ENDBRANCH   2   3
ENDBRANCH   1   2
BRANCH   1   5
ATOM      5  C   UNL     1     117.272 116.487 120.927  1.00  0.00     0.075 C 
BRANCH   5   6
ATOM      6  C   UNL     1     118.120 115.268 120.680  1.00  0.00     0.129 C 
ATOM      7  O   UNL     1     118.544 114.619 121.625  1.00  0.00    -0.300 OA
ATOM      8  C   UNL     1     118.487 114.870 119.282  1.00  0.00     0.087 C 
ENDBRANCH   5   6
ENDBRANCH   1   5
TORSDOF 4
ENDMDL
MODEL 5
REMARK VINA RESULT:    -2.424      2.845      3.317
REMARK INTER + INTRA:          -3.304
REMARK INTER:                  -2.936
REMARK INTRA:                  -0.368
REMARK UNBOUND:                -0.313
REMARK SMILES CCCCCC(C)=O
REMARK SMILES IDX 4 1 3 2 2 3 1 4 5 5 6 6 8 7 7 8
REMARK H PARENT
REMARK Flexibility Score: inf
ROOT
ATOM      1  C   UNL     1     115.996 114.489 119.256  1.00  0.00     0.008 C 
ENDROOT
BRANCH   1   2
ATOM      2  C   UNL     1     115.093 114.969 120.402  1.00  0.00     0.000 C 
BRANCH   2   3
ATOM      3  C   UNL     1     114.534 116.366 120.111  1.00  0.00    -0.003 C 
ATOM      4  C   UNL     1     115.271 117.434 120.915  1.00  0.00     0.004 C 
ENDBRANCH   2   3
ENDBRANCH   1   2
BRANCH   1   5
ATOM      5  C   UNL     1     117.314 113.878 119.757  1.00  0.00     0.075 C 
BRANCH   5   6
ATOM      6  C   UNL     1     118.169 114.885 120.479  1.00  0.00     0.129 C 
ATOM      7  O   UNL     1     118.448 114.715 121.657  1.00  0.00    -0.300 OA
ATOM      8  C   UNL     1     118.644 116.120 119.775  1.00  0.00     0.087 C 
ENDBRANCH   5   6
ENDBRANCH   1   5
TORSDOF 4
ENDMDL
MODEL 6
REMARK VINA RESULT:    -2.410      2.490      3.237
REMARK INTER + INTRA:          -3.287
REMARK INTER:                  -3.004
REMARK INTRA:                  -0.282
REMARK UNBOUND:                -0.313
REMARK SMILES CCCCCC(C)=O
REMARK SMILES IDX 4 1 3 2 2 3 1 4 5 5 6 6 8 7 7 8
REMARK H PARENT
REMARK Flexibility Score: inf
ROOT
ATOM      1  C   UNL     1     114.362 117.101 119.167  1.00  0.00     0.008 C 
ENDROOT
BRANCH   1   2
ATOM      2  C   UNL     1     114.764 118.061 120.296  1.00  0.00     0.000 C 
BRANCH   2   3
ATOM      3  C   UNL     1     115.858 119.028 119.831  1.00  0.00    -0.003 C 
ATOM      4  C   UNL     1     117.244 118.407 119.983  1.00  0.00     0.004 C 
ENDBRANCH   2   3
ENDBRANCH   1   2
BRANCH   1   5
ATOM      5  C   UNL     1     113.780 115.780 119.692  1.00  0.00     0.075 C 
BRANCH   5   6
ATOM      6  C   UNL     1     114.807 114.955 120.421  1.00  0.00     0.129 C 
ATOM      7  O   UNL     1     114.652 114.697 121.606  1.00  0.00    -0.300 OA
ATOM      8  C   UNL     1     116.042 114.485 119.714  1.00  0.00     0.087 C 
ENDBRANCH   5   6
ENDBRANCH   1   5
TORSDOF 4
ENDMDL
MODEL 7
REMARK VINA RESULT:    -2.393      1.812      3.888
REMARK INTER + INTRA:          -3.266
REMARK INTER:                  -3.030
REMARK INTRA:                  -0.236
REMARK UNBOUND:                -0.313
REMARK SMILES CCCCCC(C)=O
REMARK SMILES IDX 4 1 3 2 2 3 1 4 5 5 6 6 8 7 7 8
REMARK H PARENT
REMARK Flexibility Score: inf
ROOT
ATOM      1  C   UNL     1     117.080 118.828 119.179  1.00  0.00     0.008 C 
ENDROOT
BRANCH   1   2
ATOM      2  C   UNL     1     118.067 118.479 120.303  1.00  0.00     0.000 C 
BRANCH   2   3
ATOM      3  C   UNL     1     119.222 117.623 119.771  1.00  0.00    -0.003 C 
ATOM      4  C   UNL     1     118.791 116.171 119.583  1.00  0.00     0.004 C 
ENDBRANCH   2   3
ENDBRANCH   1   2
BRANCH   1   5
ATOM      5  C   UNL     1     115.751 119.385 119.711  1.00  0.00     0.075 C 
BRANCH   5   6
ATOM      6  C   UNL     1     114.963 118.349 120.469  1.00  0.00     0.129 C 
ATOM      7  O   UNL     1     114.713 118.521 121.653  1.00  0.00    -0.300 OA
ATOM      8  C   UNL     1     114.523 117.086 119.793  1.00  0.00     0.087 C 
ENDBRANCH   5   6
ENDBRANCH   1   5
TORSDOF 4
ENDMDL
MODEL 8
REMARK VINA RESULT:    -2.379      2.277      3.361
REMARK INTER + INTRA:          -3.248
REMARK INTER:                  -2.912
REMARK INTRA:                  -0.336
REMARK UNBOUND:                -0.313
REMARK SMILES CCCCCC(C)=O
REMARK SMILES IDX 4 1 3 2 2 3 1 4 5 5 6 6 8 7 7 8
REMARK H PARENT
REMARK Flexibility Score: inf
ROOT
ATOM      1  C   UNL     1     114.378 117.032 119.304  1.00  0.00     0.008 C 
ENDROOT
BRANCH   1   2
ATOM      2  C   UNL     1     113.763 115.701 119.758  1.00  0.00     0.000 C 
BRANCH   2   3
ATOM      3  C   UNL     1     114.757 114.896 120.603  1.00  0.00    -0.003 C 
ATOM      4  C   UNL     1     115.954 114.449 119.768  1.00  0.00     0.004 C 
ENDBRANCH   2   3
ENDBRANCH   1   2
BRANCH   1   5
ATOM      5  C   UNL     1     114.756 117.942 120.483  1.00  0.00     0.075 C 
BRANCH   5   6
ATOM      6  C   UNL     1     116.202 118.360 120.437  1.00  0.00     0.129 C 
ATOM      7  O   UNL     1     116.565 119.210 119.637  1.00  0.00    -0.300 OA
ATOM      8  C   UNL     1     117.208 117.708 121.336  1.00  0.00     0.087 C 
ENDBRANCH   5   6
ENDBRANCH   1   5
TORSDOF 4
ENDMDL
MODEL 9
REMARK VINA RESULT:    -2.377      3.003      4.408
REMARK INTER + INTRA:          -3.245
REMARK INTER:                  -2.879
REMARK INTRA:                  -0.367
REMARK UNBOUND:                -0.313
REMARK SMILES CCCCCC(C)=O
REMARK SMILES IDX 4 1 3 2 2 3 1 4 5 5 6 6 8 7 7 8
REMARK H PARENT
REMARK Flexibility Score: inf
ROOT
ATOM      1  C   UNL     1     115.088 114.833 120.638  1.00  0.00     0.008 C 
ENDROOT
BRANCH   1   2
ATOM      2  C   UNL     1     116.192 114.345 119.688  1.00  0.00     0.000 C 
BRANCH   2   3
ATOM      3  C   UNL     1     117.547 114.957 120.062  1.00  0.00    -0.003 C 
ATOM      4  C   UNL     1     117.570 115.395 121.523  1.00  0.00     0.004 C 
ENDBRANCH   2   3
ENDBRANCH   1   2
BRANCH   1   5
ATOM      5  C   UNL     1     113.965 115.582 119.905  1.00  0.00     0.075 C 
BRANCH   5   6
ATOM      6  C   UNL     1     114.327 117.017 119.626  1.00  0.00     0.129 C 
ATOM      7  O   UNL     1     114.253 117.453 118.486  1.00  0.00    -0.300 OA
ATOM      8  C   UNL     1     114.820 117.903 120.729  1.00  0.00     0.087 C 
ENDBRANCH   5   6
ENDBRANCH   1   5
TORSDOF 4
ENDMDL
