MODEL 1
REMARK VINA RESULT:    -3.719      0.000      0.000
REMARK INTER + INTRA:          -4.152
REMARK INTER:                  -4.045
REMARK INTRA:                  -0.107
REMARK UNBOUND:                -0.107
REMARK SMILES CC(C)(C)[C@@H]1C=C[C@@H](O)CC1
REMARK SMILES IDX 5 1 11 2 10 3 8 4 7 5 6 6 2 7 1 8 3 9 4 10 9 11
REMARK H PARENT 9 12
REMARK Flexibility Score: inf
ROOT
ATOM      1  C   UNL     1       0.273   2.347  -5.708  1.00  0.00     0.017 C 
ATOM      2  C   UNL     1      -0.865   2.212  -4.649  1.00  0.00     0.011 C 
ATOM      3  C   UNL     1      -2.019   3.200  -4.868  1.00  0.00     0.037 C 
ATOM      4  C   UNL     1      -2.614   3.044  -6.271  1.00  0.00     0.137 C 
ATOM      5  C   UNL     1      -1.542   3.078  -7.324  1.00  0.00     0.000 C 
ATOM      6  C   UNL     1      -0.272   2.711  -7.086  1.00  0.00    -0.025 C 
ENDROOT
BRANCH   1   7
ATOM      7  C   UNL     1       1.491   3.255  -5.267  1.00  0.00    -0.032 C 
ATOM      8  C   UNL     1       1.023   4.561  -4.592  1.00  0.00     0.011 C 
ATOM      9  C   UNL     1       2.412   2.487  -4.284  1.00  0.00     0.011 C 
ATOM     10  C   UNL     1       2.361   3.630  -6.495  1.00  0.00     0.011 C 
ENDBRANCH   1   7
BRANCH   4  11
ATOM     11  O   UNL     1      -3.311   1.830  -6.376  1.00  0.00    -0.389 OA
ATOM     12  H   UNL     1      -4.245   2.056  -6.625  1.00  0.00     0.211 HD
ENDBRANCH   4  11
TORSDOF 2
ENDMDL
MODEL 2
REMARK VINA RESULT:    -3.660      0.118      1.310
REMARK INTER + INTRA:          -4.089
REMARK INTER:                  -4.008
REMARK INTRA:                  -0.080
REMARK UNBOUND:                -0.107
REMARK SMILES CC(C)(C)[C@@H]1C=C[C@@H](O)CC1
REMARK SMILES IDX 5 1 11 2 10 3 8 4 7 5 6 6 2 7 1 8 3 9 4 10 9 11
REMARK H PARENT 9 12
REMARK Flexibility Score: inf
ROOT
ATOM      1  C   UNL     1       0.323   2.262  -5.632  1.00  0.00     0.017 C 
ATOM      2  C   UNL     1      -0.839   2.195  -4.593  1.00  0.00     0.011 C 
ATOM      3  C   UNL     1      -1.953   3.216  -4.861  1.00  0.00     0.037 C 
ATOM      4  C   UNL     1      -2.526   3.044  -6.271  1.00  0.00     0.137 C 
ATOM      5  C   UNL     1      -1.434   3.012  -7.302  1.00  0.00     0.000 C 
ATOM      6  C   UNL     1      -0.182   2.608  -7.030  1.00  0.00    -0.025 C 
ENDROOT
BRANCH   1   7
ATOM      7  C   UNL     1       1.564   3.139  -5.190  1.00  0.00    -0.032 C 
ATOM      8  C   UNL     1       2.465   2.396  -4.182  1.00  0.00     0.011 C 
ATOM      9  C   UNL     1       2.415   3.533  -6.425  1.00  0.00     0.011 C 
ATOM     10  C   UNL     1       1.089   4.460  -4.533  1.00  0.00     0.011 C 
ENDBRANCH   1   7
BRANCH   4  11
ATOM     11  O   UNL     1      -3.264   1.853  -6.358  1.00  0.00    -0.389 OA
ATOM     12  H   UNL     1      -2.827   1.200  -5.750  1.00  0.00     0.211 HD
ENDBRANCH   4  11
TORSDOF 2
ENDMDL
MODEL 3
REMARK VINA RESULT:    -3.574      2.214      4.271
REMARK INTER + INTRA:          -3.995
REMARK INTER:                  -3.723
REMARK INTRA:                  -0.272
REMARK UNBOUND:                -0.107
REMARK SMILES CC(C)(C)[C@@H]1C=C[C@@H](O)CC1
REMARK SMILES IDX 5 1 11 2 10 3 8 4 7 5 6 6 2 7 1 8 3 9 4 10 9 11
REMARK H PARENT 9 12
REMARK Flexibility Score: inf
ROOT
ATOM      1  C   UNL     1      -1.117   3.708  -4.383  1.00  0.00     0.017 C 
ATOM      2  C   UNL     1      -0.443   2.346  -4.734  1.00  0.00     0.011 C 
ATOM      3  C   UNL     1       0.768   2.489  -5.664  1.00  0.00     0.037 C 
ATOM      4  C   UNL     1       1.816   3.428  -5.058  1.00  0.00     0.137 C 
ATOM      5  C   UNL     1       1.196   4.725  -4.620  1.00  0.00     0.000 C 
ATOM      6  C   UNL     1      -0.095   4.835  -4.264  1.00  0.00    -0.025 C 
ENDROOT
BRANCH   1   7
ATOM      7  C   UNL     1      -2.357   4.093  -5.287  1.00  0.00    -0.032 C 
ATOM      8  C   UNL     1      -3.477   4.772  -4.472  1.00  0.00     0.011 C 
ATOM      9  C   UNL     1      -1.920   5.049  -6.427  1.00  0.00     0.011 C 
ATOM     10  C   UNL     1      -2.948   2.830  -5.964  1.00  0.00     0.011 C 
ENDBRANCH   1   7
BRANCH   4  11
ATOM     11  O   UNL     1       2.432   2.826  -3.950  1.00  0.00    -0.389 OA
ATOM     12  H   UNL     1       1.718   2.350  -3.449  1.00  0.00     0.211 HD
ENDBRANCH   4  11
TORSDOF 2
ENDMDL
MODEL 4
REMARK VINA RESULT:    -3.436      1.654      2.079
REMARK INTER + INTRA:          -3.844
REMARK INTER:                  -3.567
REMARK INTRA:                  -0.278
REMARK UNBOUND:                -0.107
REMARK SMILES CC(C)(C)[C@@H]1C=C[C@@H](O)CC1
REMARK SMILES IDX 5 1 11 2 10 3 8 4 7 5 6 6 2 7 1 8 3 9 4 10 9 11
REMARK H PARENT 9 12
REMARK Flexibility Score: inf
ROOT
ATOM      1  C   UNL     1      -0.449   3.451  -4.317  1.00  0.00     0.017 C 
ATOM      2  C   UNL     1      -0.827   4.964  -4.362  1.00  0.00     0.011 C 
ATOM      3  C   UNL     1      -1.639   5.351  -5.605  1.00  0.00     0.037 C 
ATOM      4  C   UNL     1      -2.915   4.509  -5.709  1.00  0.00     0.137 C 
ATOM      5  C   UNL     1      -2.612   3.043  -5.581  1.00  0.00     0.000 C 
ATOM      6  C   UNL     1      -1.547   2.572  -4.911  1.00  0.00    -0.025 C 
ENDROOT
BRANCH   1   7
ATOM      7  C   UNL     1       0.989   3.104  -4.878  1.00  0.00    -0.032 C 
ATOM      8  C   UNL     1       1.953   4.303  -4.771  1.00  0.00     0.011 C 
ATOM      9  C   UNL     1       1.596   1.904  -4.106  1.00  0.00     0.011 C 
ATOM     10  C   UNL     1       0.904   2.682  -6.367  1.00  0.00     0.011 C 
ENDBRANCH   1   7
BRANCH   4  11
ATOM     11  O   UNL     1      -3.825   4.871  -4.703  1.00  0.00    -0.389 OA
ATOM     12  H   UNL     1      -3.564   4.370  -3.886  1.00  0.00     0.211 HD
ENDBRANCH   4  11
TORSDOF 2
ENDMDL
MODEL 5
REMARK VINA RESULT:    -3.350     13.297     14.679
REMARK INTER + INTRA:          -3.752
REMARK INTER:                  -3.482
REMARK INTRA:                  -0.270
REMARK UNBOUND:                -0.107
REMARK SMILES CC(C)(C)[C@@H]1C=C[C@@H](O)CC1
REMARK SMILES IDX 5 1 11 2 10 3 8 4 7 5 6 6 2 7 1 8 3 9 4 10 9 11
REMARK H PARENT 9 12
REMARK Flexibility Score: inf
ROOT
ATOM      1  C   UNL     1      -3.166   2.290   8.059  1.00  0.00     0.017 C 
ATOM      2  C   UNL     1      -2.193   2.494   9.262  1.00  0.00     0.011 C 
ATOM      3  C   UNL     1      -0.976   1.560   9.224  1.00  0.00     0.037 C 
ATOM      4  C   UNL     1      -0.200   1.726   7.913  1.00  0.00     0.137 C 
ATOM      5  C   UNL     1      -1.113   1.627   6.724  1.00  0.00     0.000 C 
ATOM      6  C   UNL     1      -2.419   1.934   6.777  1.00  0.00    -0.025 C 
ENDROOT
BRANCH   1   7
ATOM      7  C   UNL     1      -4.391   1.330   8.346  1.00  0.00    -0.032 C 
ATOM      8  C   UNL     1      -4.199  -0.058   7.701  1.00  0.00     0.011 C 
ATOM      9  C   UNL     1      -4.591   1.148   9.873  1.00  0.00     0.011 C 
ATOM     10  C   UNL     1      -5.702   1.944   7.793  1.00  0.00     0.011 C 
ENDBRANCH   1   7
BRANCH   4  11
ATOM     11  O   UNL     1       0.449   2.971   7.882  1.00  0.00    -0.389 OA
ATOM     12  H   UNL     1       0.389   3.348   8.798  1.00  0.00     0.211 HD
ENDBRANCH   4  11
TORSDOF 2
ENDMDL
MODEL 6
REMARK VINA RESULT:    -3.321      1.878      3.177
REMARK INTER + INTRA:          -3.719
REMARK INTER:                  -3.472
REMARK INTRA:                  -0.247
REMARK UNBOUND:                -0.107
REMARK SMILES CC(C)(C)[C@@H]1C=C[C@@H](O)CC1
REMARK SMILES IDX 5 1 11 2 10 3 8 4 7 5 6 6 2 7 1 8 3 9 4 10 9 11
REMARK H PARENT 9 12
REMARK Flexibility Score: inf
ROOT
ATOM      1  C   UNL     1       0.379   2.630  -6.859  1.00  0.00     0.017 C 
ATOM      2  C   UNL     1       1.232   2.906  -5.582  1.00  0.00     0.011 C 
ATOM      3  C   UNL     1       0.733   4.105  -4.766  1.00  0.00     0.037 C 
ATOM      4  C   UNL     1      -0.733   3.921  -4.362  1.00  0.00     0.137 C 
ATOM      5  C   UNL     1      -1.583   3.563  -5.548  1.00  0.00     0.000 C 
ATOM      6  C   UNL     1      -1.098   2.936  -6.633  1.00  0.00    -0.025 C 
ENDROOT
BRANCH   1   7
ATOM      7  C   UNL     1       0.944   3.267  -8.192  1.00  0.00    -0.032 C 
ATOM      8  C   UNL     1       0.926   2.265  -9.364  1.00  0.00     0.011 C 
ATOM      9  C   UNL     1       0.115   4.516  -8.589  1.00  0.00     0.011 C 
ATOM     10  C   UNL     1       2.405   3.746  -7.987  1.00  0.00     0.011 C 
ENDBRANCH   1   7
BRANCH   4  11
ATOM     11  O   UNL     1      -0.852   2.906  -3.399  1.00  0.00    -0.389 OA
ATOM     12  H   UNL     1      -1.093   2.075  -3.887  1.00  0.00     0.211 HD
ENDBRANCH   4  11
TORSDOF 2
ENDMDL
MODEL 7
REMARK VINA RESULT:    -3.267     10.314     11.689
REMARK INTER + INTRA:          -3.661
REMARK INTER:                  -3.375
REMARK INTRA:                  -0.286
REMARK UNBOUND:                -0.107
REMARK SMILES CC(C)(C)[C@@H]1C=C[C@@H](O)CC1
REMARK SMILES IDX 5 1 11 2 10 3 8 4 7 5 6 6 2 7 1 8 3 9 4 10 9 11
REMARK H PARENT 9 12
REMARK Flexibility Score: inf
ROOT
ATOM      1  C   UNL     1       1.934  -5.711  -0.457  1.00  0.00     0.017 C 
ATOM      2  C   UNL     1       3.257  -6.135   0.254  1.00  0.00     0.011 C 
ATOM      3  C   UNL     1       3.327  -7.636   0.563  1.00  0.00     0.037 C 
ATOM      4  C   UNL     1       3.153  -8.466  -0.713  1.00  0.00     0.137 C 
ATOM      5  C   UNL     1       1.937  -8.033  -1.482  1.00  0.00     0.000 C 
ATOM      6  C   UNL     1       1.431  -6.790  -1.412  1.00  0.00    -0.025 C 
ENDROOT
BRANCH   1   7
ATOM      7  C   UNL     1       0.804  -5.163   0.504  1.00  0.00    -0.032 C 
ATOM      8  C   UNL     1      -0.095  -6.296   1.042  1.00  0.00     0.011 C 
ATOM      9  C   UNL     1       1.433  -4.411   1.706  1.00  0.00     0.011 C 
ATOM     10  C   UNL     1      -0.096  -4.144  -0.241  1.00  0.00     0.011 C 
ENDBRANCH   1   7
BRANCH   4  11
ATOM     11  O   UNL     1       4.279  -8.336  -1.540  1.00  0.00    -0.389 OA
ATOM     12  H   UNL     1       5.022  -8.818  -1.091  1.00  0.00     0.211 HD
ENDBRANCH   4  11
TORSDOF 2
ENDMDL
MODEL 8
REMARK VINA RESULT:    -3.218     12.891     14.262
REMARK INTER + INTRA:          -3.608
REMARK INTER:                  -3.323
REMARK INTRA:                  -0.284
REMARK UNBOUND:                -0.107
REMARK SMILES CC(C)(C)[C@@H]1C=C[C@@H](O)CC1
REMARK SMILES IDX 5 1 11 2 10 3 8 4 7 5 6 6 2 7 1 8 3 9 4 10 9 11
REMARK H PARENT 9 12
REMARK Flexibility Score: inf
ROOT
ATOM      1  C   UNL     1      -3.296   0.888   7.656  1.00  0.00     0.017 C 
ATOM      2  C   UNL     1      -2.439   1.979   6.941  1.00  0.00     0.011 C 
ATOM      3  C   UNL     1      -0.950   1.620   6.852  1.00  0.00     0.037 C 
ATOM      4  C   UNL     1      -0.753   0.277   6.140  1.00  0.00     0.137 C 
ATOM      5  C   UNL     1      -1.628  -0.789   6.737  1.00  0.00     0.000 C 
ATOM      6  C   UNL     1      -2.787  -0.519   7.360  1.00  0.00    -0.025 C 
ENDROOT
BRANCH   1   7
ATOM      7  C   UNL     1      -3.548   1.141   9.198  1.00  0.00    -0.032 C 
ATOM      8  C   UNL     1      -2.419   0.556  10.070  1.00  0.00     0.011 C 
ATOM      9  C   UNL     1      -3.667   2.660   9.486  1.00  0.00     0.011 C 
ATOM     10  C   UNL     1      -4.887   0.495   9.641  1.00  0.00     0.011 C 
ENDBRANCH   1   7
BRANCH   4  11
ATOM     11  O   UNL     1      -1.056   0.397   4.775  1.00  0.00    -0.389 OA
ATOM     12  H   UNL     1      -0.264   0.067   4.275  1.00  0.00     0.211 HD
ENDBRANCH   4  11
TORSDOF 2
ENDMDL
MODEL 9
REMARK VINA RESULT:    -3.212      2.241      4.075
REMARK INTER + INTRA:          -3.601
REMARK INTER:                  -3.400
REMARK INTRA:                  -0.201
REMARK UNBOUND:                -0.107
REMARK SMILES CC(C)(C)[C@@H]1C=C[C@@H](O)CC1
REMARK SMILES IDX 5 1 11 2 10 3 8 4 7 5 6 6 2 7 1 8 3 9 4 10 9 11
REMARK H PARENT 9 12
REMARK Flexibility Score: inf
ROOT
ATOM      1  C   UNL     1      -1.095   4.314  -5.546  1.00  0.00     0.017 C 
ATOM      2  C   UNL     1      -0.862   3.746  -4.111  1.00  0.00     0.011 C 
ATOM      3  C   UNL     1      -0.270   2.330  -4.107  1.00  0.00     0.037 C 
ATOM      4  C   UNL     1       1.048   2.286  -4.887  1.00  0.00     0.137 C 
ATOM      5  C   UNL     1       0.896   2.905  -6.247  1.00  0.00     0.000 C 
ATOM      6  C   UNL     1      -0.019   3.850  -6.523  1.00  0.00    -0.025 C 
ENDROOT
BRANCH   1   7
ATOM      7  C   UNL     1      -2.561   4.126  -6.109  1.00  0.00    -0.032 C 
ATOM      8  C   UNL     1      -2.915   2.639  -6.312  1.00  0.00     0.011 C 
ATOM      9  C   UNL     1      -3.597   4.759  -5.144  1.00  0.00     0.011 C 
ATOM     10  C   UNL     1      -2.717   4.852  -7.470  1.00  0.00     0.011 C 
ENDBRANCH   1   7
BRANCH   4  11
ATOM     11  O   UNL     1       2.054   2.971  -4.189  1.00  0.00    -0.389 OA
ATOM     12  H   UNL     1       2.318   2.394  -3.425  1.00  0.00     0.211 HD
ENDBRANCH   4  11
TORSDOF 2
ENDMDL
