MODEL 1
REMARK VINA RESULT:    -5.375      0.000      0.000
REMARK INTER + INTRA:          -8.465
REMARK INTER:                  -8.204
REMARK INTRA:                  -0.261
REMARK UNBOUND:                -0.261
REMARK SMILES CC1=CCC[C@H](C)C(=O)C[C@H](C(C)C)C(=O)C1
REMARK SMILES IDX 8 1 9 2 6 3 7 4 5 5 4 6 3 7 2 8 1 9 10 11 11 12 15 13 16 14
REMARK SMILES IDX 17 15 12 17 13 18 14 19
REMARK H PARENT
REMARK Flexibility Score: 70.00
ROOT
ATOM      1  C   UNL     1      28.737  57.310 141.337  1.00  0.00     0.136 C 
ATOM      2  O   UNL     1      27.951  57.200 142.267  1.00  0.00    -0.299 OA
ENDROOT
BRANCH   1   3
ATOM      3  C   UNL     1      30.134  57.817 141.631  1.00  0.00     0.053 C 
ATOM      4  C   UNL     1      30.980  57.777 140.353  1.00  0.00     0.016 C 
BRANCH   3   5
ATOM      5  C   UNL     1      30.168  59.229 142.255  1.00  0.00     0.015 C 
BRANCH   5   6
ATOM      6  C   UNL     1      30.104  60.369 141.217  1.00  0.00     0.028 C 
BRANCH   6   7
ATOM      7  C   UNL     1      28.681  60.808 140.953  1.00  0.00    -0.028 C 
ATOM      8  C   UNL     1      27.964  60.608 139.821  1.00  0.00    -0.070 CG0
ATOM      9  C   UNL     1      26.534  61.084 139.810  1.00  0.00     0.039 C 
ATOM     10  G   UNL     1      28.476  59.842 138.615  1.00  0.00     0.000 G0
ENDBRANCH   6   7
ENDBRANCH   5   6
ENDBRANCH   3   5
ENDBRANCH   1   3
BRANCH   1  11
ATOM     11  C   UNL     1      28.356  56.781 139.969  1.00  0.00     0.087 C 
BRANCH  11  12
ATOM     12  C   UNL     1      27.193  57.556 139.283  1.00  0.00     0.066 C 
BRANCH  12  13
ATOM     13  C   UNL     1      27.644  58.610 138.262  1.00  0.00     0.140 C 
ATOM     14  O   UNL     1      27.257  58.496 137.108  1.00  0.00    -0.299 OA
BRANCH  13  15
ATOM     15  C   UNL     1      28.471  59.835 138.598  1.00  0.00     0.106 CG0
ATOM     16  G   UNL     1      27.962  60.573 139.822  1.00  0.00     0.000 G0
ENDBRANCH  13  15
ENDBRANCH  12  13
BRANCH  12  17
ATOM     17  C   UNL     1      26.127  56.596 138.657  1.00  0.00    -0.006 C 
ATOM     18  C   UNL     1      24.683  57.007 138.998  1.00  0.00     0.008 C 
ATOM     19  C   UNL     1      26.356  55.118 139.009  1.00  0.00     0.008 C 
ENDBRANCH  12  17
ENDBRANCH  11  12
ENDBRANCH   1  11
TORSDOF 1
ENDMDL
MODEL 2
REMARK VINA RESULT:    -5.332      2.133      3.165
REMARK INTER + INTRA:          -8.399
REMARK INTER:                  -8.909
REMARK INTRA:                   0.511
REMARK UNBOUND:                -0.261
REMARK SMILES CC1=CCC[C@H](C)C(=O)C[C@H](C(C)C)C(=O)C1
REMARK SMILES IDX 8 1 9 2 6 3 7 4 5 5 4 6 3 7 2 8 1 9 10 11 11 12 15 13 16 14
REMARK SMILES IDX 17 15 12 17 13 18 14 19
REMARK H PARENT
REMARK Flexibility Score: 70.00
ROOT
ATOM      1  C   UNL     1      26.211  56.900 142.751  1.00  0.00     0.136 C 
ATOM      2  O   UNL     1      26.024  56.146 143.696  1.00  0.00    -0.299 OA
ENDROOT
BRANCH   1   3
ATOM      3  C   UNL     1      26.925  58.211 143.008  1.00  0.00     0.053 C 
ATOM      4  C   UNL     1      26.469  58.796 144.350  1.00  0.00     0.016 C 
BRANCH   3   5
ATOM      5  C   UNL     1      28.465  58.104 142.964  1.00  0.00     0.015 C 
BRANCH   5   6
ATOM      6  C   UNL     1      29.128  59.081 141.970  1.00  0.00     0.028 C 
BRANCH   6   7
ATOM      7  C   UNL     1      30.231  58.415 141.178  1.00  0.00    -0.028 C 
ATOM      8  C   UNL     1      30.129  57.861 139.946  1.00  0.00    -0.070 CG0
ATOM      9  C   UNL     1      31.386  57.307 139.326  1.00  0.00     0.039 C 
ATOM     10  G   UNL     1      28.859  57.867 139.115  1.00  0.00     0.000 G0
ENDBRANCH   6   7
ENDBRANCH   5   6
ENDBRANCH   3   5
ENDBRANCH   1   3
BRANCH   1  11
ATOM     11  C   UNL     1      25.886  56.434 141.347  1.00  0.00     0.087 C 
BRANCH  11  12
ATOM     12  C   UNL     1      26.448  57.350 140.221  1.00  0.00     0.066 C 
BRANCH  12  13
ATOM     13  C   UNL     1      27.817  56.921 139.673  1.00  0.00     0.140 C 
ATOM     14  O   UNL     1      28.061  55.724 139.608  1.00  0.00    -0.299 OA
BRANCH  13  15
ATOM     15  C   UNL     1      28.862  57.872 139.126  1.00  0.00     0.106 CG0
ATOM     16  G   UNL     1      30.146  57.866 139.934  1.00  0.00     0.000 G0
ENDBRANCH  13  15
ENDBRANCH  12  13
BRANCH  12  17
ATOM     17  C   UNL     1      25.423  57.560 139.057  1.00  0.00    -0.006 C 
ATOM     18  C   UNL     1      24.188  56.650 139.181  1.00  0.00     0.008 C 
ATOM     19  C   UNL     1      26.050  57.419 137.662  1.00  0.00     0.008 C 
ENDBRANCH  12  17
ENDBRANCH  11  12
ENDBRANCH   1  11
TORSDOF 1
ENDMDL
MODEL 3
REMARK VINA RESULT:    -5.223      2.143      4.400
REMARK INTER + INTRA:          -8.232
REMARK INTER:                  -8.117
REMARK INTRA:                  -0.114
REMARK UNBOUND:                -0.261
REMARK SMILES CC1=CCC[C@H](C)C(=O)C[C@H](C(C)C)C(=O)C1
REMARK SMILES IDX 8 1 9 2 6 3 7 4 5 5 4 6 3 7 2 8 1 9 10 11 11 12 15 13 16 14
REMARK SMILES IDX 17 15 12 17 13 18 14 19
REMARK H PARENT
REMARK Flexibility Score: 70.00
ROOT
ATOM      1  C   UNL     1      26.348  56.173 138.603  1.00  0.00     0.136 C 
ATOM      2  O   UNL     1      26.761  55.025 138.686  1.00  0.00    -0.299 OA
ENDROOT
BRANCH   1   3
ATOM      3  C   UNL     1      25.099  56.545 139.376  1.00  0.00     0.053 C 
ATOM      4  C   UNL     1      24.308  55.279 139.724  1.00  0.00     0.016 C 
BRANCH   3   5
ATOM      5  C   UNL     1      25.376  57.375 140.649  1.00  0.00     0.015 C 
BRANCH   5   6
ATOM      6  C   UNL     1      26.160  56.605 141.733  1.00  0.00     0.028 C 
BRANCH   6   7
ATOM      7  C   UNL     1      27.265  57.448 142.331  1.00  0.00    -0.028 C 
ATOM      8  C   UNL     1      28.563  57.478 141.946  1.00  0.00    -0.070 CG0
ATOM      9  C   UNL     1      29.476  58.448 142.653  1.00  0.00     0.039 C 
ATOM     10  G   UNL     1      29.124  56.682 140.782  1.00  0.00     0.000 G0
ENDBRANCH   6   7
ENDBRANCH   5   6
ENDBRANCH   3   5
ENDBRANCH   1   3
BRANCH   1  11
ATOM     11  C   UNL     1      27.178  57.216 137.883  1.00  0.00     0.087 C 
BRANCH  11  12
ATOM     12  C   UNL     1      27.994  58.147 138.826  1.00  0.00     0.066 C 
BRANCH  12  13
ATOM     13  C   UNL     1      29.204  57.477 139.494  1.00  0.00     0.140 C 
ATOM     14  O   UNL     1      30.306  57.646 138.991  1.00  0.00    -0.299 OA
BRANCH  13  15
ATOM     15  C   UNL     1      29.145  56.685 140.785  1.00  0.00     0.106 CG0
ATOM     16  G   UNL     1      28.556  57.478 141.937  1.00  0.00     0.000 G0
ENDBRANCH  13  15
ENDBRANCH  12  13
BRANCH  12  17
ATOM     17  C   UNL     1      28.415  59.482 138.125  1.00  0.00    -0.006 C 
ATOM     18  C   UNL     1      28.241  60.712 139.034  1.00  0.00     0.008 C 
ATOM     19  C   UNL     1      27.711  59.711 136.779  1.00  0.00     0.008 C 
ENDBRANCH  12  17
ENDBRANCH  11  12
ENDBRANCH   1  11
TORSDOF 1
ENDMDL
MODEL 4
REMARK VINA RESULT:    -5.170      1.630      4.059
REMARK INTER + INTRA:          -8.151
REMARK INTER:                  -8.040
REMARK INTRA:                  -0.111
REMARK UNBOUND:                -0.261
REMARK SMILES CC1=CCC[C@H](C)C(=O)C[C@H](C(C)C)C(=O)C1
REMARK SMILES IDX 8 1 9 2 6 3 7 4 5 5 4 6 3 7 2 8 1 9 10 11 11 12 15 13 16 14
REMARK SMILES IDX 17 15 12 17 13 18 14 19
REMARK H PARENT
REMARK Flexibility Score: 70.00
ROOT
ATOM      1  C   UNL     1      27.481  56.700 141.419  1.00  0.00     0.136 C 
ATOM      2  O   UNL     1      26.679  56.267 142.235  1.00  0.00    -0.299 OA
ENDROOT
BRANCH   1   3
ATOM      3  C   UNL     1      27.314  56.303 139.967  1.00  0.00     0.053 C 
ATOM      4  C   UNL     1      27.907  54.908 139.739  1.00  0.00     0.016 C 
BRANCH   3   5
ATOM      5  C   UNL     1      25.853  56.355 139.468  1.00  0.00     0.015 C 
BRANCH   5   6
ATOM      6  C   UNL     1      25.414  57.749 138.973  1.00  0.00     0.028 C 
BRANCH   6   7
ATOM      7  C   UNL     1      26.468  58.393 138.102  1.00  0.00    -0.028 C 
ATOM      8  C   UNL     1      27.166  59.523 138.369  1.00  0.00    -0.070 CG0
ATOM      9  C   UNL     1      28.218  59.943 137.373  1.00  0.00     0.039 C 
ATOM     10  G   UNL     1      27.032  60.321 139.652  1.00  0.00     0.000 G0
ENDBRANCH   6   7
ENDBRANCH   5   6
ENDBRANCH   3   5
ENDBRANCH   1   3
BRANCH   1  11
ATOM     11  C   UNL     1      28.495  57.742 141.847  1.00  0.00     0.087 C 
BRANCH  11  12
ATOM     12  C   UNL     1      28.931  58.714 140.712  1.00  0.00     0.066 C 
BRANCH  12  13
ATOM     13  C   UNL     1      28.138  60.027 140.657  1.00  0.00     0.140 C 
ATOM     14  O   UNL     1      28.455  60.924 141.426  1.00  0.00    -0.299 OA
BRANCH  13  15
ATOM     15  C   UNL     1      27.038  60.328 139.659  1.00  0.00     0.106 CG0
ATOM     16  G   UNL     1      27.172  59.528 138.376  1.00  0.00     0.000 G0
ENDBRANCH  13  15
ENDBRANCH  12  13
BRANCH  12  17
ATOM     17  C   UNL     1      30.471  58.995 140.730  1.00  0.00    -0.006 C 
ATOM     18  C   UNL     1      31.255  58.071 139.781  1.00  0.00     0.008 C 
ATOM     19  C   UNL     1      31.082  58.952 142.139  1.00  0.00     0.008 C 
ENDBRANCH  12  17
ENDBRANCH  11  12
ENDBRANCH   1  11
TORSDOF 1
ENDMDL
MODEL 5
REMARK VINA RESULT:    -5.158      1.731      3.800
REMARK INTER + INTRA:          -8.133
REMARK INTER:                  -7.997
REMARK INTRA:                  -0.136
REMARK UNBOUND:                -0.261
REMARK SMILES CC1=CCC[C@H](C)C(=O)C[C@H](C(C)C)C(=O)C1
REMARK SMILES IDX 8 1 9 2 6 3 7 4 5 5 4 6 3 7 2 8 1 9 10 11 11 12 15 13 16 14
REMARK SMILES IDX 17 15 12 17 13 18 14 19
REMARK H PARENT
REMARK Flexibility Score: 70.00
ROOT
ATOM      1  C   UNL     1      26.715  58.479 138.512  1.00  0.00     0.136 C 
ATOM      2  O   UNL     1      26.490  58.031 137.397  1.00  0.00    -0.299 OA
ENDROOT
BRANCH   1   3
ATOM      3  C   UNL     1      27.684  59.637 138.640  1.00  0.00     0.053 C 
ATOM      4  C   UNL     1      28.273  59.974 137.265  1.00  0.00     0.016 C 
BRANCH   3   5
ATOM      5  C   UNL     1      27.070  60.898 139.285  1.00  0.00     0.015 C 
BRANCH   5   6
ATOM      6  C   UNL     1      27.331  61.010 140.802  1.00  0.00     0.028 C 
BRANCH   6   7
ATOM      7  C   UNL     1      28.480  60.129 141.240  1.00  0.00    -0.028 C 
ATOM      8  C   UNL     1      28.417  59.067 142.079  1.00  0.00    -0.070 CG0
ATOM      9  C   UNL     1      29.690  58.297 142.322  1.00  0.00     0.039 C 
ATOM     10  G   UNL     1      27.132  58.544 142.693  1.00  0.00     0.000 G0
ENDBRANCH   6   7
ENDBRANCH   5   6
ENDBRANCH   3   5
ENDBRANCH   1   3
BRANCH   1  11
ATOM     11  C   UNL     1      25.903  57.989 139.693  1.00  0.00     0.087 C 
BRANCH  11  12
ATOM     12  C   UNL     1      26.629  56.933 140.576  1.00  0.00     0.066 C 
BRANCH  12  13
ATOM     13  C   UNL     1      26.615  57.241 142.080  1.00  0.00     0.140 C 
ATOM     14  O   UNL     1      26.240  56.363 142.845  1.00  0.00    -0.299 OA
BRANCH  13  15
ATOM     15  C   UNL     1      27.110  58.533 142.699  1.00  0.00     0.106 CG0
ATOM     16  G   UNL     1      28.400  59.030 142.074  1.00  0.00     0.000 G0
ENDBRANCH  13  15
ENDBRANCH  12  13
BRANCH  12  17
ATOM     17  C   UNL     1      26.121  55.478 140.302  1.00  0.00    -0.006 C 
ATOM     18  C   UNL     1      27.065  54.682 139.383  1.00  0.00     0.008 C 
ATOM     19  C   UNL     1      24.684  55.427 139.762  1.00  0.00     0.008 C 
ENDBRANCH  12  17
ENDBRANCH  11  12
ENDBRANCH   1  11
TORSDOF 1
ENDMDL
MODEL 6
REMARK VINA RESULT:    -5.140      1.511      1.967
REMARK INTER + INTRA:          -8.106
REMARK INTER:                  -7.902
REMARK INTRA:                  -0.203
REMARK UNBOUND:                -0.261
REMARK SMILES CC1=CCC[C@H](C)C(=O)C[C@H](C(C)C)C(=O)C1
REMARK SMILES IDX 8 1 9 2 6 3 7 4 5 5 4 6 3 7 2 8 1 9 10 11 11 12 15 13 16 14
REMARK SMILES IDX 17 15 12 17 13 18 14 19
REMARK H PARENT
REMARK Flexibility Score: 70.00
ROOT
ATOM      1  C   UNL     1      26.663  57.148 142.462  1.00  0.00     0.136 C 
ATOM      2  O   UNL     1      25.767  56.795 143.216  1.00  0.00    -0.299 OA
ENDROOT
BRANCH   1   3
ATOM      3  C   UNL     1      27.553  58.297 142.892  1.00  0.00     0.053 C 
ATOM      4  C   UNL     1      29.025  57.898 142.737  1.00  0.00     0.016 C 
BRANCH   3   5
ATOM      5  C   UNL     1      27.272  59.619 142.143  1.00  0.00     0.015 C 
BRANCH   5   6
ATOM      6  C   UNL     1      28.526  60.244 141.495  1.00  0.00     0.028 C 
BRANCH   6   7
ATOM      7  C   UNL     1      28.310  60.542 140.028  1.00  0.00    -0.028 C 
ATOM      8  C   UNL     1      28.383  59.664 139.000  1.00  0.00    -0.070 CG0
ATOM      9  C   UNL     1      28.065  60.180 137.620  1.00  0.00     0.039 C 
ATOM     10  G   UNL     1      28.653  58.180 139.167  1.00  0.00     0.000 G0
ENDBRANCH   6   7
ENDBRANCH   5   6
ENDBRANCH   3   5
ENDBRANCH   1   3
BRANCH   1  11
ATOM     11  C   UNL     1      26.964  56.331 141.222  1.00  0.00     0.087 C 
BRANCH  11  12
ATOM     12  C   UNL     1      26.361  56.912 139.910  1.00  0.00     0.066 C 
BRANCH  12  13
ATOM     13  C   UNL     1      27.401  57.334 138.863  1.00  0.00     0.140 C 
ATOM     14  O   UNL     1      27.195  57.037 137.694  1.00  0.00    -0.299 OA
BRANCH  13  15
ATOM     15  C   UNL     1      28.632  58.167 139.159  1.00  0.00     0.106 CG0
ATOM     16  G   UNL     1      28.394  59.656 138.981  1.00  0.00     0.000 G0
ENDBRANCH  13  15
ENDBRANCH  12  13
BRANCH  12  17
ATOM     17  C   UNL     1      25.288  55.964 139.278  1.00  0.00    -0.006 C 
ATOM     18  C   UNL     1      23.865  56.253 139.787  1.00  0.00     0.008 C 
ATOM     19  C   UNL     1      25.620  54.473 139.442  1.00  0.00     0.008 C 
ENDBRANCH  12  17
ENDBRANCH  11  12
ENDBRANCH   1  11
TORSDOF 1
ENDMDL
MODEL 7
REMARK VINA RESULT:    -5.047      2.380      4.520
REMARK INTER + INTRA:          -7.963
REMARK INTER:                  -8.096
REMARK INTRA:                   0.132
REMARK UNBOUND:                -0.261
REMARK SMILES CC1=CCC[C@H](C)C(=O)C[C@H](C(C)C)C(=O)C1
REMARK SMILES IDX 8 1 9 2 6 3 7 4 5 5 4 6 3 7 2 8 1 9 10 11 11 12 15 13 16 14
REMARK SMILES IDX 17 15 12 17 13 18 14 19
REMARK H PARENT
REMARK Flexibility Score: 70.00
ROOT
ATOM      1  C   UNL     1      27.226  59.791 139.780  1.00  0.00     0.136 C 
ATOM      2  O   UNL     1      26.199  60.452 139.725  1.00  0.00    -0.299 OA
ENDROOT
BRANCH   1   3
ATOM      3  C   UNL     1      28.117  59.745 138.556  1.00  0.00     0.053 C 
ATOM      4  C   UNL     1      29.440  59.053 138.904  1.00  0.00     0.016 C 
BRANCH   3   5
ATOM      5  C   UNL     1      27.463  59.069 137.331  1.00  0.00     0.015 C 
BRANCH   5   6
ATOM      6  C   UNL     1      27.252  57.549 137.499  1.00  0.00     0.028 C 
BRANCH   6   7
ATOM      7  C   UNL     1      25.863  57.228 138.005  1.00  0.00    -0.028 C 
ATOM      8  C   UNL     1      25.540  56.398 139.025  1.00  0.00    -0.070 CG0
ATOM      9  C   UNL     1      24.082  56.281 139.392  1.00  0.00     0.039 C 
ATOM     10  G   UNL     1      26.558  55.673 139.886  1.00  0.00     0.000 G0
ENDBRANCH   6   7
ENDBRANCH   5   6
ENDBRANCH   3   5
ENDBRANCH   1   3
BRANCH   1  11
ATOM     11  C   UNL     1      27.659  59.189 141.101  1.00  0.00     0.087 C 
BRANCH  11  12
ATOM     12  C   UNL     1      26.961  57.842 141.451  1.00  0.00     0.066 C 
BRANCH  12  13
ATOM     13  C   UNL     1      27.455  56.638 140.637  1.00  0.00     0.140 C 
ATOM     14  O   UNL     1      28.654  56.395 140.637  1.00  0.00    -0.299 OA
BRANCH  13  15
ATOM     15  C   UNL     1      26.553  55.672 139.895  1.00  0.00     0.106 CG0
ATOM     16  G   UNL     1      25.536  56.373 139.014  1.00  0.00     0.000 G0
ENDBRANCH  13  15
ENDBRANCH  12  13
BRANCH  12  17
ATOM     17  C   UNL     1      27.003  57.532 142.985  1.00  0.00    -0.006 C 
ATOM     18  C   UNL     1      25.954  56.489 143.409  1.00  0.00     0.008 C 
ATOM     19  C   UNL     1      26.891  58.787 143.863  1.00  0.00     0.008 C 
ENDBRANCH  12  17
ENDBRANCH  11  12
ENDBRANCH   1  11
TORSDOF 1
ENDMDL
MODEL 8
REMARK VINA RESULT:    -5.043      2.051      4.331
REMARK INTER + INTRA:          -7.957
REMARK INTER:                  -8.339
REMARK INTRA:                   0.382
REMARK UNBOUND:                -0.261
REMARK SMILES CC1=CCC[C@H](C)C(=O)C[C@H](C(C)C)C(=O)C1
REMARK SMILES IDX 8 1 9 2 6 3 7 4 5 5 4 6 3 7 2 8 1 9 10 11 11 12 15 13 16 14
REMARK SMILES IDX 17 15 12 17 13 18 14 19
REMARK H PARENT
REMARK Flexibility Score: 70.00
ROOT
ATOM      1  C   UNL     1      27.014  56.549 140.001  1.00  0.00     0.136 C 
ATOM      2  O   UNL     1      27.867  55.682 140.119  1.00  0.00    -0.299 OA
ENDROOT
BRANCH   1   3
ATOM      3  C   UNL     1      26.294  56.673 138.673  1.00  0.00     0.053 C 
ATOM      4  C   UNL     1      24.856  57.152 138.907  1.00  0.00     0.016 C 
BRANCH   3   5
ATOM      5  C   UNL     1      27.009  57.591 137.658  1.00  0.00     0.015 C 
BRANCH   5   6
ATOM      6  C   UNL     1      27.617  58.861 138.289  1.00  0.00     0.028 C 
BRANCH   6   7
ATOM      7  C   UNL     1      29.069  58.662 138.662  1.00  0.00    -0.028 C 
ATOM      8  C   UNL     1      29.637  58.888 139.871  1.00  0.00    -0.070 CG0
ATOM      9  C   UNL     1      31.100  58.556 140.025  1.00  0.00     0.039 C 
ATOM     10  G   UNL     1      28.870  59.344 141.099  1.00  0.00     0.000 G0
ENDBRANCH   6   7
ENDBRANCH   5   6
ENDBRANCH   3   5
ENDBRANCH   1   3
BRANCH   1  11
ATOM     11  C   UNL     1      26.584  57.347 141.215  1.00  0.00     0.087 C 
BRANCH  11  12
ATOM     12  C   UNL     1      27.615  57.344 142.381  1.00  0.00     0.066 C 
BRANCH  12  13
ATOM     13  C   UNL     1      28.799  58.303 142.189  1.00  0.00     0.140 C 
ATOM     14  O   UNL     1      29.769  58.174 142.922  1.00  0.00    -0.299 OA
BRANCH  13  15
ATOM     15  C   UNL     1      28.888  59.352 141.099  1.00  0.00     0.106 CG0
ATOM     16  G   UNL     1      29.636  58.864 139.871  1.00  0.00     0.000 G0
ENDBRANCH  13  15
ENDBRANCH  12  13
BRANCH  12  17
ATOM     17  C   UNL     1      26.938  57.569 143.774  1.00  0.00    -0.006 C 
ATOM     18  C   UNL     1      25.656  56.736 143.954  1.00  0.00     0.008 C 
ATOM     19  C   UNL     1      26.659  59.047 144.084  1.00  0.00     0.008 C 
ENDBRANCH  12  17
ENDBRANCH  11  12
ENDBRANCH   1  11
TORSDOF 1
ENDMDL
MODEL 9
REMARK VINA RESULT:    -4.908      2.029      3.350
REMARK INTER + INTRA:          -7.751
REMARK INTER:                  -8.475
REMARK INTRA:                   0.724
REMARK UNBOUND:                -0.261
REMARK SMILES CC1=CCC[C@H](C)C(=O)C[C@H](C(C)C)C(=O)C1
REMARK SMILES IDX 8 1 9 2 6 3 7 4 5 5 4 6 3 7 2 8 1 9 10 11 11 12 15 13 16 14
REMARK SMILES IDX 17 15 12 17 13 18 14 19
REMARK H PARENT
REMARK Flexibility Score: 70.00
ROOT
ATOM      1  C   UNL     1      26.344  57.259 141.326  1.00  0.00     0.136 C 
ATOM      2  O   UNL     1      25.243  56.751 141.176  1.00  0.00    -0.299 OA
ENDROOT
BRANCH   1   3
ATOM      3  C   UNL     1      26.776  57.640 142.728  1.00  0.00     0.053 C 
ATOM      4  C   UNL     1      25.790  57.059 143.749  1.00  0.00     0.016 C 
BRANCH   3   5
ATOM      5  C   UNL     1      28.220  57.217 143.074  1.00  0.00     0.015 C 
BRANCH   5   6
ATOM      6  C   UNL     1      29.277  58.296 142.754  1.00  0.00     0.028 C 
BRANCH   6   7
ATOM      7  C   UNL     1      30.142  57.902 141.578  1.00  0.00    -0.028 C 
ATOM      8  C   UNL     1      30.270  58.566 140.404  1.00  0.00    -0.070 CG0
ATOM      9  C   UNL     1      31.245  58.013 139.395  1.00  0.00     0.039 C 
ATOM     10  G   UNL     1      29.582  59.882 140.092  1.00  0.00     0.000 G0
ENDBRANCH   6   7
ENDBRANCH   5   6
ENDBRANCH   3   5
ENDBRANCH   1   3
BRANCH   1  11
ATOM     11  C   UNL     1      27.301  57.334 140.153  1.00  0.00     0.087 C 
BRANCH  11  12
ATOM     12  C   UNL     1      27.269  58.688 139.386  1.00  0.00     0.066 C 
BRANCH  12  13
ATOM     13  C   UNL     1      28.071  59.816 140.051  1.00  0.00     0.140 C 
ATOM     14  O   UNL     1      27.454  60.679 140.660  1.00  0.00    -0.299 OA
BRANCH  13  15
ATOM     15  C   UNL     1      29.584  59.897 140.079  1.00  0.00     0.106 CG0
ATOM     16  G   UNL     1      30.239  58.571 140.421  1.00  0.00     0.000 G0
ENDBRANCH  13  15
ENDBRANCH  12  13
BRANCH  12  17
ATOM     17  C   UNL     1      27.675  58.529 137.883  1.00  0.00    -0.006 C 
ATOM     18  C   UNL     1      27.748  59.876 137.141  1.00  0.00     0.008 C 
ATOM     19  C   UNL     1      26.782  57.545 137.112  1.00  0.00     0.008 C 
ENDBRANCH  12  17
ENDBRANCH  11  12
ENDBRANCH   1  11
TORSDOF 1
ENDMDL
