MODEL 1
REMARK VINA RESULT:    22.920      0.000      0.000
REMARK INTER + INTRA:          27.303
REMARK INTER:                  26.940
REMARK INTRA:                   0.363
REMARK UNBOUND:                 0.363
REMARK SMILES O=c1c(O)c(-c2ccc(O)cc2)oc2cc(O)cc(O)c12
REMARK SMILES IDX 5 1 3 2 2 3 1 4 21 5 19 6 18 7 16 8 15 9 14 10 13 11 6 12
REMARK SMILES IDX 7 13 8 14 9 15 12 16 11 17 10 18 4 20 20 22 17 24
REMARK H PARENT 10 19 4 21 20 23 17 25
REMARK Flexibility Score: inf
ROOT
ATOM      1  C   UNL     1      29.791  23.696  45.296  1.00  0.00     0.180 A 
ATOM      2  C   UNL     1      29.020  24.253  44.262  1.00  0.00     0.208 A 
ATOM      3  C   UNL     1      27.622  24.281  44.394  1.00  0.00     0.238 A 
ATOM      4  O   UNL     1      26.934  24.732  43.442  1.00  0.00    -0.285 OA
ATOM      5  C   UNL     1      27.014  23.766  45.564  1.00  0.00     0.111 A 
ATOM      6  C   UNL     1      25.611  23.778  45.821  1.00  0.00     0.134 A 
ATOM      7  C   UNL     1      25.109  23.123  46.953  1.00  0.00     0.093 A 
ATOM      8  C   UNL     1      25.969  22.512  47.871  1.00  0.00     0.123 A 
ATOM      9  C   UNL     1      27.344  22.546  47.659  1.00  0.00     0.094 A 
ATOM     10  C   UNL     1      27.871  23.160  46.520  1.00  0.00     0.146 A 
ATOM     11  O   UNL     1      29.188  23.161  46.351  1.00  0.00    -0.452 OA
ENDROOT
BRANCH   1  12
ATOM     12  C   UNL     1      31.270  23.654  45.241  1.00  0.00     0.021 A 
ATOM     13  C   UNL     1      31.999  24.542  44.429  1.00  0.00     0.016 A 
ATOM     14  C   UNL     1      33.397  24.500  44.412  1.00  0.00     0.047 A 
ATOM     15  C   UNL     1      34.083  23.580  45.215  1.00  0.00     0.115 A 
ATOM     16  C   UNL     1      31.968  22.748  46.059  1.00  0.00     0.016 A 
ATOM     17  C   UNL     1      33.365  22.708  46.039  1.00  0.00     0.047 A 
BRANCH  15  18
ATOM     18  O   UNL     1      35.475  23.528  45.205  1.00  0.00    -0.508 OA
ATOM     19  H   UNL     1      36.015  23.925  44.444  1.00  0.00     0.293 HD
ENDBRANCH  15  18
ENDBRANCH   1  12
BRANCH   2  20
ATOM     20  O   UNL     1      29.638  24.737  43.105  1.00  0.00    -0.502 OA
ATOM     21  H   UNL     1      29.215  25.447  42.519  1.00  0.00     0.293 HD
ENDBRANCH   2  20
BRANCH   6  22
ATOM     22  O   UNL     1      24.676  24.437  45.018  1.00  0.00    -0.507 OA
ATOM     23  H   UNL     1      24.828  25.331  44.576  1.00  0.00     0.293 HD
ENDBRANCH   6  22
BRANCH   8  24
ATOM     24  O   UNL     1      25.463  21.876  49.002  1.00  0.00    -0.508 OA
ATOM     25  H   UNL     1      25.296  20.877  49.019  1.00  0.00     0.293 HD
ENDBRANCH   8  24
TORSDOF 5
ENDMDL
MODEL 2
REMARK VINA RESULT:    23.910     10.295     11.058
REMARK INTER + INTRA:          28.467
REMARK INTER:                  28.712
REMARK INTRA:                  -0.245
REMARK UNBOUND:                 0.363
REMARK SMILES O=c1c(O)c(-c2ccc(O)cc2)oc2cc(O)cc(O)c12
REMARK SMILES IDX 5 1 3 2 2 3 1 4 21 5 19 6 18 7 16 8 15 9 14 10 13 11 6 12
REMARK SMILES IDX 7 13 8 14 9 15 12 16 11 17 10 18 4 20 20 22 17 24
REMARK H PARENT 10 19 4 21 20 23 17 25
REMARK Flexibility Score: inf
ROOT
ATOM      1  C   UNL     1      29.525  33.555  49.140  1.00  0.00     0.180 A 
ATOM      2  C   UNL     1      29.884  32.611  50.118  1.00  0.00     0.208 A 
ATOM      3  C   UNL     1      29.552  31.261  49.916  1.00  0.00     0.238 A 
ATOM      4  O   UNL     1      29.828  30.430  50.818  1.00  0.00    -0.285 OA
ATOM      5  C   UNL     1      28.881  30.871  48.732  1.00  0.00     0.111 A 
ATOM      6  C   UNL     1      28.530  29.527  48.405  1.00  0.00     0.134 A 
ATOM      7  C   UNL     1      27.752  29.272  47.269  1.00  0.00     0.093 A 
ATOM      8  C   UNL     1      27.366  30.307  46.414  1.00  0.00     0.123 A 
ATOM      9  C   UNL     1      27.753  31.616  46.693  1.00  0.00     0.094 A 
ATOM     10  C   UNL     1      28.499  31.905  47.838  1.00  0.00     0.146 A 
ATOM     11  O   UNL     1      28.838  33.167  48.072  1.00  0.00    -0.452 OA
ENDROOT
BRANCH   1  12
ATOM     12  C   UNL     1      29.863  34.991  49.270  1.00  0.00     0.021 A 
ATOM     13  C   UNL     1      28.905  35.934  49.684  1.00  0.00     0.016 A 
ATOM     14  C   UNL     1      29.254  37.282  49.823  1.00  0.00     0.047 A 
ATOM     15  C   UNL     1      30.565  37.700  49.563  1.00  0.00     0.115 A 
ATOM     16  C   UNL     1      31.181  35.416  49.031  1.00  0.00     0.016 A 
ATOM     17  C   UNL     1      31.526  36.764  49.170  1.00  0.00     0.047 A 
BRANCH  15  18
ATOM     18  O   UNL     1      30.923  39.040  49.697  1.00  0.00    -0.508 OA
ATOM     19  H   UNL     1      31.219  39.591  48.899  1.00  0.00     0.293 HD
ENDBRANCH  15  18
ENDBRANCH   1  12
BRANCH   2  20
ATOM     20  O   UNL     1      30.527  33.020  51.289  1.00  0.00    -0.502 OA
ATOM     21  H   UNL     1      30.244  33.844  51.806  1.00  0.00     0.293 HD
ENDBRANCH   2  20
BRANCH   6  22
ATOM     22  O   UNL     1      28.942  28.412  49.140  1.00  0.00    -0.507 OA
ATOM     23  H   UNL     1      29.695  28.413  49.812  1.00  0.00     0.293 HD
ENDBRANCH   6  22
BRANCH   8  24
ATOM     24  O   UNL     1      26.605  30.044  45.277  1.00  0.00    -0.508 OA
ATOM     25  H   UNL     1      25.676  29.644  45.342  1.00  0.00     0.293 HD
ENDBRANCH   8  24
TORSDOF 5
ENDMDL
MODEL 3
REMARK VINA RESULT:    24.636     10.124     10.614
REMARK INTER + INTRA:          29.320
REMARK INTER:                  29.465
REMARK INTRA:                  -0.146
REMARK UNBOUND:                 0.363
REMARK SMILES O=c1c(O)c(-c2ccc(O)cc2)oc2cc(O)cc(O)c12
REMARK SMILES IDX 5 1 3 2 2 3 1 4 21 5 19 6 18 7 16 8 15 9 14 10 13 11 6 12
REMARK SMILES IDX 7 13 8 14 9 15 12 16 11 17 10 18 4 20 20 22 17 24
REMARK H PARENT 10 19 4 21 20 23 17 25
REMARK Flexibility Score: inf
ROOT
ATOM      1  C   UNL     1      29.245  33.571  48.602  1.00  0.00     0.180 A 
ATOM      2  C   UNL     1      28.352  33.404  47.529  1.00  0.00     0.208 A 
ATOM      3  C   UNL     1      27.916  32.109  47.202  1.00  0.00     0.238 A 
ATOM      4  O   UNL     1      27.160  31.960  46.208  1.00  0.00    -0.285 OA
ATOM      5  C   UNL     1      28.366  31.002  47.960  1.00  0.00     0.111 A 
ATOM      6  C   UNL     1      27.960  29.651  47.742  1.00  0.00     0.134 A 
ATOM      7  C   UNL     1      28.569  28.620  48.469  1.00  0.00     0.093 A 
ATOM      8  C   UNL     1      29.524  28.898  49.451  1.00  0.00     0.123 A 
ATOM      9  C   UNL     1      29.884  30.217  49.711  1.00  0.00     0.094 A 
ATOM     10  C   UNL     1      29.320  31.264  48.978  1.00  0.00     0.146 A 
ATOM     11  O   UNL     1      29.700  32.507  49.252  1.00  0.00    -0.452 OA
ENDROOT
BRANCH   1  12
ATOM     12  C   UNL     1      29.728  34.906  49.023  1.00  0.00     0.021 A 
ATOM     13  C   UNL     1      31.073  35.284  48.858  1.00  0.00     0.016 A 
ATOM     14  C   UNL     1      31.502  36.559  49.242  1.00  0.00     0.047 A 
ATOM     15  C   UNL     1      30.590  37.476  49.781  1.00  0.00     0.115 A 
ATOM     16  C   UNL     1      28.817  35.839  49.546  1.00  0.00     0.016 A 
ATOM     17  C   UNL     1      29.248  37.113  49.928  1.00  0.00     0.047 A 
BRANCH  15  18
ATOM     18  O   UNL     1      31.006  38.748  50.167  1.00  0.00    -0.508 OA
ATOM     19  H   UNL     1      30.700  39.578  49.672  1.00  0.00     0.293 HD
ENDBRANCH  15  18
ENDBRANCH   1  12
BRANCH   2  20
ATOM     20  O   UNL     1      27.937  34.508  46.780  1.00  0.00    -0.502 OA
ATOM     21  H   UNL     1      27.039  34.542  46.312  1.00  0.00     0.293 HD
ENDBRANCH   2  20
BRANCH   6  22
ATOM     22  O   UNL     1      26.950  29.274  46.853  1.00  0.00    -0.507 OA
ATOM     23  H   UNL     1      25.965  29.438  46.999  1.00  0.00     0.293 HD
ENDBRANCH   6  22
BRANCH   8  24
ATOM     24  O   UNL     1      30.113  27.868  50.179  1.00  0.00    -0.508 OA
ATOM     25  H   UNL     1      30.445  28.010  51.126  1.00  0.00     0.293 HD
ENDBRANCH   8  24
TORSDOF 5
ENDMDL
