MODEL 1
REMARK VINA RESULT:    -4.865      0.000      0.000
REMARK INTER + INTRA:          -9.360
REMARK INTER:                  -8.562
REMARK INTRA:                  -0.798
REMARK UNBOUND:                -0.798
REMARK SMILES CCCCCCCCCCCCCCC(=O)[O-]
REMARK SMILES IDX 9 1 10 2 11 3 12 4 13 5 14 6 15 7 16 8 17 9 8 10 7 11 6 12
REMARK SMILES IDX 5 13 4 14 3 15 2 16 1 17
REMARK H PARENT
REMARK Flexibility Score: inf
ROOT
ATOM      1  C   UNL     1      -3.091   8.958  -3.403  1.00  0.00     0.000 C 
ENDROOT
BRANCH   1   2
ATOM      2  C   UNL     1      -4.090  10.125  -3.428  1.00  0.00     0.000 C 
BRANCH   2   3
ATOM      3  C   UNL     1      -5.247   9.836  -4.396  1.00  0.00     0.000 C 
BRANCH   3   4
ATOM      4  C   UNL     1      -5.170   8.428  -5.009  1.00  0.00     0.000 C 
BRANCH   4   5
ATOM      5  C   UNL     1      -6.551   7.861  -5.367  1.00  0.00     0.006 C 
BRANCH   5   6
ATOM      6  C   UNL     1      -6.565   6.335  -5.242  1.00  0.00     0.053 C 
BRANCH   6   7
ATOM      7  C   UNL     1      -7.601   5.743  -6.145  1.00  0.00     0.041 C 
ATOM      8  O   UNL     1      -8.788   5.611  -5.745  1.00  0.00    -0.550 OA
ATOM      9  O   UNL     1      -7.246   5.291  -7.409  1.00  0.00    -0.550 OA
ENDBRANCH   6   7
ENDBRANCH   5   6
ENDBRANCH   4   5
ENDBRANCH   3   4
ENDBRANCH   2   3
ENDBRANCH   1   2
BRANCH   1  10
ATOM     10  C   UNL     1      -1.780   9.276  -4.145  1.00  0.00     0.000 C 
BRANCH  10  11
ATOM     11  C   UNL     1      -1.514   8.416  -5.397  1.00  0.00    -0.000 C 
BRANCH  11  12
ATOM     12  C   UNL     1      -1.767   9.125  -6.742  1.00  0.00    -0.000 C 
BRANCH  12  13
ATOM     13  C   UNL     1      -0.550   9.187  -7.686  1.00  0.00    -0.000 C 
BRANCH  13  14
ATOM     14  C   UNL     1       0.773   8.680  -7.082  1.00  0.00    -0.000 C 
BRANCH  14  15
ATOM     15  C   UNL     1       1.914   8.621  -8.111  1.00  0.00    -0.000 C 
BRANCH  15  16
ATOM     16  C   UNL     1       2.871   7.445  -7.861  1.00  0.00    -0.003 C 
ATOM     17  C   UNL     1       3.984   7.352  -8.905  1.00  0.00     0.004 C 
ENDBRANCH  15  16
ENDBRANCH  14  15
ENDBRANCH  13  14
ENDBRANCH  12  13
ENDBRANCH  11  12
ENDBRANCH  10  11
ENDBRANCH   1  10
TORSDOF 13
ENDMDL
MODEL 2
REMARK VINA RESULT:    -4.766      1.456      2.473
REMARK INTER + INTRA:          -9.187
REMARK INTER:                  -8.141
REMARK INTRA:                  -1.046
REMARK UNBOUND:                -0.798
REMARK SMILES CCCCCCCCCCCCCCC(=O)[O-]
REMARK SMILES IDX 9 1 10 2 11 3 12 4 13 5 14 6 15 7 16 8 17 9 8 10 7 11 6 12
REMARK SMILES IDX 5 13 4 14 3 15 2 16 1 17
REMARK H PARENT
REMARK Flexibility Score: inf
ROOT
ATOM      1  C   UNL     1      -1.288   8.704  -4.564  1.00  0.00     0.000 C 
ENDROOT
BRANCH   1   2
ATOM      2  C   UNL     1      -2.345   9.815  -4.468  1.00  0.00     0.000 C 
BRANCH   2   3
ATOM      3  C   UNL     1      -3.130   9.714  -3.152  1.00  0.00     0.000 C 
BRANCH   3   4
ATOM      4  C   UNL     1      -4.651   9.786  -3.361  1.00  0.00     0.000 C 
BRANCH   4   5
ATOM      5  C   UNL     1      -5.048   9.732  -4.844  1.00  0.00     0.006 C 
BRANCH   5   6
ATOM      6  C   UNL     1      -6.144   8.689  -5.079  1.00  0.00     0.053 C 
BRANCH   6   7
ATOM      7  C   UNL     1      -5.545   7.327  -5.244  1.00  0.00     0.041 C 
ATOM      8  O   UNL     1      -4.416   7.193  -5.784  1.00  0.00    -0.550 OA
ATOM      9  O   UNL     1      -6.257   6.202  -4.848  1.00  0.00    -0.550 OA
ENDBRANCH   6   7
ENDBRANCH   5   6
ENDBRANCH   4   5
ENDBRANCH   3   4
ENDBRANCH   2   3
ENDBRANCH   1   2
BRANCH   1  10
ATOM     10  C   UNL     1      -0.980   8.294  -6.016  1.00  0.00     0.000 C 
BRANCH  10  11
ATOM     11  C   UNL     1       0.360   8.817  -6.570  1.00  0.00    -0.000 C 
BRANCH  11  12
ATOM     12  C   UNL     1       0.238   9.903  -7.657  1.00  0.00    -0.000 C 
BRANCH  12  13
ATOM     13  C   UNL     1       1.339   9.873  -8.737  1.00  0.00    -0.000 C 
BRANCH  13  14
ATOM     14  C   UNL     1       1.845   8.469  -9.116  1.00  0.00    -0.000 C 
BRANCH  14  15
ATOM     15  C   UNL     1       3.379   8.362  -9.096  1.00  0.00    -0.000 C 
BRANCH  15  16
ATOM     16  C   UNL     1       3.868   7.016  -8.542  1.00  0.00    -0.003 C 
ATOM     17  C   UNL     1       3.139   6.600  -7.264  1.00  0.00     0.004 C 
ENDBRANCH  15  16
ENDBRANCH  14  15
ENDBRANCH  13  14
ENDBRANCH  12  13
ENDBRANCH  11  12
ENDBRANCH  10  11
ENDBRANCH   1  10
TORSDOF 13
ENDMDL
MODEL 3
REMARK VINA RESULT:    -4.664      4.107      7.490
REMARK INTER + INTRA:          -9.008
REMARK INTER:                  -8.066
REMARK INTRA:                  -0.941
REMARK UNBOUND:                -0.798
REMARK SMILES CCCCCCCCCCCCCCC(=O)[O-]
REMARK SMILES IDX 9 1 10 2 11 3 12 4 13 5 14 6 15 7 16 8 17 9 8 10 7 11 6 12
REMARK SMILES IDX 5 13 4 14 3 15 2 16 1 17
REMARK H PARENT
REMARK Flexibility Score: inf
ROOT
ATOM      1  C   UNL     1      -1.819   9.760  -4.190  1.00  0.00     0.000 C 
ENDROOT
BRANCH   1   2
ATOM      2  C   UNL     1      -1.205   8.687  -5.101  1.00  0.00     0.000 C 
BRANCH   2   3
ATOM      3  C   UNL     1      -0.349   9.327  -6.205  1.00  0.00     0.000 C 
BRANCH   3   4
ATOM      4  C   UNL     1       0.648   8.338  -6.831  1.00  0.00     0.000 C 
BRANCH   4   5
ATOM      5  C   UNL     1       1.483   8.970  -7.953  1.00  0.00     0.006 C 
BRANCH   5   6
ATOM      6  C   UNL     1       2.013   7.899  -8.911  1.00  0.00     0.053 C 
BRANCH   6   7
ATOM      7  C   UNL     1       3.303   7.334  -8.405  1.00  0.00     0.041 C 
ATOM      8  O   UNL     1       4.381   7.582  -9.003  1.00  0.00    -0.550 OA
ATOM      9  O   UNL     1       3.306   6.491  -7.301  1.00  0.00    -0.550 OA
ENDBRANCH   6   7
ENDBRANCH   5   6
ENDBRANCH   4   5
ENDBRANCH   3   4
ENDBRANCH   2   3
ENDBRANCH   1   2
BRANCH   1  10
ATOM     10  C   UNL     1      -2.859   9.189  -3.209  1.00  0.00     0.000 C 
BRANCH  10  11
ATOM     11  C   UNL     1      -4.232   9.890  -3.233  1.00  0.00    -0.000 C 
BRANCH  11  12
ATOM     12  C   UNL     1      -4.854  10.061  -4.632  1.00  0.00    -0.000 C 
BRANCH  12  13
ATOM     13  C   UNL     1      -6.063   9.149  -4.925  1.00  0.00    -0.000 C 
BRANCH  13  14
ATOM     14  C   UNL     1      -5.713   7.688  -5.264  1.00  0.00    -0.000 C 
BRANCH  14  15
ATOM     15  C   UNL     1      -4.504   7.569  -6.208  1.00  0.00    -0.000 C 
BRANCH  15  16
ATOM     16  C   UNL     1      -4.061   6.112  -6.414  1.00  0.00    -0.003 C 
ATOM     17  C   UNL     1      -4.168   5.659  -7.870  1.00  0.00     0.004 C 
ENDBRANCH  15  16
ENDBRANCH  14  15
ENDBRANCH  13  14
ENDBRANCH  12  13
ENDBRANCH  11  12
ENDBRANCH  10  11
ENDBRANCH   1  10
TORSDOF 13
ENDMDL
MODEL 4
REMARK VINA RESULT:    -4.578      3.952      8.278
REMARK INTER + INTRA:          -8.855
REMARK INTER:                  -8.121
REMARK INTRA:                  -0.735
REMARK UNBOUND:                -0.798
REMARK SMILES CCCCCCCCCCCCCCC(=O)[O-]
REMARK SMILES IDX 9 1 10 2 11 3 12 4 13 5 14 6 15 7 16 8 17 9 8 10 7 11 6 12
REMARK SMILES IDX 5 13 4 14 3 15 2 16 1 17
REMARK H PARENT
REMARK Flexibility Score: inf
ROOT
ATOM      1  C   UNL     1      -1.941  10.095  -4.437  1.00  0.00     0.000 C 
ENDROOT
BRANCH   1   2
ATOM      2  C   UNL     1      -0.883   9.117  -4.969  1.00  0.00     0.000 C 
BRANCH   2   3
ATOM      3  C   UNL     1      -1.040   8.908  -6.482  1.00  0.00     0.000 C 
BRANCH   3   4
ATOM      4  C   UNL     1       0.238   9.252  -7.264  1.00  0.00     0.000 C 
BRANCH   4   5
ATOM      5  C   UNL     1       1.349   8.210  -7.072  1.00  0.00     0.006 C 
BRANCH   5   6
ATOM      6  C   UNL     1       2.323   8.223  -8.253  1.00  0.00     0.053 C 
BRANCH   6   7
ATOM      7  C   UNL     1       3.312   7.107  -8.131  1.00  0.00     0.041 C 
ATOM      8  O   UNL     1       3.065   6.120  -7.390  1.00  0.00    -0.550 OA
ATOM      9  O   UNL     1       4.529   7.181  -8.796  1.00  0.00    -0.550 OA
ENDBRANCH   6   7
ENDBRANCH   5   6
ENDBRANCH   4   5
ENDBRANCH   3   4
ENDBRANCH   2   3
ENDBRANCH   1   2
BRANCH   1  10
ATOM     10  C   UNL     1      -2.836   9.476  -3.348  1.00  0.00     0.000 C 
BRANCH  10  11
ATOM     11  C   UNL     1      -4.310   9.929  -3.379  1.00  0.00    -0.000 C 
BRANCH  11  12
ATOM     12  C   UNL     1      -5.106   9.472  -4.617  1.00  0.00    -0.000 C 
BRANCH  12  13
ATOM     13  C   UNL     1      -5.037   7.961  -4.916  1.00  0.00    -0.000 C 
BRANCH  13  14
ATOM     14  C   UNL     1      -6.044   7.455  -5.966  1.00  0.00    -0.000 C 
BRANCH  14  15
ATOM     15  C   UNL     1      -7.033   6.426  -5.394  1.00  0.00    -0.000 C 
BRANCH  15  16
ATOM     16  C   UNL     1      -8.498   6.824  -5.632  1.00  0.00    -0.003 C 
ATOM     17  C   UNL     1      -8.900   8.089  -4.874  1.00  0.00     0.004 C 
ENDBRANCH  15  16
ENDBRANCH  14  15
ENDBRANCH  13  14
ENDBRANCH  12  13
ENDBRANCH  11  12
ENDBRANCH  10  11
ENDBRANCH   1  10
TORSDOF 13
ENDMDL
MODEL 5
REMARK VINA RESULT:    -4.424      2.651      3.781
REMARK INTER + INTRA:          -8.585
REMARK INTER:                  -6.435
REMARK INTRA:                  -2.150
REMARK UNBOUND:                -0.798
REMARK SMILES CCCCCCCCCCCCCCC(=O)[O-]
REMARK SMILES IDX 9 1 10 2 11 3 12 4 13 5 14 6 15 7 16 8 17 9 8 10 7 11 6 12
REMARK SMILES IDX 5 13 4 14 3 15 2 16 1 17
REMARK H PARENT
REMARK Flexibility Score: inf
ROOT
ATOM      1  C   UNL     1      -5.305   9.246  -4.201  1.00  0.00     0.000 C 
ENDROOT
BRANCH   1   2
ATOM      2  C   UNL     1      -5.748   9.999  -5.465  1.00  0.00     0.000 C 
BRANCH   2   3
ATOM      3  C   UNL     1      -6.903   9.267  -6.164  1.00  0.00     0.000 C 
BRANCH   3   4
ATOM      4  C   UNL     1      -6.764   9.266  -7.695  1.00  0.00     0.000 C 
BRANCH   4   5
ATOM      5  C   UNL     1      -7.141   7.917  -8.324  1.00  0.00     0.006 C 
BRANCH   5   6
ATOM      6  C   UNL     1      -7.726   6.968  -7.275  1.00  0.00     0.053 C 
BRANCH   6   7
ATOM      7  C   UNL     1      -7.635   5.549  -7.741  1.00  0.00     0.041 C 
ATOM      8  O   UNL     1      -6.788   5.222  -8.613  1.00  0.00    -0.550 OA
ATOM      9  O   UNL     1      -8.519   4.598  -7.249  1.00  0.00    -0.550 OA
ENDBRANCH   6   7
ENDBRANCH   5   6
ENDBRANCH   4   5
ENDBRANCH   3   4
ENDBRANCH   2   3
ENDBRANCH   1   2
BRANCH   1  10
ATOM     10  C   UNL     1      -4.193   9.977  -3.427  1.00  0.00     0.000 C 
BRANCH  10  11
ATOM     11  C   UNL     1      -2.834   9.249  -3.394  1.00  0.00    -0.000 C 
BRANCH  11  12
ATOM     12  C   UNL     1      -1.696   9.956  -4.157  1.00  0.00    -0.000 C 
BRANCH  12  13
ATOM     13  C   UNL     1      -1.212   9.228  -5.427  1.00  0.00    -0.000 C 
BRANCH  13  14
ATOM     14  C   UNL     1      -2.018   7.973  -5.810  1.00  0.00    -0.000 C 
BRANCH  14  15
ATOM     15  C   UNL     1      -2.930   8.198  -7.028  1.00  0.00    -0.000 C 
BRANCH  15  16
ATOM     16  C   UNL     1      -3.722   6.938  -7.410  1.00  0.00    -0.003 C 
ATOM     17  C   UNL     1      -4.282   6.198  -6.195  1.00  0.00     0.004 C 
ENDBRANCH  15  16
ENDBRANCH  14  15
ENDBRANCH  13  14
ENDBRANCH  12  13
ENDBRANCH  11  12
ENDBRANCH  10  11
ENDBRANCH   1  10
TORSDOF 13
ENDMDL
MODEL 6
REMARK VINA RESULT:    -4.335      1.263      2.041
REMARK INTER + INTRA:          -8.429
REMARK INTER:                  -7.863
REMARK INTRA:                  -0.565
REMARK UNBOUND:                -0.798
REMARK SMILES CCCCCCCCCCCCCCC(=O)[O-]
REMARK SMILES IDX 9 1 10 2 11 3 12 4 13 5 14 6 15 7 16 8 17 9 8 10 7 11 6 12
REMARK SMILES IDX 5 13 4 14 3 15 2 16 1 17
REMARK H PARENT
REMARK Flexibility Score: inf
ROOT
ATOM      1  C   UNL     1      -4.416   8.368  -5.426  1.00  0.00     0.000 C 
ENDROOT
BRANCH   1   2
ATOM      2  C   UNL     1      -5.843   8.910  -5.594  1.00  0.00     0.000 C 
BRANCH   2   3
ATOM      3  C   UNL     1      -6.826   8.160  -4.682  1.00  0.00     0.000 C 
BRANCH   3   4
ATOM      4  C   UNL     1      -8.111   7.739  -5.414  1.00  0.00     0.000 C 
BRANCH   4   5
ATOM      5  C   UNL     1      -8.276   6.214  -5.492  1.00  0.00     0.006 C 
BRANCH   5   6
ATOM      6  C   UNL     1      -8.978   5.806  -6.790  1.00  0.00     0.053 C 
BRANCH   6   7
ATOM      7  C   UNL     1      -7.989   5.259  -7.771  1.00  0.00     0.041 C 
ATOM      8  O   UNL     1      -8.377   4.530  -8.722  1.00  0.00    -0.550 OA
ATOM      9  O   UNL     1      -6.634   5.512  -7.607  1.00  0.00    -0.550 OA
ENDBRANCH   6   7
ENDBRANCH   5   6
ENDBRANCH   4   5
ENDBRANCH   3   4
ENDBRANCH   2   3
ENDBRANCH   1   2
BRANCH   1  10
ATOM     10  C   UNL     1      -3.496   9.333  -4.656  1.00  0.00     0.000 C 
BRANCH  10  11
ATOM     11  C   UNL     1      -2.038   8.857  -4.498  1.00  0.00    -0.000 C 
BRANCH  11  12
ATOM     12  C   UNL     1      -1.450   8.137  -5.727  1.00  0.00    -0.000 C 
BRANCH  12  13
ATOM     13  C   UNL     1       0.052   8.388  -5.974  1.00  0.00    -0.000 C 
BRANCH  13  14
ATOM     14  C   UNL     1       0.377   9.246  -7.211  1.00  0.00    -0.000 C 
BRANCH  14  15
ATOM     15  C   UNL     1       1.522   8.664  -8.056  1.00  0.00    -0.000 C 
BRANCH  15  16
ATOM     16  C   UNL     1       2.289   7.554  -7.323  1.00  0.00    -0.003 C 
ATOM     17  C   UNL     1       3.417   6.955  -8.164  1.00  0.00     0.004 C 
ENDBRANCH  15  16
ENDBRANCH  14  15
ENDBRANCH  13  14
ENDBRANCH  12  13
ENDBRANCH  11  12
ENDBRANCH  10  11
ENDBRANCH   1  10
TORSDOF 13
ENDMDL
MODEL 7
REMARK VINA RESULT:    -4.256      2.701      4.585
REMARK INTER + INTRA:          -8.288
REMARK INTER:                  -6.555
REMARK INTRA:                  -1.733
REMARK UNBOUND:                -0.798
REMARK SMILES CCCCCCCCCCCCCCC(=O)[O-]
REMARK SMILES IDX 9 1 10 2 11 3 12 4 13 5 14 6 15 7 16 8 17 9 8 10 7 11 6 12
REMARK SMILES IDX 5 13 4 14 3 15 2 16 1 17
REMARK H PARENT
REMARK Flexibility Score: inf
ROOT
ATOM      1  C   UNL     1      -5.017   6.610  -6.307  1.00  0.00     0.000 C 
ENDROOT
BRANCH   1   2
ATOM      2  C   UNL     1      -6.089   6.473  -5.215  1.00  0.00     0.000 C 
BRANCH   2   3
ATOM      3  C   UNL     1      -6.923   7.758  -5.100  1.00  0.00     0.000 C 
BRANCH   3   4
ATOM      4  C   UNL     1      -8.434   7.494  -5.190  1.00  0.00     0.000 C 
BRANCH   4   5
ATOM      5  C   UNL     1      -8.876   7.048  -6.591  1.00  0.00     0.006 C 
BRANCH   5   6
ATOM      6  C   UNL     1      -9.613   5.707  -6.532  1.00  0.00     0.053 C 
BRANCH   6   7
ATOM      7  C   UNL     1      -8.761   4.615  -7.096  1.00  0.00     0.041 C 
ATOM      8  O   UNL     1      -7.840   4.886  -7.910  1.00  0.00    -0.550 OA
ATOM      9  O   UNL     1      -9.016   3.291  -6.761  1.00  0.00    -0.550 OA
ENDBRANCH   6   7
ENDBRANCH   5   6
ENDBRANCH   4   5
ENDBRANCH   3   4
ENDBRANCH   2   3
ENDBRANCH   1   2
BRANCH   1  10
ATOM     10  C   UNL     1      -5.370   7.673  -7.363  1.00  0.00     0.000 C 
BRANCH  10  11
ATOM     11  C   UNL     1      -4.266   8.716  -7.632  1.00  0.00    -0.000 C 
BRANCH  11  12
ATOM     12  C   UNL     1      -2.829   8.229  -7.364  1.00  0.00    -0.000 C 
BRANCH  12  13
ATOM     13  C   UNL     1      -2.028   9.081  -6.358  1.00  0.00    -0.000 C 
BRANCH  13  14
ATOM     14  C   UNL     1      -1.693   8.380  -5.029  1.00  0.00    -0.000 C 
BRANCH  14  15
ATOM     15  C   UNL     1      -2.285   9.103  -3.808  1.00  0.00    -0.000 C 
BRANCH  15  16
ATOM     16  C   UNL     1      -3.371  10.119  -4.195  1.00  0.00    -0.003 C 
ATOM     17  C   UNL     1      -4.553  10.123  -3.226  1.00  0.00     0.004 C 
ENDBRANCH  15  16
ENDBRANCH  14  15
ENDBRANCH  13  14
ENDBRANCH  12  13
ENDBRANCH  11  12
ENDBRANCH  10  11
ENDBRANCH   1  10
TORSDOF 13
ENDMDL
MODEL 8
REMARK VINA RESULT:    -4.177      3.925      7.624
REMARK INTER + INTRA:          -8.150
REMARK INTER:                  -6.618
REMARK INTRA:                  -1.532
REMARK UNBOUND:                -0.798
REMARK SMILES CCCCCCCCCCCCCCC(=O)[O-]
REMARK SMILES IDX 9 1 10 2 11 3 12 4 13 5 14 6 15 7 16 8 17 9 8 10 7 11 6 12
REMARK SMILES IDX 5 13 4 14 3 15 2 16 1 17
REMARK H PARENT
REMARK Flexibility Score: inf
ROOT
ATOM      1  C   UNL     1      -3.441   8.266  -6.916  1.00  0.00     0.000 C 
ENDROOT
BRANCH   1   2
ATOM      2  C   UNL     1      -2.366   7.859  -5.898  1.00  0.00     0.000 C 
BRANCH   2   3
ATOM      3  C   UNL     1      -1.856   9.082  -5.119  1.00  0.00     0.000 C 
BRANCH   3   4
ATOM      4  C   UNL     1      -0.472   9.552  -5.595  1.00  0.00     0.000 C 
BRANCH   4   5
ATOM      5  C   UNL     1       0.355   8.422  -6.223  1.00  0.00     0.006 C 
BRANCH   5   6
ATOM      6  C   UNL     1       1.066   8.903  -7.491  1.00  0.00     0.053 C 
BRANCH   6   7
ATOM      7  C   UNL     1       2.144   7.943  -7.886  1.00  0.00     0.041 C 
ATOM      8  O   UNL     1       2.617   7.140  -7.040  1.00  0.00    -0.550 OA
ATOM      9  O   UNL     1       2.660   7.969  -9.175  1.00  0.00    -0.550 OA
ENDBRANCH   6   7
ENDBRANCH   5   6
ENDBRANCH   4   5
ENDBRANCH   3   4
ENDBRANCH   2   3
ENDBRANCH   1   2
BRANCH   1  10
ATOM     10  C   UNL     1      -4.033   9.660  -6.638  1.00  0.00     0.000 C 
BRANCH  10  11
ATOM     11  C   UNL     1      -5.498   9.662  -6.157  1.00  0.00    -0.000 C 
BRANCH  11  12
ATOM     12  C   UNL     1      -5.759   8.874  -4.858  1.00  0.00    -0.000 C 
BRANCH  12  13
ATOM     13  C   UNL     1      -6.978   7.929  -4.901  1.00  0.00    -0.000 C 
BRANCH  13  14
ATOM     14  C   UNL     1      -6.645   6.442  -5.123  1.00  0.00    -0.000 C 
BRANCH  14  15
ATOM     15  C   UNL     1      -7.233   5.888  -6.432  1.00  0.00    -0.000 C 
BRANCH  15  16
ATOM     16  C   UNL     1      -6.302   6.110  -7.634  1.00  0.00    -0.003 C 
ATOM     17  C   UNL     1      -6.847   7.138  -8.625  1.00  0.00     0.004 C 
ENDBRANCH  15  16
ENDBRANCH  14  15
ENDBRANCH  13  14
ENDBRANCH  12  13
ENDBRANCH  11  12
ENDBRANCH  10  11
ENDBRANCH   1  10
TORSDOF 13
ENDMDL
