MODEL 1
REMARK VINA RESULT:    -6.462      0.000      0.000
REMARK INTER + INTRA:          -8.113
REMARK INTER:                  -7.784
REMARK INTRA:                  -0.330
REMARK UNBOUND:                -0.330
REMARK SMILES O=c1c(O)c(-c2ccc(O)c(O)c2)oc2cc(O)cc(O)c12
REMARK SMILES IDX 5 1 3 2 2 3 1 4 22 5 20 6 19 7 17 8 16 9 15 10 14 11 6 12
REMARK SMILES IDX 7 13 8 14 9 15 13 16 11 17 10 18 12 20 4 22 21 24 18 26
REMARK H PARENT 10 19 12 21 4 23 21 25 18 27
REMARK Flexibility Score: inf
ROOT
ATOM      1  C   UNL     1      26.946   8.094 -32.518  1.00  0.00     0.180 A 
ATOM      2  C   UNL     1      25.765   7.886 -33.253  1.00  0.00     0.208 A 
ATOM      3  C   UNL     1      24.733   7.123 -32.683  1.00  0.00     0.238 A 
ATOM      4  O   UNL     1      23.702   6.896 -33.368  1.00  0.00    -0.285 OA
ATOM      5  C   UNL     1      24.886   6.591 -31.381  1.00  0.00     0.111 A 
ATOM      6  C   UNL     1      23.891   5.838 -30.691  1.00  0.00     0.134 A 
ATOM      7  C   UNL     1      24.200   5.250 -29.458  1.00  0.00     0.093 A 
ATOM      8  C   UNL     1      25.449   5.443 -28.861  1.00  0.00     0.123 A 
ATOM      9  C   UNL     1      26.406   6.226 -29.499  1.00  0.00     0.094 A 
ATOM     10  C   UNL     1      26.140   6.796 -30.747  1.00  0.00     0.146 A 
ATOM     11  O   UNL     1      27.086   7.527 -31.325  1.00  0.00    -0.452 OA
ENDROOT
BRANCH   1  12
ATOM     12  C   UNL     1      28.067   8.908 -33.041  1.00  0.00     0.025 A 
ATOM     13  C   UNL     1      28.156  10.283 -32.779  1.00  0.00     0.016 A 
ATOM     14  C   UNL     1      29.236  11.025 -33.263  1.00  0.00     0.051 A 
ATOM     15  C   UNL     1      30.251  10.410 -34.004  1.00  0.00     0.157 A 
ATOM     16  C   UNL     1      29.094   8.283 -33.764  1.00  0.00     0.062 A 
ATOM     17  C   UNL     1      30.182   9.019 -34.254  1.00  0.00     0.158 A 
BRANCH  15  18
ATOM     18  O   UNL     1      31.300  11.209 -34.461  1.00  0.00    -0.504 OA
ATOM     19  H   UNL     1      31.532  12.113 -34.074  1.00  0.00     0.293 HD
ENDBRANCH  15  18
BRANCH  17  20
ATOM     20  O   UNL     1      31.160   8.334 -34.977  1.00  0.00    -0.504 OA
ATOM     21  H   UNL     1      31.102   7.356 -35.219  1.00  0.00     0.293 HD
ENDBRANCH  17  20
ENDBRANCH   1  12
BRANCH   2  22
ATOM     22  O   UNL     1      25.643   8.403 -34.547  1.00  0.00    -0.502 OA
ATOM     23  H   UNL     1      24.744   8.567 -34.983  1.00  0.00     0.293 HD
ENDBRANCH   2  22
BRANCH   6  24
ATOM     24  O   UNL     1      22.583   5.661 -31.156  1.00  0.00    -0.507 OA
ATOM     25  H   UNL     1      21.755   5.740 -30.585  1.00  0.00     0.293 HD
ENDBRANCH   6  24
BRANCH   8  26
ATOM     26  O   UNL     1      25.743   4.867 -27.627  1.00  0.00    -0.508 OA
ATOM     27  H   UNL     1      25.259   5.149 -26.782  1.00  0.00     0.293 HD
ENDBRANCH   8  26
TORSDOF 6
ENDMDL
MODEL 2
REMARK VINA RESULT:    -6.269      1.469      2.122
REMARK INTER + INTRA:          -7.881
REMARK INTER:                  -7.561
REMARK INTRA:                  -0.320
REMARK UNBOUND:                -0.330
REMARK SMILES O=c1c(O)c(-c2ccc(O)c(O)c2)oc2cc(O)cc(O)c12
REMARK SMILES IDX 5 1 3 2 2 3 1 4 22 5 20 6 19 7 17 8 16 9 15 10 14 11 6 12
REMARK SMILES IDX 7 13 8 14 9 15 13 16 11 17 10 18 12 20 4 22 21 24 18 26
REMARK H PARENT 10 19 12 21 4 23 21 25 18 27
REMARK Flexibility Score: inf
ROOT
ATOM      1  C   UNL     1      26.210   8.138 -31.587  1.00  0.00     0.180 A 
ATOM      2  C   UNL     1      24.969   7.928 -32.213  1.00  0.00     0.208 A 
ATOM      3  C   UNL     1      24.084   6.982 -31.671  1.00  0.00     0.238 A 
ATOM      4  O   UNL     1      22.998   6.760 -32.267  1.00  0.00    -0.285 OA
ATOM      5  C   UNL     1      24.444   6.270 -30.502  1.00  0.00     0.111 A 
ATOM      6  C   UNL     1      23.609   5.319 -29.843  1.00  0.00     0.134 A 
ATOM      7  C   UNL     1      24.119   4.579 -28.769  1.00  0.00     0.093 A 
ATOM      8  C   UNL     1      25.411   4.804 -28.288  1.00  0.00     0.123 A 
ATOM      9  C   UNL     1      26.212   5.772 -28.886  1.00  0.00     0.094 A 
ATOM     10  C   UNL     1      25.745   6.501 -29.983  1.00  0.00     0.146 A 
ATOM     11  O   UNL     1      26.546   7.408 -30.530  1.00  0.00    -0.452 OA
ENDROOT
BRANCH   1  12
ATOM     12  C   UNL     1      27.185   9.136 -32.086  1.00  0.00     0.025 A 
ATOM     13  C   UNL     1      28.113   8.814 -33.087  1.00  0.00     0.016 A 
ATOM     14  C   UNL     1      29.006   9.779 -33.558  1.00  0.00     0.051 A 
ATOM     15  C   UNL     1      28.983  11.083 -33.051  1.00  0.00     0.157 A 
ATOM     16  C   UNL     1      27.143  10.448 -31.591  1.00  0.00     0.062 A 
ATOM     17  C   UNL     1      28.035  11.423 -32.057  1.00  0.00     0.158 A 
BRANCH  15  18
ATOM     18  O   UNL     1      29.905  11.998 -33.561  1.00  0.00    -0.504 OA
ATOM     19  H   UNL     1      29.804  13.001 -33.490  1.00  0.00     0.293 HD
ENDBRANCH  15  18
BRANCH  17  20
ATOM     20  O   UNL     1      27.945  12.705 -31.510  1.00  0.00    -0.504 OA
ATOM     21  H   UNL     1      28.650  13.117 -30.917  1.00  0.00     0.293 HD
ENDBRANCH  17  20
ENDBRANCH   1  12
BRANCH   2  22
ATOM     22  O   UNL     1      24.643   8.627 -33.380  1.00  0.00    -0.502 OA
ATOM     23  H   UNL     1      23.792   8.448 -33.900  1.00  0.00     0.293 HD
ENDBRANCH   2  22
BRANCH   6  24
ATOM     24  O   UNL     1      22.273   5.083 -30.185  1.00  0.00    -0.507 OA
ATOM     25  H   UNL     1      21.882   4.174 -30.381  1.00  0.00     0.293 HD
ENDBRANCH   6  24
BRANCH   8  26
ATOM     26  O   UNL     1      25.905   4.075 -27.208  1.00  0.00    -0.508 OA
ATOM     27  H   UNL     1      25.886   3.061 -27.200  1.00  0.00     0.293 HD
ENDBRANCH   8  26
TORSDOF 6
ENDMDL
MODEL 3
REMARK VINA RESULT:    -6.235      1.681      7.136
REMARK INTER + INTRA:          -7.841
REMARK INTER:                  -7.517
REMARK INTRA:                  -0.323
REMARK UNBOUND:                -0.330
REMARK SMILES O=c1c(O)c(-c2ccc(O)c(O)c2)oc2cc(O)cc(O)c12
REMARK SMILES IDX 5 1 3 2 2 3 1 4 22 5 20 6 19 7 17 8 16 9 15 10 14 11 6 12
REMARK SMILES IDX 7 13 8 14 9 15 13 16 11 17 10 18 12 20 4 22 21 24 18 26
REMARK H PARENT 10 19 12 21 4 23 21 25 18 27
REMARK Flexibility Score: inf
ROOT
ATOM      1  C   UNL     1      26.899   9.125 -32.500  1.00  0.00     0.180 A 
ATOM      2  C   UNL     1      26.987  10.437 -32.001  1.00  0.00     0.208 A 
ATOM      3  C   UNL     1      28.062  11.247 -32.399  1.00  0.00     0.238 A 
ATOM      4  O   UNL     1      28.165  12.400 -31.905  1.00  0.00    -0.285 OA
ATOM      5  C   UNL     1      29.028  10.742 -33.302  1.00  0.00     0.111 A 
ATOM      6  C   UNL     1      30.136  11.488 -33.804  1.00  0.00     0.134 A 
ATOM      7  C   UNL     1      31.100  10.846 -34.591  1.00  0.00     0.093 A 
ATOM      8  C   UNL     1      30.961   9.502 -34.949  1.00  0.00     0.123 A 
ATOM      9  C   UNL     1      29.852   8.783 -34.513  1.00  0.00     0.094 A 
ATOM     10  C   UNL     1      28.892   9.385 -33.696  1.00  0.00     0.146 A 
ATOM     11  O   UNL     1      27.855   8.659 -33.295  1.00  0.00    -0.452 OA
ENDROOT
BRANCH   1  12
ATOM     12  C   UNL     1      25.781   8.221 -32.146  1.00  0.00     0.025 A 
ATOM     13  C   UNL     1      24.642   8.114 -32.959  1.00  0.00     0.016 A 
ATOM     14  C   UNL     1      23.611   7.237 -32.617  1.00  0.00     0.051 A 
ATOM     15  C   UNL     1      23.701   6.441 -31.470  1.00  0.00     0.157 A 
ATOM     16  C   UNL     1      25.884   7.408 -31.007  1.00  0.00     0.062 A 
ATOM     17  C   UNL     1      24.855   6.524 -30.656  1.00  0.00     0.158 A 
BRANCH  15  18
ATOM     18  O   UNL     1      22.634   5.587 -31.183  1.00  0.00    -0.504 OA
ATOM     19  H   UNL     1      22.335   4.835 -31.787  1.00  0.00     0.293 HD
ENDBRANCH  15  18
BRANCH  17  20
ATOM     20  O   UNL     1      25.021   5.756 -29.502  1.00  0.00    -0.504 OA
ATOM     21  H   UNL     1      25.877   5.716 -28.968  1.00  0.00     0.293 HD
ENDBRANCH  17  20
ENDBRANCH   1  12
BRANCH   2  22
ATOM     22  O   UNL     1      26.034  10.908 -31.092  1.00  0.00    -0.502 OA
ATOM     23  H   UNL     1      26.014  10.613 -30.124  1.00  0.00     0.293 HD
ENDBRANCH   2  22
BRANCH   6  24
ATOM     24  O   UNL     1      30.320  12.857 -33.583  1.00  0.00    -0.507 OA
ATOM     25  H   UNL     1      29.587  13.548 -33.617  1.00  0.00     0.293 HD
ENDBRANCH   6  24
BRANCH   8  26
ATOM     26  O   UNL     1      31.917   8.876 -35.745  1.00  0.00    -0.508 OA
ATOM     27  H   UNL     1      31.652   8.282 -36.523  1.00  0.00     0.293 HD
ENDBRANCH   8  26
TORSDOF 6
ENDMDL
MODEL 4
REMARK VINA RESULT:    -6.148     11.469     13.717
REMARK INTER + INTRA:          -7.736
REMARK INTER:                  -7.920
REMARK INTRA:                   0.184
REMARK UNBOUND:                -0.330
REMARK SMILES O=c1c(O)c(-c2ccc(O)c(O)c2)oc2cc(O)cc(O)c12
REMARK SMILES IDX 5 1 3 2 2 3 1 4 22 5 20 6 19 7 17 8 16 9 15 10 14 11 6 12
REMARK SMILES IDX 7 13 8 14 9 15 13 16 11 17 10 18 12 20 4 22 21 24 18 26
REMARK H PARENT 10 19 12 21 4 23 21 25 18 27
REMARK Flexibility Score: inf
ROOT
ATOM      1  C   UNL     1      34.881   5.208 -21.925  1.00  0.00     0.180 A 
ATOM      2  C   UNL     1      35.139   6.232 -20.997  1.00  0.00     0.208 A 
ATOM      3  C   UNL     1      34.086   7.068 -20.593  1.00  0.00     0.238 A 
ATOM      4  O   UNL     1      34.335   8.017 -19.805  1.00  0.00    -0.285 OA
ATOM      5  C   UNL     1      32.784   6.860 -21.110  1.00  0.00     0.111 A 
ATOM      6  C   UNL     1      31.635   7.620 -20.741  1.00  0.00     0.134 A 
ATOM      7  C   UNL     1      30.424   7.412 -21.413  1.00  0.00     0.093 A 
ATOM      8  C   UNL     1      30.305   6.425 -22.395  1.00  0.00     0.123 A 
ATOM      9  C   UNL     1      31.406   5.638 -22.720  1.00  0.00     0.094 A 
ATOM     10  C   UNL     1      32.638   5.846 -22.093  1.00  0.00     0.146 A 
ATOM     11  O   UNL     1      33.665   5.080 -22.441  1.00  0.00    -0.452 OA
ENDROOT
BRANCH   1  12
ATOM     12  C   UNL     1      35.936   4.272 -22.378  1.00  0.00     0.025 A 
ATOM     13  C   UNL     1      35.663   2.913 -22.590  1.00  0.00     0.016 A 
ATOM     14  C   UNL     1      36.668   2.054 -23.041  1.00  0.00     0.051 A 
ATOM     15  C   UNL     1      37.956   2.534 -23.302  1.00  0.00     0.157 A 
ATOM     16  C   UNL     1      37.220   4.762 -22.660  1.00  0.00     0.062 A 
ATOM     17  C   UNL     1      38.234   3.908 -23.113  1.00  0.00     0.158 A 
BRANCH  15  18
ATOM     18  O   UNL     1      38.915   1.623 -23.746  1.00  0.00    -0.504 OA
ATOM     19  H   UNL     1      39.580   1.162 -23.141  1.00  0.00     0.293 HD
ENDBRANCH  15  18
BRANCH  17  20
ATOM     20  O   UNL     1      39.492   4.463 -23.360  1.00  0.00    -0.504 OA
ATOM     21  H   UNL     1      40.264   4.425 -22.711  1.00  0.00     0.293 HD
ENDBRANCH  17  20
ENDBRANCH   1  12
BRANCH   2  22
ATOM     22  O   UNL     1      36.437   6.434 -20.516  1.00  0.00    -0.502 OA
ATOM     23  H   UNL     1      37.008   5.678 -20.159  1.00  0.00     0.293 HD
ENDBRANCH   2  22
BRANCH   6  24
ATOM     24  O   UNL     1      31.622   8.566 -19.710  1.00  0.00    -0.507 OA
ATOM     25  H   UNL     1      32.367   8.699 -19.043  1.00  0.00     0.293 HD
ENDBRANCH   6  24
BRANCH   8  26
ATOM     26  O   UNL     1      29.093   6.213 -23.047  1.00  0.00    -0.508 OA
ATOM     27  H   UNL     1      29.008   5.544 -23.803  1.00  0.00     0.293 HD
ENDBRANCH   8  26
TORSDOF 6
ENDMDL
MODEL 5
REMARK VINA RESULT:    -6.023     11.251     13.155
REMARK INTER + INTRA:          -7.585
REMARK INTER:                  -7.289
REMARK INTRA:                  -0.295
REMARK UNBOUND:                -0.330
REMARK SMILES O=c1c(O)c(-c2ccc(O)c(O)c2)oc2cc(O)cc(O)c12
REMARK SMILES IDX 5 1 3 2 2 3 1 4 22 5 20 6 19 7 17 8 16 9 15 10 14 11 6 12
REMARK SMILES IDX 7 13 8 14 9 15 13 16 11 17 10 18 12 20 4 22 21 24 18 26
REMARK H PARENT 10 19 12 21 4 23 21 25 18 27
REMARK Flexibility Score: inf
ROOT
ATOM      1  C   UNL     1      35.081   6.045 -22.262  1.00  0.00     0.180 A 
ATOM      2  C   UNL     1      34.774   6.990 -21.268  1.00  0.00     0.208 A 
ATOM      3  C   UNL     1      33.435   7.367 -21.076  1.00  0.00     0.238 A 
ATOM      4  O   UNL     1      33.174   8.254 -20.222  1.00  0.00    -0.285 OA
ATOM      5  C   UNL     1      32.419   6.783 -21.869  1.00  0.00     0.111 A 
ATOM      6  C   UNL     1      31.026   7.060 -21.734  1.00  0.00     0.134 A 
ATOM      7  C   UNL     1      30.122   6.523 -22.658  1.00  0.00     0.093 A 
ATOM      8  C   UNL     1      30.553   5.666 -23.674  1.00  0.00     0.123 A 
ATOM      9  C   UNL     1      31.903   5.342 -23.778  1.00  0.00     0.094 A 
ATOM     10  C   UNL     1      32.834   5.891 -22.892  1.00  0.00     0.146 A 
ATOM     11  O   UNL     1      34.113   5.563 -23.033  1.00  0.00    -0.452 OA
ENDROOT
BRANCH   1  12
ATOM     12  C   UNL     1      36.466   5.579 -22.505  1.00  0.00     0.025 A 
ATOM     13  C   UNL     1      36.919   4.345 -22.016  1.00  0.00     0.016 A 
ATOM     14  C   UNL     1      38.222   3.917 -22.278  1.00  0.00     0.051 A 
ATOM     15  C   UNL     1      39.091   4.701 -23.044  1.00  0.00     0.157 A 
ATOM     16  C   UNL     1      37.328   6.358 -23.292  1.00  0.00     0.062 A 
ATOM     17  C   UNL     1      38.637   5.937 -23.562  1.00  0.00     0.158 A 
BRANCH  15  18
ATOM     18  O   UNL     1      40.381   4.217 -23.267  1.00  0.00    -0.504 OA
ATOM     19  H   UNL     1      40.702   3.851 -24.153  1.00  0.00     0.293 HD
ENDBRANCH  15  18
BRANCH  17  20
ATOM     20  O   UNL     1      39.443   6.770 -24.341  1.00  0.00    -0.504 OA
ATOM     21  H   UNL     1      39.085   7.451 -24.995  1.00  0.00     0.293 HD
ENDBRANCH  17  20
ENDBRANCH   1  12
BRANCH   2  22
ATOM     22  O   UNL     1      35.796   7.571 -20.510  1.00  0.00    -0.502 OA
ATOM     23  H   UNL     1      36.757   7.606 -20.830  1.00  0.00     0.293 HD
ENDBRANCH   2  22
BRANCH   6  24
ATOM     24  O   UNL     1      30.479   7.829 -20.701  1.00  0.00    -0.507 OA
ATOM     25  H   UNL     1      29.504   7.832 -20.441  1.00  0.00     0.293 HD
ENDBRANCH   6  24
BRANCH   8  26
ATOM     26  O   UNL     1      29.645   5.123 -24.580  1.00  0.00    -0.508 OA
ATOM     27  H   UNL     1      29.473   4.125 -24.624  1.00  0.00     0.293 HD
ENDBRANCH   8  26
TORSDOF 6
ENDMDL
MODEL 6
REMARK VINA RESULT:    -6.011      8.364     11.338
REMARK INTER + INTRA:          -7.571
REMARK INTER:                  -7.312
REMARK INTRA:                  -0.259
REMARK UNBOUND:                -0.330
REMARK SMILES O=c1c(O)c(-c2ccc(O)c(O)c2)oc2cc(O)cc(O)c12
REMARK SMILES IDX 5 1 3 2 2 3 1 4 22 5 20 6 19 7 17 8 16 9 15 10 14 11 6 12
REMARK SMILES IDX 7 13 8 14 9 15 13 16 11 17 10 18 12 20 4 22 21 24 18 26
REMARK H PARENT 10 19 12 21 4 23 21 25 18 27
REMARK Flexibility Score: inf
ROOT
ATOM      1  C   UNL     1      31.072   5.472 -23.831  1.00  0.00     0.180 A 
ATOM      2  C   UNL     1      30.269   6.152 -22.898  1.00  0.00     0.208 A 
ATOM      3  C   UNL     1      30.888   6.887 -21.874  1.00  0.00     0.238 A 
ATOM      4  O   UNL     1      30.163   7.447 -21.011  1.00  0.00    -0.285 OA
ATOM      5  C   UNL     1      32.300   6.946 -21.804  1.00  0.00     0.111 A 
ATOM      6  C   UNL     1      33.032   7.692 -20.834  1.00  0.00     0.134 A 
ATOM      7  C   UNL     1      34.427   7.573 -20.779  1.00  0.00     0.093 A 
ATOM      8  C   UNL     1      35.120   6.785 -21.703  1.00  0.00     0.123 A 
ATOM      9  C   UNL     1      34.418   6.100 -22.690  1.00  0.00     0.094 A 
ATOM     10  C   UNL     1      33.023   6.171 -22.748  1.00  0.00     0.146 A 
ATOM     11  O   UNL     1      32.393   5.493 -23.700  1.00  0.00    -0.452 OA
ENDROOT
BRANCH   1  12
ATOM     12  C   UNL     1      30.492   4.697 -24.953  1.00  0.00     0.025 A 
ATOM     13  C   UNL     1      29.884   3.451 -24.743  1.00  0.00     0.016 A 
ATOM     14  C   UNL     1      29.324   2.750 -25.813  1.00  0.00     0.051 A 
ATOM     15  C   UNL     1      29.346   3.283 -27.106  1.00  0.00     0.157 A 
ATOM     16  C   UNL     1      30.497   5.245 -26.244  1.00  0.00     0.062 A 
ATOM     17  C   UNL     1      29.936   4.550 -27.324  1.00  0.00     0.158 A 
BRANCH  15  18
ATOM     18  O   UNL     1      28.772   2.531 -28.132  1.00  0.00    -0.504 OA
ATOM     19  H   UNL     1      29.269   2.231 -28.959  1.00  0.00     0.293 HD
ENDBRANCH  15  18
BRANCH  17  20
ATOM     20  O   UNL     1      29.988   5.151 -28.584  1.00  0.00    -0.504 OA
ATOM     21  H   UNL     1      29.214   5.638 -29.010  1.00  0.00     0.293 HD
ENDBRANCH  17  20
ENDBRANCH   1  12
BRANCH   2  22
ATOM     22  O   UNL     1      28.875   6.062 -22.973  1.00  0.00    -0.502 OA
ATOM     23  H   UNL     1      28.293   6.852 -23.223  1.00  0.00     0.293 HD
ENDBRANCH   2  22
BRANCH   6  24
ATOM     24  O   UNL     1      32.446   8.579 -19.925  1.00  0.00    -0.507 OA
ATOM     25  H   UNL     1      32.010   9.454 -20.176  1.00  0.00     0.293 HD
ENDBRANCH   6  24
BRANCH   8  26
ATOM     26  O   UNL     1      36.508   6.685 -21.651  1.00  0.00    -0.508 OA
ATOM     27  H   UNL     1      37.006   5.964 -22.160  1.00  0.00     0.293 HD
ENDBRANCH   8  26
TORSDOF 6
ENDMDL
MODEL 7
REMARK VINA RESULT:    -5.803     11.045     14.448
REMARK INTER + INTRA:          -7.320
REMARK INTER:                  -6.989
REMARK INTRA:                  -0.331
REMARK UNBOUND:                -0.330
REMARK SMILES O=c1c(O)c(-c2ccc(O)c(O)c2)oc2cc(O)cc(O)c12
REMARK SMILES IDX 5 1 3 2 2 3 1 4 22 5 20 6 19 7 17 8 16 9 15 10 14 11 6 12
REMARK SMILES IDX 7 13 8 14 9 15 13 16 11 17 10 18 12 20 4 22 21 24 18 26
REMARK H PARENT 10 19 12 21 4 23 21 25 18 27
REMARK Flexibility Score: inf
ROOT
ATOM      1  C   UNL     1      31.901   4.391 -21.101  1.00  0.00     0.180 A 
ATOM      2  C   UNL     1      31.475   5.018 -22.285  1.00  0.00     0.208 A 
ATOM      3  C   UNL     1      32.400   5.766 -23.031  1.00  0.00     0.238 A 
ATOM      4  O   UNL     1      31.999   6.370 -24.060  1.00  0.00    -0.285 OA
ATOM      5  C   UNL     1      33.743   5.865 -22.594  1.00  0.00     0.111 A 
ATOM      6  C   UNL     1      34.773   6.562 -23.292  1.00  0.00     0.134 A 
ATOM      7  C   UNL     1      36.034   6.704 -22.700  1.00  0.00     0.093 A 
ATOM      8  C   UNL     1      36.321   6.117 -21.464  1.00  0.00     0.123 A 
ATOM      9  C   UNL     1      35.339   5.384 -20.803  1.00  0.00     0.094 A 
ATOM     10  C   UNL     1      34.060   5.255 -21.352  1.00  0.00     0.146 A 
ATOM     11  O   UNL     1      33.151   4.556 -20.683  1.00  0.00    -0.452 OA
ENDROOT
BRANCH   1  12
ATOM     12  C   UNL     1      30.991   3.565 -20.275  1.00  0.00     0.025 A 
ATOM     13  C   UNL     1      30.785   2.206 -20.552  1.00  0.00     0.016 A 
ATOM     14  C   UNL     1      29.940   1.442 -19.744  1.00  0.00     0.051 A 
ATOM     15  C   UNL     1      29.297   2.013 -18.641  1.00  0.00     0.157 A 
ATOM     16  C   UNL     1      30.365   4.136 -19.157  1.00  0.00     0.062 A 
ATOM     17  C   UNL     1      29.516   3.377 -18.340  1.00  0.00     0.158 A 
BRANCH  15  18
ATOM     18  O   UNL     1      28.462   1.195 -17.876  1.00  0.00    -0.504 OA
ATOM     19  H   UNL     1      28.780   0.381 -17.369  1.00  0.00     0.293 HD
ENDBRANCH  15  18
BRANCH  17  20
ATOM     20  O   UNL     1      28.917   4.015 -17.251  1.00  0.00    -0.504 OA
ATOM     21  H   UNL     1      29.265   4.866 -16.834  1.00  0.00     0.293 HD
ENDBRANCH  17  20
ENDBRANCH   1  12
BRANCH   2  22
ATOM     22  O   UNL     1      30.139   4.926 -22.688  1.00  0.00    -0.502 OA
ATOM     23  H   UNL     1      29.385   5.365 -22.174  1.00  0.00     0.293 HD
ENDBRANCH   2  22
BRANCH   6  24
ATOM     24  O   UNL     1      34.619   7.107 -24.571  1.00  0.00    -0.507 OA
ATOM     25  H   UNL     1      34.105   7.949 -24.779  1.00  0.00     0.293 HD
ENDBRANCH   6  24
BRANCH   8  26
ATOM     26  O   UNL     1      37.583   6.250 -20.890  1.00  0.00    -0.508 OA
ATOM     27  H   UNL     1      37.937   7.151 -20.591  1.00  0.00     0.293 HD
ENDBRANCH   8  26
TORSDOF 6
ENDMDL
MODEL 8
REMARK VINA RESULT:    -5.776     11.613     14.624
REMARK INTER + INTRA:          -7.287
REMARK INTER:                  -7.128
REMARK INTRA:                  -0.159
REMARK UNBOUND:                -0.330
REMARK SMILES O=c1c(O)c(-c2ccc(O)c(O)c2)oc2cc(O)cc(O)c12
REMARK SMILES IDX 5 1 3 2 2 3 1 4 22 5 20 6 19 7 17 8 16 9 15 10 14 11 6 12
REMARK SMILES IDX 7 13 8 14 9 15 13 16 11 17 10 18 12 20 4 22 21 24 18 26
REMARK H PARENT 10 19 12 21 4 23 21 25 18 27
REMARK Flexibility Score: inf
ROOT
ATOM      1  C   UNL     1      31.223   4.318 -20.259  1.00  0.00     0.180 A 
ATOM      2  C   UNL     1      30.664   5.511 -20.749  1.00  0.00     0.208 A 
ATOM      3  C   UNL     1      31.427   6.320 -21.607  1.00  0.00     0.238 A 
ATOM      4  O   UNL     1      30.941   7.413 -21.998  1.00  0.00    -0.285 OA
ATOM      5  C   UNL     1      32.734   5.919 -21.975  1.00  0.00     0.111 A 
ATOM      6  C   UNL     1      33.581   6.639 -22.869  1.00  0.00     0.134 A 
ATOM      7  C   UNL     1      34.902   6.217 -23.060  1.00  0.00     0.093 A 
ATOM      8  C   UNL     1      35.386   5.061 -22.440  1.00  0.00     0.123 A 
ATOM      9  C   UNL     1      34.548   4.318 -21.613  1.00  0.00     0.094 A 
ATOM     10  C   UNL     1      33.236   4.734 -21.375  1.00  0.00     0.146 A 
ATOM     11  O   UNL     1      32.474   4.001 -20.571  1.00  0.00    -0.452 OA
ENDROOT
BRANCH   1  12
ATOM     12  C   UNL     1      30.470   3.402 -19.372  1.00  0.00     0.025 A 
ATOM     13  C   UNL     1      30.066   3.796 -18.087  1.00  0.00     0.016 A 
ATOM     14  C   UNL     1      29.337   2.923 -17.278  1.00  0.00     0.051 A 
ATOM     15  C   UNL     1      28.985   1.648 -17.736  1.00  0.00     0.157 A 
ATOM     16  C   UNL     1      30.100   2.133 -19.843  1.00  0.00     0.062 A 
ATOM     17  C   UNL     1      29.368   1.250 -19.039  1.00  0.00     0.158 A 
BRANCH  15  18
ATOM     18  O   UNL     1      28.259   0.823 -16.877  1.00  0.00    -0.504 OA
ATOM     19  H   UNL     1      27.253   0.850 -16.784  1.00  0.00     0.293 HD
ENDBRANCH  15  18
BRANCH  17  20
ATOM     20  O   UNL     1      29.046  -0.001 -19.569  1.00  0.00    -0.504 OA
ATOM     21  H   UNL     1      28.925  -0.836 -19.015  1.00  0.00     0.293 HD
ENDBRANCH  17  20
ENDBRANCH   1  12
BRANCH   2  22
ATOM     22  O   UNL     1      29.379   5.899 -20.355  1.00  0.00    -0.502 OA
ATOM     23  H   UNL     1      28.686   5.235 -20.033  1.00  0.00     0.293 HD
ENDBRANCH   2  22
BRANCH   6  24
ATOM     24  O   UNL     1      33.168   7.753 -23.609  1.00  0.00    -0.507 OA
ATOM     25  H   UNL     1      32.333   7.790 -24.172  1.00  0.00     0.293 HD
ENDBRANCH   6  24
BRANCH   8  26
ATOM     26  O   UNL     1      36.697   4.639 -22.648  1.00  0.00    -0.508 OA
ATOM     27  H   UNL     1      36.931   3.656 -22.725  1.00  0.00     0.293 HD
ENDBRANCH   8  26
TORSDOF 6
ENDMDL
MODEL 9
REMARK VINA RESULT:    -5.700     13.449     16.166
REMARK INTER + INTRA:          -7.195
REMARK INTER:                  -6.865
REMARK INTRA:                  -0.330
REMARK UNBOUND:                -0.330
REMARK SMILES O=c1c(O)c(-c2ccc(O)c(O)c2)oc2cc(O)cc(O)c12
REMARK SMILES IDX 5 1 3 2 2 3 1 4 22 5 20 6 19 7 17 8 16 9 15 10 14 11 6 12
REMARK SMILES IDX 7 13 8 14 9 15 13 16 11 17 10 18 12 20 4 22 21 24 18 26
REMARK H PARENT 10 19 12 21 4 23 21 25 18 27
REMARK Flexibility Score: inf
ROOT
ATOM      1  C   UNL     1      36.151   6.690 -20.770  1.00  0.00     0.180 A 
ATOM      2  C   UNL     1      36.832   6.356 -19.587  1.00  0.00     0.208 A 
ATOM      3  C   UNL     1      38.205   6.068 -19.648  1.00  0.00     0.238 A 
ATOM      4  O   UNL     1      38.796   5.716 -18.594  1.00  0.00    -0.285 OA
ATOM      5  C   UNL     1      38.883   6.133 -20.888  1.00  0.00     0.111 A 
ATOM      6  C   UNL     1      40.280   5.901 -21.061  1.00  0.00     0.134 A 
ATOM      7  C   UNL     1      40.820   5.864 -22.352  1.00  0.00     0.093 A 
ATOM      8  C   UNL     1      40.025   6.117 -23.474  1.00  0.00     0.123 A 
ATOM      9  C   UNL     1      38.672   6.403 -23.311  1.00  0.00     0.094 A 
ATOM     10  C   UNL     1      38.097   6.411 -22.037  1.00  0.00     0.146 A 
ATOM     11  O   UNL     1      36.801   6.679 -21.928  1.00  0.00    -0.452 OA
ENDROOT
BRANCH   1  12
ATOM     12  C   UNL     1      34.710   7.030 -20.781  1.00  0.00     0.025 A 
ATOM     13  C   UNL     1      34.265   8.335 -20.521  1.00  0.00     0.016 A 
ATOM     14  C   UNL     1      32.903   8.638 -20.560  1.00  0.00     0.051 A 
ATOM     15  C   UNL     1      31.960   7.651 -20.872  1.00  0.00     0.157 A 
ATOM     16  C   UNL     1      33.770   6.044 -21.116  1.00  0.00     0.062 A 
ATOM     17  C   UNL     1      32.400   6.338 -21.158  1.00  0.00     0.158 A 
BRANCH  15  18
ATOM     18  O   UNL     1      30.614   8.018 -20.891  1.00  0.00    -0.504 OA
ATOM     19  H   UNL     1      29.927   7.682 -20.230  1.00  0.00     0.293 HD
ENDBRANCH  15  18
BRANCH  17  20
ATOM     20  O   UNL     1      31.521   5.303 -21.486  1.00  0.00    -0.504 OA
ATOM     21  H   UNL     1      31.339   4.995 -22.430  1.00  0.00     0.293 HD
ENDBRANCH  17  20
ENDBRANCH   1  12
BRANCH   2  22
ATOM     22  O   UNL     1      36.138   6.276 -18.375  1.00  0.00    -0.502 OA
ATOM     23  H   UNL     1      36.586   6.434 -17.481  1.00  0.00     0.293 HD
ENDBRANCH   2  22
BRANCH   6  24
ATOM     24  O   UNL     1      41.180   5.729 -20.004  1.00  0.00    -0.507 OA
ATOM     25  H   UNL     1      41.414   4.840 -19.588  1.00  0.00     0.293 HD
ENDBRANCH   6  24
BRANCH   8  26
ATOM     26  O   UNL     1      40.573   6.094 -24.754  1.00  0.00    -0.508 OA
ATOM     27  H   UNL     1      40.288   6.759 -25.464  1.00  0.00     0.293 HD
ENDBRANCH   8  26
TORSDOF 6
ENDMDL
