MODEL 1
REMARK VINA RESULT:    -5.686      0.000      0.000
REMARK INTER + INTRA:          -7.968
REMARK INTER:                  -7.680
REMARK INTRA:                  -0.288
REMARK UNBOUND:                -0.288
REMARK SMILES CCCCCCCC(=O)[O-]
REMARK SMILES IDX 5 1 6 2 7 3 8 4 9 5 10 6 4 7 3 8 2 9 1 10
REMARK H PARENT
REMARK Flexibility Score: inf
ROOT
ATOM      1  C   UNL     1      28.612  -0.943  42.214  1.00  0.00     0.000 C 
ENDROOT
BRANCH   1   2
ATOM      2  C   UNL     1      28.475  -0.708  43.732  1.00  0.00     0.006 C 
BRANCH   2   3
ATOM      3  C   UNL     1      28.885  -1.909  44.600  1.00  0.00     0.053 C 
BRANCH   3   4
ATOM      4  C   UNL     1      30.034  -1.581  45.504  1.00  0.00     0.041 C 
ATOM      5  O   UNL     1      30.941  -0.798  45.117  1.00  0.00    -0.550 OA
ATOM      6  O   UNL     1      30.083  -2.112  46.786  1.00  0.00    -0.550 OA
ENDBRANCH   3   4
ENDBRANCH   2   3
ENDBRANCH   1   2
BRANCH   1   7
ATOM      7  C   UNL     1      30.056  -0.904  41.676  1.00  0.00     0.000 C 
BRANCH   7   8
ATOM      8  C   UNL     1      30.183  -0.912  40.140  1.00  0.00    -0.000 C 
BRANCH   8   9
ATOM      9  C   UNL     1      28.908  -0.498  39.384  1.00  0.00    -0.003 C 
ATOM     10  C   UNL     1      29.033   0.869  38.710  1.00  0.00     0.004 C 
ENDBRANCH   8   9
ENDBRANCH   7   8
ENDBRANCH   1   7
TORSDOF 6
ENDMDL
MODEL 2
REMARK VINA RESULT:    -5.674      3.312      5.392
REMARK INTER + INTRA:          -7.953
REMARK INTER:                  -7.613
REMARK INTRA:                  -0.339
REMARK UNBOUND:                -0.288
REMARK SMILES CCCCCCCC(=O)[O-]
REMARK SMILES IDX 5 1 6 2 7 3 8 4 9 5 10 6 4 7 3 8 2 9 1 10
REMARK H PARENT
REMARK Flexibility Score: inf
ROOT
ATOM      1  C   UNL     1      29.283  -0.735  40.996  1.00  0.00     0.000 C 
ENDROOT
BRANCH   1   2
ATOM      2  C   UNL     1      30.774  -0.746  41.391  1.00  0.00     0.006 C 
BRANCH   2   3
ATOM      3  C   UNL     1      31.745  -0.627  40.206  1.00  0.00     0.053 C 
BRANCH   3   4
ATOM      4  C   UNL     1      31.523   0.630  39.422  1.00  0.00     0.041 C 
ATOM      5  O   UNL     1      31.211   0.569  38.204  1.00  0.00    -0.550 OA
ATOM      6  O   UNL     1      31.626   1.866  40.046  1.00  0.00    -0.550 OA
ENDBRANCH   3   4
ENDBRANCH   2   3
ENDBRANCH   1   2
BRANCH   1   7
ATOM      7  C   UNL     1      28.331  -1.373  42.026  1.00  0.00     0.000 C 
BRANCH   7   8
ATOM      8  C   UNL     1      28.394  -0.765  43.440  1.00  0.00    -0.000 C 
BRANCH   8   9
ATOM      9  C   UNL     1      29.055  -1.662  44.501  1.00  0.00    -0.003 C 
ATOM     10  C   UNL     1      30.296  -1.027  45.128  1.00  0.00     0.004 C 
ENDBRANCH   8   9
ENDBRANCH   7   8
ENDBRANCH   1   7
TORSDOF 6
ENDMDL
MODEL 3
REMARK VINA RESULT:    -5.573      3.207      5.584
REMARK INTER + INTRA:          -7.815
REMARK INTER:                  -7.585
REMARK INTRA:                  -0.230
REMARK UNBOUND:                -0.288
REMARK SMILES CCCCCCCC(=O)[O-]
REMARK SMILES IDX 5 1 6 2 7 3 8 4 9 5 10 6 4 7 3 8 2 9 1 10
REMARK H PARENT
REMARK Flexibility Score: inf
ROOT
ATOM      1  C   UNL     1      28.720  -0.679  41.970  1.00  0.00     0.000 C 
ENDROOT
BRANCH   1   2
ATOM      2  C   UNL     1      30.205  -0.827  41.583  1.00  0.00     0.006 C 
BRANCH   2   3
ATOM      3  C   UNL     1      30.487  -0.679  40.079  1.00  0.00     0.053 C 
BRANCH   3   4
ATOM      4  C   UNL     1      30.224   0.713  39.594  1.00  0.00     0.041 C 
ATOM      5  O   UNL     1      31.030   1.641  39.866  1.00  0.00    -0.550 OA
ATOM      6  O   UNL     1      29.107   0.978  38.811  1.00  0.00    -0.550 OA
ENDBRANCH   3   4
ENDBRANCH   2   3
ENDBRANCH   1   2
BRANCH   1   7
ATOM      7  C   UNL     1      28.428  -0.759  43.481  1.00  0.00     0.000 C 
BRANCH   7   8
ATOM      8  C   UNL     1      29.332  -1.725  44.272  1.00  0.00    -0.000 C 
BRANCH   8   9
ATOM      9  C   UNL     1      30.322  -1.045  45.233  1.00  0.00    -0.003 C 
ATOM     10  C   UNL     1      30.406  -1.740  46.592  1.00  0.00     0.004 C 
ENDBRANCH   8   9
ENDBRANCH   7   8
ENDBRANCH   1   7
TORSDOF 6
ENDMDL
MODEL 4
REMARK VINA RESULT:    -5.558      3.262      5.464
REMARK INTER + INTRA:          -7.795
REMARK INTER:                  -7.638
REMARK INTRA:                  -0.157
REMARK UNBOUND:                -0.288
REMARK SMILES CCCCCCCC(=O)[O-]
REMARK SMILES IDX 5 1 6 2 7 3 8 4 9 5 10 6 4 7 3 8 2 9 1 10
REMARK H PARENT
REMARK Flexibility Score: inf
ROOT
ATOM      1  C   UNL     1      29.376  -0.582  41.065  1.00  0.00     0.000 C 
ENDROOT
BRANCH   1   2
ATOM      2  C   UNL     1      29.056  -0.588  39.557  1.00  0.00     0.006 C 
BRANCH   2   3
ATOM      3  C   UNL     1      29.721   0.547  38.762  1.00  0.00     0.053 C 
BRANCH   3   4
ATOM      4  C   UNL     1      31.084   0.876  39.289  1.00  0.00     0.041 C 
ATOM      5  O   UNL     1      32.035   0.066  39.135  1.00  0.00    -0.550 OA
ATOM      6  O   UNL     1      31.311   2.093  39.920  1.00  0.00    -0.550 OA
ENDBRANCH   3   4
ENDBRANCH   2   3
ENDBRANCH   1   2
BRANCH   1   7
ATOM      7  C   UNL     1      28.340  -1.298  41.954  1.00  0.00     0.000 C 
BRANCH   7   8
ATOM      8  C   UNL     1      28.252  -0.778  43.403  1.00  0.00    -0.000 C 
BRANCH   8   9
ATOM      9  C   UNL     1      29.010  -1.624  44.441  1.00  0.00    -0.003 C 
ATOM     10  C   UNL     1      30.291  -0.952  44.935  1.00  0.00     0.004 C 
ENDBRANCH   8   9
ENDBRANCH   7   8
ENDBRANCH   1   7
TORSDOF 6
ENDMDL
MODEL 5
REMARK VINA RESULT:    -5.457      2.317      3.887
REMARK INTER + INTRA:          -7.659
REMARK INTER:                  -7.378
REMARK INTRA:                  -0.280
REMARK UNBOUND:                -0.288
REMARK SMILES CCCCCCCC(=O)[O-]
REMARK SMILES IDX 5 1 6 2 7 3 8 4 9 5 10 6 4 7 3 8 2 9 1 10
REMARK H PARENT
REMARK Flexibility Score: inf
ROOT
ATOM      1  C   UNL     1      28.918   0.587  38.829  1.00  0.00     0.000 C 
ENDROOT
BRANCH   1   2
ATOM      2  C   UNL     1      29.005  -0.755  39.584  1.00  0.00     0.006 C 
BRANCH   2   3
ATOM      3  C   UNL     1      28.847  -0.637  41.108  1.00  0.00     0.053 C 
BRANCH   3   4
ATOM      4  C   UNL     1      30.099  -1.023  41.833  1.00  0.00     0.041 C 
ATOM      5  O   UNL     1      30.041  -1.445  43.018  1.00  0.00    -0.550 OA
ATOM      6  O   UNL     1      31.327  -0.948  41.188  1.00  0.00    -0.550 OA
ENDBRANCH   3   4
ENDBRANCH   2   3
ENDBRANCH   1   2
BRANCH   1   7
ATOM      7  C   UNL     1      29.960   0.773  37.709  1.00  0.00     0.000 C 
BRANCH   7   8
ATOM      8  C   UNL     1      31.428   0.607  38.147  1.00  0.00    -0.000 C 
BRANCH   8   9
ATOM      9  C   UNL     1      32.081   1.877  38.720  1.00  0.00    -0.003 C 
ATOM     10  C   UNL     1      31.441   2.336  40.030  1.00  0.00     0.004 C 
ENDBRANCH   8   9
ENDBRANCH   7   8
ENDBRANCH   1   7
TORSDOF 6
ENDMDL
MODEL 6
REMARK VINA RESULT:    -5.322      1.487      2.256
REMARK INTER + INTRA:          -7.476
REMARK INTER:                  -7.041
REMARK INTRA:                  -0.436
REMARK UNBOUND:                -0.288
REMARK SMILES CCCCCCCC(=O)[O-]
REMARK SMILES IDX 5 1 6 2 7 3 8 4 9 5 10 6 4 7 3 8 2 9 1 10
REMARK H PARENT
REMARK Flexibility Score: inf
ROOT
ATOM      1  C   UNL     1      28.736  -0.481  40.925  1.00  0.00     0.000 C 
ENDROOT
BRANCH   1   2
ATOM      2  C   UNL     1      29.553  -1.433  41.823  1.00  0.00     0.006 C 
BRANCH   2   3
ATOM      3  C   UNL     1      30.299  -0.737  42.972  1.00  0.00     0.053 C 
BRANCH   3   4
ATOM      4  C   UNL     1      29.786  -1.162  44.313  1.00  0.00     0.041 C 
ATOM      5  O   UNL     1      28.660  -1.716  44.413  1.00  0.00    -0.550 OA
ATOM      6  O   UNL     1      30.566  -0.979  45.447  1.00  0.00    -0.550 OA
ENDBRANCH   3   4
ENDBRANCH   2   3
ENDBRANCH   1   2
BRANCH   1   7
ATOM      7  C   UNL     1      28.898  -0.715  39.410  1.00  0.00     0.000 C 
BRANCH   7   8
ATOM      8  C   UNL     1      29.506   0.466  38.628  1.00  0.00    -0.000 C 
BRANCH   8   9
ATOM      9  C   UNL     1      30.614   1.233  39.370  1.00  0.00    -0.003 C 
ATOM     10  C   UNL     1      31.980   0.553  39.268  1.00  0.00     0.004 C 
ENDBRANCH   8   9
ENDBRANCH   7   8
ENDBRANCH   1   7
TORSDOF 6
ENDMDL
MODEL 7
REMARK VINA RESULT:    -4.609      2.059      2.950
REMARK INTER + INTRA:          -6.514
REMARK INTER:                  -6.439
REMARK INTRA:                  -0.075
REMARK UNBOUND:                -0.288
REMARK SMILES CCCCCCCC(=O)[O-]
REMARK SMILES IDX 5 1 6 2 7 3 8 4 9 5 10 6 4 7 3 8 2 9 1 10
REMARK H PARENT
REMARK Flexibility Score: inf
ROOT
ATOM      1  C   UNL     1      31.089   0.234  40.928  1.00  0.00     0.000 C 
ENDROOT
BRANCH   1   2
ATOM      2  C   UNL     1      30.784  -1.033  41.753  1.00  0.00     0.006 C 
BRANCH   2   3
ATOM      3  C   UNL     1      30.248  -0.756  43.166  1.00  0.00     0.053 C 
BRANCH   3   4
ATOM      4  C   UNL     1      28.784  -1.052  43.278  1.00  0.00     0.041 C 
ATOM      5  O   UNL     1      28.330  -1.625  44.304  1.00  0.00    -0.550 OA
ATOM      6  O   UNL     1      27.916  -0.663  42.266  1.00  0.00    -0.550 OA
ENDBRANCH   3   4
ENDBRANCH   2   3
ENDBRANCH   1   2
BRANCH   1   7
ATOM      7  C   UNL     1      31.738  -0.023  39.554  1.00  0.00     0.000 C 
BRANCH   7   8
ATOM      8  C   UNL     1      31.326   0.961  38.441  1.00  0.00    -0.000 C 
BRANCH   8   9
ATOM      9  C   UNL     1      30.004   0.618  37.731  1.00  0.00    -0.003 C 
ATOM     10  C   UNL     1      28.778   0.840  38.616  1.00  0.00     0.004 C 
ENDBRANCH   8   9
ENDBRANCH   7   8
ENDBRANCH   1   7
TORSDOF 6
ENDMDL
MODEL 8
REMARK VINA RESULT:    -4.558      3.501      5.401
REMARK INTER + INTRA:          -6.445
REMARK INTER:                  -6.053
REMARK INTRA:                  -0.391
REMARK UNBOUND:                -0.288
REMARK SMILES CCCCCCCC(=O)[O-]
REMARK SMILES IDX 5 1 6 2 7 3 8 4 9 5 10 6 4 7 3 8 2 9 1 10
REMARK H PARENT
REMARK Flexibility Score: inf
ROOT
ATOM      1  C   UNL     1      31.376  -0.662  42.039  1.00  0.00     0.000 C 
ENDROOT
BRANCH   1   2
ATOM      2  C   UNL     1      31.025  -0.861  40.551  1.00  0.00     0.006 C 
BRANCH   2   3
ATOM      3  C   UNL     1      30.535   0.410  39.838  1.00  0.00     0.053 C 
BRANCH   3   4
ATOM      4  C   UNL     1      29.529   0.103  38.773  1.00  0.00     0.041 C 
ATOM      5  O   UNL     1      28.587  -0.700  39.004  1.00  0.00    -0.550 OA
ATOM      6  O   UNL     1      29.611   0.729  37.536  1.00  0.00    -0.550 OA
ENDBRANCH   3   4
ENDBRANCH   2   3
ENDBRANCH   1   2
BRANCH   1   7
ATOM      7  C   UNL     1      30.412  -1.340  43.033  1.00  0.00     0.000 C 
BRANCH   7   8
ATOM      8  C   UNL     1      29.391  -0.398  43.701  1.00  0.00    -0.000 C 
BRANCH   8   9
ATOM      9  C   UNL     1      27.927  -0.633  43.289  1.00  0.00    -0.003 C 
ATOM     10  C   UNL     1      27.786  -1.616  42.127  1.00  0.00     0.004 C 
ENDBRANCH   8   9
ENDBRANCH   7   8
ENDBRANCH   1   7
TORSDOF 6
ENDMDL
MODEL 9
REMARK VINA RESULT:    -3.072     15.507     16.246
REMARK INTER + INTRA:          -4.437
REMARK INTER:                  -4.244
REMARK INTRA:                  -0.193
REMARK UNBOUND:                -0.288
REMARK SMILES CCCCCCCC(=O)[O-]
REMARK SMILES IDX 5 1 6 2 7 3 8 4 9 5 10 6 4 7 3 8 2 9 1 10
REMARK H PARENT
REMARK Flexibility Score: inf
ROOT
ATOM      1  C   UNL     1      28.423  13.245  47.938  1.00  0.00     0.000 C 
ENDROOT
BRANCH   1   2
ATOM      2  C   UNL     1      27.352  13.623  48.982  1.00  0.00     0.006 C 
BRANCH   2   3
ATOM      3  C   UNL     1      25.934  13.140  48.640  1.00  0.00     0.053 C 
BRANCH   3   4
ATOM      4  C   UNL     1      24.906  14.202  48.885  1.00  0.00     0.041 C 
ATOM      5  O   UNL     1      24.959  15.292  48.257  1.00  0.00    -0.550 OA
ATOM      6  O   UNL     1      23.870  13.974  49.782  1.00  0.00    -0.550 OA
ENDBRANCH   3   4
ENDBRANCH   2   3
ENDBRANCH   1   2
BRANCH   1   7
ATOM      7  C   UNL     1      29.673  12.547  48.510  1.00  0.00     0.000 C 
BRANCH   7   8
ATOM      8  C   UNL     1      30.848  12.400  47.524  1.00  0.00    -0.000 C 
BRANCH   8   9
ATOM      9  C   UNL     1      32.125  13.161  47.921  1.00  0.00    -0.003 C 
ATOM     10  C   UNL     1      31.842  14.386  48.791  1.00  0.00     0.004 C 
ENDBRANCH   8   9
ENDBRANCH   7   8
ENDBRANCH   1   7
TORSDOF 6
ENDMDL
