MODEL 1
REMARK VINA RESULT:    -4.814      0.000      0.000
REMARK INTER + INTRA:          -5.136
REMARK INTER:                  -5.095
REMARK INTRA:                  -0.041
REMARK UNBOUND:                -0.041
REMARK SMILES COc1ccc2ccc(=O)oc2c1
REMARK SMILES IDX 3 1 13 2 12 3 6 4 5 5 4 6 7 7 8 8 9 9 10 10 11 11 2 12 1 13
REMARK H PARENT
REMARK Flexibility Score: inf
ROOT
ATOM      1  C   UNL     1      19.327 -46.142   7.050  1.00  0.00     0.122 A 
ATOM      2  C   UNL     1      20.688 -45.806   7.046  1.00  0.00     0.094 A 
ATOM      3  C   UNL     1      21.123 -44.595   7.593  1.00  0.00     0.142 A 
ATOM      4  C   UNL     1      20.186 -43.703   8.156  1.00  0.00     0.018 A 
ATOM      5  C   UNL     1      18.826 -44.032   8.164  1.00  0.00     0.016 A 
ATOM      6  C   UNL     1      18.397 -45.244   7.615  1.00  0.00     0.047 A 
ATOM      7  C   UNL     1      20.652 -42.500   8.696  1.00  0.00     0.019 A 
ATOM      8  C   UNL     1      22.018 -42.219   8.663  1.00  0.00     0.094 A 
ATOM      9  C   UNL     1      22.889 -43.151   8.089  1.00  0.00     0.336 A 
ATOM     10  O   UNL     1      24.125 -42.916   8.050  1.00  0.00    -0.246 OA
ATOM     11  O   UNL     1      22.419 -44.288   7.582  1.00  0.00    -0.423 OA
ENDROOT
BRANCH   1  12
ATOM     12  O   UNL     1      18.942 -47.368   6.488  1.00  0.00    -0.497 OA
ATOM     13  C   UNL     1      19.617 -48.004   5.409  1.00  0.00     0.278 C 
ENDBRANCH   1  12
TORSDOF 1
ENDMDL
MODEL 2
REMARK VINA RESULT:    -4.740      1.697      4.858
REMARK INTER + INTRA:          -5.058
REMARK INTER:                  -5.023
REMARK INTRA:                  -0.035
REMARK UNBOUND:                -0.041
REMARK SMILES COc1ccc2ccc(=O)oc2c1
REMARK SMILES IDX 3 1 13 2 12 3 6 4 5 5 4 6 7 7 8 8 9 9 10 10 11 11 2 12 1 13
REMARK H PARENT
REMARK Flexibility Score: inf
ROOT
ATOM      1  C   UNL     1      22.136 -43.410   8.685  1.00  0.00     0.122 A 
ATOM      2  C   UNL     1      21.642 -44.686   8.987  1.00  0.00     0.094 A 
ATOM      3  C   UNL     1      20.355 -45.062   8.588  1.00  0.00     0.142 A 
ATOM      4  C   UNL     1      19.547 -44.152   7.874  1.00  0.00     0.018 A 
ATOM      5  C   UNL     1      20.036 -42.876   7.569  1.00  0.00     0.016 A 
ATOM      6  C   UNL     1      21.323 -42.506   7.971  1.00  0.00     0.047 A 
ATOM      7  C   UNL     1      18.266 -44.558   7.488  1.00  0.00     0.019 A 
ATOM      8  C   UNL     1      17.826 -45.840   7.818  1.00  0.00     0.094 A 
ATOM      9  C   UNL     1      18.682 -46.689   8.526  1.00  0.00     0.336 A 
ATOM     10  O   UNL     1      18.304 -47.850   8.833  1.00  0.00    -0.246 OA
ATOM     11  O   UNL     1      19.897 -46.278   8.881  1.00  0.00    -0.423 OA
ENDROOT
BRANCH   1  12
ATOM     12  O   UNL     1      23.433 -43.082   9.108  1.00  0.00    -0.497 OA
ATOM     13  C   UNL     1      23.965 -41.762   9.116  1.00  0.00     0.278 C 
ENDBRANCH   1  12
TORSDOF 1
ENDMDL
MODEL 3
REMARK VINA RESULT:    -4.649      1.980      5.111
REMARK INTER + INTRA:          -4.962
REMARK INTER:                  -4.926
REMARK INTRA:                  -0.036
REMARK UNBOUND:                -0.041
REMARK SMILES COc1ccc2ccc(=O)oc2c1
REMARK SMILES IDX 3 1 13 2 12 3 6 4 5 5 4 6 7 7 8 8 9 9 10 10 11 11 2 12 1 13
REMARK H PARENT
REMARK Flexibility Score: inf
ROOT
ATOM      1  C   UNL     1      21.343 -43.539   7.982  1.00  0.00     0.122 A 
ATOM      2  C   UNL     1      19.949 -43.418   7.911  1.00  0.00     0.094 A 
ATOM      3  C   UNL     1      19.128 -44.536   8.099  1.00  0.00     0.142 A 
ATOM      4  C   UNL     1      19.707 -45.795   8.364  1.00  0.00     0.018 A 
ATOM      5  C   UNL     1      21.100 -45.921   8.438  1.00  0.00     0.016 A 
ATOM      6  C   UNL     1      21.914 -44.801   8.248  1.00  0.00     0.047 A 
ATOM      7  C   UNL     1      18.861 -46.892   8.549  1.00  0.00     0.019 A 
ATOM      8  C   UNL     1      17.480 -46.713   8.465  1.00  0.00     0.094 A 
ATOM      9  C   UNL     1      16.977 -45.435   8.200  1.00  0.00     0.336 A 
ATOM     10  O   UNL     1      15.734 -45.252   8.120  1.00  0.00    -0.246 OA
ATOM     11  O   UNL     1      17.805 -44.408   8.028  1.00  0.00    -0.423 OA
ENDROOT
BRANCH   1  12
ATOM     12  O   UNL     1      22.121 -42.389   7.785  1.00  0.00    -0.497 OA
ATOM     13  C   UNL     1      23.544 -42.372   7.778  1.00  0.00     0.278 C 
ENDBRANCH   1  12
TORSDOF 1
ENDMDL
MODEL 4
REMARK VINA RESULT:    -4.528      1.475      4.587
REMARK INTER + INTRA:          -4.834
REMARK INTER:                  -4.794
REMARK INTRA:                  -0.040
REMARK UNBOUND:                -0.041
REMARK SMILES COc1ccc2ccc(=O)oc2c1
REMARK SMILES IDX 3 1 13 2 12 3 6 4 5 5 4 6 7 7 8 8 9 9 10 10 11 11 2 12 1 13
REMARK H PARENT
REMARK Flexibility Score: inf
ROOT
ATOM      1  C   UNL     1      21.837 -42.872   8.431  1.00  0.00     0.122 A 
ATOM      2  C   UNL     1      22.286 -44.138   8.032  1.00  0.00     0.094 A 
ATOM      3  C   UNL     1      21.419 -45.030   7.392  1.00  0.00     0.142 A 
ATOM      4  C   UNL     1      20.082 -44.652   7.143  1.00  0.00     0.018 A 
ATOM      5  C   UNL     1      19.629 -43.388   7.539  1.00  0.00     0.016 A 
ATOM      6  C   UNL     1      20.500 -42.502   8.179  1.00  0.00     0.047 A 
ATOM      7  C   UNL     1      19.240 -45.565   6.501  1.00  0.00     0.019 A 
ATOM      8  C   UNL     1      19.740 -46.812   6.127  1.00  0.00     0.094 A 
ATOM      9  C   UNL     1      21.077 -47.117   6.405  1.00  0.00     0.336 A 
ATOM     10  O   UNL     1      21.548 -48.237   6.076  1.00  0.00    -0.246 OA
ATOM     11  O   UNL     1      21.857 -46.231   7.019  1.00  0.00    -0.423 OA
ENDROOT
BRANCH   1  12
ATOM     12  O   UNL     1      22.746 -42.015   9.071  1.00  0.00    -0.497 OA
ATOM     13  C   UNL     1      24.125 -41.912   8.735  1.00  0.00     0.278 C 
ENDBRANCH   1  12
TORSDOF 1
ENDMDL
MODEL 5
REMARK VINA RESULT:    -4.527      1.808      2.674
REMARK INTER + INTRA:          -4.833
REMARK INTER:                  -4.798
REMARK INTRA:                  -0.035
REMARK UNBOUND:                -0.041
REMARK SMILES COc1ccc2ccc(=O)oc2c1
REMARK SMILES IDX 3 1 13 2 12 3 6 4 5 5 4 6 7 7 8 8 9 9 10 10 11 11 2 12 1 13
REMARK H PARENT
REMARK Flexibility Score: inf
ROOT
ATOM      1  C   UNL     1      19.256 -44.406   7.992  1.00  0.00     0.122 A 
ATOM      2  C   UNL     1      19.983 -43.293   8.437  1.00  0.00     0.094 A 
ATOM      3  C   UNL     1      21.377 -43.268   8.334  1.00  0.00     0.142 A 
ATOM      4  C   UNL     1      22.060 -44.371   7.777  1.00  0.00     0.018 A 
ATOM      5  C   UNL     1      21.339 -45.485   7.331  1.00  0.00     0.016 A 
ATOM      6  C   UNL     1      19.945 -45.504   7.437  1.00  0.00     0.047 A 
ATOM      7  C   UNL     1      23.454 -44.315   7.686  1.00  0.00     0.019 A 
ATOM      8  C   UNL     1      24.125 -43.182   8.146  1.00  0.00     0.094 A 
ATOM      9  C   UNL     1      23.383 -42.126   8.685  1.00  0.00     0.336 A 
ATOM     10  O   UNL     1      23.969 -41.095   9.105  1.00  0.00    -0.246 OA
ATOM     11  O   UNL     1      22.057 -42.205   8.760  1.00  0.00    -0.423 OA
ENDROOT
BRANCH   1  12
ATOM     12  O   UNL     1      17.859 -44.382   8.119  1.00  0.00    -0.497 OA
ATOM     13  C   UNL     1      17.023 -45.529   8.020  1.00  0.00     0.278 C 
ENDBRANCH   1  12
TORSDOF 1
ENDMDL
MODEL 6
REMARK VINA RESULT:    -4.503      1.720      4.786
REMARK INTER + INTRA:          -4.807
REMARK INTER:                  -4.774
REMARK INTRA:                  -0.033
REMARK UNBOUND:                -0.041
REMARK SMILES COc1ccc2ccc(=O)oc2c1
REMARK SMILES IDX 3 1 13 2 12 3 6 4 5 5 4 6 7 7 8 8 9 9 10 10 11 11 2 12 1 13
REMARK H PARENT
REMARK Flexibility Score: inf
ROOT
ATOM      1  C   UNL     1      19.633 -43.890   7.630  1.00  0.00     0.122 A 
ATOM      2  C   UNL     1      20.409 -44.771   6.864  1.00  0.00     0.094 A 
ATOM      3  C   UNL     1      19.971 -46.077   6.624  1.00  0.00     0.142 A 
ATOM      4  C   UNL     1      18.738 -46.513   7.153  1.00  0.00     0.018 A 
ATOM      5  C   UNL     1      17.958 -45.637   7.918  1.00  0.00     0.016 A 
ATOM      6  C   UNL     1      18.402 -44.333   8.156  1.00  0.00     0.047 A 
ATOM      7  C   UNL     1      18.326 -47.824   6.894  1.00  0.00     0.019 A 
ATOM      8  C   UNL     1      19.140 -48.657   6.127  1.00  0.00     0.094 A 
ATOM      9  C   UNL     1      20.350 -48.157   5.634  1.00  0.00     0.336 A 
ATOM     10  O   UNL     1      21.098 -48.893   4.939  1.00  0.00    -0.246 OA
ATOM     11  O   UNL     1      20.718 -46.905   5.895  1.00  0.00    -0.423 OA
ENDROOT
BRANCH   1  12
ATOM     12  O   UNL     1      20.118 -42.591   7.843  1.00  0.00    -0.497 OA
ATOM     13  C   UNL     1      21.052 -42.238   8.857  1.00  0.00     0.278 C 
ENDBRANCH   1  12
TORSDOF 1
ENDMDL
MODEL 7
REMARK VINA RESULT:    -4.472      2.384      3.534
REMARK INTER + INTRA:          -4.774
REMARK INTER:                  -4.743
REMARK INTRA:                  -0.031
REMARK UNBOUND:                -0.041
REMARK SMILES COc1ccc2ccc(=O)oc2c1
REMARK SMILES IDX 3 1 13 2 12 3 6 4 5 5 4 6 7 7 8 8 9 9 10 10 11 11 2 12 1 13
REMARK H PARENT
REMARK Flexibility Score: inf
ROOT
ATOM      1  C   UNL     1      20.493 -48.291   5.577  1.00  0.00     0.122 A 
ATOM      2  C   UNL     1      20.765 -46.923   5.716  1.00  0.00     0.094 A 
ATOM      3  C   UNL     1      19.912 -46.101   6.460  1.00  0.00     0.142 A 
ATOM      4  C   UNL     1      18.770 -46.652   7.078  1.00  0.00     0.018 A 
ATOM      5  C   UNL     1      18.493 -48.018   6.943  1.00  0.00     0.016 A 
ATOM      6  C   UNL     1      19.349 -48.834   6.197  1.00  0.00     0.047 A 
ATOM      7  C   UNL     1      17.937 -45.805   7.816  1.00  0.00     0.019 A 
ATOM      8  C   UNL     1      18.256 -44.452   7.920  1.00  0.00     0.094 A 
ATOM      9  C   UNL     1      19.406 -43.975   7.281  1.00  0.00     0.336 A 
ATOM     10  O   UNL     1      19.712 -42.757   7.362  1.00  0.00    -0.246 OA
ATOM     11  O   UNL     1      20.181 -44.803   6.584  1.00  0.00    -0.423 OA
ENDROOT
BRANCH   1  12
ATOM     12  O   UNL     1      21.379 -49.071   4.819  1.00  0.00    -0.497 OA
ATOM     13  C   UNL     1      22.098 -50.190   5.325  1.00  0.00     0.278 C 
ENDBRANCH   1  12
TORSDOF 1
ENDMDL
MODEL 8
REMARK VINA RESULT:    -4.334      1.339      1.648
REMARK INTER + INTRA:          -4.628
REMARK INTER:                  -4.597
REMARK INTRA:                  -0.031
REMARK UNBOUND:                -0.041
REMARK SMILES COc1ccc2ccc(=O)oc2c1
REMARK SMILES IDX 3 1 13 2 12 3 6 4 5 5 4 6 7 7 8 8 9 9 10 10 11 11 2 12 1 13
REMARK H PARENT
REMARK Flexibility Score: inf
ROOT
ATOM      1  C   UNL     1      20.541 -47.325   6.609  1.00  0.00     0.122 A 
ATOM      2  C   UNL     1      21.550 -46.449   7.031  1.00  0.00     0.094 A 
ATOM      3  C   UNL     1      21.258 -45.110   7.311  1.00  0.00     0.142 A 
ATOM      4  C   UNL     1      19.937 -44.636   7.170  1.00  0.00     0.018 A 
ATOM      5  C   UNL     1      18.924 -45.506   6.749  1.00  0.00     0.016 A 
ATOM      6  C   UNL     1      19.223 -46.843   6.470  1.00  0.00     0.047 A 
ATOM      7  C   UNL     1      19.676 -43.293   7.459  1.00  0.00     0.019 A 
ATOM      8  C   UNL     1      20.721 -42.467   7.874  1.00  0.00     0.094 A 
ATOM      9  C   UNL     1      22.006 -43.007   7.993  1.00  0.00     0.336 A 
ATOM     10  O   UNL     1      22.962 -42.278   8.367  1.00  0.00    -0.246 OA
ATOM     11  O   UNL     1      22.227 -44.288   7.712  1.00  0.00    -0.423 OA
ENDROOT
BRANCH   1  12
ATOM     12  O   UNL     1      20.886 -48.657   6.339  1.00  0.00    -0.497 OA
ATOM     13  C   UNL     1      20.374 -49.779   7.049  1.00  0.00     0.278 C 
ENDBRANCH   1  12
TORSDOF 1
ENDMDL
MODEL 9
REMARK VINA RESULT:    -4.271      1.690      4.577
REMARK INTER + INTRA:          -4.561
REMARK INTER:                  -4.518
REMARK INTRA:                  -0.043
REMARK UNBOUND:                -0.041
REMARK SMILES COc1ccc2ccc(=O)oc2c1
REMARK SMILES IDX 3 1 13 2 12 3 6 4 5 5 4 6 7 7 8 8 9 9 10 10 11 11 2 12 1 13
REMARK H PARENT
REMARK Flexibility Score: inf
ROOT
ATOM      1  C   UNL     1      21.268 -43.322   7.661  1.00  0.00     0.122 A 
ATOM      2  C   UNL     1      21.407 -44.637   8.125  1.00  0.00     0.094 A 
ATOM      3  C   UNL     1      20.301 -45.492   8.181  1.00  0.00     0.142 A 
ATOM      4  C   UNL     1      19.034 -45.028   7.766  1.00  0.00     0.018 A 
ATOM      5  C   UNL     1      18.889 -43.715   7.301  1.00  0.00     0.016 A 
ATOM      6  C   UNL     1      19.999 -42.866   7.249  1.00  0.00     0.047 A 
ATOM      7  C   UNL     1      17.948 -45.906   7.833  1.00  0.00     0.019 A 
ATOM      8  C   UNL     1      18.146 -47.204   8.304  1.00  0.00     0.094 A 
ATOM      9  C   UNL     1      19.430 -47.595   8.697  1.00  0.00     0.336 A 
ATOM     10  O   UNL     1      19.629 -48.762   9.125  1.00  0.00    -0.246 OA
ATOM     11  O   UNL     1      20.446 -46.739   8.624  1.00  0.00    -0.423 OA
ENDROOT
BRANCH   1  12
ATOM     12  O   UNL     1      22.407 -42.505   7.626  1.00  0.00    -0.497 OA
ATOM     13  C   UNL     1      23.743 -42.983   7.746  1.00  0.00     0.278 C 
ENDBRANCH   1  12
TORSDOF 1
ENDMDL
