MODEL 1
REMARK VINA RESULT:    -3.537      0.000      0.000
REMARK INTER + INTRA:          -5.256
REMARK INTER:                  -4.778
REMARK INTRA:                  -0.478
REMARK UNBOUND:                -0.478
REMARK SMILES CCCCCCCC(=O)[O-]
REMARK SMILES IDX 5 1 6 2 7 3 8 4 9 5 10 6 4 7 3 8 2 9 1 10
REMARK H PARENT
REMARK Flexibility Score: inf
ROOT
ATOM      1  C   UNL     1      11.349  72.217  46.706  1.00  0.00     0.000 C 
ENDROOT
BRANCH   1   2
ATOM      2  C   UNL     1      10.681  71.481  45.535  1.00  0.00     0.006 C 
BRANCH   2   3
ATOM      3  C   UNL     1      11.552  71.547  44.277  1.00  0.00     0.053 C 
BRANCH   3   4
ATOM      4  C   UNL     1      10.936  72.454  43.260  1.00  0.00     0.041 C 
ATOM      5  O   UNL     1      10.203  73.410  43.625  1.00  0.00    -0.550 OA
ATOM      6  O   UNL     1      11.131  72.215  41.906  1.00  0.00    -0.550 OA
ENDBRANCH   3   4
ENDBRANCH   2   3
ENDBRANCH   1   2
BRANCH   1   7
ATOM      7  C   UNL     1      12.750  72.745  46.355  1.00  0.00     0.000 C 
BRANCH   7   8
ATOM      8  C   UNL     1      12.793  74.279  46.249  1.00  0.00    -0.000 C 
BRANCH   8   9
ATOM      9  C   UNL     1      11.601  74.951  46.949  1.00  0.00    -0.003 C 
ATOM     10  C   UNL     1      10.883  75.963  46.056  1.00  0.00     0.004 C 
ENDBRANCH   8   9
ENDBRANCH   7   8
ENDBRANCH   1   7
TORSDOF 6
ENDMDL
MODEL 2
REMARK VINA RESULT:    -3.509      7.968      9.820
REMARK INTER + INTRA:          -5.218
REMARK INTER:                  -4.896
REMARK INTRA:                  -0.322
REMARK UNBOUND:                -0.478
REMARK SMILES CCCCCCCC(=O)[O-]
REMARK SMILES IDX 5 1 6 2 7 3 8 4 9 5 10 6 4 7 3 8 2 9 1 10
REMARK H PARENT
REMARK Flexibility Score: inf
ROOT
ATOM      1  C   UNL     1      10.585  80.353  38.478  1.00  0.00     0.000 C 
ENDROOT
BRANCH   1   2
ATOM      2  C   UNL     1      11.528  80.939  39.540  1.00  0.00     0.006 C 
BRANCH   2   3
ATOM      3  C   UNL     1      10.879  80.906  40.927  1.00  0.00     0.053 C 
BRANCH   3   4
ATOM      4  C   UNL     1      11.822  80.328  41.933  1.00  0.00     0.041 C 
ATOM      5  O   UNL     1      11.845  79.086  42.140  1.00  0.00    -0.550 OA
ATOM      6  O   UNL     1      12.642  81.165  42.680  1.00  0.00    -0.550 OA
ENDBRANCH   3   4
ENDBRANCH   2   3
ENDBRANCH   1   2
BRANCH   1   7
ATOM      7  C   UNL     1       9.422  79.556  39.090  1.00  0.00     0.000 C 
BRANCH   7   8
ATOM      8  C   UNL     1       9.147  78.241  38.339  1.00  0.00    -0.000 C 
BRANCH   8   9
ATOM      9  C   UNL     1       9.346  78.378  36.821  1.00  0.00    -0.003 C 
ATOM     10  C   UNL     1      10.216  77.267  36.233  1.00  0.00     0.004 C 
ENDBRANCH   8   9
ENDBRANCH   7   8
ENDBRANCH   1   7
TORSDOF 6
ENDMDL
MODEL 3
REMARK VINA RESULT:    -3.372      7.907      9.224
REMARK INTER + INTRA:          -5.033
REMARK INTER:                  -4.693
REMARK INTRA:                  -0.340
REMARK UNBOUND:                -0.478
REMARK SMILES CCCCCCCC(=O)[O-]
REMARK SMILES IDX 5 1 6 2 7 3 8 4 9 5 10 6 4 7 3 8 2 9 1 10
REMARK H PARENT
REMARK Flexibility Score: inf
ROOT
ATOM      1  C   UNL     1       9.531  79.212  38.833  1.00  0.00     0.000 C 
ENDROOT
BRANCH   1   2
ATOM      2  C   UNL     1       8.381  79.113  37.819  1.00  0.00     0.006 C 
BRANCH   2   3
ATOM      3  C   UNL     1       8.896  78.660  36.449  1.00  0.00     0.053 C 
BRANCH   3   4
ATOM      4  C   UNL     1       9.405  77.256  36.518  1.00  0.00     0.041 C 
ATOM      5  O   UNL     1      10.595  76.997  36.195  1.00  0.00    -0.550 OA
ATOM      6  O   UNL     1       8.553  76.224  36.890  1.00  0.00    -0.550 OA
ENDBRANCH   3   4
ENDBRANCH   2   3
ENDBRANCH   1   2
BRANCH   1   7
ATOM      7  C   UNL     1      10.567  80.284  38.454  1.00  0.00     0.000 C 
BRANCH   7   8
ATOM      8  C   UNL     1      11.400  80.752  39.660  1.00  0.00    -0.000 C 
BRANCH   8   9
ATOM      9  C   UNL     1      10.776  80.338  41.002  1.00  0.00    -0.003 C 
ATOM     10  C   UNL     1      11.764  79.618  41.919  1.00  0.00     0.004 C 
ENDBRANCH   8   9
ENDBRANCH   7   8
ENDBRANCH   1   7
TORSDOF 6
ENDMDL
MODEL 4
REMARK VINA RESULT:    -3.341      7.698      8.802
REMARK INTER + INTRA:          -4.991
REMARK INTER:                  -4.795
REMARK INTRA:                  -0.196
REMARK UNBOUND:                -0.478
REMARK SMILES CCCCCCCC(=O)[O-]
REMARK SMILES IDX 5 1 6 2 7 3 8 4 9 5 10 6 4 7 3 8 2 9 1 10
REMARK H PARENT
REMARK Flexibility Score: inf
ROOT
ATOM      1  C   UNL     1       4.124  75.706  38.910  1.00  0.00     0.000 C 
ENDROOT
BRANCH   1   2
ATOM      2  C   UNL     1       4.296  74.197  39.140  1.00  0.00     0.006 C 
BRANCH   2   3
ATOM      3  C   UNL     1       5.486  73.915  40.061  1.00  0.00     0.053 C 
BRANCH   3   4
ATOM      4  C   UNL     1       5.973  72.514  39.875  1.00  0.00     0.041 C 
ATOM      5  O   UNL     1       7.205  72.282  39.751  1.00  0.00    -0.550 OA
ATOM      6  O   UNL     1       5.065  71.467  39.788  1.00  0.00    -0.550 OA
ENDBRANCH   3   4
ENDBRANCH   2   3
ENDBRANCH   1   2
BRANCH   1   7
ATOM      7  C   UNL     1       5.347  76.520  39.364  1.00  0.00     0.000 C 
BRANCH   7   8
ATOM      8  C   UNL     1       5.087  78.037  39.344  1.00  0.00    -0.000 C 
BRANCH   8   9
ATOM      9  C   UNL     1       5.854  78.779  40.450  1.00  0.00    -0.003 C 
ATOM     10  C   UNL     1       4.931  79.412  41.491  1.00  0.00     0.004 C 
ENDBRANCH   8   9
ENDBRANCH   7   8
ENDBRANCH   1   7
TORSDOF 6
ENDMDL
MODEL 5
REMARK VINA RESULT:    -3.314      7.779      8.708
REMARK INTER + INTRA:          -4.954
REMARK INTER:                  -4.626
REMARK INTRA:                  -0.328
REMARK UNBOUND:                -0.478
REMARK SMILES CCCCCCCC(=O)[O-]
REMARK SMILES IDX 5 1 6 2 7 3 8 4 9 5 10 6 4 7 3 8 2 9 1 10
REMARK H PARENT
REMARK Flexibility Score: inf
ROOT
ATOM      1  C   UNL     1       8.802  81.311  44.163  1.00  0.00     0.000 C 
ENDROOT
BRANCH   1   2
ATOM      2  C   UNL     1      10.003  80.585  44.789  1.00  0.00     0.006 C 
BRANCH   2   3
ATOM      3  C   UNL     1      11.297  81.374  44.565  1.00  0.00     0.053 C 
BRANCH   3   4
ATOM      4  C   UNL     1      11.764  81.225  43.151  1.00  0.00     0.041 C 
ATOM      5  O   UNL     1      11.948  80.079  42.662  1.00  0.00    -0.550 OA
ATOM      6  O   UNL     1      12.042  82.351  42.388  1.00  0.00    -0.550 OA
ENDBRANCH   3   4
ENDBRANCH   2   3
ENDBRANCH   1   2
BRANCH   1   7
ATOM      7  C   UNL     1       7.463  80.898  44.795  1.00  0.00     0.000 C 
BRANCH   7   8
ATOM      8  C   UNL     1       7.428  81.140  46.315  1.00  0.00    -0.000 C 
BRANCH   8   9
ATOM      9  C   UNL     1       7.020  79.883  47.100  1.00  0.00    -0.003 C 
ATOM     10  C   UNL     1       5.952  79.056  46.385  1.00  0.00     0.004 C 
ENDBRANCH   8   9
ENDBRANCH   7   8
ENDBRANCH   1   7
TORSDOF 6
ENDMDL
MODEL 6
REMARK VINA RESULT:    -3.285      7.697      9.399
REMARK INTER + INTRA:          -4.915
REMARK INTER:                  -4.606
REMARK INTRA:                  -0.309
REMARK UNBOUND:                -0.478
REMARK SMILES CCCCCCCC(=O)[O-]
REMARK SMILES IDX 5 1 6 2 7 3 8 4 9 5 10 6 4 7 3 8 2 9 1 10
REMARK H PARENT
REMARK Flexibility Score: inf
ROOT
ATOM      1  C   UNL     1      10.703  79.998  40.995  1.00  0.00     0.000 C 
ENDROOT
BRANCH   1   2
ATOM      2  C   UNL     1      11.748  79.636  42.061  1.00  0.00     0.006 C 
BRANCH   2   3
ATOM      3  C   UNL     1      12.136  80.865  42.889  1.00  0.00     0.053 C 
BRANCH   3   4
ATOM      4  C   UNL     1      11.071  81.181  43.890  1.00  0.00     0.041 C 
ATOM      5  O   UNL     1      10.527  82.317  43.899  1.00  0.00    -0.550 OA
ATOM      6  O   UNL     1      10.713  80.239  44.846  1.00  0.00    -0.550 OA
ENDBRANCH   3   4
ENDBRANCH   2   3
ENDBRANCH   1   2
BRANCH   1   7
ATOM      7  C   UNL     1      11.268  80.912  39.896  1.00  0.00     0.000 C 
BRANCH   7   8
ATOM      8  C   UNL     1      10.794  80.507  38.489  1.00  0.00    -0.000 C 
BRANCH   8   9
ATOM      9  C   UNL     1       9.688  79.440  38.527  1.00  0.00    -0.003 C 
ATOM     10  C   UNL     1       9.765  78.464  37.353  1.00  0.00     0.004 C 
ENDBRANCH   8   9
ENDBRANCH   7   8
ENDBRANCH   1   7
TORSDOF 6
ENDMDL
MODEL 7
REMARK VINA RESULT:    -3.266      9.486     10.311
REMARK INTER + INTRA:          -4.890
REMARK INTER:                  -4.573
REMARK INTRA:                  -0.317
REMARK UNBOUND:                -0.478
REMARK SMILES CCCCCCCC(=O)[O-]
REMARK SMILES IDX 5 1 6 2 7 3 8 4 9 5 10 6 4 7 3 8 2 9 1 10
REMARK H PARENT
REMARK Flexibility Score: inf
ROOT
ATOM      1  C   UNL     1       6.083  79.254  37.577  1.00  0.00     0.000 C 
ENDROOT
BRANCH   1   2
ATOM      2  C   UNL     1       7.514  79.694  37.231  1.00  0.00     0.006 C 
BRANCH   2   3
ATOM      3  C   UNL     1       8.235  78.619  36.412  1.00  0.00     0.053 C 
BRANCH   3   4
ATOM      4  C   UNL     1       9.595  78.355  36.975  1.00  0.00     0.041 C 
ATOM      5  O   UNL     1      10.223  77.312  36.652  1.00  0.00    -0.550 OA
ATOM      6  O   UNL     1      10.150  79.235  37.894  1.00  0.00    -0.550 OA
ENDBRANCH   3   4
ENDBRANCH   2   3
ENDBRANCH   1   2
BRANCH   1   7
ATOM      7  C   UNL     1       6.024  77.838  38.172  1.00  0.00     0.000 C 
BRANCH   7   8
ATOM      8  C   UNL     1       5.316  77.802  39.539  1.00  0.00    -0.000 C 
BRANCH   8   9
ATOM      9  C   UNL     1       4.911  79.201  40.028  1.00  0.00    -0.003 C 
ATOM     10  C   UNL     1       5.227  79.427  41.507  1.00  0.00     0.004 C 
ENDBRANCH   8   9
ENDBRANCH   7   8
ENDBRANCH   1   7
TORSDOF 6
ENDMDL
MODEL 8
REMARK VINA RESULT:    -3.242      9.285     10.500
REMARK INTER + INTRA:          -4.857
REMARK INTER:                  -4.345
REMARK INTRA:                  -0.512
REMARK UNBOUND:                -0.478
REMARK SMILES CCCCCCCC(=O)[O-]
REMARK SMILES IDX 5 1 6 2 7 3 8 4 9 5 10 6 4 7 3 8 2 9 1 10
REMARK H PARENT
REMARK Flexibility Score: inf
ROOT
ATOM      1  C   UNL     1       7.499  79.165  36.286  1.00  0.00     0.000 C 
ENDROOT
BRANCH   1   2
ATOM      2  C   UNL     1       8.268  77.932  36.785  1.00  0.00     0.006 C 
BRANCH   2   3
ATOM      3  C   UNL     1       9.738  78.273  37.050  1.00  0.00     0.053 C 
BRANCH   3   4
ATOM      4  C   UNL     1       9.865  79.138  38.264  1.00  0.00     0.041 C 
ATOM      5  O   UNL     1      10.502  80.222  38.206  1.00  0.00    -0.550 OA
ATOM      6  O   UNL     1       9.322  78.723  39.473  1.00  0.00    -0.550 OA
ENDBRANCH   3   4
ENDBRANCH   2   3
ENDBRANCH   1   2
BRANCH   1   7
ATOM      7  C   UNL     1       6.108  79.297  36.926  1.00  0.00     0.000 C 
BRANCH   7   8
ATOM      8  C   UNL     1       6.155  79.982  38.304  1.00  0.00    -0.000 C 
BRANCH   8   9
ATOM      9  C   UNL     1       5.206  79.325  39.318  1.00  0.00    -0.003 C 
ATOM     10  C   UNL     1       5.547  77.859  39.588  1.00  0.00     0.004 C 
ENDBRANCH   8   9
ENDBRANCH   7   8
ENDBRANCH   1   7
TORSDOF 6
ENDMDL
MODEL 9
REMARK VINA RESULT:    -3.203      9.182     10.555
REMARK INTER + INTRA:          -4.805
REMARK INTER:                  -4.356
REMARK INTRA:                  -0.449
REMARK UNBOUND:                -0.478
REMARK SMILES CCCCCCCC(=O)[O-]
REMARK SMILES IDX 5 1 6 2 7 3 8 4 9 5 10 6 4 7 3 8 2 9 1 10
REMARK H PARENT
REMARK Flexibility Score: inf
ROOT
ATOM      1  C   UNL     1       5.799  79.688  37.421  1.00  0.00     0.000 C 
ENDROOT
BRANCH   1   2
ATOM      2  C   UNL     1       6.315  79.680  38.868  1.00  0.00     0.006 C 
BRANCH   2   3
ATOM      3  C   UNL     1       5.379  78.882  39.780  1.00  0.00     0.053 C 
BRANCH   3   4
ATOM      4  C   UNL     1       5.594  77.413  39.596  1.00  0.00     0.041 C 
ATOM      5  O   UNL     1       6.737  76.913  39.770  1.00  0.00    -0.550 OA
ATOM      6  O   UNL     1       4.544  76.602  39.183  1.00  0.00    -0.550 OA
ENDBRANCH   3   4
ENDBRANCH   2   3
ENDBRANCH   1   2
BRANCH   1   7
ATOM      7  C   UNL     1       6.835  79.158  36.417  1.00  0.00     0.000 C 
BRANCH   7   8
ATOM      8  C   UNL     1       8.206  78.899  37.065  1.00  0.00    -0.000 C 
BRANCH   8   9
ATOM      9  C   UNL     1       8.743  77.491  36.762  1.00  0.00    -0.003 C 
ATOM     10  C   UNL     1      10.106  77.511  36.070  1.00  0.00     0.004 C 
ENDBRANCH   8   9
ENDBRANCH   7   8
ENDBRANCH   1   7
TORSDOF 6
ENDMDL
