MODEL 1
REMARK VINA RESULT:    -4.054      0.000      0.000
REMARK INTER + INTRA:          -5.895
REMARK INTER:                  -5.476
REMARK INTRA:                  -0.419
REMARK UNBOUND:                -0.419
REMARK SMILES CCCCCCCC(=O)[O-]
REMARK SMILES IDX 5 1 6 2 7 3 8 4 9 5 10 6 4 7 3 8 2 9 1 10
REMARK H PARENT
REMARK Flexibility Score: inf
ROOT
ATOM      1  C   UNL     1      26.719  35.410  33.898  1.00  0.00     0.000 C 
ENDROOT
BRANCH   1   2
ATOM      2  C   UNL     1      26.888  33.913  34.219  1.00  0.00     0.006 C 
BRANCH   2   3
ATOM      3  C   UNL     1      25.574  33.186  34.542  1.00  0.00     0.053 C 
BRANCH   3   4
ATOM      4  C   UNL     1      25.402  32.963  36.013  1.00  0.00     0.041 C 
ATOM      5  O   UNL     1      24.464  33.528  36.634  1.00  0.00    -0.550 OA
ATOM      6  O   UNL     1      26.258  32.105  36.692  1.00  0.00    -0.550 OA
ENDBRANCH   3   4
ENDBRANCH   2   3
ENDBRANCH   1   2
BRANCH   1   7
ATOM      7  C   UNL     1      26.769  35.703  32.389  1.00  0.00     0.000 C 
BRANCH   7   8
ATOM      8  C   UNL     1      27.711  34.752  31.627  1.00  0.00    -0.000 C 
BRANCH   8   9
ATOM      9  C   UNL     1      27.048  33.974  30.478  1.00  0.00    -0.003 C 
ATOM     10  C   UNL     1      25.578  34.337  30.278  1.00  0.00     0.004 C 
ENDBRANCH   8   9
ENDBRANCH   7   8
ENDBRANCH   1   7
TORSDOF 6
ENDMDL
MODEL 2
REMARK VINA RESULT:    -4.015      1.054      1.517
REMARK INTER + INTRA:          -5.842
REMARK INTER:                  -5.385
REMARK INTRA:                  -0.456
REMARK UNBOUND:                -0.419
REMARK SMILES CCCCCCCC(=O)[O-]
REMARK SMILES IDX 5 1 6 2 7 3 8 4 9 5 10 6 4 7 3 8 2 9 1 10
REMARK H PARENT
REMARK Flexibility Score: inf
ROOT
ATOM      1  C   UNL     1      27.013  35.695  32.636  1.00  0.00     0.000 C 
ENDROOT
BRANCH   1   2
ATOM      2  C   UNL     1      26.595  35.259  34.053  1.00  0.00     0.006 C 
BRANCH   2   3
ATOM      3  C   UNL     1      27.036  33.836  34.429  1.00  0.00     0.053 C 
BRANCH   3   4
ATOM      4  C   UNL     1      25.880  32.985  34.857  1.00  0.00     0.041 C 
ATOM      5  O   UNL     1      25.051  32.568  34.006  1.00  0.00    -0.550 OA
ATOM      6  O   UNL     1      25.738  32.624  36.191  1.00  0.00    -0.550 OA
ENDBRANCH   3   4
ENDBRANCH   2   3
ENDBRANCH   1   2
BRANCH   1   7
ATOM      7  C   UNL     1      27.968  34.693  31.964  1.00  0.00     0.000 C 
BRANCH   7   8
ATOM      8  C   UNL     1      27.375  34.068  30.688  1.00  0.00    -0.000 C 
BRANCH   8   9
ATOM      9  C   UNL     1      25.878  33.725  30.775  1.00  0.00    -0.003 C 
ATOM     10  C   UNL     1      25.031  34.469  29.743  1.00  0.00     0.004 C 
ENDBRANCH   8   9
ENDBRANCH   7   8
ENDBRANCH   1   7
TORSDOF 6
ENDMDL
MODEL 3
REMARK VINA RESULT:    -3.993      2.824      4.494
REMARK INTER + INTRA:          -5.812
REMARK INTER:                  -5.394
REMARK INTRA:                  -0.418
REMARK UNBOUND:                -0.419
REMARK SMILES CCCCCCCC(=O)[O-]
REMARK SMILES IDX 5 1 6 2 7 3 8 4 9 5 10 6 4 7 3 8 2 9 1 10
REMARK H PARENT
REMARK Flexibility Score: inf
ROOT
ATOM      1  C   UNL     1      27.131  35.534  32.724  1.00  0.00     0.000 C 
ENDROOT
BRANCH   1   2
ATOM      2  C   UNL     1      27.907  34.411  32.010  1.00  0.00     0.006 C 
BRANCH   2   3
ATOM      3  C   UNL     1      27.389  34.087  30.600  1.00  0.00     0.053 C 
BRANCH   3   4
ATOM      4  C   UNL     1      25.905  33.884  30.581  1.00  0.00     0.041 C 
ATOM      5  O   UNL     1      25.201  34.445  29.700  1.00  0.00    -0.550 OA
ATOM      6  O   UNL     1      25.303  33.049  31.514  1.00  0.00    -0.550 OA
ENDBRANCH   3   4
ENDBRANCH   2   3
ENDBRANCH   1   2
BRANCH   1   7
ATOM      7  C   UNL     1      26.599  35.104  34.102  1.00  0.00     0.000 C 
BRANCH   7   8
ATOM      8  C   UNL     1      27.053  33.689  34.502  1.00  0.00    -0.000 C 
BRANCH   8   9
ATOM      9  C   UNL     1      25.946  32.802  35.098  1.00  0.00    -0.003 C 
ATOM     10  C   UNL     1      24.709  33.593  35.523  1.00  0.00     0.004 C 
ENDBRANCH   8   9
ENDBRANCH   7   8
ENDBRANCH   1   7
TORSDOF 6
ENDMDL
MODEL 4
REMARK VINA RESULT:    -3.988      2.862      4.871
REMARK INTER + INTRA:          -5.805
REMARK INTER:                  -5.312
REMARK INTRA:                  -0.493
REMARK UNBOUND:                -0.419
REMARK SMILES CCCCCCCC(=O)[O-]
REMARK SMILES IDX 5 1 6 2 7 3 8 4 9 5 10 6 4 7 3 8 2 9 1 10
REMARK H PARENT
REMARK Flexibility Score: inf
ROOT
ATOM      1  C   UNL     1      27.715  34.040  34.002  1.00  0.00     0.000 C 
ENDROOT
BRANCH   1   2
ATOM      2  C   UNL     1      26.836  35.207  33.517  1.00  0.00     0.006 C 
BRANCH   2   3
ATOM      3  C   UNL     1      26.996  35.538  32.026  1.00  0.00     0.053 C 
BRANCH   3   4
ATOM      4  C   UNL     1      26.840  34.324  31.161  1.00  0.00     0.041 C 
ATOM      5  O   UNL     1      27.809  33.906  30.475  1.00  0.00    -0.550 OA
ATOM      6  O   UNL     1      25.633  33.636  31.139  1.00  0.00    -0.550 OA
ENDBRANCH   3   4
ENDBRANCH   2   3
ENDBRANCH   1   2
BRANCH   1   7
ATOM      7  C   UNL     1      26.962  33.077  34.938  1.00  0.00     0.000 C 
BRANCH   7   8
ATOM      8  C   UNL     1      25.476  32.927  34.568  1.00  0.00    -0.000 C 
BRANCH   8   9
ATOM      9  C   UNL     1      24.492  33.322  35.683  1.00  0.00    -0.003 C 
ATOM     10  C   UNL     1      25.169  34.023  36.859  1.00  0.00     0.004 C 
ENDBRANCH   8   9
ENDBRANCH   7   8
ENDBRANCH   1   7
TORSDOF 6
ENDMDL
MODEL 5
REMARK VINA RESULT:    -3.728      1.225      1.529
REMARK INTER + INTRA:          -5.455
REMARK INTER:                  -5.147
REMARK INTRA:                  -0.308
REMARK UNBOUND:                -0.419
REMARK SMILES CCCCCCCC(=O)[O-]
REMARK SMILES IDX 5 1 6 2 7 3 8 4 9 5 10 6 4 7 3 8 2 9 1 10
REMARK H PARENT
REMARK Flexibility Score: inf
ROOT
ATOM      1  C   UNL     1      26.626  35.031  34.124  1.00  0.00     0.000 C 
ENDROOT
BRANCH   1   2
ATOM      2  C   UNL     1      26.057  33.600  34.115  1.00  0.00     0.006 C 
BRANCH   2   3
ATOM      3  C   UNL     1      25.889  32.980  35.511  1.00  0.00     0.053 C 
BRANCH   3   4
ATOM      4  C   UNL     1      26.985  32.009  35.830  1.00  0.00     0.041 C 
ATOM      5  O   UNL     1      26.818  31.139  36.725  1.00  0.00    -0.550 OA
ATOM      6  O   UNL     1      28.176  32.045  35.116  1.00  0.00    -0.550 OA
ENDBRANCH   3   4
ENDBRANCH   2   3
ENDBRANCH   1   2
BRANCH   1   7
ATOM      7  C   UNL     1      26.756  35.628  32.712  1.00  0.00     0.000 C 
BRANCH   7   8
ATOM      8  C   UNL     1      27.840  34.932  31.868  1.00  0.00    -0.000 C 
BRANCH   8   9
ATOM      9  C   UNL     1      27.302  34.059  30.722  1.00  0.00    -0.003 C 
ATOM     10  C   UNL     1      25.851  34.373  30.360  1.00  0.00     0.004 C 
ENDBRANCH   8   9
ENDBRANCH   7   8
ENDBRANCH   1   7
TORSDOF 6
ENDMDL
MODEL 6
REMARK VINA RESULT:    -3.587      3.039      5.156
REMARK INTER + INTRA:          -5.263
REMARK INTER:                  -4.973
REMARK INTRA:                  -0.291
REMARK UNBOUND:                -0.419
REMARK SMILES CCCCCCCC(=O)[O-]
REMARK SMILES IDX 5 1 6 2 7 3 8 4 9 5 10 6 4 7 3 8 2 9 1 10
REMARK H PARENT
REMARK Flexibility Score: inf
ROOT
ATOM      1  C   UNL     1      26.097  33.990  34.128  1.00  0.00     0.000 C 
ENDROOT
BRANCH   1   2
ATOM      2  C   UNL     1      27.134  35.025  33.656  1.00  0.00     0.006 C 
BRANCH   2   3
ATOM      3  C   UNL     1      26.812  35.662  32.296  1.00  0.00     0.053 C 
BRANCH   3   4
ATOM      4  C   UNL     1      26.781  34.648  31.193  1.00  0.00     0.041 C 
ATOM      5  O   UNL     1      25.772  34.555  30.447  1.00  0.00    -0.550 OA
ATOM      6  O   UNL     1      27.880  33.828  30.970  1.00  0.00    -0.550 OA
ENDBRANCH   3   4
ENDBRANCH   2   3
ENDBRANCH   1   2
BRANCH   1   7
ATOM      7  C   UNL     1      25.457  34.363  35.477  1.00  0.00     0.000 C 
BRANCH   7   8
ATOM      8  C   UNL     1      25.277  33.151  36.408  1.00  0.00    -0.000 C 
BRANCH   8   9
ATOM      9  C   UNL     1      26.560  32.691  37.121  1.00  0.00    -0.003 C 
ATOM     10  C   UNL     1      27.084  31.351  36.607  1.00  0.00     0.004 C 
ENDBRANCH   8   9
ENDBRANCH   7   8
ENDBRANCH   1   7
TORSDOF 6
ENDMDL
MODEL 7
REMARK VINA RESULT:    -3.583      3.260      4.953
REMARK INTER + INTRA:          -5.258
REMARK INTER:                  -4.817
REMARK INTRA:                  -0.442
REMARK UNBOUND:                -0.419
REMARK SMILES CCCCCCCC(=O)[O-]
REMARK SMILES IDX 5 1 6 2 7 3 8 4 9 5 10 6 4 7 3 8 2 9 1 10
REMARK H PARENT
REMARK Flexibility Score: inf
ROOT
ATOM      1  C   UNL     1      26.324  34.228  34.124  1.00  0.00     0.000 C 
ENDROOT
BRANCH   1   2
ATOM      2  C   UNL     1      27.030  35.363  33.361  1.00  0.00     0.006 C 
BRANCH   2   3
ATOM      3  C   UNL     1      26.668  35.440  31.870  1.00  0.00     0.053 C 
BRANCH   3   4
ATOM      4  C   UNL     1      26.929  34.146  31.162  1.00  0.00     0.041 C 
ATOM      5  O   UNL     1      28.107  33.720  31.033  1.00  0.00    -0.550 OA
ATOM      6  O   UNL     1      25.868  33.393  30.672  1.00  0.00    -0.550 OA
ENDBRANCH   3   4
ENDBRANCH   2   3
ENDBRANCH   1   2
BRANCH   1   7
ATOM      7  C   UNL     1      27.293  33.396  34.982  1.00  0.00     0.000 C 
BRANCH   7   8
ATOM      8  C   UNL     1      28.755  33.512  34.513  1.00  0.00    -0.000 C 
BRANCH   8   9
ATOM      9  C   UNL     1      29.798  33.479  35.643  1.00  0.00    -0.003 C 
ATOM     10  C   UNL     1      29.185  33.213  37.016  1.00  0.00     0.004 C 
ENDBRANCH   8   9
ENDBRANCH   7   8
ENDBRANCH   1   7
TORSDOF 6
ENDMDL
MODEL 8
REMARK VINA RESULT:    -3.545      1.267      1.888
REMARK INTER + INTRA:          -5.208
REMARK INTER:                  -4.915
REMARK INTRA:                  -0.292
REMARK UNBOUND:                -0.419
REMARK SMILES CCCCCCCC(=O)[O-]
REMARK SMILES IDX 5 1 6 2 7 3 8 4 9 5 10 6 4 7 3 8 2 9 1 10
REMARK H PARENT
REMARK Flexibility Score: inf
ROOT
ATOM      1  C   UNL     1      25.864  33.824  34.262  1.00  0.00     0.000 C 
ENDROOT
BRANCH   1   2
ATOM      2  C   UNL     1      25.428  34.283  35.666  1.00  0.00     0.006 C 
BRANCH   2   3
ATOM      3  C   UNL     1      25.363  33.153  36.705  1.00  0.00     0.053 C 
BRANCH   3   4
ATOM      4  C   UNL     1      26.690  32.482  36.890  1.00  0.00     0.041 C 
ATOM      5  O   UNL     1      26.784  31.230  36.804  1.00  0.00    -0.550 OA
ATOM      6  O   UNL     1      27.828  33.244  37.124  1.00  0.00    -0.550 OA
ENDBRANCH   3   4
ENDBRANCH   2   3
ENDBRANCH   1   2
BRANCH   1   7
ATOM      7  C   UNL     1      27.110  34.571  33.754  1.00  0.00     0.000 C 
BRANCH   7   8
ATOM      8  C   UNL     1      26.849  35.351  32.453  1.00  0.00    -0.000 C 
BRANCH   8   9
ATOM      9  C   UNL     1      27.069  34.542  31.163  1.00  0.00    -0.003 C 
ATOM     10  C   UNL     1      25.776  34.284  30.390  1.00  0.00     0.004 C 
ENDBRANCH   8   9
ENDBRANCH   7   8
ENDBRANCH   1   7
TORSDOF 6
ENDMDL
MODEL 9
REMARK VINA RESULT:    -3.097      2.795      3.713
REMARK INTER + INTRA:          -4.602
REMARK INTER:                  -4.252
REMARK INTRA:                  -0.349
REMARK UNBOUND:                -0.419
REMARK SMILES CCCCCCCC(=O)[O-]
REMARK SMILES IDX 5 1 6 2 7 3 8 4 9 5 10 6 4 7 3 8 2 9 1 10
REMARK H PARENT
REMARK Flexibility Score: inf
ROOT
ATOM      1  C   UNL     1      27.344  33.549  35.065  1.00  0.00     0.000 C 
ENDROOT
BRANCH   1   2
ATOM      2  C   UNL     1      28.782  33.558  34.516  1.00  0.00     0.006 C 
BRANCH   2   3
ATOM      3  C   UNL     1      29.770  32.702  35.324  1.00  0.00     0.053 C 
BRANCH   3   4
ATOM      4  C   UNL     1      29.956  31.343  34.723  1.00  0.00     0.041 C 
ATOM      5  O   UNL     1      30.943  31.110  33.977  1.00  0.00    -0.550 OA
ATOM      6  O   UNL     1      29.058  30.323  35.014  1.00  0.00    -0.550 OA
ENDBRANCH   3   4
ENDBRANCH   2   3
ENDBRANCH   1   2
BRANCH   1   7
ATOM      7  C   UNL     1      26.351  34.275  34.140  1.00  0.00     0.000 C 
BRANCH   7   8
ATOM      8  C   UNL     1      27.014  35.390  33.311  1.00  0.00    -0.000 C 
BRANCH   8   9
ATOM      9  C   UNL     1      26.711  35.338  31.804  1.00  0.00    -0.003 C 
ATOM     10  C   UNL     1      27.371  34.153  31.100  1.00  0.00     0.004 C 
ENDBRANCH   8   9
ENDBRANCH   7   8
ENDBRANCH   1   7
TORSDOF 6
ENDMDL
