MODEL 1
REMARK VINA RESULT:    -3.627      0.000      0.000
REMARK INTER + INTRA:          -4.603
REMARK INTER:                  -4.370
REMARK INTRA:                  -0.233
REMARK UNBOUND:                -0.233
REMARK SMILES NC(=O)C[C@H]([NH3+])C(=O)[O-]
REMARK SMILES IDX 4 1 5 2 6 3 7 7 8 8 9 9 2 10 3 11 1 12
REMARK H PARENT 6 4 6 5 6 6 1 13 1 14
REMARK Flexibility Score: inf
ROOT
ATOM      1  C   UNL     1    -139.629  41.297  88.066  1.00  0.00     0.171 C 
ENDROOT
BRANCH   1   2
ATOM      2  C   UNL     1    -140.941  42.042  88.386  1.00  0.00     0.237 C 
BRANCH   2   3
ATOM      3  N   UNL     1    -141.731  41.288  89.366  1.00  0.00    -0.350 N 
ATOM      4  H   UNL     1    -142.028  40.374  88.955  1.00  0.00     0.345 HD
ATOM      5  H   UNL     1    -142.580  41.828  89.651  1.00  0.00     0.345 HD
ATOM      6  H   UNL     1    -141.149  41.090  90.214  1.00  0.00     0.345 HD
ENDBRANCH   2   3
BRANCH   2   7
ATOM      7  C   UNL     1    -141.749  42.268  87.134  1.00  0.00     0.100 C 
ATOM      8  O   UNL     1    -142.492  43.281  87.036  1.00  0.00    -0.544 OA
ATOM      9  O   UNL     1    -141.670  41.371  86.076  1.00  0.00    -0.544 OA
ENDBRANCH   2   7
ENDBRANCH   1   2
BRANCH   1  10
ATOM     10  C   UNL     1    -138.715  41.251  89.258  1.00  0.00     0.223 C 
ATOM     11  O   UNL     1    -138.724  40.242  90.014  1.00  0.00    -0.275 OA
ATOM     12  N   UNL     1    -137.865  42.357  89.564  1.00  0.00    -0.369 N 
ATOM     13  H   UNL     1    -137.242  42.327  90.401  1.00  0.00     0.159 HD
ATOM     14  H   UNL     1    -137.859  43.208  88.959  1.00  0.00     0.159 HD
ENDBRANCH   1  10
TORSDOF 4
ENDMDL
MODEL 2
REMARK VINA RESULT:    -3.608      2.530      3.290
REMARK INTER + INTRA:          -4.580
REMARK INTER:                  -4.338
REMARK INTRA:                  -0.242
REMARK UNBOUND:                -0.233
REMARK SMILES NC(=O)C[C@H]([NH3+])C(=O)[O-]
REMARK SMILES IDX 4 1 5 2 6 3 7 7 8 8 9 9 2 10 3 11 1 12
REMARK H PARENT 6 4 6 5 6 6 1 13 1 14
REMARK Flexibility Score: inf
ROOT
ATOM      1  C   UNL     1    -138.241  40.490  87.862  1.00  0.00     0.171 C 
ENDROOT
BRANCH   1   2
ATOM      2  C   UNL     1    -138.927  41.736  88.457  1.00  0.00     0.237 C 
BRANCH   2   3
ATOM      3  N   UNL     1    -138.238  42.165  89.680  1.00  0.00    -0.350 N 
ATOM      4  H   UNL     1    -137.567  42.935  89.457  1.00  0.00     0.345 HD
ATOM      5  H   UNL     1    -137.714  41.367  90.108  1.00  0.00     0.345 HD
ATOM      6  H   UNL     1    -138.935  42.529  90.371  1.00  0.00     0.345 HD
ENDBRANCH   2   3
BRANCH   2   7
ATOM      7  C   UNL     1    -140.380  41.462  88.751  1.00  0.00     0.100 C 
ATOM      8  O   UNL     1    -140.725  41.025  89.881  1.00  0.00    -0.544 OA
ATOM      9  O   UNL     1    -141.348  41.700  87.783  1.00  0.00    -0.544 OA
ENDBRANCH   2   7
ENDBRANCH   1   2
BRANCH   1  10
ATOM     10  C   UNL     1    -138.275  40.504  86.360  1.00  0.00     0.223 C 
ATOM     11  O   UNL     1    -137.267  40.897  85.715  1.00  0.00    -0.275 OA
ATOM     12  N   UNL     1    -139.456  40.113  85.658  1.00  0.00    -0.369 N 
ATOM     13  H   UNL     1    -139.482  40.138  84.615  1.00  0.00     0.159 HD
ATOM     14  H   UNL     1    -140.308  39.804  86.177  1.00  0.00     0.159 HD
ENDBRANCH   1  10
TORSDOF 4
ENDMDL
MODEL 3
REMARK VINA RESULT:    -3.474      2.482      3.531
REMARK INTER + INTRA:          -4.418
REMARK INTER:                  -4.139
REMARK INTRA:                  -0.280
REMARK UNBOUND:                -0.233
REMARK SMILES NC(=O)C[C@H]([NH3+])C(=O)[O-]
REMARK SMILES IDX 4 1 5 2 6 3 7 7 8 8 9 9 2 10 3 11 1 12
REMARK H PARENT 6 4 6 5 6 6 1 13 1 14
REMARK Flexibility Score: inf
ROOT
ATOM      1  C   UNL     1    -139.583  41.275  88.191  1.00  0.00     0.171 C 
ENDROOT
BRANCH   1   2
ATOM      2  C   UNL     1    -138.114  41.711  88.365  1.00  0.00     0.237 C 
BRANCH   2   3
ATOM      3  N   UNL     1    -137.941  42.431  89.632  1.00  0.00    -0.350 N 
ATOM      4  H   UNL     1    -138.870  42.578  90.087  1.00  0.00     0.345 HD
ATOM      5  H   UNL     1    -137.488  43.360  89.470  1.00  0.00     0.345 HD
ATOM      6  H   UNL     1    -137.345  41.867  90.283  1.00  0.00     0.345 HD
ENDBRANCH   2   3
BRANCH   2   7
ATOM      7  C   UNL     1    -137.669  42.574  87.214  1.00  0.00     0.100 C 
ATOM      8  O   UNL     1    -137.462  42.062  86.082  1.00  0.00    -0.544 OA
ATOM      9  O   UNL     1    -137.497  43.942  87.388  1.00  0.00    -0.544 OA
ENDBRANCH   2   7
ENDBRANCH   1   2
BRANCH   1  10
ATOM     10  C   UNL     1    -140.130  40.660  89.447  1.00  0.00     0.223 C 
ATOM     11  O   UNL     1    -139.412  39.876  90.124  1.00  0.00    -0.275 OA
ATOM     12  N   UNL     1    -141.471  40.925  89.860  1.00  0.00    -0.369 N 
ATOM     13  H   UNL     1    -141.853  40.483  90.726  1.00  0.00     0.159 HD
ATOM     14  H   UNL     1    -142.087  41.557  89.301  1.00  0.00     0.159 HD
ENDBRANCH   1  10
TORSDOF 4
ENDMDL
MODEL 4
REMARK VINA RESULT:    -3.457      1.655      2.029
REMARK INTER + INTRA:          -4.398
REMARK INTER:                  -3.934
REMARK INTRA:                  -0.464
REMARK UNBOUND:                -0.233
REMARK SMILES NC(=O)C[C@H]([NH3+])C(=O)[O-]
REMARK SMILES IDX 4 1 5 2 6 3 7 7 8 8 9 9 2 10 3 11 1 12
REMARK H PARENT 6 4 6 5 6 6 1 13 1 14
REMARK Flexibility Score: inf
ROOT
ATOM      1  C   UNL     1    -138.926  41.893  88.843  1.00  0.00     0.171 C 
ENDROOT
BRANCH   1   2
ATOM      2  C   UNL     1    -140.374  41.723  89.345  1.00  0.00     0.237 C 
BRANCH   2   3
ATOM      3  N   UNL     1    -140.655  40.311  89.630  1.00  0.00    -0.350 N 
ATOM      4  H   UNL     1    -139.769  39.817  89.883  1.00  0.00     0.345 HD
ATOM      5  H   UNL     1    -141.082  39.844  88.797  1.00  0.00     0.345 HD
ATOM      6  H   UNL     1    -141.313  40.237  90.441  1.00  0.00     0.345 HD
ENDBRANCH   2   3
BRANCH   2   7
ATOM      7  C   UNL     1    -141.359  42.253  88.335  1.00  0.00     0.100 C 
ATOM      8  O   UNL     1    -141.508  41.668  87.229  1.00  0.00    -0.544 OA
ATOM      9  O   UNL     1    -142.119  43.381  88.621  1.00  0.00    -0.544 OA
ENDBRANCH   2   7
ENDBRANCH   1   2
BRANCH   1  10
ATOM     10  C   UNL     1    -138.394  40.620  88.248  1.00  0.00     0.223 C 
ATOM     11  O   UNL     1    -137.643  39.876  88.933  1.00  0.00    -0.275 OA
ATOM     12  N   UNL     1    -138.701  40.267  86.899  1.00  0.00    -0.369 N 
ATOM     13  H   UNL     1    -138.317  39.389  86.484  1.00  0.00     0.159 HD
ATOM     14  H   UNL     1    -139.306  40.882  86.310  1.00  0.00     0.159 HD
ENDBRANCH   1  10
TORSDOF 4
ENDMDL
MODEL 5
REMARK VINA RESULT:    -3.445      1.664      2.146
REMARK INTER + INTRA:          -4.384
REMARK INTER:                  -4.097
REMARK INTRA:                  -0.286
REMARK UNBOUND:                -0.233
REMARK SMILES NC(=O)C[C@H]([NH3+])C(=O)[O-]
REMARK SMILES IDX 4 1 5 2 6 3 7 7 8 8 9 9 2 10 3 11 1 12
REMARK H PARENT 6 4 6 5 6 6 1 13 1 14
REMARK Flexibility Score: inf
ROOT
ATOM      1  C   UNL     1    -138.680  40.799  87.549  1.00  0.00     0.171 C 
ENDROOT
BRANCH   1   2
ATOM      2  C   UNL     1    -139.917  41.466  86.914  1.00  0.00     0.237 C 
BRANCH   2   3
ATOM      3  N   UNL     1    -141.095  41.277  87.767  1.00  0.00    -0.350 N 
ATOM      4  H   UNL     1    -140.903  40.535  88.478  1.00  0.00     0.345 HD
ATOM      5  H   UNL     1    -141.925  40.996  87.195  1.00  0.00     0.345 HD
ATOM      6  H   UNL     1    -141.313  42.166  88.274  1.00  0.00     0.345 HD
ENDBRANCH   2   3
BRANCH   2   7
ATOM      7  C   UNL     1    -140.179  40.912  85.538  1.00  0.00     0.100 C 
ATOM      8  O   UNL     1    -139.409  40.044  85.048  1.00  0.00    -0.544 OA
ATOM      9  O   UNL     1    -141.279  41.343  84.806  1.00  0.00    -0.544 OA
ENDBRANCH   2   7
ENDBRANCH   1   2
BRANCH   1  10
ATOM     10  C   UNL     1    -138.729  40.858  89.049  1.00  0.00     0.223 C 
ATOM     11  O   UNL     1    -139.182  39.877  89.699  1.00  0.00    -0.275 OA
ATOM     12  N   UNL     1    -138.305  42.032  89.744  1.00  0.00    -0.369 N 
ATOM     13  H   UNL     1    -138.355  42.075  90.786  1.00  0.00     0.159 HD
ATOM     14  H   UNL     1    -137.946  42.861  89.220  1.00  0.00     0.159 HD
ENDBRANCH   1  10
TORSDOF 4
ENDMDL
MODEL 6
REMARK VINA RESULT:    -3.338      2.061      2.352
REMARK INTER + INTRA:          -4.254
REMARK INTER:                  -3.759
REMARK INTRA:                  -0.494
REMARK UNBOUND:                -0.233
REMARK SMILES NC(=O)C[C@H]([NH3+])C(=O)[O-]
REMARK SMILES IDX 4 1 5 2 6 3 7 7 8 8 9 9 2 10 3 11 1 12
REMARK H PARENT 6 4 6 5 6 6 1 13 1 14
REMARK Flexibility Score: inf
ROOT
ATOM      1  C   UNL     1    -140.372  41.583  88.471  1.00  0.00     0.171 C 
ENDROOT
BRANCH   1   2
ATOM      2  C   UNL     1    -140.063  41.373  86.975  1.00  0.00     0.237 C 
BRANCH   2   3
ATOM      3  N   UNL     1    -139.028  40.347  86.805  1.00  0.00    -0.350 N 
ATOM      4  H   UNL     1    -138.150  40.784  86.444  1.00  0.00     0.345 HD
ATOM      5  H   UNL     1    -139.345  39.610  86.134  1.00  0.00     0.345 HD
ATOM      6  H   UNL     1    -138.815  39.902  87.729  1.00  0.00     0.345 HD
ENDBRANCH   2   3
BRANCH   2   7
ATOM      7  C   UNL     1    -139.623  42.662  86.330  1.00  0.00     0.100 C 
ATOM      8  O   UNL     1    -139.568  42.755  85.075  1.00  0.00    -0.544 OA
ATOM      9  O   UNL     1    -139.290  43.760  87.113  1.00  0.00    -0.544 OA
ENDBRANCH   2   7
ENDBRANCH   1   2
BRANCH   1  10
ATOM     10  C   UNL     1    -139.194  41.231  89.334  1.00  0.00     0.223 C 
ATOM     11  O   UNL     1    -139.077  40.060  89.785  1.00  0.00    -0.275 OA
ATOM     12  N   UNL     1    -138.226  42.222  89.680  1.00  0.00    -0.369 N 
ATOM     13  H   UNL     1    -137.417  41.977  90.293  1.00  0.00     0.159 HD
ATOM     14  H   UNL     1    -138.318  43.202  89.331  1.00  0.00     0.159 HD
ENDBRANCH   1  10
TORSDOF 4
ENDMDL
MODEL 7
REMARK VINA RESULT:    -3.187      3.037      4.393
REMARK INTER + INTRA:          -4.072
REMARK INTER:                  -3.794
REMARK INTRA:                  -0.279
REMARK UNBOUND:                -0.233
REMARK SMILES NC(=O)C[C@H]([NH3+])C(=O)[O-]
REMARK SMILES IDX 4 1 5 2 6 3 7 7 8 8 9 9 2 10 3 11 1 12
REMARK H PARENT 6 4 6 5 6 6 1 13 1 14
REMARK Flexibility Score: inf
ROOT
ATOM      1  C   UNL     1    -141.268  41.477  85.649  1.00  0.00     0.171 C 
ENDROOT
BRANCH   1   2
ATOM      2  C   UNL     1    -140.095  41.489  86.650  1.00  0.00     0.237 C 
BRANCH   2   3
ATOM      3  N   UNL     1    -139.225  40.327  86.433  1.00  0.00    -0.350 N 
ATOM      4  H   UNL     1    -138.450  40.328  87.134  1.00  0.00     0.345 HD
ATOM      5  H   UNL     1    -138.816  40.346  85.470  1.00  0.00     0.345 HD
ATOM      6  H   UNL     1    -139.775  39.444  86.555  1.00  0.00     0.345 HD
ENDBRANCH   2   3
BRANCH   2   7
ATOM      7  C   UNL     1    -140.600  41.499  88.070  1.00  0.00     0.100 C 
ATOM      8  O   UNL     1    -141.686  42.073  88.351  1.00  0.00    -0.544 OA
ATOM      9  O   UNL     1    -139.880  40.865  89.075  1.00  0.00    -0.544 OA
ENDBRANCH   2   7
ENDBRANCH   1   2
BRANCH   1  10
ATOM     10  C   UNL     1    -140.825  41.035  84.283  1.00  0.00     0.223 C 
ATOM     11  O   UNL     1    -139.756  41.489  83.794  1.00  0.00    -0.275 OA
ATOM     12  N   UNL     1    -141.626  40.133  83.517  1.00  0.00    -0.369 N 
ATOM     13  H   UNL     1    -141.322  39.840  82.562  1.00  0.00     0.159 HD
ATOM     14  H   UNL     1    -142.524  39.762  83.899  1.00  0.00     0.159 HD
ENDBRANCH   1  10
TORSDOF 4
ENDMDL
MODEL 8
REMARK VINA RESULT:    -3.175     16.071     17.392
REMARK INTER + INTRA:          -4.058
REMARK INTER:                  -3.588
REMARK INTRA:                  -0.470
REMARK UNBOUND:                -0.233
REMARK SMILES NC(=O)C[C@H]([NH3+])C(=O)[O-]
REMARK SMILES IDX 4 1 5 2 6 3 7 7 8 8 9 9 2 10 3 11 1 12
REMARK H PARENT 6 4 6 5 6 6 1 13 1 14
REMARK Flexibility Score: inf
ROOT
ATOM      1  C   UNL     1    -152.224  54.801  87.596  1.00  0.00     0.171 C 
ENDROOT
BRANCH   1   2
ATOM      2  C   UNL     1    -152.227  54.123  88.981  1.00  0.00     0.237 C 
BRANCH   2   3
ATOM      3  N   UNL     1    -152.172  55.132  90.044  1.00  0.00    -0.350 N 
ATOM      4  H   UNL     1    -151.660  55.979  89.705  1.00  0.00     0.345 HD
ATOM      5  H   UNL     1    -151.685  54.754  90.889  1.00  0.00     0.345 HD
ATOM      6  H   UNL     1    -153.143  55.423  90.309  1.00  0.00     0.345 HD
ENDBRANCH   2   3
BRANCH   2   7
ATOM      7  C   UNL     1    -151.070  53.167  89.114  1.00  0.00     0.100 C 
ATOM      8  O   UNL     1    -150.098  53.235  88.316  1.00  0.00    -0.544 OA
ATOM      9  O   UNL     1    -151.061  52.214  90.125  1.00  0.00    -0.544 OA
ENDBRANCH   2   7
ENDBRANCH   1   2
BRANCH   1  10
ATOM     10  C   UNL     1    -151.576  56.155  87.644  1.00  0.00     0.223 C 
ATOM     11  O   UNL     1    -152.288  57.184  87.797  1.00  0.00    -0.275 OA
ATOM     12  N   UNL     1    -150.164  56.290  87.477  1.00  0.00    -0.369 N 
ATOM     13  H   UNL     1    -149.719  57.234  87.496  1.00  0.00     0.159 HD
ATOM     14  H   UNL     1    -149.562  55.450  87.329  1.00  0.00     0.159 HD
ENDBRANCH   1  10
TORSDOF 4
ENDMDL
MODEL 9
REMARK VINA RESULT:    -2.475      1.554      3.955
REMARK INTER + INTRA:          -3.215
REMARK INTER:                  -3.108
REMARK INTRA:                  -0.107
REMARK UNBOUND:                -0.233
REMARK SMILES NC(=O)C[C@H]([NH3+])C(=O)[O-]
REMARK SMILES IDX 4 1 5 2 6 3 7 7 8 8 9 9 2 10 3 11 1 12
REMARK H PARENT 6 4 6 5 6 6 1 13 1 14
REMARK Flexibility Score: inf
ROOT
ATOM      1  C   UNL     1    -139.927  42.146  87.997  1.00  0.00     0.171 C 
ENDROOT
BRANCH   1   2
ATOM      2  C   UNL     1    -138.986  41.281  88.858  1.00  0.00     0.237 C 
BRANCH   2   3
ATOM      3  N   UNL     1    -138.180  42.128  89.746  1.00  0.00    -0.350 N 
ATOM      4  H   UNL     1    -137.821  41.561  90.547  1.00  0.00     0.345 HD
ATOM      5  H   UNL     1    -138.751  42.922  90.116  1.00  0.00     0.345 HD
ATOM      6  H   UNL     1    -137.358  42.510  89.222  1.00  0.00     0.345 HD
ENDBRANCH   2   3
BRANCH   2   7
ATOM      7  C   UNL     1    -138.087  40.437  87.992  1.00  0.00     0.100 C 
ATOM      8  O   UNL     1    -138.373  40.247  86.780  1.00  0.00    -0.544 OA
ATOM      9  O   UNL     1    -136.931  39.875  88.519  1.00  0.00    -0.544 OA
ENDBRANCH   2   7
ENDBRANCH   1   2
BRANCH   1  10
ATOM     10  C   UNL     1    -141.329  42.141  88.533  1.00  0.00     0.223 C 
ATOM     11  O   UNL     1    -142.143  43.032  88.169  1.00  0.00    -0.275 OA
ATOM     12  N   UNL     1    -141.738  41.157  89.485  1.00  0.00    -0.369 N 
ATOM     13  H   UNL     1    -142.710  41.166  89.868  1.00  0.00     0.159 HD
ATOM     14  H   UNL     1    -141.072  40.424  89.814  1.00  0.00     0.159 HD
ENDBRANCH   1  10
TORSDOF 4
ENDMDL
