MODEL 1
REMARK VINA RESULT:    -3.906      0.000      0.000
REMARK INTER + INTRA:          -9.076
REMARK INTER:                  -7.560
REMARK INTRA:                  -1.516
REMARK UNBOUND:                -1.516
REMARK SMILES CCCCCCCCCCCCCCCCCC(=O)[O-]
REMARK SMILES IDX 10 1 11 2 12 3 13 4 14 5 15 6 16 7 17 8 18 9 19 10 20 11
REMARK SMILES IDX 9 12 8 13 7 14 6 15 5 16 4 17 3 18 2 19 1 20
REMARK H PARENT
REMARK Flexibility Score: inf
ROOT
ATOM      1  C   UNL     1     -19.947 -20.544  -3.399  1.00  0.00     0.000 C 
ENDROOT
BRANCH   1   2
ATOM      2  C   UNL     1     -19.333 -21.583  -4.349  1.00  0.00     0.000 C 
BRANCH   2   3
ATOM      3  C   UNL     1     -20.033 -22.939  -4.203  1.00  0.00     0.000 C 
BRANCH   3   4
ATOM      4  C   UNL     1     -20.325 -23.561  -5.577  1.00  0.00     0.000 C 
BRANCH   4   5
ATOM      5  C   UNL     1     -21.031 -22.575  -6.532  1.00  0.00     0.000 C 
BRANCH   5   6
ATOM      6  C   UNL     1     -22.568 -22.602  -6.426  1.00  0.00     0.000 C 
BRANCH   6   7
ATOM      7  C   UNL     1     -23.193 -21.381  -5.724  1.00  0.00     0.006 C 
BRANCH   7   8
ATOM      8  C   UNL     1     -22.399 -20.076  -5.895  1.00  0.00     0.053 C 
BRANCH   8   9
ATOM      9  C   UNL     1     -23.008 -19.180  -6.928  1.00  0.00     0.041 C 
ATOM     10  O   UNL     1     -22.771 -17.943  -6.914  1.00  0.00    -0.550 OA
ATOM     11  O   UNL     1     -23.867 -19.705  -7.886  1.00  0.00    -0.550 OA
ENDBRANCH   8   9
ENDBRANCH   7   8
ENDBRANCH   6   7
ENDBRANCH   5   6
ENDBRANCH   4   5
ENDBRANCH   3   4
ENDBRANCH   2   3
ENDBRANCH   1   2
BRANCH   1  12
ATOM     12  C   UNL     1     -19.269 -19.168  -3.509  1.00  0.00     0.000 C 
BRANCH  12  13
ATOM     13  C   UNL     1     -18.151 -19.140  -4.561  1.00  0.00    -0.000 C 
BRANCH  13  14
ATOM     14  C   UNL     1     -17.309 -17.861  -4.433  1.00  0.00    -0.000 C 
BRANCH  14  15
ATOM     15  C   UNL     1     -17.645 -17.055  -3.168  1.00  0.00    -0.000 C 
BRANCH  15  16
ATOM     16  C   UNL     1     -16.457 -16.214  -2.669  1.00  0.00    -0.000 C 
BRANCH  16  17
ATOM     17  C   UNL     1     -15.626 -15.633  -3.834  1.00  0.00    -0.000 C 
BRANCH  17  18
ATOM     18  C   UNL     1     -16.226 -14.353  -4.439  1.00  0.00    -0.000 C 
BRANCH  18  19
ATOM     19  C   UNL     1     -15.972 -14.229  -5.947  1.00  0.00    -0.003 C 
ATOM     20  C   UNL     1     -16.986 -13.295  -6.602  1.00  0.00     0.004 C 
ENDBRANCH  18  19
ENDBRANCH  17  18
ENDBRANCH  16  17
ENDBRANCH  15  16
ENDBRANCH  14  15
ENDBRANCH  13  14
ENDBRANCH  12  13
ENDBRANCH   1  12
TORSDOF 16
ENDMDL
MODEL 2
REMARK VINA RESULT:    -3.857     11.422     12.409
REMARK INTER + INTRA:          -8.982
REMARK INTER:                  -7.382
REMARK INTRA:                  -1.600
REMARK UNBOUND:                -1.516
REMARK SMILES CCCCCCCCCCCCCCCCCC(=O)[O-]
REMARK SMILES IDX 10 1 11 2 12 3 13 4 14 5 15 6 16 7 17 8 18 9 19 10 20 11
REMARK SMILES IDX 9 12 8 13 7 14 6 15 5 16 4 17 3 18 2 19 1 20
REMARK H PARENT
REMARK Flexibility Score: inf
ROOT
ATOM      1  C   UNL     1     -24.319 -15.458   2.963  1.00  0.00     0.000 C 
ENDROOT
BRANCH   1   2
ATOM      2  C   UNL     1     -25.505 -15.680   3.914  1.00  0.00     0.000 C 
BRANCH   2   3
ATOM      3  C   UNL     1     -26.560 -16.588   3.272  1.00  0.00     0.000 C 
BRANCH   3   4
ATOM      4  C   UNL     1     -27.943 -15.919   3.283  1.00  0.00     0.000 C 
BRANCH   4   5
ATOM      5  C   UNL     1     -27.863 -14.403   3.561  1.00  0.00     0.000 C 
BRANCH   5   6
ATOM      6  C   UNL     1     -29.163 -13.642   3.237  1.00  0.00     0.000 C 
BRANCH   6   7
ATOM      7  C   UNL     1     -30.024 -14.270   2.124  1.00  0.00     0.006 C 
BRANCH   7   8
ATOM      8  C   UNL     1     -31.420 -14.722   2.582  1.00  0.00     0.053 C 
BRANCH   8   9
ATOM      9  C   UNL     1     -31.611 -16.198   2.426  1.00  0.00     0.041 C 
ATOM     10  O   UNL     1     -32.417 -16.815   3.173  1.00  0.00    -0.550 OA
ATOM     11  O   UNL     1     -30.874 -16.900   1.481  1.00  0.00    -0.550 OA
ENDBRANCH   8   9
ENDBRANCH   7   8
ENDBRANCH   6   7
ENDBRANCH   5   6
ENDBRANCH   4   5
ENDBRANCH   3   4
ENDBRANCH   2   3
ENDBRANCH   1   2
BRANCH   1  12
ATOM     12  C   UNL     1     -23.530 -14.179   3.287  1.00  0.00     0.000 C 
BRANCH  12  13
ATOM     13  C   UNL     1     -23.920 -13.570   4.642  1.00  0.00    -0.000 C 
BRANCH  13  14
ATOM     14  C   UNL     1     -24.812 -12.334   4.451  1.00  0.00    -0.000 C 
BRANCH  14  15
ATOM     15  C   UNL     1     -24.096 -11.024   4.815  1.00  0.00    -0.000 C 
BRANCH  15  16
ATOM     16  C   UNL     1     -23.265 -11.141   6.105  1.00  0.00    -0.000 C 
BRANCH  16  17
ATOM     17  C   UNL     1     -21.891 -10.448   5.976  1.00  0.00    -0.000 C 
BRANCH  17  18
ATOM     18  C   UNL     1     -21.566  -9.988   4.545  1.00  0.00    -0.000 C 
BRANCH  18  19
ATOM     19  C   UNL     1     -20.262 -10.590   4.005  1.00  0.00    -0.003 C 
ATOM     20  C   UNL     1     -20.438 -12.066   3.661  1.00  0.00     0.004 C 
ENDBRANCH  18  19
ENDBRANCH  17  18
ENDBRANCH  16  17
ENDBRANCH  15  16
ENDBRANCH  14  15
ENDBRANCH  13  14
ENDBRANCH  12  13
ENDBRANCH   1  12
TORSDOF 16
ENDMDL
MODEL 3
REMARK VINA RESULT:    -3.842     11.355     12.363
REMARK INTER + INTRA:          -8.952
REMARK INTER:                  -7.841
REMARK INTRA:                  -1.111
REMARK UNBOUND:                -1.516
REMARK SMILES CCCCCCCCCCCCCCCCCC(=O)[O-]
REMARK SMILES IDX 10 1 11 2 12 3 13 4 14 5 15 6 16 7 17 8 18 9 19 10 20 11
REMARK SMILES IDX 9 12 8 13 7 14 6 15 5 16 4 17 3 18 2 19 1 20
REMARK H PARENT
REMARK Flexibility Score: inf
ROOT
ATOM      1  C   UNL     1     -24.782 -15.270   4.136  1.00  0.00     0.000 C 
ENDROOT
BRANCH   1   2
ATOM      2  C   UNL     1     -26.239 -15.154   3.663  1.00  0.00     0.000 C 
BRANCH   2   3
ATOM      3  C   UNL     1     -26.894 -16.537   3.560  1.00  0.00     0.000 C 
BRANCH   3   4
ATOM      4  C   UNL     1     -28.321 -16.431   3.000  1.00  0.00     0.000 C 
BRANCH   4   5
ATOM      5  C   UNL     1     -28.866 -14.988   3.044  1.00  0.00     0.000 C 
BRANCH   5   6
ATOM      6  C   UNL     1     -29.802 -14.642   1.871  1.00  0.00     0.000 C 
BRANCH   6   7
ATOM      7  C   UNL     1     -30.282 -13.178   1.833  1.00  0.00     0.006 C 
BRANCH   7   8
ATOM      8  C   UNL     1     -29.353 -12.226   1.063  1.00  0.00     0.053 C 
BRANCH   8   9
ATOM      9  C   UNL     1     -29.978 -11.736  -0.206  1.00  0.00     0.041 C 
ATOM     10  O   UNL     1     -31.200 -11.946  -0.433  1.00  0.00    -0.550 OA
ATOM     11  O   UNL     1     -29.205 -11.080  -1.156  1.00  0.00    -0.550 OA
ENDBRANCH   8   9
ENDBRANCH   7   8
ENDBRANCH   6   7
ENDBRANCH   5   6
ENDBRANCH   4   5
ENDBRANCH   3   4
ENDBRANCH   2   3
ENDBRANCH   1   2
BRANCH   1  12
ATOM     12  C   UNL     1     -24.614 -14.933   5.627  1.00  0.00     0.000 C 
BRANCH  12  13
ATOM     13  C   UNL     1     -24.864 -13.448   5.929  1.00  0.00    -0.000 C 
BRANCH  13  14
ATOM     14  C   UNL     1     -24.085 -12.551   4.955  1.00  0.00    -0.000 C 
BRANCH  14  15
ATOM     15  C   UNL     1     -24.726 -11.165   4.784  1.00  0.00    -0.000 C 
BRANCH  15  16
ATOM     16  C   UNL     1     -23.696 -10.074   4.440  1.00  0.00    -0.000 C 
BRANCH  16  17
ATOM     17  C   UNL     1     -22.302 -10.386   5.026  1.00  0.00    -0.000 C 
BRANCH  17  18
ATOM     18  C   UNL     1     -21.141  -9.876   4.156  1.00  0.00    -0.000 C 
BRANCH  18  19
ATOM     19  C   UNL     1     -20.045 -10.929   3.945  1.00  0.00    -0.003 C 
ATOM     20  C   UNL     1     -20.645 -12.322   3.775  1.00  0.00     0.004 C 
ENDBRANCH  18  19
ENDBRANCH  17  18
ENDBRANCH  16  17
ENDBRANCH  15  16
ENDBRANCH  14  15
ENDBRANCH  13  14
ENDBRANCH  12  13
ENDBRANCH   1  12
TORSDOF 16
ENDMDL
MODEL 4
REMARK VINA RESULT:    -3.842     11.544     14.152
REMARK INTER + INTRA:          -8.951
REMARK INTER:                  -7.091
REMARK INTRA:                  -1.860
REMARK UNBOUND:                -1.516
REMARK SMILES CCCCCCCCCCCCCCCCCC(=O)[O-]
REMARK SMILES IDX 10 1 11 2 12 3 13 4 14 5 15 6 16 7 17 8 18 9 19 10 20 11
REMARK SMILES IDX 9 12 8 13 7 14 6 15 5 16 4 17 3 18 2 19 1 20
REMARK H PARENT
REMARK Flexibility Score: inf
ROOT
ATOM      1  C   UNL     1     -25.613 -14.850   3.418  1.00  0.00     0.000 C 
ENDROOT
BRANCH   1   2
ATOM      2  C   UNL     1     -24.235 -14.495   3.998  1.00  0.00     0.000 C 
BRANCH   2   3
ATOM      3  C   UNL     1     -24.355 -13.391   5.056  1.00  0.00     0.000 C 
BRANCH   3   4
ATOM      4  C   UNL     1     -25.511 -12.434   4.726  1.00  0.00     0.000 C 
BRANCH   4   5
ATOM      5  C   UNL     1     -25.034 -10.979   4.531  1.00  0.00     0.000 C 
BRANCH   5   6
ATOM      6  C   UNL     1     -23.695 -10.666   5.227  1.00  0.00     0.000 C 
BRANCH   6   7
ATOM      7  C   UNL     1     -22.575 -10.174   4.290  1.00  0.00     0.006 C 
BRANCH   7   8
ATOM      8  C   UNL     1     -21.153 -10.484   4.786  1.00  0.00     0.053 C 
BRANCH   8   9
ATOM      9  C   UNL     1     -20.487 -11.537   3.956  1.00  0.00     0.041 C 
ATOM     10  O   UNL     1     -19.357 -11.319   3.444  1.00  0.00    -0.550 OA
ATOM     11  O   UNL     1     -21.129 -12.746   3.717  1.00  0.00    -0.550 OA
ENDBRANCH   8   9
ENDBRANCH   7   8
ENDBRANCH   6   7
ENDBRANCH   5   6
ENDBRANCH   4   5
ENDBRANCH   3   4
ENDBRANCH   2   3
ENDBRANCH   1   2
BRANCH   1  12
ATOM     12  C   UNL     1     -26.277 -16.029   4.147  1.00  0.00     0.000 C 
BRANCH  12  13
ATOM     13  C   UNL     1     -27.122 -16.905   3.211  1.00  0.00    -0.000 C 
BRANCH  13  14
ATOM     14  C   UNL     1     -28.591 -16.457   3.219  1.00  0.00    -0.000 C 
BRANCH  14  15
ATOM     15  C   UNL     1     -29.349 -16.886   1.953  1.00  0.00    -0.000 C 
BRANCH  15  16
ATOM     16  C   UNL     1     -29.937 -15.691   1.181  1.00  0.00    -0.000 C 
BRANCH  16  17
ATOM     17  C   UNL     1     -30.243 -14.494   2.107  1.00  0.00    -0.000 C 
BRANCH  17  18
ATOM     18  C   UNL     1     -29.621 -13.172   1.630  1.00  0.00    -0.000 C 
BRANCH  18  19
ATOM     19  C   UNL     1     -28.649 -12.565   2.650  1.00  0.00    -0.003 C 
ATOM     20  C   UNL     1     -29.015 -12.980   4.073  1.00  0.00     0.004 C 
ENDBRANCH  18  19
ENDBRANCH  17  18
ENDBRANCH  16  17
ENDBRANCH  15  16
ENDBRANCH  14  15
ENDBRANCH  13  14
ENDBRANCH  12  13
ENDBRANCH   1  12
TORSDOF 16
ENDMDL
MODEL 5
REMARK VINA RESULT:    -3.835     11.547     13.998
REMARK INTER + INTRA:          -8.938
REMARK INTER:                  -7.493
REMARK INTRA:                  -1.446
REMARK UNBOUND:                -1.516
REMARK SMILES CCCCCCCCCCCCCCCCCC(=O)[O-]
REMARK SMILES IDX 10 1 11 2 12 3 13 4 14 5 15 6 16 7 17 8 18 9 19 10 20 11
REMARK SMILES IDX 9 12 8 13 7 14 6 15 5 16 4 17 3 18 2 19 1 20
REMARK H PARENT
REMARK Flexibility Score: inf
ROOT
ATOM      1  C   UNL     1     -24.959 -15.722   3.000  1.00  0.00     0.000 C 
ENDROOT
BRANCH   1   2
ATOM      2  C   UNL     1     -23.957 -14.632   3.411  1.00  0.00     0.000 C 
BRANCH   2   3
ATOM      3  C   UNL     1     -24.368 -13.983   4.738  1.00  0.00     0.000 C 
BRANCH   3   4
ATOM      4  C   UNL     1     -25.007 -12.606   4.505  1.00  0.00     0.000 C 
BRANCH   4   5
ATOM      5  C   UNL     1     -24.057 -11.446   4.870  1.00  0.00     0.000 C 
BRANCH   5   6
ATOM      6  C   UNL     1     -23.233 -11.697   6.147  1.00  0.00     0.000 C 
BRANCH   6   7
ATOM      7  C   UNL     1     -21.744 -11.313   6.046  1.00  0.00     0.006 C 
BRANCH   7   8
ATOM      8  C   UNL     1     -21.342 -10.682   4.703  1.00  0.00     0.053 C 
BRANCH   8   9
ATOM      9  C   UNL     1     -20.522 -11.615   3.868  1.00  0.00     0.041 C 
ATOM     10  O   UNL     1     -20.989 -12.733   3.523  1.00  0.00    -0.550 OA
ATOM     11  O   UNL     1     -19.228 -11.267   3.500  1.00  0.00    -0.550 OA
ENDBRANCH   8   9
ENDBRANCH   7   8
ENDBRANCH   6   7
ENDBRANCH   5   6
ENDBRANCH   4   5
ENDBRANCH   3   4
ENDBRANCH   2   3
ENDBRANCH   1   2
BRANCH   1  12
ATOM     12  C   UNL     1     -26.021 -15.989   4.079  1.00  0.00     0.000 C 
BRANCH  12  13
ATOM     13  C   UNL     1     -27.447 -15.696   3.591  1.00  0.00    -0.000 C 
BRANCH  13  14
ATOM     14  C   UNL     1     -28.187 -14.780   4.578  1.00  0.00    -0.000 C 
BRANCH  14  15
ATOM     15  C   UNL     1     -28.530 -13.410   3.972  1.00  0.00    -0.000 C 
BRANCH  15  16
ATOM     16  C   UNL     1     -29.582 -13.503   2.853  1.00  0.00    -0.000 C 
BRANCH  16  17
ATOM     17  C   UNL     1     -29.149 -12.739   1.583  1.00  0.00    -0.000 C 
BRANCH  17  18
ATOM     18  C   UNL     1     -29.996 -13.075   0.344  1.00  0.00    -0.000 C 
BRANCH  18  19
ATOM     19  C   UNL     1     -30.488 -11.826  -0.400  1.00  0.00    -0.003 C 
ATOM     20  C   UNL     1     -29.316 -11.009  -0.938  1.00  0.00     0.004 C 
ENDBRANCH  18  19
ENDBRANCH  17  18
ENDBRANCH  16  17
ENDBRANCH  15  16
ENDBRANCH  14  15
ENDBRANCH  13  14
ENDBRANCH  12  13
ENDBRANCH   1  12
TORSDOF 16
ENDMDL
MODEL 6
REMARK VINA RESULT:    -3.823     11.626     12.779
REMARK INTER + INTRA:          -8.915
REMARK INTER:                  -6.963
REMARK INTRA:                  -1.953
REMARK UNBOUND:                -1.516
REMARK SMILES CCCCCCCCCCCCCCCCCC(=O)[O-]
REMARK SMILES IDX 10 1 11 2 12 3 13 4 14 5 15 6 16 7 17 8 18 9 19 10 20 11
REMARK SMILES IDX 9 12 8 13 7 14 6 15 5 16 4 17 3 18 2 19 1 20
REMARK H PARENT
REMARK Flexibility Score: inf
ROOT
ATOM      1  C   UNL     1     -26.635 -16.191   3.440  1.00  0.00     0.000 C 
ENDROOT
BRANCH   1   2
ATOM      2  C   UNL     1     -27.601 -14.998   3.471  1.00  0.00     0.000 C 
BRANCH   2   3
ATOM      3  C   UNL     1     -27.745 -14.446   4.895  1.00  0.00     0.000 C 
BRANCH   3   4
ATOM      4  C   UNL     1     -27.710 -12.910   4.898  1.00  0.00     0.000 C 
BRANCH   4   5
ATOM      5  C   UNL     1     -27.785 -12.317   3.475  1.00  0.00     0.000 C 
BRANCH   5   6
ATOM      6  C   UNL     1     -28.796 -11.163   3.336  1.00  0.00     0.000 C 
BRANCH   6   7
ATOM      7  C   UNL     1     -29.871 -11.367   2.251  1.00  0.00     0.006 C 
BRANCH   7   8
ATOM      8  C   UNL     1     -29.391 -12.163   1.026  1.00  0.00     0.053 C 
BRANCH   8   9
ATOM      9  C   UNL     1     -29.988 -11.648  -0.247  1.00  0.00     0.041 C 
ATOM     10  O   UNL     1     -31.236 -11.512  -0.351  1.00  0.00    -0.550 OA
ATOM     11  O   UNL     1     -29.170 -11.351  -1.330  1.00  0.00    -0.550 OA
ENDBRANCH   8   9
ENDBRANCH   7   8
ENDBRANCH   6   7
ENDBRANCH   5   6
ENDBRANCH   4   5
ENDBRANCH   3   4
ENDBRANCH   2   3
ENDBRANCH   1   2
BRANCH   1  12
ATOM     12  C   UNL     1     -25.224 -15.824   3.927  1.00  0.00     0.000 C 
BRANCH  12  13
ATOM     13  C   UNL     1     -24.510 -14.841   2.988  1.00  0.00    -0.000 C 
BRANCH  13  14
ATOM     14  C   UNL     1     -23.484 -13.995   3.758  1.00  0.00    -0.000 C 
BRANCH  14  15
ATOM     15  C   UNL     1     -24.101 -12.728   4.372  1.00  0.00    -0.000 C 
BRANCH  15  16
ATOM     16  C   UNL     1     -23.612 -12.467   5.808  1.00  0.00    -0.000 C 
BRANCH  16  17
ATOM     17  C   UNL     1     -22.784 -11.168   5.913  1.00  0.00    -0.000 C 
BRANCH  17  18
ATOM     18  C   UNL     1     -22.466 -10.530   4.550  1.00  0.00    -0.000 C 
BRANCH  18  19
ATOM     19  C   UNL     1     -20.961 -10.466   4.257  1.00  0.00    -0.003 C 
ATOM     20  C   UNL     1     -20.417 -11.840   3.874  1.00  0.00     0.004 C 
ENDBRANCH  18  19
ENDBRANCH  17  18
ENDBRANCH  16  17
ENDBRANCH  15  16
ENDBRANCH  14  15
ENDBRANCH  13  14
ENDBRANCH  12  13
ENDBRANCH   1  12
TORSDOF 16
ENDMDL
MODEL 7
REMARK VINA RESULT:    -3.810     11.209     12.326
REMARK INTER + INTRA:          -8.890
REMARK INTER:                  -6.942
REMARK INTRA:                  -1.947
REMARK UNBOUND:                -1.516
REMARK SMILES CCCCCCCCCCCCCCCCCC(=O)[O-]
REMARK SMILES IDX 10 1 11 2 12 3 13 4 14 5 15 6 16 7 17 8 18 9 19 10 20 11
REMARK SMILES IDX 9 12 8 13 7 14 6 15 5 16 4 17 3 18 2 19 1 20
REMARK H PARENT
REMARK Flexibility Score: inf
ROOT
ATOM      1  C   UNL     1     -26.354 -15.305   3.755  1.00  0.00     0.000 C 
ENDROOT
BRANCH   1   2
ATOM      2  C   UNL     1     -27.182 -14.118   4.270  1.00  0.00     0.000 C 
BRANCH   2   3
ATOM      3  C   UNL     1     -26.981 -12.883   3.383  1.00  0.00     0.000 C 
BRANCH   3   4
ATOM      4  C   UNL     1     -28.320 -12.189   3.091  1.00  0.00     0.000 C 
BRANCH   4   5
ATOM      5  C   UNL     1     -29.491 -13.188   2.988  1.00  0.00     0.000 C 
BRANCH   5   6
ATOM      6  C   UNL     1     -29.744 -13.704   1.559  1.00  0.00     0.000 C 
BRANCH   6   7
ATOM      7  C   UNL     1     -30.232 -15.163   1.470  1.00  0.00     0.006 C 
BRANCH   7   8
ATOM      8  C   UNL     1     -29.690 -16.081   2.577  1.00  0.00     0.053 C 
BRANCH   8   9
ATOM      9  C   UNL     1     -29.482 -17.482   2.092  1.00  0.00     0.041 C 
ATOM     10  O   UNL     1     -30.444 -18.133   1.604  1.00  0.00    -0.550 OA
ATOM     11  O   UNL     1     -28.235 -18.083   2.212  1.00  0.00    -0.550 OA
ENDBRANCH   8   9
ENDBRANCH   7   8
ENDBRANCH   6   7
ENDBRANCH   5   6
ENDBRANCH   4   5
ENDBRANCH   3   4
ENDBRANCH   2   3
ENDBRANCH   1   2
BRANCH   1  12
ATOM     12  C   UNL     1     -24.929 -15.328   4.332  1.00  0.00     0.000 C 
BRANCH  12  13
ATOM     13  C   UNL     1     -23.870 -14.881   3.314  1.00  0.00    -0.000 C 
BRANCH  13  14
ATOM     14  C   UNL     1     -23.229 -13.551   3.737  1.00  0.00    -0.000 C 
BRANCH  14  15
ATOM     15  C   UNL     1     -23.603 -13.141   5.170  1.00  0.00    -0.000 C 
BRANCH  15  16
ATOM     16  C   UNL     1     -24.025 -11.665   5.274  1.00  0.00    -0.000 C 
BRANCH  16  17
ATOM     17  C   UNL     1     -23.075 -10.733   4.492  1.00  0.00    -0.000 C 
BRANCH  17  18
ATOM     18  C   UNL     1     -21.701 -10.555   5.159  1.00  0.00    -0.000 C 
BRANCH  18  19
ATOM     19  C   UNL     1     -20.565 -10.356   4.146  1.00  0.00    -0.003 C 
ATOM     20  C   UNL     1     -19.926 -11.689   3.768  1.00  0.00     0.004 C 
ENDBRANCH  18  19
ENDBRANCH  17  18
ENDBRANCH  16  17
ENDBRANCH  15  16
ENDBRANCH  14  15
ENDBRANCH  13  14
ENDBRANCH  12  13
ENDBRANCH   1  12
TORSDOF 16
ENDMDL
MODEL 8
REMARK VINA RESULT:    -3.666     12.371     13.993
REMARK INTER + INTRA:          -8.611
REMARK INTER:                  -6.390
REMARK INTRA:                  -2.221
REMARK UNBOUND:                -1.516
REMARK SMILES CCCCCCCCCCCCCCCCCC(=O)[O-]
REMARK SMILES IDX 10 1 11 2 12 3 13 4 14 5 15 6 16 7 17 8 18 9 19 10 20 11
REMARK SMILES IDX 9 12 8 13 7 14 6 15 5 16 4 17 3 18 2 19 1 20
REMARK H PARENT
REMARK Flexibility Score: inf
ROOT
ATOM      1  C   UNL     1     -28.817 -13.340   3.686  1.00  0.00     0.000 C 
ENDROOT
BRANCH   1   2
ATOM      2  C   UNL     1     -29.573 -14.331   2.789  1.00  0.00     0.000 C 
BRANCH   2   3
ATOM      3  C   UNL     1     -29.518 -15.749   3.371  1.00  0.00     0.000 C 
BRANCH   3   4
ATOM      4  C   UNL     1     -28.731 -16.694   2.451  1.00  0.00     0.000 C 
BRANCH   4   5
ATOM      5  C   UNL     1     -27.333 -17.032   3.011  1.00  0.00     0.000 C 
BRANCH   5   6
ATOM      6  C   UNL     1     -27.061 -16.436   4.405  1.00  0.00     0.000 C 
BRANCH   6   7
ATOM      7  C   UNL     1     -25.647 -15.856   4.600  1.00  0.00     0.006 C 
BRANCH   7   8
ATOM      8  C   UNL     1     -25.247 -14.796   3.560  1.00  0.00     0.053 C 
BRANCH   8   9
ATOM      9  C   UNL     1     -24.015 -15.188   2.806  1.00  0.00     0.041 C 
ATOM     10  O   UNL     1     -24.008 -16.234   2.104  1.00  0.00    -0.550 OA
ATOM     11  O   UNL     1     -22.864 -14.417   2.905  1.00  0.00    -0.550 OA
ENDBRANCH   8   9
ENDBRANCH   7   8
ENDBRANCH   6   7
ENDBRANCH   5   6
ENDBRANCH   4   5
ENDBRANCH   3   4
ENDBRANCH   2   3
ENDBRANCH   1   2
BRANCH   1  12
ATOM     12  C   UNL     1     -28.369 -12.079   2.929  1.00  0.00     0.000 C 
BRANCH  12  13
ATOM     13  C   UNL     1     -28.773 -10.783   3.647  1.00  0.00    -0.000 C 
BRANCH  13  14
ATOM     14  C   UNL     1     -29.738  -9.956   2.783  1.00  0.00    -0.000 C 
BRANCH  14  15
ATOM     15  C   UNL     1     -31.096 -10.647   2.583  1.00  0.00    -0.000 C 
BRANCH  15  16
ATOM     16  C   UNL     1     -31.939  -9.988   1.477  1.00  0.00    -0.000 C 
BRANCH  16  17
ATOM     17  C   UNL     1     -31.662 -10.607   0.089  1.00  0.00    -0.000 C 
BRANCH  17  18
ATOM     18  C   UNL     1     -31.041 -12.013   0.155  1.00  0.00    -0.000 C 
BRANCH  18  19
ATOM     19  C   UNL     1     -29.650 -12.083  -0.488  1.00  0.00    -0.003 C 
ATOM     20  C   UNL     1     -29.122 -10.687  -0.811  1.00  0.00     0.004 C 
ENDBRANCH  18  19
ENDBRANCH  17  18
ENDBRANCH  16  17
ENDBRANCH  15  16
ENDBRANCH  14  15
ENDBRANCH  13  14
ENDBRANCH  12  13
ENDBRANCH   1  12
TORSDOF 16
ENDMDL
MODEL 9
REMARK VINA RESULT:    -3.641     11.890     13.277
REMARK INTER + INTRA:          -8.562
REMARK INTER:                  -6.547
REMARK INTRA:                  -2.016
REMARK UNBOUND:                -1.516
REMARK SMILES CCCCCCCCCCCCCCCCCC(=O)[O-]
REMARK SMILES IDX 10 1 11 2 12 3 13 4 14 5 15 6 16 7 17 8 18 9 19 10 20 11
REMARK SMILES IDX 9 12 8 13 7 14 6 15 5 16 4 17 3 18 2 19 1 20
REMARK H PARENT
REMARK Flexibility Score: inf
ROOT
ATOM      1  C   UNL     1     -24.335 -13.202   5.740  1.00  0.00     0.000 C 
ENDROOT
BRANCH   1   2
ATOM      2  C   UNL     1     -23.569 -12.918   4.439  1.00  0.00     0.000 C 
BRANCH   2   3
ATOM      3  C   UNL     1     -23.619 -14.129   3.498  1.00  0.00     0.000 C 
BRANCH   3   4
ATOM      4  C   UNL     1     -24.413 -15.283   4.127  1.00  0.00     0.000 C 
BRANCH   4   5
ATOM      5  C   UNL     1     -25.475 -15.859   3.166  1.00  0.00     0.000 C 
BRANCH   5   6
ATOM      6  C   UNL     1     -26.735 -16.388   3.877  1.00  0.00     0.000 C 
BRANCH   6   7
ATOM      7  C   UNL     1     -27.885 -16.805   2.940  1.00  0.00     0.006 C 
BRANCH   7   8
ATOM      8  C   UNL     1     -29.282 -16.390   3.427  1.00  0.00     0.053 C 
BRANCH   8   9
ATOM      9  C   UNL     1     -30.187 -16.026   2.292  1.00  0.00     0.041 C 
ATOM     10  O   UNL     1     -31.275 -15.431   2.514  1.00  0.00    -0.550 OA
ATOM     11  O   UNL     1     -29.847 -16.374   0.991  1.00  0.00    -0.550 OA
ENDBRANCH   8   9
ENDBRANCH   7   8
ENDBRANCH   6   7
ENDBRANCH   5   6
ENDBRANCH   4   5
ENDBRANCH   3   4
ENDBRANCH   2   3
ENDBRANCH   1   2
BRANCH   1  12
ATOM     12  C   UNL     1     -25.652 -12.415   5.836  1.00  0.00     0.000 C 
BRANCH  12  13
ATOM     13  C   UNL     1     -25.716 -11.245   4.844  1.00  0.00    -0.000 C 
BRANCH  13  14
ATOM     14  C   UNL     1     -27.060 -11.230   4.100  1.00  0.00    -0.000 C 
BRANCH  14  15
ATOM     15  C   UNL     1     -27.352 -12.554   3.376  1.00  0.00    -0.000 C 
BRANCH  15  16
ATOM     16  C   UNL     1     -28.849 -12.747   3.074  1.00  0.00    -0.000 C 
BRANCH  16  17
ATOM     17  C   UNL     1     -29.208 -12.336   1.630  1.00  0.00    -0.000 C 
BRANCH  17  18
ATOM     18  C   UNL     1     -29.840 -10.937   1.529  1.00  0.00    -0.000 C 
BRANCH  18  19
ATOM     19  C   UNL     1     -29.896 -10.410   0.089  1.00  0.00    -0.003 C 
ATOM     20  C   UNL     1     -29.424 -11.469  -0.904  1.00  0.00     0.004 C 
ENDBRANCH  18  19
ENDBRANCH  17  18
ENDBRANCH  16  17
ENDBRANCH  15  16
ENDBRANCH  14  15
ENDBRANCH  13  14
ENDBRANCH  12  13
ENDBRANCH   1  12
TORSDOF 16
ENDMDL
