MODEL 1
REMARK VINA RESULT:    -3.474      0.000      0.000
REMARK INTER + INTRA:          -8.590
REMARK INTER:                  -6.521
REMARK INTRA:                  -2.069
REMARK UNBOUND:                -2.069
REMARK SMILES O=C([O-])CCCCCCCCCCCCCCC(=O)[O-]
REMARK SMILES IDX 10 1 9 2 8 3 7 4 6 5 5 6 4 7 2 8 1 9 3 10 11 11 12 12 13 13
REMARK SMILES IDX 14 14 15 15 16 16 17 17 18 18 19 19 20 20
REMARK H PARENT
REMARK Flexibility Score: inf
ROOT
ATOM      1  C   UNL     1      44.102  29.418  89.462  1.00  0.00     0.000 C 
ENDROOT
BRANCH   1   2
ATOM      2  C   UNL     1      43.898  30.434  90.599  1.00  0.00     0.000 C 
BRANCH   2   3
ATOM      3  C   UNL     1      45.209  30.787  91.327  1.00  0.00     0.000 C 
BRANCH   3   4
ATOM      4  C   UNL     1      46.474  30.093  90.779  1.00  0.00     0.000 C 
BRANCH   4   5
ATOM      5  C   UNL     1      47.496  31.031  90.113  1.00  0.00     0.000 C 
BRANCH   5   6
ATOM      6  C   UNL     1      46.876  31.898  89.004  1.00  0.00     0.006 C 
BRANCH   6   7
ATOM      7  C   UNL     1      47.559  31.677  87.647  1.00  0.00     0.053 C 
BRANCH   7   8
ATOM      8  C   UNL     1      48.725  32.601  87.455  1.00  0.00     0.041 C 
ATOM      9  O   UNL     1      49.883  32.238  87.792  1.00  0.00    -0.550 OA
ATOM     10  O   UNL     1      48.525  33.875  86.939  1.00  0.00    -0.550 OA
ENDBRANCH   7   8
ENDBRANCH   6   7
ENDBRANCH   5   6
ENDBRANCH   4   5
ENDBRANCH   3   4
ENDBRANCH   2   3
ENDBRANCH   1   2
BRANCH   1  11
ATOM     11  C   UNL     1      43.795  30.010  88.077  1.00  0.00     0.000 C 
BRANCH  11  12
ATOM     12  C   UNL     1      43.084  31.373  88.160  1.00  0.00     0.000 C 
BRANCH  12  13
ATOM     13  C   UNL     1      41.864  31.459  87.230  1.00  0.00     0.000 C 
BRANCH  13  14
ATOM     14  C   UNL     1      40.868  30.309  87.450  1.00  0.00     0.000 C 
BRANCH  14  15
ATOM     15  C   UNL     1      40.040  30.537  88.723  1.00  0.00     0.000 C 
BRANCH  15  16
ATOM     16  C   UNL     1      40.406  29.557  89.850  1.00  0.00     0.006 C 
BRANCH  16  17
ATOM     17  C   UNL     1      40.567  28.115  89.350  1.00  0.00     0.053 C 
BRANCH  17  18
ATOM     18  C   UNL     1      39.240  27.426  89.312  1.00  0.00     0.041 C 
ATOM     19  O   UNL     1      38.750  26.934  90.362  1.00  0.00    -0.550 OA
ATOM     20  O   UNL     1      38.562  27.290  88.108  1.00  0.00    -0.550 OA
ENDBRANCH  17  18
ENDBRANCH  16  17
ENDBRANCH  15  16
ENDBRANCH  14  15
ENDBRANCH  13  14
ENDBRANCH  12  13
ENDBRANCH  11  12
ENDBRANCH   1  11
TORSDOF 15
ENDMDL
MODEL 2
REMARK VINA RESULT:    -3.414      1.856      3.223
REMARK INTER + INTRA:          -8.477
REMARK INTER:                  -6.632
REMARK INTRA:                  -1.845
REMARK UNBOUND:                -2.069
REMARK SMILES O=C([O-])CCCCCCCCCCCCCCC(=O)[O-]
REMARK SMILES IDX 10 1 9 2 8 3 7 4 6 5 5 6 4 7 2 8 1 9 3 10 11 11 12 12 13 13
REMARK SMILES IDX 14 14 15 15 16 16 17 17 18 18 19 19 20 20
REMARK H PARENT
REMARK Flexibility Score: inf
ROOT
ATOM      1  C   UNL     1      46.049  28.121  90.898  1.00  0.00     0.000 C 
ENDROOT
BRANCH   1   2
ATOM      2  C   UNL     1      47.478  28.613  90.607  1.00  0.00     0.000 C 
BRANCH   2   3
ATOM      3  C   UNL     1      47.552  29.534  89.374  1.00  0.00     0.000 C 
BRANCH   3   4
ATOM      4  C   UNL     1      47.997  30.983  89.659  1.00  0.00     0.000 C 
BRANCH   4   5
ATOM      5  C   UNL     1      47.623  32.007  88.573  1.00  0.00     0.000 C 
BRANCH   5   6
ATOM      6  C   UNL     1      48.703  32.144  87.486  1.00  0.00     0.006 C 
BRANCH   6   7
ATOM      7  C   UNL     1      48.726  33.548  86.867  1.00  0.00     0.053 C 
BRANCH   7   8
ATOM      8  C   UNL     1      50.035  34.239  87.104  1.00  0.00     0.041 C 
ATOM      9  O   UNL     1      50.959  33.649  87.726  1.00  0.00    -0.550 OA
ATOM     10  O   UNL     1      50.222  35.546  86.671  1.00  0.00    -0.550 OA
ENDBRANCH   7   8
ENDBRANCH   6   7
ENDBRANCH   5   6
ENDBRANCH   4   5
ENDBRANCH   3   4
ENDBRANCH   2   3
ENDBRANCH   1   2
BRANCH   1  11
ATOM     11  C   UNL     1      45.267  29.080  91.809  1.00  0.00     0.000 C 
BRANCH  11  12
ATOM     12  C   UNL     1      44.099  29.768  91.081  1.00  0.00     0.000 C 
BRANCH  12  13
ATOM     13  C   UNL     1      44.426  31.213  90.675  1.00  0.00     0.000 C 
BRANCH  13  14
ATOM     14  C   UNL     1      44.114  31.498  89.197  1.00  0.00     0.000 C 
BRANCH  14  15
ATOM     15  C   UNL     1      44.085  30.198  88.381  1.00  0.00     0.000 C 
BRANCH  15  16
ATOM     16  C   UNL     1      42.820  30.072  87.515  1.00  0.00     0.006 C 
BRANCH  16  17
ATOM     17  C   UNL     1      41.766  31.135  87.851  1.00  0.00     0.053 C 
BRANCH  17  18
ATOM     18  C   UNL     1      40.627  30.520  88.601  1.00  0.00     0.041 C 
ATOM     19  O   UNL     1      40.846  29.803  89.613  1.00  0.00    -0.550 OA
ATOM     20  O   UNL     1      39.324  30.702  88.157  1.00  0.00    -0.550 OA
ENDBRANCH  17  18
ENDBRANCH  16  17
ENDBRANCH  15  16
ENDBRANCH  14  15
ENDBRANCH  13  14
ENDBRANCH  12  13
ENDBRANCH  11  12
ENDBRANCH   1  11
TORSDOF 15
ENDMDL
MODEL 3
REMARK VINA RESULT:    -3.398      3.457      6.073
REMARK INTER + INTRA:          -8.446
REMARK INTER:                  -6.373
REMARK INTRA:                  -2.074
REMARK UNBOUND:                -2.069
REMARK SMILES O=C([O-])CCCCCCCCCCCCCCC(=O)[O-]
REMARK SMILES IDX 10 1 9 2 8 3 7 4 6 5 5 6 4 7 2 8 1 9 3 10 11 11 12 12 13 13
REMARK SMILES IDX 14 14 15 15 16 16 17 17 18 18 19 19 20 20
REMARK H PARENT
REMARK Flexibility Score: inf
ROOT
ATOM      1  C   UNL     1      42.916  31.217  88.252  1.00  0.00     0.000 C 
ENDROOT
BRANCH   1   2
ATOM      2  C   UNL     1      41.628  31.251  87.412  1.00  0.00     0.000 C 
BRANCH   2   3
ATOM      3  C   UNL     1      40.364  30.971  88.247  1.00  0.00     0.000 C 
BRANCH   3   4
ATOM      4  C   UNL     1      40.092  29.484  88.553  1.00  0.00     0.000 C 
BRANCH   4   5
ATOM      5  C   UNL     1      39.049  28.810  87.644  1.00  0.00     0.000 C 
BRANCH   5   6
ATOM      6  C   UNL     1      39.668  27.759  86.706  1.00  0.00     0.006 C 
BRANCH   6   7
ATOM      7  C   UNL     1      41.124  27.442  87.072  1.00  0.00     0.053 C 
BRANCH   7   8
ATOM      8  C   UNL     1      42.045  27.634  85.905  1.00  0.00     0.041 C 
ATOM      9  O   UNL     1      43.068  26.909  85.779  1.00  0.00    -0.550 OA
ATOM     10  O   UNL     1      41.794  28.638  84.977  1.00  0.00    -0.550 OA
ENDBRANCH   7   8
ENDBRANCH   6   7
ENDBRANCH   5   6
ENDBRANCH   4   5
ENDBRANCH   3   4
ENDBRANCH   2   3
ENDBRANCH   1   2
BRANCH   1  11
ATOM     11  C   UNL     1      43.870  30.089  87.827  1.00  0.00     0.000 C 
BRANCH  11  12
ATOM     12  C   UNL     1      45.235  30.170  88.533  1.00  0.00     0.000 C 
BRANCH  12  13
ATOM     13  C   UNL     1      45.407  31.468  89.338  1.00  0.00     0.000 C 
BRANCH  13  14
ATOM     14  C   UNL     1      45.906  31.216  90.769  1.00  0.00     0.000 C 
BRANCH  14  15
ATOM     15  C   UNL     1      44.777  31.429  91.789  1.00  0.00     0.000 C 
BRANCH  15  16
ATOM     16  C   UNL     1      44.141  30.108  92.251  1.00  0.00     0.006 C 
BRANCH  16  17
ATOM     17  C   UNL     1      42.846  29.780  91.496  1.00  0.00     0.053 C 
BRANCH  17  18
ATOM     18  C   UNL     1      42.683  28.299  91.361  1.00  0.00     0.041 C 
ATOM     19  O   UNL     1      42.866  27.739  90.249  1.00  0.00    -0.550 OA
ATOM     20  O   UNL     1      42.286  27.542  92.456  1.00  0.00    -0.550 OA
ENDBRANCH  17  18
ENDBRANCH  16  17
ENDBRANCH  15  16
ENDBRANCH  14  15
ENDBRANCH  13  14
ENDBRANCH  12  13
ENDBRANCH  11  12
ENDBRANCH   1  11
TORSDOF 15
ENDMDL
MODEL 4
REMARK VINA RESULT:    -3.389      2.216      2.879
REMARK INTER + INTRA:          -8.430
REMARK INTER:                  -6.230
REMARK INTRA:                  -2.200
REMARK UNBOUND:                -2.069
REMARK SMILES O=C([O-])CCCCCCCCCCCCCCC(=O)[O-]
REMARK SMILES IDX 10 1 9 2 8 3 7 4 6 5 5 6 4 7 2 8 1 9 3 10 11 11 12 12 13 13
REMARK SMILES IDX 14 14 15 15 16 16 17 17 18 18 19 19 20 20
REMARK H PARENT
REMARK Flexibility Score: inf
ROOT
ATOM      1  C   UNL     1      43.138  28.757  89.616  1.00  0.00     0.000 C 
ENDROOT
BRANCH   1   2
ATOM      2  C   UNL     1      42.556  29.584  90.776  1.00  0.00     0.000 C 
BRANCH   2   3
ATOM      3  C   UNL     1      43.321  29.379  92.097  1.00  0.00     0.000 C 
BRANCH   3   4
ATOM      4  C   UNL     1      44.745  29.969  92.132  1.00  0.00     0.000 C 
BRANCH   4   5
ATOM      5  C   UNL     1      44.892  31.361  91.491  1.00  0.00     0.000 C 
BRANCH   5   6
ATOM      6  C   UNL     1      46.048  31.432  90.479  1.00  0.00     0.006 C 
BRANCH   6   7
ATOM      7  C   UNL     1      46.684  30.058  90.229  1.00  0.00     0.053 C 
BRANCH   7   8
ATOM      8  C   UNL     1      48.180  30.113  90.315  1.00  0.00     0.041 C 
ATOM      9  O   UNL     1      48.792  31.179  90.035  1.00  0.00    -0.550 OA
ATOM     10  O   UNL     1      48.900  28.978  90.666  1.00  0.00    -0.550 OA
ENDBRANCH   7   8
ENDBRANCH   6   7
ENDBRANCH   5   6
ENDBRANCH   4   5
ENDBRANCH   3   4
ENDBRANCH   2   3
ENDBRANCH   1   2
BRANCH   1  11
ATOM     11  C   UNL     1      43.457  29.614  88.381  1.00  0.00     0.000 C 
BRANCH  11  12
ATOM     12  C   UNL     1      42.746  30.978  88.406  1.00  0.00     0.000 C 
BRANCH  12  13
ATOM     13  C   UNL     1      41.525  31.025  87.473  1.00  0.00     0.000 C 
BRANCH  13  14
ATOM     14  C   UNL     1      40.194  30.906  88.231  1.00  0.00     0.000 C 
BRANCH  14  15
ATOM     15  C   UNL     1      39.669  29.464  88.196  1.00  0.00     0.000 C 
BRANCH  15  16
ATOM     16  C   UNL     1      40.201  28.670  86.991  1.00  0.00     0.006 C 
BRANCH  16  17
ATOM     17  C   UNL     1      39.929  27.164  87.110  1.00  0.00     0.053 C 
BRANCH  17  18
ATOM     18  C   UNL     1      41.217  26.406  87.171  1.00  0.00     0.041 C 
ATOM     19  O   UNL     1      41.912  26.252  86.133  1.00  0.00    -0.550 OA
ATOM     20  O   UNL     1      41.629  25.831  88.366  1.00  0.00    -0.550 OA
ENDBRANCH  17  18
ENDBRANCH  16  17
ENDBRANCH  15  16
ENDBRANCH  14  15
ENDBRANCH  13  14
ENDBRANCH  12  13
ENDBRANCH  11  12
ENDBRANCH   1  11
TORSDOF 15
ENDMDL
MODEL 5
REMARK VINA RESULT:    -3.370      1.496      8.732
REMARK INTER + INTRA:          -8.393
REMARK INTER:                  -7.139
REMARK INTRA:                  -1.254
REMARK UNBOUND:                -2.069
REMARK SMILES O=C([O-])CCCCCCCCCCCCCCC(=O)[O-]
REMARK SMILES IDX 10 1 9 2 8 3 7 4 6 5 5 6 4 7 2 8 1 9 3 10 11 11 12 12 13 13
REMARK SMILES IDX 14 14 15 15 16 16 17 17 18 18 19 19 20 20
REMARK H PARENT
REMARK Flexibility Score: inf
ROOT
ATOM      1  C   UNL     1      44.095  30.814  90.262  1.00  0.00     0.000 C 
ENDROOT
BRANCH   1   2
ATOM      2  C   UNL     1      43.784  31.346  88.851  1.00  0.00     0.000 C 
BRANCH   2   3
ATOM      3  C   UNL     1      43.578  30.219  87.821  1.00  0.00     0.000 C 
BRANCH   3   4
ATOM      4  C   UNL     1      42.250  30.276  87.039  1.00  0.00     0.000 C 
BRANCH   4   5
ATOM      5  C   UNL     1      41.185  31.218  87.627  1.00  0.00     0.000 C 
BRANCH   5   6
ATOM      6  C   UNL     1      40.238  30.509  88.609  1.00  0.00     0.006 C 
BRANCH   6   7
ATOM      7  C   UNL     1      40.290  28.982  88.462  1.00  0.00     0.053 C 
BRANCH   7   8
ATOM      8  C   UNL     1      40.461  28.301  89.787  1.00  0.00     0.041 C 
ATOM      9  O   UNL     1      41.573  28.336  90.378  1.00  0.00    -0.550 OA
ATOM     10  O   UNL     1      39.404  27.597  90.350  1.00  0.00    -0.550 OA
ENDBRANCH   7   8
ENDBRANCH   6   7
ENDBRANCH   5   6
ENDBRANCH   4   5
ENDBRANCH   3   4
ENDBRANCH   2   3
ENDBRANCH   1   2
BRANCH   1  11
ATOM     11  C   UNL     1      45.559  30.377  90.420  1.00  0.00     0.000 C 
BRANCH  11  12
ATOM     12  C   UNL     1      46.553  31.515  90.126  1.00  0.00     0.000 C 
BRANCH  12  13
ATOM     13  C   UNL     1      48.012  31.033  90.103  1.00  0.00     0.000 C 
BRANCH  13  14
ATOM     14  C   UNL     1      48.753  31.448  88.823  1.00  0.00     0.000 C 
BRANCH  14  15
ATOM     15  C   UNL     1      47.786  32.074  87.807  1.00  0.00     0.000 C 
BRANCH  15  16
ATOM     16  C   UNL     1      48.509  32.927  86.751  1.00  0.00     0.006 C 
BRANCH  16  17
ATOM     17  C   UNL     1      49.882  33.419  87.228  1.00  0.00     0.053 C 
BRANCH  17  18
ATOM     18  C   UNL     1      49.980  34.905  87.087  1.00  0.00     0.041 C 
ATOM     19  O   UNL     1      48.939  35.612  87.079  1.00  0.00    -0.550 OA
ATOM     20  O   UNL     1      51.221  35.506  86.921  1.00  0.00    -0.550 OA
ENDBRANCH  17  18
ENDBRANCH  16  17
ENDBRANCH  15  16
ENDBRANCH  14  15
ENDBRANCH  13  14
ENDBRANCH  12  13
ENDBRANCH  11  12
ENDBRANCH   1  11
TORSDOF 15
ENDMDL
MODEL 6
REMARK VINA RESULT:    -3.310      2.318      3.473
REMARK INTER + INTRA:          -8.281
REMARK INTER:                  -6.228
REMARK INTRA:                  -2.053
REMARK UNBOUND:                -2.069
REMARK SMILES O=C([O-])CCCCCCCCCCCCCCC(=O)[O-]
REMARK SMILES IDX 10 1 9 2 8 3 7 4 6 5 5 6 4 7 2 8 1 9 3 10 11 11 12 12 13 13
REMARK SMILES IDX 14 14 15 15 16 16 17 17 18 18 19 19 20 20
REMARK H PARENT
REMARK Flexibility Score: inf
ROOT
ATOM      1  C   UNL     1      44.325  28.717  91.742  1.00  0.00     0.000 C 
ENDROOT
BRANCH   1   2
ATOM      2  C   UNL     1      43.840  30.076  92.276  1.00  0.00     0.000 C 
BRANCH   2   3
ATOM      3  C   UNL     1      44.510  31.269  91.568  1.00  0.00     0.000 C 
BRANCH   3   4
ATOM      4  C   UNL     1      44.508  31.206  90.027  1.00  0.00     0.000 C 
BRANCH   4   5
ATOM      5  C   UNL     1      45.870  31.472  89.360  1.00  0.00     0.000 C 
BRANCH   5   6
ATOM      6  C   UNL     1      47.057  31.202  90.300  1.00  0.00     0.006 C 
BRANCH   6   7
ATOM      7  C   UNL     1      47.633  29.792  90.115  1.00  0.00     0.053 C 
BRANCH   7   8
ATOM      8  C   UNL     1      49.009  29.827  89.521  1.00  0.00     0.041 C 
ATOM      9  O   UNL     1      49.590  28.754  89.204  1.00  0.00    -0.550 OA
ATOM     10  O   UNL     1      49.664  31.041  89.353  1.00  0.00    -0.550 OA
ENDBRANCH   7   8
ENDBRANCH   6   7
ENDBRANCH   5   6
ENDBRANCH   4   5
ENDBRANCH   3   4
ENDBRANCH   2   3
ENDBRANCH   1   2
BRANCH   1  11
ATOM     11  C   UNL     1      43.167  27.793  91.335  1.00  0.00     0.000 C 
BRANCH  11  12
ATOM     12  C   UNL     1      42.694  28.035  89.891  1.00  0.00     0.000 C 
BRANCH  12  13
ATOM     13  C   UNL     1      41.267  27.522  89.643  1.00  0.00     0.000 C 
BRANCH  13  14
ATOM     14  C   UNL     1      40.239  28.658  89.535  1.00  0.00     0.000 C 
BRANCH  14  15
ATOM     15  C   UNL     1      40.936  30.025  89.461  1.00  0.00     0.000 C 
BRANCH  15  16
ATOM     16  C   UNL     1      40.560  30.813  88.195  1.00  0.00     0.006 C 
BRANCH  16  17
ATOM     17  C   UNL     1      41.783  31.194  87.351  1.00  0.00     0.053 C 
BRANCH  17  18
ATOM     18  C   UNL     1      42.352  29.982  86.682  1.00  0.00     0.041 C 
ATOM     19  O   UNL     1      41.608  29.218  86.013  1.00  0.00    -0.550 OA
ATOM     20  O   UNL     1      43.697  29.672  86.834  1.00  0.00    -0.550 OA
ENDBRANCH  17  18
ENDBRANCH  16  17
ENDBRANCH  15  16
ENDBRANCH  14  15
ENDBRANCH  13  14
ENDBRANCH  12  13
ENDBRANCH  11  12
ENDBRANCH   1  11
TORSDOF 15
ENDMDL
MODEL 7
REMARK VINA RESULT:    -3.307      1.863      8.212
REMARK INTER + INTRA:          -8.276
REMARK INTER:                  -6.353
REMARK INTRA:                  -1.923
REMARK UNBOUND:                -2.069
REMARK SMILES O=C([O-])CCCCCCCCCCCCCCC(=O)[O-]
REMARK SMILES IDX 10 1 9 2 8 3 7 4 6 5 5 6 4 7 2 8 1 9 3 10 11 11 12 12 13 13
REMARK SMILES IDX 14 14 15 15 16 16 17 17 18 18 19 19 20 20
REMARK H PARENT
REMARK Flexibility Score: inf
ROOT
ATOM      1  C   UNL     1      43.449  29.092  90.319  1.00  0.00     0.000 C 
ENDROOT
BRANCH   1   2
ATOM      2  C   UNL     1      44.153  28.735  88.998  1.00  0.00     0.000 C 
BRANCH   2   3
ATOM      3  C   UNL     1      43.834  29.729  87.865  1.00  0.00     0.000 C 
BRANCH   3   4
ATOM      4  C   UNL     1      42.927  30.911  88.261  1.00  0.00     0.000 C 
BRANCH   4   5
ATOM      5  C   UNL     1      41.679  31.101  87.381  1.00  0.00     0.000 C 
BRANCH   5   6
ATOM      6  C   UNL     1      40.367  31.002  88.177  1.00  0.00     0.006 C 
BRANCH   6   7
ATOM      7  C   UNL     1      40.229  29.656  88.901  1.00  0.00     0.053 C 
BRANCH   7   8
ATOM      8  C   UNL     1      40.103  28.516  87.936  1.00  0.00     0.041 C 
ATOM      9  O   UNL     1      40.926  27.562  87.971  1.00  0.00    -0.550 OA
ATOM     10  O   UNL     1      39.101  28.525  86.974  1.00  0.00    -0.550 OA
ENDBRANCH   7   8
ENDBRANCH   6   7
ENDBRANCH   5   6
ENDBRANCH   4   5
ENDBRANCH   3   4
ENDBRANCH   2   3
ENDBRANCH   1   2
BRANCH   1  11
ATOM     11  C   UNL     1      44.433  29.251  91.490  1.00  0.00     0.000 C 
BRANCH  11  12
ATOM     12  C   UNL     1      45.788  29.833  91.050  1.00  0.00     0.000 C 
BRANCH  12  13
ATOM     13  C   UNL     1      45.714  31.340  90.754  1.00  0.00     0.000 C 
BRANCH  13  14
ATOM     14  C   UNL     1      46.564  31.748  89.541  1.00  0.00     0.000 C 
BRANCH  14  15
ATOM     15  C   UNL     1      47.521  30.617  89.136  1.00  0.00     0.000 C 
BRANCH  15  16
ATOM     16  C   UNL     1      48.999  31.027  89.243  1.00  0.00     0.006 C 
BRANCH  16  17
ATOM     17  C   UNL     1      49.638  30.590  90.568  1.00  0.00     0.053 C 
BRANCH  17  18
ATOM     18  C   UNL     1      50.754  31.515  90.938  1.00  0.00     0.041 C 
ATOM     19  O   UNL     1      51.507  31.989  90.048  1.00  0.00    -0.550 OA
ATOM     20  O   UNL     1      50.990  31.820  92.272  1.00  0.00    -0.550 OA
ENDBRANCH  17  18
ENDBRANCH  16  17
ENDBRANCH  15  16
ENDBRANCH  14  15
ENDBRANCH  13  14
ENDBRANCH  12  13
ENDBRANCH  11  12
ENDBRANCH   1  11
TORSDOF 15
ENDMDL
MODEL 8
REMARK VINA RESULT:    -3.307      7.737     10.098
REMARK INTER + INTRA:          -8.275
REMARK INTER:                  -6.296
REMARK INTRA:                  -1.980
REMARK UNBOUND:                -2.069
REMARK SMILES O=C([O-])CCCCCCCCCCCCCCC(=O)[O-]
REMARK SMILES IDX 10 1 9 2 8 3 7 4 6 5 5 6 4 7 2 8 1 9 3 10 11 11 12 12 13 13
REMARK SMILES IDX 14 14 15 15 16 16 17 17 18 18 19 19 20 20
REMARK H PARENT
REMARK Flexibility Score: inf
ROOT
ATOM      1  C   UNL     1      49.347  35.060  86.314  1.00  0.00     0.000 C 
ENDROOT
BRANCH   1   2
ATOM      2  C   UNL     1      48.720  33.887  87.088  1.00  0.00     0.000 C 
BRANCH   2   3
ATOM      3  C   UNL     1      48.860  32.543  86.349  1.00  0.00     0.000 C 
BRANCH   3   4
ATOM      4  C   UNL     1      50.072  31.685  86.766  1.00  0.00     0.000 C 
BRANCH   4   5
ATOM      5  C   UNL     1      49.951  31.006  88.142  1.00  0.00     0.000 C 
BRANCH   5   6
ATOM      6  C   UNL     1      50.755  31.730  89.236  1.00  0.00     0.006 C 
BRANCH   6   7
ATOM      7  C   UNL     1      50.563  31.086  90.616  1.00  0.00     0.053 C 
BRANCH   7   8
ATOM      8  C   UNL     1      51.448  31.714  91.650  1.00  0.00     0.041 C 
ATOM      9  O   UNL     1      52.690  31.503  91.635  1.00  0.00    -0.550 OA
ATOM     10  O   UNL     1      50.895  32.502  92.653  1.00  0.00    -0.550 OA
ENDBRANCH   7   8
ENDBRANCH   6   7
ENDBRANCH   5   6
ENDBRANCH   4   5
ENDBRANCH   3   4
ENDBRANCH   2   3
ENDBRANCH   1   2
BRANCH   1  11
ATOM     11  C   UNL     1      50.482  35.743  87.093  1.00  0.00     0.000 C 
BRANCH  11  12
ATOM     12  C   UNL     1      51.711  34.833  87.270  1.00  0.00     0.000 C 
BRANCH  12  13
ATOM     13  C   UNL     1      52.717  34.970  86.116  1.00  0.00     0.000 C 
BRANCH  13  14
ATOM     14  C   UNL     1      52.678  33.775  85.151  1.00  0.00     0.000 C 
BRANCH  14  15
ATOM     15  C   UNL     1      52.262  34.220  83.742  1.00  0.00     0.000 C 
BRANCH  15  16
ATOM     16  C   UNL     1      50.898  33.648  83.320  1.00  0.00     0.006 C 
BRANCH  16  17
ATOM     17  C   UNL     1      49.987  34.705  82.682  1.00  0.00     0.053 C 
BRANCH  17  18
ATOM     18  C   UNL     1      49.794  34.416  81.227  1.00  0.00     0.041 C 
ATOM     19  O   UNL     1      48.884  33.630  80.851  1.00  0.00    -0.550 OA
ATOM     20  O   UNL     1      50.647  34.979  80.287  1.00  0.00    -0.550 OA
ENDBRANCH  17  18
ENDBRANCH  16  17
ENDBRANCH  15  16
ENDBRANCH  14  15
ENDBRANCH  13  14
ENDBRANCH  12  13
ENDBRANCH  11  12
ENDBRANCH   1  11
TORSDOF 15
ENDMDL
MODEL 9
REMARK VINA RESULT:    -3.265      2.509      7.585
REMARK INTER + INTRA:          -8.196
REMARK INTER:                  -5.515
REMARK INTRA:                  -2.681
REMARK UNBOUND:                -2.069
REMARK SMILES O=C([O-])CCCCCCCCCCCCCCC(=O)[O-]
REMARK SMILES IDX 10 1 9 2 8 3 7 4 6 5 5 6 4 7 2 8 1 9 3 10 11 11 12 12 13 13
REMARK SMILES IDX 14 14 15 15 16 16 17 17 18 18 19 19 20 20
REMARK H PARENT
REMARK Flexibility Score: inf
ROOT
ATOM      1  C   UNL     1      46.967  27.972  89.896  1.00  0.00     0.000 C 
ENDROOT
BRANCH   1   2
ATOM      2  C   UNL     1      46.572  28.662  91.213  1.00  0.00     0.000 C 
BRANCH   2   3
ATOM      3  C   UNL     1      45.185  29.328  91.145  1.00  0.00     0.000 C 
BRANCH   3   4
ATOM      4  C   UNL     1      45.196  30.868  91.066  1.00  0.00     0.000 C 
BRANCH   4   5
ATOM      5  C   UNL     1      44.451  31.466  89.859  1.00  0.00     0.000 C 
BRANCH   5   6
ATOM      6  C   UNL     1      43.299  30.573  89.367  1.00  0.00     0.006 C 
BRANCH   6   7
ATOM      7  C   UNL     1      42.997  30.786  87.878  1.00  0.00     0.053 C 
BRANCH   7   8
ATOM      8  C   UNL     1      41.569  30.467  87.549  1.00  0.00     0.041 C 
ATOM      9  O   UNL     1      40.645  31.239  87.922  1.00  0.00    -0.550 OA
ATOM     10  O   UNL     1      41.257  29.300  86.863  1.00  0.00    -0.550 OA
ENDBRANCH   7   8
ENDBRANCH   6   7
ENDBRANCH   5   6
ENDBRANCH   4   5
ENDBRANCH   3   4
ENDBRANCH   2   3
ENDBRANCH   1   2
BRANCH   1  11
ATOM     11  C   UNL     1      45.795  27.870  88.907  1.00  0.00     0.000 C 
BRANCH  11  12
ATOM     12  C   UNL     1      46.064  28.619  87.590  1.00  0.00     0.000 C 
BRANCH  12  13
ATOM     13  C   UNL     1      47.389  29.398  87.614  1.00  0.00     0.000 C 
BRANCH  13  14
ATOM     14  C   UNL     1      47.183  30.920  87.559  1.00  0.00     0.000 C 
BRANCH  14  15
ATOM     15  C   UNL     1      47.936  31.618  88.701  1.00  0.00     0.000 C 
BRANCH  15  16
ATOM     16  C   UNL     1      49.241  30.896  89.077  1.00  0.00     0.006 C 
BRANCH  16  17
ATOM     17  C   UNL     1      49.450  30.806  90.594  1.00  0.00     0.053 C 
BRANCH  17  18
ATOM     18  C   UNL     1      50.696  31.532  90.992  1.00  0.00     0.041 C 
ATOM     19  O   UNL     1      51.599  31.756  90.143  1.00  0.00    -0.550 OA
ATOM     20  O   UNL     1      50.880  31.924  92.311  1.00  0.00    -0.550 OA
ENDBRANCH  17  18
ENDBRANCH  16  17
ENDBRANCH  15  16
ENDBRANCH  14  15
ENDBRANCH  13  14
ENDBRANCH  12  13
ENDBRANCH  11  12
ENDBRANCH   1  11
TORSDOF 15
ENDMDL
