MODEL 1
REMARK VINA RESULT:    -4.471      0.000      0.000
REMARK INTER + INTRA:          -6.882
REMARK INTER:                  -6.301
REMARK INTRA:                  -0.582
REMARK UNBOUND:                -0.582
REMARK SMILES CCCCCCCCC(=O)[O-]
REMARK SMILES IDX 6 1 7 2 8 3 9 4 10 5 11 6 5 7 4 8 3 9 2 10 1 11
REMARK H PARENT
REMARK Flexibility Score: inf
ROOT
ATOM      1  C   UNL     1      62.824 -29.100  -1.267  1.00  0.00     0.000 C 
ENDROOT
BRANCH   1   2
ATOM      2  C   UNL     1      61.578 -28.945  -0.387  1.00  0.00     0.006 C 
BRANCH   2   3
ATOM      3  C   UNL     1      60.306 -28.905  -1.239  1.00  0.00     0.053 C 
BRANCH   3   4
ATOM      4  C   UNL     1      59.110 -29.258  -0.410  1.00  0.00     0.041 C 
ATOM      5  O   UNL     1      58.255 -28.379  -0.126  1.00  0.00    -0.550 OA
ATOM      6  O   UNL     1      58.915 -30.569   0.006  1.00  0.00    -0.550 OA
ENDBRANCH   3   4
ENDBRANCH   2   3
ENDBRANCH   1   2
BRANCH   1   7
ATOM      7  C   UNL     1      63.581 -27.769  -1.389  1.00  0.00     0.000 C 
BRANCH   7   8
ATOM      8  C   UNL     1      63.416 -27.118  -2.771  1.00  0.00    -0.000 C 
BRANCH   8   9
ATOM      9  C   UNL     1      62.543 -25.854  -2.730  1.00  0.00    -0.000 C 
BRANCH   9  10
ATOM     10  C   UNL     1      61.215 -26.081  -3.459  1.00  0.00    -0.003 C 
ATOM     11  C   UNL     1      60.090 -25.268  -2.824  1.00  0.00     0.004 C 
ENDBRANCH   9  10
ENDBRANCH   8   9
ENDBRANCH   7   8
ENDBRANCH   1   7
TORSDOF 7
ENDMDL
MODEL 2
REMARK VINA RESULT:    -4.430      3.039      4.855
REMARK INTER + INTRA:          -6.825
REMARK INTER:                  -6.293
REMARK INTRA:                  -0.532
REMARK UNBOUND:                -0.582
REMARK SMILES CCCCCCCCC(=O)[O-]
REMARK SMILES IDX 6 1 7 2 8 3 9 4 10 5 11 6 5 7 4 8 3 9 2 10 1 11
REMARK H PARENT
REMARK Flexibility Score: inf
ROOT
ATOM      1  C   UNL     1      62.568 -25.857  -2.764  1.00  0.00     0.000 C 
ENDROOT
BRANCH   1   2
ATOM      2  C   UNL     1      61.135 -26.205  -3.185  1.00  0.00     0.006 C 
BRANCH   2   3
ATOM      3  C   UNL     1      60.244 -24.959  -3.185  1.00  0.00     0.053 C 
BRANCH   3   4
ATOM      4  C   UNL     1      59.922 -24.545  -4.587  1.00  0.00     0.041 C 
ATOM      5  O   UNL     1      59.958 -25.389  -5.520  1.00  0.00    -0.550 OA
ATOM      6  O   UNL     1      59.535 -23.238  -4.854  1.00  0.00    -0.550 OA
ENDBRANCH   3   4
ENDBRANCH   2   3
ENDBRANCH   1   2
BRANCH   1   7
ATOM      7  C   UNL     1      63.463 -27.105  -2.772  1.00  0.00     0.000 C 
BRANCH   7   8
ATOM      8  C   UNL     1      63.574 -27.764  -1.388  1.00  0.00    -0.000 C 
BRANCH   8   9
ATOM      9  C   UNL     1      62.769 -29.069  -1.287  1.00  0.00    -0.000 C 
BRANCH   9  10
ATOM     10  C   UNL     1      61.584 -28.909  -0.329  1.00  0.00    -0.003 C 
ATOM     11  C   UNL     1      60.255 -29.056  -1.066  1.00  0.00     0.004 C 
ENDBRANCH   9  10
ENDBRANCH   8   9
ENDBRANCH   7   8
ENDBRANCH   1   7
TORSDOF 7
ENDMDL
MODEL 3
REMARK VINA RESULT:    -4.427      1.559      2.386
REMARK INTER + INTRA:          -6.820
REMARK INTER:                  -6.430
REMARK INTRA:                  -0.390
REMARK UNBOUND:                -0.582
REMARK SMILES CCCCCCCCC(=O)[O-]
REMARK SMILES IDX 6 1 7 2 8 3 9 4 10 5 11 6 5 7 4 8 3 9 2 10 1 11
REMARK H PARENT
REMARK Flexibility Score: inf
ROOT
ATOM      1  C   UNL     1      63.652 -27.079  -1.933  1.00  0.00     0.000 C 
ENDROOT
BRANCH   1   2
ATOM      2  C   UNL     1      62.889 -28.408  -1.896  1.00  0.00     0.006 C 
BRANCH   2   3
ATOM      3  C   UNL     1      62.715 -28.901  -0.457  1.00  0.00     0.053 C 
BRANCH   3   4
ATOM      4  C   UNL     1      61.264 -29.092  -0.141  1.00  0.00     0.041 C 
ATOM      5  O   UNL     1      60.423 -29.201  -1.071  1.00  0.00    -0.550 OA
ATOM      6  O   UNL     1      60.848 -29.198   1.181  1.00  0.00    -0.550 OA
ENDBRANCH   3   4
ENDBRANCH   2   3
ENDBRANCH   1   2
BRANCH   1   7
ATOM      7  C   UNL     1      62.915 -26.046  -2.799  1.00  0.00     0.000 C 
BRANCH   7   8
ATOM      8  C   UNL     1      61.400 -26.298  -2.862  1.00  0.00    -0.000 C 
BRANCH   8   9
ATOM      9  C   UNL     1      60.619 -25.083  -3.384  1.00  0.00    -0.000 C 
BRANCH   9  10
ATOM     10  C   UNL     1      59.997 -25.378  -4.753  1.00  0.00    -0.003 C 
ATOM     11  C   UNL     1      60.971 -25.050  -5.883  1.00  0.00     0.004 C 
ENDBRANCH   9  10
ENDBRANCH   8   9
ENDBRANCH   7   8
ENDBRANCH   1   7
TORSDOF 7
ENDMDL
MODEL 4
REMARK VINA RESULT:    -4.359      2.770      4.538
REMARK INTER + INTRA:          -6.725
REMARK INTER:                  -6.246
REMARK INTRA:                  -0.478
REMARK UNBOUND:                -0.582
REMARK SMILES CCCCCCCCC(=O)[O-]
REMARK SMILES IDX 6 1 7 2 8 3 9 4 10 5 11 6 5 7 4 8 3 9 2 10 1 11
REMARK H PARENT
REMARK Flexibility Score: inf
ROOT
ATOM      1  C   UNL     1      63.490 -27.185  -2.754  1.00  0.00     0.000 C 
ENDROOT
BRANCH   1   2
ATOM      2  C   UNL     1      62.667 -25.891  -2.735  1.00  0.00     0.006 C 
BRANCH   2   3
ATOM      3  C   UNL     1      61.181 -26.183  -2.966  1.00  0.00     0.053 C 
BRANCH   3   4
ATOM      4  C   UNL     1      60.652 -25.349  -4.091  1.00  0.00     0.041 C 
ATOM      5  O   UNL     1      59.630 -24.633  -3.923  1.00  0.00    -0.550 OA
ATOM      6  O   UNL     1      61.318 -25.324  -5.310  1.00  0.00    -0.550 OA
ENDBRANCH   3   4
ENDBRANCH   2   3
ENDBRANCH   1   2
BRANCH   1   7
ATOM      7  C   UNL     1      63.568 -27.807  -1.352  1.00  0.00     0.000 C 
BRANCH   7   8
ATOM      8  C   UNL     1      62.766 -29.113  -1.238  1.00  0.00    -0.000 C 
BRANCH   8   9
ATOM      9  C   UNL     1      61.600 -29.007  -0.243  1.00  0.00    -0.000 C 
BRANCH   9  10
ATOM     10  C   UNL     1      60.254 -29.170  -0.956  1.00  0.00    -0.003 C 
ATOM     11  C   UNL     1      59.230 -29.855  -0.054  1.00  0.00     0.004 C 
ENDBRANCH   9  10
ENDBRANCH   8   9
ENDBRANCH   7   8
ENDBRANCH   1   7
TORSDOF 7
ENDMDL
MODEL 5
REMARK VINA RESULT:    -4.286      1.435      2.378
REMARK INTER + INTRA:          -6.622
REMARK INTER:                  -6.096
REMARK INTRA:                  -0.526
REMARK UNBOUND:                -0.582
REMARK SMILES CCCCCCCCC(=O)[O-]
REMARK SMILES IDX 6 1 7 2 8 3 9 4 10 5 11 6 5 7 4 8 3 9 2 10 1 11
REMARK H PARENT
REMARK Flexibility Score: inf
ROOT
ATOM      1  C   UNL     1      63.604 -26.987  -2.017  1.00  0.00     0.000 C 
ENDROOT
BRANCH   1   2
ATOM      2  C   UNL     1      62.814 -28.302  -1.990  1.00  0.00     0.006 C 
BRANCH   2   3
ATOM      3  C   UNL     1      62.681 -28.833  -0.559  1.00  0.00     0.053 C 
BRANCH   3   4
ATOM      4  C   UNL     1      61.243 -29.072  -0.221  1.00  0.00     0.041 C 
ATOM      5  O   UNL     1      60.878 -29.140   0.981  1.00  0.00    -0.550 OA
ATOM      6  O   UNL     1      60.298 -29.171  -1.235  1.00  0.00    -0.550 OA
ENDBRANCH   3   4
ENDBRANCH   2   3
ENDBRANCH   1   2
BRANCH   1   7
ATOM      7  C   UNL     1      62.849 -25.909  -2.809  1.00  0.00     0.000 C 
BRANCH   7   8
ATOM      8  C   UNL     1      61.432 -26.349  -3.208  1.00  0.00    -0.000 C 
BRANCH   8   9
ATOM      9  C   UNL     1      60.360 -25.321  -2.816  1.00  0.00    -0.000 C 
BRANCH   9  10
ATOM     10  C   UNL     1      59.027 -26.010  -2.504  1.00  0.00    -0.003 C 
ATOM     11  C   UNL     1      58.703 -27.081  -3.543  1.00  0.00     0.004 C 
ENDBRANCH   9  10
ENDBRANCH   8   9
ENDBRANCH   7   8
ENDBRANCH   1   7
TORSDOF 7
ENDMDL
MODEL 6
REMARK VINA RESULT:    -4.286      3.588      5.246
REMARK INTER + INTRA:          -6.621
REMARK INTER:                  -6.130
REMARK INTRA:                  -0.492
REMARK UNBOUND:                -0.582
REMARK SMILES CCCCCCCCC(=O)[O-]
REMARK SMILES IDX 6 1 7 2 8 3 9 4 10 5 11 6 5 7 4 8 3 9 2 10 1 11
REMARK H PARENT
REMARK Flexibility Score: inf
ROOT
ATOM      1  C   UNL     1      61.066 -26.076  -2.694  1.00  0.00     0.000 C 
ENDROOT
BRANCH   1   2
ATOM      2  C   UNL     1      60.109 -26.120  -3.892  1.00  0.00     0.006 C 
BRANCH   2   3
ATOM      3  C   UNL     1      60.675 -25.329  -5.076  1.00  0.00     0.053 C 
BRANCH   3   4
ATOM      4  C   UNL     1      59.693 -24.296  -5.532  1.00  0.00     0.041 C 
ATOM      5  O   UNL     1      59.485 -23.269  -4.834  1.00  0.00    -0.550 OA
ATOM      6  O   UNL     1      59.045 -24.443  -6.752  1.00  0.00    -0.550 OA
ENDBRANCH   3   4
ENDBRANCH   2   3
ENDBRANCH   1   2
BRANCH   1   7
ATOM      7  C   UNL     1      62.508 -25.809  -3.152  1.00  0.00     0.000 C 
BRANCH   7   8
ATOM      8  C   UNL     1      63.547 -26.556  -2.302  1.00  0.00    -0.000 C 
BRANCH   8   9
ATOM      9  C   UNL     1      63.285 -28.069  -2.239  1.00  0.00    -0.000 C 
BRANCH   9  10
ATOM     10  C   UNL     1      63.207 -28.552  -0.788  1.00  0.00    -0.003 C 
ATOM     11  C   UNL     1      61.793 -29.005  -0.431  1.00  0.00     0.004 C 
ENDBRANCH   9  10
ENDBRANCH   8   9
ENDBRANCH   7   8
ENDBRANCH   1   7
TORSDOF 7
ENDMDL
MODEL 7
REMARK VINA RESULT:    -4.277      2.018      4.003
REMARK INTER + INTRA:          -6.608
REMARK INTER:                  -5.947
REMARK INTRA:                  -0.661
REMARK UNBOUND:                -0.582
REMARK SMILES CCCCCCCCC(=O)[O-]
REMARK SMILES IDX 6 1 7 2 8 3 9 4 10 5 11 6 5 7 4 8 3 9 2 10 1 11
REMARK H PARENT
REMARK Flexibility Score: inf
ROOT
ATOM      1  C   UNL     1      62.595 -25.710  -2.767  1.00  0.00     0.000 C 
ENDROOT
BRANCH   1   2
ATOM      2  C   UNL     1      61.260 -26.067  -3.432  1.00  0.00     0.006 C 
BRANCH   2   3
ATOM      3  C   UNL     1      60.095 -25.348  -2.746  1.00  0.00     0.053 C 
BRANCH   3   4
ATOM      4  C   UNL     1      58.789 -25.795  -3.327  1.00  0.00     0.041 C 
ATOM      5  O   UNL     1      58.656 -26.972  -3.751  1.00  0.00    -0.550 OA
ATOM      6  O   UNL     1      57.706 -24.925  -3.353  1.00  0.00    -0.550 OA
ENDBRANCH   3   4
ENDBRANCH   2   3
ENDBRANCH   1   2
BRANCH   1   7
ATOM      7  C   UNL     1      63.568 -26.898  -2.812  1.00  0.00     0.000 C 
BRANCH   7   8
ATOM      8  C   UNL     1      63.646 -27.650  -1.474  1.00  0.00    -0.000 C 
BRANCH   8   9
ATOM      9  C   UNL     1      62.834 -28.955  -1.480  1.00  0.00    -0.000 C 
BRANCH   9  10
ATOM     10  C   UNL     1      61.674 -28.882  -0.482  1.00  0.00    -0.003 C 
ATOM     11  C   UNL     1      60.327 -28.967  -1.194  1.00  0.00     0.004 C 
ENDBRANCH   9  10
ENDBRANCH   8   9
ENDBRANCH   7   8
ENDBRANCH   1   7
TORSDOF 7
ENDMDL
MODEL 8
REMARK VINA RESULT:    -4.216      1.297      1.653
REMARK INTER + INTRA:          -6.523
REMARK INTER:                  -5.881
REMARK INTRA:                  -0.642
REMARK UNBOUND:                -0.582
REMARK SMILES CCCCCCCCC(=O)[O-]
REMARK SMILES IDX 6 1 7 2 8 3 9 4 10 5 11 6 5 7 4 8 3 9 2 10 1 11
REMARK H PARENT
REMARK Flexibility Score: inf
ROOT
ATOM      1  C   UNL     1      62.197 -28.949  -0.395  1.00  0.00     0.000 C 
ENDROOT
BRANCH   1   2
ATOM      2  C   UNL     1      60.668 -28.930  -0.284  1.00  0.00     0.006 C 
BRANCH   2   3
ATOM      3  C   UNL     1      60.022 -28.623  -1.638  1.00  0.00     0.053 C 
BRANCH   3   4
ATOM      4  C   UNL     1      58.858 -27.697  -1.466  1.00  0.00     0.041 C 
ATOM      5  O   UNL     1      58.567 -26.870  -2.369  1.00  0.00    -0.550 OA
ATOM      6  O   UNL     1      58.065 -27.783  -0.328  1.00  0.00    -0.550 OA
ENDBRANCH   3   4
ENDBRANCH   2   3
ENDBRANCH   1   2
BRANCH   1   7
ATOM      7  C   UNL     1      62.651 -28.530  -1.802  1.00  0.00     0.000 C 
BRANCH   7   8
ATOM      8  C   UNL     1      63.645 -27.358  -1.779  1.00  0.00    -0.000 C 
BRANCH   8   9
ATOM      9  C   UNL     1      63.365 -26.323  -2.879  1.00  0.00    -0.000 C 
BRANCH   9  10
ATOM     10  C   UNL     1      61.929 -25.797  -2.784  1.00  0.00    -0.003 C 
ATOM     11  C   UNL     1      61.329 -25.575  -4.170  1.00  0.00     0.004 C 
ENDBRANCH   9  10
ENDBRANCH   8   9
ENDBRANCH   7   8
ENDBRANCH   1   7
TORSDOF 7
ENDMDL
MODEL 9
REMARK VINA RESULT:    -4.213      1.235      3.146
REMARK INTER + INTRA:          -6.519
REMARK INTER:                  -5.848
REMARK INTRA:                  -0.671
REMARK UNBOUND:                -0.582
REMARK SMILES CCCCCCCCC(=O)[O-]
REMARK SMILES IDX 6 1 7 2 8 3 9 4 10 5 11 6 5 7 4 8 3 9 2 10 1 11
REMARK H PARENT
REMARK Flexibility Score: inf
ROOT
ATOM      1  C   UNL     1      61.370 -25.735  -3.809  1.00  0.00     0.000 C 
ENDROOT
BRANCH   1   2
ATOM      2  C   UNL     1      60.187 -25.897  -2.847  1.00  0.00     0.006 C 
BRANCH   2   3
ATOM      3  C   UNL     1      59.757 -27.364  -2.747  1.00  0.00     0.053 C 
BRANCH   3   4
ATOM      4  C   UNL     1      58.705 -27.530  -1.695  1.00  0.00     0.041 C 
ATOM      5  O   UNL     1      57.908 -26.590  -1.442  1.00  0.00    -0.550 OA
ATOM      6  O   UNL     1      58.575 -28.743  -1.029  1.00  0.00    -0.550 OA
ENDBRANCH   3   4
ENDBRANCH   2   3
ENDBRANCH   1   2
BRANCH   1   7
ATOM      7  C   UNL     1      62.683 -25.534  -3.038  1.00  0.00     0.000 C 
BRANCH   7   8
ATOM      8  C   UNL     1      63.544 -26.806  -2.993  1.00  0.00    -0.000 C 
BRANCH   8   9
ATOM      9  C   UNL     1      63.636 -27.409  -1.583  1.00  0.00    -0.000 C 
BRANCH   9  10
ATOM     10  C   UNL     1      63.044 -28.822  -1.552  1.00  0.00    -0.003 C 
ATOM     11  C   UNL     1      62.123 -29.009  -0.349  1.00  0.00     0.004 C 
ENDBRANCH   9  10
ENDBRANCH   8   9
ENDBRANCH   7   8
ENDBRANCH   1   7
TORSDOF 7
ENDMDL
