MODEL 1
REMARK VINA RESULT:    -4.258      0.000      0.000
REMARK INTER + INTRA:          -6.691
REMARK INTER:                  -6.001
REMARK INTRA:                  -0.690
REMARK UNBOUND:                -0.690
REMARK SMILES CCCCCCCCC(=O)[O-]
REMARK SMILES IDX 6 1 7 2 8 3 9 4 10 5 11 6 5 7 4 8 3 9 2 10 1 11
REMARK H PARENT
REMARK Flexibility Score: inf
ROOT
ATOM      1  C   UNL     1      13.959  -6.528  13.041  1.00  0.00     0.000 C 
ENDROOT
BRANCH   1   2
ATOM      2  C   UNL     1      14.463  -5.546  11.975  1.00  0.00     0.006 C 
BRANCH   2   3
ATOM      3  C   UNL     1      15.924  -5.162  12.228  1.00  0.00     0.053 C 
BRANCH   3   4
ATOM      4  C   UNL     1      16.801  -5.694  11.139  1.00  0.00     0.041 C 
ATOM      5  O   UNL     1      17.943  -6.151  11.412  1.00  0.00    -0.550 OA
ATOM      6  O   UNL     1      16.340  -5.730   9.830  1.00  0.00    -0.550 OA
ENDBRANCH   3   4
ENDBRANCH   2   3
ENDBRANCH   1   2
BRANCH   1   7
ATOM      7  C   UNL     1      15.076  -7.028  13.976  1.00  0.00     0.000 C 
BRANCH   7   8
ATOM      8  C   UNL     1      14.860  -6.730  15.471  1.00  0.00    -0.000 C 
BRANCH   8   9
ATOM      9  C   UNL     1      15.354  -5.332  15.881  1.00  0.00    -0.000 C 
BRANCH   9  10
ATOM     10  C   UNL     1      14.203  -4.397  16.284  1.00  0.00    -0.003 C 
ATOM     11  C   UNL     1      13.874  -3.363  15.208  1.00  0.00     0.004 C 
ENDBRANCH   9  10
ENDBRANCH   8   9
ENDBRANCH   7   8
ENDBRANCH   1   7
TORSDOF 7
ENDMDL
MODEL 2
REMARK VINA RESULT:    -4.257      3.792      5.586
REMARK INTER + INTRA:          -6.690
REMARK INTER:                  -6.171
REMARK INTRA:                  -0.519
REMARK UNBOUND:                -0.690
REMARK SMILES CCCCCCCCC(=O)[O-]
REMARK SMILES IDX 6 1 7 2 8 3 9 4 10 5 11 6 5 7 4 8 3 9 2 10 1 11
REMARK H PARENT
REMARK Flexibility Score: inf
ROOT
ATOM      1  C   UNL     1      16.520  -6.001  15.884  1.00  0.00     0.000 C 
ENDROOT
BRANCH   1   2
ATOM      2  C   UNL     1      16.516  -4.466  15.928  1.00  0.00     0.006 C 
BRANCH   2   3
ATOM      3  C   UNL     1      17.782  -3.933  16.605  1.00  0.00     0.053 C 
BRANCH   3   4
ATOM      4  C   UNL     1      17.426  -3.053  17.761  1.00  0.00     0.041 C 
ATOM      5  O   UNL     1      16.380  -2.352  17.725  1.00  0.00    -0.550 OA
ATOM      6  O   UNL     1      18.223  -3.043  18.898  1.00  0.00    -0.550 OA
ENDBRANCH   3   4
ENDBRANCH   2   3
ENDBRANCH   1   2
BRANCH   1   7
ATOM      7  C   UNL     1      15.458  -6.580  14.932  1.00  0.00     0.000 C 
BRANCH   7   8
ATOM      8  C   UNL     1      16.003  -7.132  13.601  1.00  0.00    -0.000 C 
BRANCH   8   9
ATOM      9  C   UNL     1      16.091  -6.062  12.500  1.00  0.00    -0.000 C 
BRANCH   9  10
ATOM     10  C   UNL     1      17.476  -6.014  11.836  1.00  0.00    -0.003 C 
ATOM     11  C   UNL     1      18.368  -4.910  12.402  1.00  0.00     0.004 C 
ENDBRANCH   9  10
ENDBRANCH   8   9
ENDBRANCH   7   8
ENDBRANCH   1   7
TORSDOF 7
ENDMDL
MODEL 3
REMARK VINA RESULT:    -4.222      1.726      2.324
REMARK INTER + INTRA:          -6.640
REMARK INTER:                  -5.991
REMARK INTRA:                  -0.649
REMARK UNBOUND:                -0.690
REMARK SMILES CCCCCCCCC(=O)[O-]
REMARK SMILES IDX 6 1 7 2 8 3 9 4 10 5 11 6 5 7 4 8 3 9 2 10 1 11
REMARK H PARENT
REMARK Flexibility Score: inf
ROOT
ATOM      1  C   UNL     1      15.255  -6.734  13.366  1.00  0.00     0.000 C 
ENDROOT
BRANCH   1   2
ATOM      2  C   UNL     1      13.837  -6.476  12.837  1.00  0.00     0.006 C 
BRANCH   2   3
ATOM      3  C   UNL     1      13.654  -5.006  12.451  1.00  0.00     0.053 C 
BRANCH   3   4
ATOM      4  C   UNL     1      13.684  -4.847  10.964  1.00  0.00     0.041 C 
ATOM      5  O   UNL     1      12.629  -4.570  10.335  1.00  0.00    -0.550 OA
ATOM      6  O   UNL     1      14.886  -4.957  10.277  1.00  0.00    -0.550 OA
ENDBRANCH   3   4
ENDBRANCH   2   3
ENDBRANCH   1   2
BRANCH   1   7
ATOM      7  C   UNL     1      15.274  -7.231  14.823  1.00  0.00     0.000 C 
BRANCH   7   8
ATOM      8  C   UNL     1      14.909  -6.172  15.880  1.00  0.00    -0.000 C 
BRANCH   8   9
ATOM      9  C   UNL     1      15.831  -4.943  15.840  1.00  0.00    -0.000 C 
BRANCH   9  10
ATOM     10  C   UNL     1      15.048  -3.621  15.783  1.00  0.00    -0.003 C 
ATOM     11  C   UNL     1      13.718  -3.688  16.532  1.00  0.00     0.004 C 
ENDBRANCH   9  10
ENDBRANCH   8   9
ENDBRANCH   7   8
ENDBRANCH   1   7
TORSDOF 7
ENDMDL
MODEL 4
REMARK VINA RESULT:    -4.191      2.009      2.840
REMARK INTER + INTRA:          -6.596
REMARK INTER:                  -6.230
REMARK INTRA:                  -0.366
REMARK UNBOUND:                -0.690
REMARK SMILES CCCCCCCCC(=O)[O-]
REMARK SMILES IDX 6 1 7 2 8 3 9 4 10 5 11 6 5 7 4 8 3 9 2 10 1 11
REMARK H PARENT
REMARK Flexibility Score: inf
ROOT
ATOM      1  C   UNL     1      14.626  -4.456  14.565  1.00  0.00     0.000 C 
ENDROOT
BRANCH   1   2
ATOM      2  C   UNL     1      15.967  -4.418  13.820  1.00  0.00     0.006 C 
BRANCH   2   3
ATOM      3  C   UNL     1      16.201  -5.716  13.042  1.00  0.00     0.053 C 
BRANCH   3   4
ATOM      4  C   UNL     1      17.148  -5.484  11.908  1.00  0.00     0.041 C 
ATOM      5  O   UNL     1      18.358  -5.220  12.137  1.00  0.00    -0.550 OA
ATOM      6  O   UNL     1      16.707  -5.608  10.598  1.00  0.00    -0.550 OA
ENDBRANCH   3   4
ENDBRANCH   2   3
ENDBRANCH   1   2
BRANCH   1   7
ATOM      7  C   UNL     1      14.788  -4.568  16.092  1.00  0.00     0.000 C 
BRANCH   7   8
ATOM      8  C   UNL     1      14.311  -3.340  16.892  1.00  0.00    -0.000 C 
BRANCH   8   9
ATOM      9  C   UNL     1      15.456  -2.619  17.622  1.00  0.00    -0.000 C 
BRANCH   9  10
ATOM     10  C   UNL     1      16.822  -3.276  17.368  1.00  0.00    -0.003 C 
ATOM     11  C   UNL     1      17.792  -3.097  18.535  1.00  0.00     0.004 C 
ENDBRANCH   9  10
ENDBRANCH   8   9
ENDBRANCH   7   8
ENDBRANCH   1   7
TORSDOF 7
ENDMDL
MODEL 5
REMARK VINA RESULT:    -4.184      3.253      4.394
REMARK INTER + INTRA:          -6.586
REMARK INTER:                  -5.831
REMARK INTRA:                  -0.755
REMARK UNBOUND:                -0.690
REMARK SMILES CCCCCCCCC(=O)[O-]
REMARK SMILES IDX 6 1 7 2 8 3 9 4 10 5 11 6 5 7 4 8 3 9 2 10 1 11
REMARK H PARENT
REMARK Flexibility Score: inf
ROOT
ATOM      1  C   UNL     1      15.122  -4.787  10.360  1.00  0.00     0.000 C 
ENDROOT
BRANCH   1   2
ATOM      2  C   UNL     1      13.883  -5.610  10.741  1.00  0.00     0.006 C 
BRANCH   2   3
ATOM      3  C   UNL     1      13.071  -4.907  11.833  1.00  0.00     0.053 C 
BRANCH   3   4
ATOM      4  C   UNL     1      12.395  -3.691  11.281  1.00  0.00     0.041 C 
ATOM      5  O   UNL     1      11.591  -3.796  10.318  1.00  0.00    -0.550 OA
ATOM      6  O   UNL     1      12.617  -2.450  11.861  1.00  0.00    -0.550 OA
ENDBRANCH   3   4
ENDBRANCH   2   3
ENDBRANCH   1   2
BRANCH   1   7
ATOM      7  C   UNL     1      16.359  -5.656  10.074  1.00  0.00     0.000 C 
BRANCH   7   8
ATOM      8  C   UNL     1      17.218  -5.998  11.306  1.00  0.00    -0.000 C 
BRANCH   8   9
ATOM      9  C   UNL     1      17.053  -4.985  12.451  1.00  0.00    -0.000 C 
BRANCH   9  10
ATOM     10  C   UNL     1      16.431  -5.613  13.708  1.00  0.00    -0.003 C 
ATOM     11  C   UNL     1      16.016  -7.069  13.499  1.00  0.00     0.004 C 
ENDBRANCH   9  10
ENDBRANCH   8   9
ENDBRANCH   7   8
ENDBRANCH   1   7
TORSDOF 7
ENDMDL
MODEL 6
REMARK VINA RESULT:    -4.181      1.542      2.214
REMARK INTER + INTRA:          -6.582
REMARK INTER:                  -6.041
REMARK INTRA:                  -0.541
REMARK UNBOUND:                -0.690
REMARK SMILES CCCCCCCCC(=O)[O-]
REMARK SMILES IDX 6 1 7 2 8 3 9 4 10 5 11 6 5 7 4 8 3 9 2 10 1 11
REMARK H PARENT
REMARK Flexibility Score: inf
ROOT
ATOM      1  C   UNL     1      14.128  -6.315  12.792  1.00  0.00     0.000 C 
ENDROOT
BRANCH   1   2
ATOM      2  C   UNL     1      14.041  -4.866  12.292  1.00  0.00     0.006 C 
BRANCH   2   3
ATOM      3  C   UNL     1      13.267  -4.785  10.973  1.00  0.00     0.053 C 
BRANCH   3   4
ATOM      4  C   UNL     1      14.062  -5.395   9.862  1.00  0.00     0.041 C 
ATOM      5  O   UNL     1      13.502  -6.147   9.021  1.00  0.00    -0.550 OA
ATOM      6  O   UNL     1      15.410  -5.093   9.725  1.00  0.00    -0.550 OA
ENDBRANCH   3   4
ENDBRANCH   2   3
ENDBRANCH   1   2
BRANCH   1   7
ATOM      7  C   UNL     1      15.544  -6.712  13.246  1.00  0.00     0.000 C 
BRANCH   7   8
ATOM      8  C   UNL     1      15.628  -7.341  14.650  1.00  0.00    -0.000 C 
BRANCH   8   9
ATOM      9  C   UNL     1      14.818  -6.566  15.703  1.00  0.00    -0.000 C 
BRANCH   9  10
ATOM     10  C   UNL     1      15.363  -5.148  15.939  1.00  0.00    -0.003 C 
ATOM     11  C   UNL     1      14.269  -4.144  16.298  1.00  0.00     0.004 C 
ENDBRANCH   9  10
ENDBRANCH   8   9
ENDBRANCH   7   8
ENDBRANCH   1   7
TORSDOF 7
ENDMDL
MODEL 7
REMARK VINA RESULT:    -4.179      1.804      2.174
REMARK INTER + INTRA:          -6.579
REMARK INTER:                  -5.930
REMARK INTRA:                  -0.649
REMARK UNBOUND:                -0.690
REMARK SMILES CCCCCCCCC(=O)[O-]
REMARK SMILES IDX 6 1 7 2 8 3 9 4 10 5 11 6 5 7 4 8 3 9 2 10 1 11
REMARK H PARENT
REMARK Flexibility Score: inf
ROOT
ATOM      1  C   UNL     1      15.903  -7.139  13.614  1.00  0.00     0.000 C 
ENDROOT
BRANCH   1   2
ATOM      2  C   UNL     1      16.064  -6.029  12.565  1.00  0.00     0.006 C 
BRANCH   2   3
ATOM      3  C   UNL     1      17.479  -6.029  11.979  1.00  0.00     0.053 C 
BRANCH   3   4
ATOM      4  C   UNL     1      18.260  -4.861  12.494  1.00  0.00     0.041 C 
ATOM      5  O   UNL     1      17.661  -3.831  12.904  1.00  0.00    -0.550 OA
ATOM      6  O   UNL     1      19.644  -4.928  12.566  1.00  0.00    -0.550 OA
ENDBRANCH   3   4
ENDBRANCH   2   3
ENDBRANCH   1   2
BRANCH   1   7
ATOM      7  C   UNL     1      15.380  -6.620  14.965  1.00  0.00     0.000 C 
BRANCH   7   8
ATOM      8  C   UNL     1      16.449  -6.010  15.891  1.00  0.00    -0.000 C 
BRANCH   8   9
ATOM      9  C   UNL     1      16.326  -4.483  16.023  1.00  0.00    -0.000 C 
BRANCH   9  10
ATOM     10  C   UNL     1      14.963  -3.959  15.543  1.00  0.00    -0.003 C 
ATOM     11  C   UNL     1      14.024  -3.605  16.695  1.00  0.00     0.004 C 
ENDBRANCH   9  10
ENDBRANCH   8   9
ENDBRANCH   7   8
ENDBRANCH   1   7
TORSDOF 7
ENDMDL
MODEL 8
REMARK VINA RESULT:    -4.177      3.346      5.159
REMARK INTER + INTRA:          -6.577
REMARK INTER:                  -6.062
REMARK INTRA:                  -0.514
REMARK UNBOUND:                -0.690
REMARK SMILES CCCCCCCCC(=O)[O-]
REMARK SMILES IDX 6 1 7 2 8 3 9 4 10 5 11 6 5 7 4 8 3 9 2 10 1 11
REMARK H PARENT
REMARK Flexibility Score: inf
ROOT
ATOM      1  C   UNL     1      15.893  -6.744  15.103  1.00  0.00     0.000 C 
ENDROOT
BRANCH   1   2
ATOM      2  C   UNL     1      14.911  -5.636  15.508  1.00  0.00     0.006 C 
BRANCH   2   3
ATOM      3  C   UNL     1      15.659  -4.374  15.948  1.00  0.00     0.053 C 
BRANCH   3   4
ATOM      4  C   UNL     1      14.753  -3.472  16.725  1.00  0.00     0.041 C 
ATOM      5  O   UNL     1      13.519  -3.447  16.475  1.00  0.00    -0.550 OA
ATOM      6  O   UNL     1      15.262  -2.695  17.756  1.00  0.00    -0.550 OA
ENDBRANCH   3   4
ENDBRANCH   2   3
ENDBRANCH   1   2
BRANCH   1   7
ATOM      7  C   UNL     1      15.794  -7.123  13.615  1.00  0.00     0.000 C 
BRANCH   7   8
ATOM      8  C   UNL     1      15.037  -6.113  12.731  1.00  0.00    -0.000 C 
BRANCH   8   9
ATOM      9  C   UNL     1      15.949  -5.402  11.718  1.00  0.00    -0.000 C 
BRANCH   9  10
ATOM     10  C   UNL     1      17.377  -5.972  11.711  1.00  0.00    -0.003 C 
ATOM     11  C   UNL     1      18.407  -4.997  12.280  1.00  0.00     0.004 C 
ENDBRANCH   9  10
ENDBRANCH   8   9
ENDBRANCH   7   8
ENDBRANCH   1   7
TORSDOF 7
ENDMDL
MODEL 9
REMARK VINA RESULT:    -4.176      2.619      4.292
REMARK INTER + INTRA:          -6.575
REMARK INTER:                  -5.738
REMARK INTRA:                  -0.837
REMARK UNBOUND:                -0.690
REMARK SMILES CCCCCCCCC(=O)[O-]
REMARK SMILES IDX 6 1 7 2 8 3 9 4 10 5 11 6 5 7 4 8 3 9 2 10 1 11
REMARK H PARENT
REMARK Flexibility Score: inf
ROOT
ATOM      1  C   UNL     1      17.284  -6.035  11.410  1.00  0.00     0.000 C 
ENDROOT
BRANCH   1   2
ATOM      2  C   UNL     1      17.682  -4.831  12.274  1.00  0.00     0.006 C 
BRANCH   2   3
ATOM      3  C   UNL     1      17.139  -4.974  13.699  1.00  0.00     0.053 C 
BRANCH   3   4
ATOM      4  C   UNL     1      16.451  -3.716  14.127  1.00  0.00     0.041 C 
ATOM      5  O   UNL     1      16.126  -2.851  13.272  1.00  0.00    -0.550 OA
ATOM      6  O   UNL     1      16.127  -3.521  15.462  1.00  0.00    -0.550 OA
ENDBRANCH   3   4
ENDBRANCH   2   3
ENDBRANCH   1   2
BRANCH   1   7
ATOM      7  C   UNL     1      16.406  -5.650  10.205  1.00  0.00     0.000 C 
BRANCH   7   8
ATOM      8  C   UNL     1      15.160  -4.810  10.546  1.00  0.00    -0.000 C 
BRANCH   8   9
ATOM      9  C   UNL     1      13.928  -5.672  10.872  1.00  0.00    -0.000 C 
BRANCH   9  10
ATOM     10  C   UNL     1      13.549  -5.616  12.360  1.00  0.00    -0.003 C 
ATOM     11  C   UNL     1      14.048  -6.829  13.145  1.00  0.00     0.004 C 
ENDBRANCH   9  10
ENDBRANCH   8   9
ENDBRANCH   7   8
ENDBRANCH   1   7
TORSDOF 7
ENDMDL
