MODEL 1
REMARK VINA RESULT:    -3.731      0.000      0.000
REMARK INTER + INTRA:          -4.221
REMARK INTER:                  -3.950
REMARK INTRA:                  -0.272
REMARK UNBOUND:                -0.272
REMARK SMILES CC(C)[C@@H]1CC[C@@H](C)[C@H]2C=C[C@@H](C)C[C@H]21
REMARK SMILES IDX 8 1 7 2 6 3 5 4 4 5 15 6 9 7 10 8 11 9 12 10 14 11 13 12
REMARK SMILES IDX 2 13 1 14 3 15
REMARK H PARENT
REMARK Flexibility Score: inf
ROOT
ATOM      1  C   UNL     1      52.661  32.135  23.946  1.00  0.00     0.008 C 
ATOM      2  C   UNL     1      53.559  31.294  24.868  1.00  0.00    -0.007 C 
ATOM      3  C   UNL     1      54.680  30.619  24.088  1.00  0.00     0.004 C 
ATOM      4  C   UNL     1      55.668  29.992  25.060  1.00  0.00     0.004 C 
ATOM      5  C   UNL     1      55.052  28.928  26.020  1.00  0.00    -0.005 C 
ATOM      6  C   UNL     1      53.688  29.427  26.660  1.00  0.00    -0.000 C 
ATOM      7  C   UNL     1      52.777  30.241  25.674  1.00  0.00     0.018 C 
ATOM      8  C   UNL     1      51.959  29.297  24.811  1.00  0.00    -0.027 C 
ATOM      9  C   UNL     1      51.270  28.322  25.407  1.00  0.00    -0.028 C 
ATOM     10  C   UNL     1      51.375  28.179  26.902  1.00  0.00     0.008 C 
ATOM     11  C   UNL     1      52.866  28.249  27.312  1.00  0.00     0.012 C 
ATOM     12  C   UNL     1      50.725  26.876  27.378  1.00  0.00     0.012 C 
ENDROOT
BRANCH   5  13
ATOM     13  C   UNL     1      56.146  28.545  27.103  1.00  0.00    -0.014 C 
ATOM     14  C   UNL     1      57.263  27.625  26.580  1.00  0.00     0.007 C 
ATOM     15  C   UNL     1      56.825  29.787  27.727  1.00  0.00     0.007 C 
ENDBRANCH   5  13
TORSDOF 1
ENDMDL
MODEL 2
REMARK VINA RESULT:    -3.564      1.486      3.720
REMARK INTER + INTRA:          -4.044
REMARK INTER:                  -3.794
REMARK INTRA:                  -0.250
REMARK UNBOUND:                -0.272
REMARK SMILES CC(C)[C@@H]1CC[C@@H](C)[C@H]2C=C[C@@H](C)C[C@H]21
REMARK SMILES IDX 8 1 7 2 6 3 5 4 4 5 15 6 9 7 10 8 11 9 12 10 14 11 13 12
REMARK SMILES IDX 2 13 1 14 3 15
REMARK H PARENT
REMARK Flexibility Score: inf
ROOT
ATOM      1  C   UNL     1      50.383  26.877  26.524  1.00  0.00     0.008 C 
ATOM      2  C   UNL     1      51.831  27.389  26.444  1.00  0.00    -0.007 C 
ATOM      3  C   UNL     1      52.667  26.875  27.610  1.00  0.00     0.004 C 
ATOM      4  C   UNL     1      54.132  27.213  27.371  1.00  0.00     0.004 C 
ATOM      5  C   UNL     1      54.430  28.736  27.208  1.00  0.00    -0.005 C 
ATOM      6  C   UNL     1      53.399  29.441  26.229  1.00  0.00    -0.000 C 
ATOM      7  C   UNL     1      51.923  28.924  26.373  1.00  0.00     0.018 C 
ATOM      8  C   UNL     1      51.227  29.630  27.522  1.00  0.00    -0.027 C 
ATOM      9  C   UNL     1      51.277  30.964  27.577  1.00  0.00    -0.028 C 
ATOM     10  C   UNL     1      52.061  31.696  26.520  1.00  0.00     0.008 C 
ATOM     11  C   UNL     1      53.438  31.013  26.349  1.00  0.00     0.012 C 
ATOM     12  C   UNL     1      52.212  33.179  26.877  1.00  0.00     0.012 C 
ENDROOT
BRANCH   5  13
ATOM     13  C   UNL     1      55.939  28.896  26.746  1.00  0.00    -0.014 C 
ATOM     14  C   UNL     1      56.778  29.838  27.628  1.00  0.00     0.007 C 
ATOM     15  C   UNL     1      56.686  27.544  26.673  1.00  0.00     0.007 C 
ENDBRANCH   5  13
TORSDOF 1
ENDMDL
MODEL 3
REMARK VINA RESULT:    -3.500      4.384      6.448
REMARK INTER + INTRA:          -3.977
REMARK INTER:                  -3.705
REMARK INTRA:                  -0.272
REMARK UNBOUND:                -0.272
REMARK SMILES CC(C)[C@@H]1CC[C@@H](C)[C@H]2C=C[C@@H](C)C[C@H]21
REMARK SMILES IDX 8 1 7 2 6 3 5 4 4 5 15 6 9 7 10 8 11 9 12 10 14 11 13 12
REMARK SMILES IDX 2 13 1 14 3 15
REMARK H PARENT
REMARK Flexibility Score: inf
ROOT
ATOM      1  C   UNL     1      52.681  31.037  25.656  1.00  0.00     0.008 C 
ATOM      2  C   UNL     1      51.902  31.345  26.946  1.00  0.00    -0.007 C 
ATOM      3  C   UNL     1      51.065  30.151  27.387  1.00  0.00     0.004 C 
ATOM      4  C   UNL     1      50.497  30.415  28.775  1.00  0.00     0.004 C 
ATOM      5  C   UNL     1      49.602  31.688  28.880  1.00  0.00    -0.005 C 
ATOM      6  C   UNL     1      50.263  32.939  28.164  1.00  0.00    -0.000 C 
ATOM      7  C   UNL     1      51.009  32.592  26.826  1.00  0.00     0.018 C 
ATOM      8  C   UNL     1      50.022  32.528  25.674  1.00  0.00    -0.027 C 
ATOM      9  C   UNL     1      49.174  33.545  25.502  1.00  0.00    -0.028 C 
ATOM     10  C   UNL     1      49.209  34.683  26.487  1.00  0.00     0.008 C 
ATOM     11  C   UNL     1      49.230  34.107  27.923  1.00  0.00     0.012 C 
ATOM     12  C   UNL     1      48.018  35.626  26.281  1.00  0.00     0.012 C 
ENDROOT
BRANCH   5  13
ATOM     13  C   UNL     1      49.283  31.942  30.413  1.00  0.00    -0.014 C 
ATOM     14  C   UNL     1      48.219  31.001  31.007  1.00  0.00     0.007 C 
ATOM     15  C   UNL     1      50.541  31.840  31.307  1.00  0.00     0.007 C 
ENDBRANCH   5  13
TORSDOF 1
ENDMDL
MODEL 4
REMARK VINA RESULT:    -3.459      1.275      3.821
REMARK INTER + INTRA:          -3.933
REMARK INTER:                  -3.788
REMARK INTRA:                  -0.145
REMARK UNBOUND:                -0.272
REMARK SMILES CC(C)[C@@H]1CC[C@@H](C)[C@H]2C=C[C@@H](C)C[C@H]21
REMARK SMILES IDX 8 1 7 2 6 3 5 4 4 5 15 6 9 7 10 8 11 9 12 10 14 11 13 12
REMARK SMILES IDX 2 13 1 14 3 15
REMARK H PARENT
REMARK Flexibility Score: inf
ROOT
ATOM      1  C   UNL     1      57.476  27.047  26.497  1.00  0.00     0.008 C 
ATOM      2  C   UNL     1      56.538  28.222  26.174  1.00  0.00    -0.007 C 
ATOM      3  C   UNL     1      56.786  29.403  27.104  1.00  0.00     0.004 C 
ATOM      4  C   UNL     1      56.004  30.611  26.608  1.00  0.00     0.004 C 
ATOM      5  C   UNL     1      54.462  30.396  26.514  1.00  0.00    -0.005 C 
ATOM      6  C   UNL     1      54.097  29.016  25.821  1.00  0.00    -0.000 C 
ATOM      7  C   UNL     1      55.049  27.831  26.212  1.00  0.00     0.018 C 
ATOM      8  C   UNL     1      54.614  27.218  27.531  1.00  0.00    -0.027 C 
ATOM      9  C   UNL     1      53.333  26.875  27.684  1.00  0.00    -0.028 C 
ATOM     10  C   UNL     1      52.375  27.157  26.557  1.00  0.00     0.008 C 
ATOM     11  C   UNL     1      52.592  28.606  26.060  1.00  0.00     0.012 C 
ATOM     12  C   UNL     1      50.925  26.928  26.997  1.00  0.00     0.012 C 
ENDROOT
BRANCH   5  13
ATOM     13  C   UNL     1      53.832  31.651  25.777  1.00  0.00    -0.014 C 
ATOM     14  C   UNL     1      53.523  31.424  24.286  1.00  0.00     0.007 C 
ATOM     15  C   UNL     1      52.529  32.144  26.449  1.00  0.00     0.007 C 
ENDBRANCH   5  13
TORSDOF 1
ENDMDL
MODEL 5
REMARK VINA RESULT:    -3.420      4.644      6.640
REMARK INTER + INTRA:          -3.892
REMARK INTER:                  -3.645
REMARK INTRA:                  -0.248
REMARK UNBOUND:                -0.272
REMARK SMILES CC(C)[C@@H]1CC[C@@H](C)[C@H]2C=C[C@@H](C)C[C@H]21
REMARK SMILES IDX 8 1 7 2 6 3 5 4 4 5 15 6 9 7 10 8 11 9 12 10 14 11 13 12
REMARK SMILES IDX 2 13 1 14 3 15
REMARK H PARENT
REMARK Flexibility Score: inf
ROOT
ATOM      1  C   UNL     1      47.875  33.118  30.250  1.00  0.00     0.008 C 
ATOM      2  C   UNL     1      48.800  32.620  29.127  1.00  0.00    -0.007 C 
ATOM      3  C   UNL     1      49.382  31.250  29.453  1.00  0.00     0.004 C 
ATOM      4  C   UNL     1      50.099  30.699  28.229  1.00  0.00     0.004 C 
ATOM      5  C   UNL     1      51.261  31.594  27.698  1.00  0.00    -0.005 C 
ATOM      6  C   UNL     1      50.842  33.122  27.613  1.00  0.00    -0.000 C 
ATOM      7  C   UNL     1      49.937  33.605  28.802  1.00  0.00     0.018 C 
ATOM      8  C   UNL     1      50.792  33.967  30.003  1.00  0.00    -0.027 C 
ATOM      9  C   UNL     1      51.830  34.788  29.824  1.00  0.00    -0.028 C 
ATOM     10  C   UNL     1      52.125  35.278  28.431  1.00  0.00     0.008 C 
ATOM     11  C   UNL     1      52.087  34.077  27.455  1.00  0.00     0.012 C 
ATOM     12  C   UNL     1      53.476  35.999  28.377  1.00  0.00     0.012 C 
ENDROOT
BRANCH   5  13
ATOM     13  C   UNL     1      51.745  31.002  26.308  1.00  0.00    -0.014 C 
ATOM     14  C   UNL     1      53.259  30.738  26.222  1.00  0.00     0.007 C 
ATOM     15  C   UNL     1      51.025  29.684  25.941  1.00  0.00     0.007 C 
ENDBRANCH   5  13
TORSDOF 1
ENDMDL
MODEL 6
REMARK VINA RESULT:    -3.358      1.203      4.243
REMARK INTER + INTRA:          -3.826
REMARK INTER:                  -3.537
REMARK INTRA:                  -0.289
REMARK UNBOUND:                -0.272
REMARK SMILES CC(C)[C@@H]1CC[C@@H](C)[C@H]2C=C[C@@H](C)C[C@H]21
REMARK SMILES IDX 8 1 7 2 6 3 5 4 4 5 15 6 9 7 10 8 11 9 12 10 14 11 13 12
REMARK SMILES IDX 2 13 1 14 3 15
REMARK H PARENT
REMARK Flexibility Score: inf
ROOT
ATOM      1  C   UNL     1      53.580  32.201  24.209  1.00  0.00     0.008 C 
ATOM      2  C   UNL     1      53.082  30.939  24.932  1.00  0.00    -0.007 C 
ATOM      3  C   UNL     1      52.358  31.289  26.226  1.00  0.00     0.004 C 
ATOM      4  C   UNL     1      51.688  30.042  26.785  1.00  0.00     0.004 C 
ATOM      5  C   UNL     1      52.661  28.861  27.090  1.00  0.00    -0.005 C 
ATOM      6  C   UNL     1      53.682  28.612  25.900  1.00  0.00    -0.000 C 
ATOM      7  C   UNL     1      54.205  29.926  25.219  1.00  0.00     0.018 C 
ATOM      8  C   UNL     1      55.361  30.508  26.012  1.00  0.00    -0.027 C 
ATOM      9  C   UNL     1      56.373  29.705  26.347  1.00  0.00    -0.028 C 
ATOM     10  C   UNL     1      56.295  28.252  25.960  1.00  0.00     0.008 C 
ATOM     11  C   UNL     1      54.897  27.704  26.334  1.00  0.00     0.012 C 
ATOM     12  C   UNL     1      57.410  27.442  26.632  1.00  0.00     0.012 C 
ENDROOT
BRANCH   5  13
ATOM     13  C   UNL     1      51.791  27.582  27.443  1.00  0.00    -0.014 C 
ATOM     14  C   UNL     1      50.602  27.861  28.380  1.00  0.00     0.007 C 
ATOM     15  C   UNL     1      51.233  26.876  26.186  1.00  0.00     0.007 C 
ENDBRANCH   5  13
TORSDOF 1
ENDMDL
MODEL 7
REMARK VINA RESULT:    -3.265      4.067      6.613
REMARK INTER + INTRA:          -3.727
REMARK INTER:                  -3.456
REMARK INTRA:                  -0.272
REMARK UNBOUND:                -0.272
REMARK SMILES CC(C)[C@@H]1CC[C@@H](C)[C@H]2C=C[C@@H](C)C[C@H]21
REMARK SMILES IDX 8 1 7 2 6 3 5 4 4 5 15 6 9 7 10 8 11 9 12 10 14 11 13 12
REMARK SMILES IDX 2 13 1 14 3 15
REMARK H PARENT
REMARK Flexibility Score: inf
ROOT
ATOM      1  C   UNL     1      49.508  27.758  28.746  1.00  0.00     0.008 C 
ATOM      2  C   UNL     1      49.614  29.266  29.029  1.00  0.00    -0.007 C 
ATOM      3  C   UNL     1      48.245  29.934  29.000  1.00  0.00     0.004 C 
ATOM      4  C   UNL     1      48.368  31.364  29.505  1.00  0.00     0.004 C 
ATOM      5  C   UNL     1      49.351  32.261  28.691  1.00  0.00    -0.005 C 
ATOM      6  C   UNL     1      50.723  31.520  28.397  1.00  0.00    -0.000 C 
ATOM      7  C   UNL     1      50.570  29.993  28.067  1.00  0.00     0.018 C 
ATOM      8  C   UNL     1      50.221  29.803  26.602  1.00  0.00    -0.027 C 
ATOM      9  C   UNL     1      50.966  30.422  25.682  1.00  0.00    -0.028 C 
ATOM     10  C   UNL     1      52.087  31.313  26.148  1.00  0.00     0.008 C 
ATOM     11  C   UNL     1      51.562  32.239  27.271  1.00  0.00     0.012 C 
ATOM     12  C   UNL     1      52.667  32.121  24.982  1.00  0.00     0.012 C 
ENDROOT
BRANCH   5  13
ATOM     13  C   UNL     1      49.534  33.629  29.472  1.00  0.00    -0.014 C 
ATOM     14  C   UNL     1      48.261  34.137  30.173  1.00  0.00     0.007 C 
ATOM     15  C   UNL     1      50.652  33.560  30.538  1.00  0.00     0.007 C 
ENDBRANCH   5  13
TORSDOF 1
ENDMDL
MODEL 8
REMARK VINA RESULT:    -3.239      3.899      5.548
REMARK INTER + INTRA:          -3.701
REMARK INTER:                  -3.431
REMARK INTRA:                  -0.269
REMARK UNBOUND:                -0.272
REMARK SMILES CC(C)[C@@H]1CC[C@@H](C)[C@H]2C=C[C@@H](C)C[C@H]21
REMARK SMILES IDX 8 1 7 2 6 3 5 4 4 5 15 6 9 7 10 8 11 9 12 10 14 11 13 12
REMARK SMILES IDX 2 13 1 14 3 15
REMARK H PARENT
REMARK Flexibility Score: inf
ROOT
ATOM      1  C   UNL     1      48.948  33.693  24.936  1.00  0.00     0.008 C 
ATOM      2  C   UNL     1      49.176  33.041  26.310  1.00  0.00    -0.007 C 
ATOM      3  C   UNL     1      49.729  34.042  27.316  1.00  0.00     0.004 C 
ATOM      4  C   UNL     1      49.723  33.421  28.705  1.00  0.00     0.004 C 
ATOM      5  C   UNL     1      50.555  32.108  28.836  1.00  0.00    -0.005 C 
ATOM      6  C   UNL     1      50.272  31.105  27.639  1.00  0.00    -0.000 C 
ATOM      7  C   UNL     1      50.093  31.806  26.245  1.00  0.00     0.018 C 
ATOM      8  C   UNL     1      51.446  32.083  25.616  1.00  0.00    -0.027 C 
ATOM      9  C   UNL     1      52.333  31.088  25.543  1.00  0.00    -0.028 C 
ATOM     10  C   UNL     1      51.962  29.752  26.129  1.00  0.00     0.008 C 
ATOM     11  C   UNL     1      51.362  29.969  27.539  1.00  0.00     0.012 C 
ATOM     12  C   UNL     1      53.174  28.815  26.176  1.00  0.00     0.012 C 
ENDROOT
BRANCH   5  13
ATOM     13  C   UNL     1      50.263  31.477  30.261  1.00  0.00    -0.014 C 
ATOM     14  C   UNL     1      51.042  32.128  31.418  1.00  0.00     0.007 C 
ATOM     15  C   UNL     1      48.762  31.519  30.633  1.00  0.00     0.007 C 
ENDBRANCH   5  13
TORSDOF 1
ENDMDL
MODEL 9
REMARK VINA RESULT:    -3.157      3.822      5.967
REMARK INTER + INTRA:          -3.613
REMARK INTER:                  -3.368
REMARK INTRA:                  -0.245
REMARK UNBOUND:                -0.272
REMARK SMILES CC(C)[C@@H]1CC[C@@H](C)[C@H]2C=C[C@@H](C)C[C@H]21
REMARK SMILES IDX 8 1 7 2 6 3 5 4 4 5 15 6 9 7 10 8 11 9 12 10 14 11 13 12
REMARK SMILES IDX 2 13 1 14 3 15
REMARK H PARENT
REMARK Flexibility Score: inf
ROOT
ATOM      1  C   UNL     1      47.875  28.823  29.505  1.00  0.00     0.008 C 
ATOM      2  C   UNL     1      48.843  29.493  28.517  1.00  0.00    -0.007 C 
ATOM      3  C   UNL     1      50.044  28.601  28.224  1.00  0.00     0.004 C 
ATOM      4  C   UNL     1      50.851  29.197  27.079  1.00  0.00     0.004 C 
ATOM      5  C   UNL     1      51.383  30.640  27.340  1.00  0.00    -0.005 C 
ATOM      6  C   UNL     1      50.263  31.584  27.949  1.00  0.00    -0.000 C 
ATOM      7  C   UNL     1      49.324  30.876  28.990  1.00  0.00     0.018 C 
ATOM      8  C   UNL     1      49.974  30.860  30.361  1.00  0.00    -0.027 C 
ATOM      9  C   UNL     1      50.460  32.003  30.852  1.00  0.00    -0.028 C 
ATOM     10  C   UNL     1      50.378  33.241  30.000  1.00  0.00     0.008 C 
ATOM     11  C   UNL     1      50.865  32.904  28.571  1.00  0.00     0.012 C 
ATOM     12  C   UNL     1      51.194  34.385  30.612  1.00  0.00     0.012 C 
ENDROOT
BRANCH   5  13
ATOM     13  C   UNL     1      51.997  31.192  25.986  1.00  0.00    -0.014 C 
ATOM     14  C   UNL     1      53.424  31.754  26.116  1.00  0.00     0.007 C 
ATOM     15  C   UNL     1      52.020  30.127  24.865  1.00  0.00     0.007 C 
ENDBRANCH   5  13
TORSDOF 1
ENDMDL
