MODEL 1
REMARK VINA RESULT:    -7.705      0.000      0.000
REMARK INTER + INTRA:          -8.850
REMARK INTER:                  -9.957
REMARK INTRA:                   1.108
REMARK UNBOUND:                 1.108
REMARK SMILES O=c1c(-c2ccc(O)cc2)coc2c([C@@H]3O[C@H](CO)[C@H](O)[C@@H](O)[C@@H]3O)c(O)ccc12
REMARK SMILES IDX 3 1 11 2 12 3 13 4 30 5 2 6 1 7 29 8 28 9 26 10 14 11 4 12
REMARK SMILES IDX 5 13 6 14 7 15 10 16 9 17 8 18 15 20 24 21 16 22 22 23 17 24
REMARK SMILES IDX 20 25 25 26 23 28 18 30 19 31 21 33 27 35
REMARK H PARENT 8 19 25 27 23 29 19 32 21 34 27 36
REMARK Flexibility Score: inf
ROOT
ATOM      1  C   UNL     1      93.457 -63.185 103.045  1.00  0.00     0.065 A 
ATOM      2  C   UNL     1      92.243 -63.666 103.493  1.00  0.00     0.208 A 
ATOM      3  O   UNL     1      91.800 -64.821 103.083  1.00  0.00    -0.463 OA
ATOM      4  C   UNL     1      92.423 -65.589 102.263  1.00  0.00     0.147 A 
ATOM      5  C   UNL     1      93.664 -65.162 101.770  1.00  0.00     0.066 A 
ATOM      6  C   UNL     1      94.188 -63.957 102.158  1.00  0.00     0.200 A 
ATOM      7  O   UNL     1      95.305 -63.536 101.740  1.00  0.00    -0.288 OA
ATOM      8  C   UNL     1      94.343 -65.952 100.906  1.00  0.00     0.020 A 
ATOM      9  C   UNL     1      93.863 -67.168 100.486  1.00  0.00     0.047 A 
ATOM     10  C   UNL     1      92.602 -67.570 101.003  1.00  0.00     0.125 A 
ATOM     11  C   UNL     1      91.969 -66.754 101.854  1.00  0.00     0.069 A 
ENDROOT
BRANCH   1  12
ATOM     12  C   UNL     1      93.977 -61.905 103.457  1.00  0.00    -0.011 A 
ATOM     13  C   UNL     1      93.490 -60.733 102.949  1.00  0.00     0.013 A 
ATOM     14  C   UNL     1      94.003 -59.519 103.373  1.00  0.00     0.047 A 
ATOM     15  C   UNL     1      95.023 -59.460 104.325  1.00  0.00     0.115 A 
ATOM     16  C   UNL     1      94.990 -61.844 104.401  1.00  0.00     0.013 A 
ATOM     17  C   UNL     1      95.513 -60.646 104.838  1.00  0.00     0.047 A 
BRANCH  15  18
ATOM     18  O   UNL     1      95.535 -58.247 104.748  1.00  0.00    -0.508 OA
ATOM     19  H   UNL     1      94.999 -57.547 105.228  1.00  0.00     0.293 HD
ENDBRANCH  15  18
ENDBRANCH   1  12
BRANCH  11  20
ATOM     20  C   UNL     1      90.457 -67.298 102.414  1.00  0.00     0.188 C 
ATOM     21  C   UNL     1      89.806 -66.592 101.452  1.00  0.00     0.179 C 
ATOM     22  O   UNL     1      91.058 -67.952 103.303  1.00  0.00    -0.362 OA
ATOM     23  C   UNL     1      88.451 -67.337 101.993  1.00  0.00     0.177 C 
ATOM     24  C   UNL     1      89.663 -68.493 103.654  1.00  0.00     0.176 C 
ATOM     25  C   UNL     1      88.452 -67.481 103.594  1.00  0.00     0.177 C 
BRANCH  21  26
ATOM     26  O   UNL     1      89.824 -66.974 100.124  1.00  0.00    -0.387 OA
ATOM     27  H   UNL     1      90.726 -66.838  99.760  1.00  0.00     0.211 HD
ENDBRANCH  21  26
BRANCH  23  28
ATOM     28  O   UNL     1      87.389 -66.513 101.685  1.00  0.00    -0.387 OA
ATOM     29  H   UNL     1      87.396 -65.750 102.306  1.00  0.00     0.211 HD
ENDBRANCH  23  28
BRANCH  24  30
ATOM     30  C   UNL     1      89.476 -69.633 102.775  1.00  0.00     0.191 C 
BRANCH  30  31
ATOM     31  O   UNL     1      88.672 -70.627 103.435  1.00  0.00    -0.394 OA
ATOM     32  H   UNL     1      87.802 -70.694 102.978  1.00  0.00     0.210 HD
ENDBRANCH  30  31
ENDBRANCH  24  30
BRANCH  25  33
ATOM     33  O   UNL     1      87.361 -68.161 103.932  1.00  0.00    -0.388 OA
ATOM     34  H   UNL     1      87.216 -68.943 103.333  1.00  0.00     0.211 HD
ENDBRANCH  25  33
ENDBRANCH  11  20
BRANCH  10  35
ATOM     35  O   UNL     1      92.099 -68.791 100.594  1.00  0.00    -0.507 OA
ATOM     36  H   UNL     1      92.712 -69.595 100.430  1.00  0.00     0.293 HD
ENDBRANCH  10  35
TORSDOF 9
ENDMDL
MODEL 2
REMARK VINA RESULT:    -7.684      2.052      2.923
REMARK INTER + INTRA:          -8.822
REMARK INTER:                 -10.377
REMARK INTRA:                   1.555
REMARK UNBOUND:                 1.108
REMARK SMILES O=c1c(-c2ccc(O)cc2)coc2c([C@@H]3O[C@H](CO)[C@H](O)[C@@H](O)[C@@H]3O)c(O)ccc12
REMARK SMILES IDX 3 1 11 2 12 3 13 4 30 5 2 6 1 7 29 8 28 9 26 10 14 11 4 12
REMARK SMILES IDX 5 13 6 14 7 15 10 16 9 17 8 18 15 20 24 21 16 22 22 23 17 24
REMARK SMILES IDX 20 25 25 26 23 28 18 30 19 31 21 33 27 35
REMARK H PARENT 8 19 25 27 23 29 19 32 21 34 27 36
REMARK Flexibility Score: inf
ROOT
ATOM      1  C   UNL     1      92.251 -62.833 102.343  1.00  0.00     0.065 A 
ATOM      2  C   UNL     1      91.107 -63.558 102.078  1.00  0.00     0.208 A 
ATOM      3  O   UNL     1      91.017 -64.805 102.447  1.00  0.00    -0.463 OA
ATOM      4  C   UNL     1      91.942 -65.448 103.065  1.00  0.00     0.147 A 
ATOM      5  C   UNL     1      93.131 -64.770 103.367  1.00  0.00     0.066 A 
ATOM      6  C   UNL     1      93.293 -63.458 103.007  1.00  0.00     0.200 A 
ATOM      7  O   UNL     1      94.348 -62.809 103.263  1.00  0.00    -0.288 OA
ATOM      8  C   UNL     1      94.121 -65.423 104.020  1.00  0.00     0.020 A 
ATOM      9  C   UNL     1      94.009 -66.736 104.404  1.00  0.00     0.047 A 
ATOM     10  C   UNL     1      92.791 -67.395 104.081  1.00  0.00     0.125 A 
ATOM     11  C   UNL     1      91.843 -66.707 103.434  1.00  0.00     0.069 A 
ENDROOT
BRANCH   1  12
ATOM     12  C   UNL     1      92.402 -61.457 101.937  1.00  0.00    -0.011 A 
ATOM     13  C   UNL     1      92.820 -60.491 102.807  1.00  0.00     0.013 A 
ATOM     14  C   UNL     1      92.966 -59.181 102.383  1.00  0.00     0.047 A 
ATOM     15  C   UNL     1      92.692 -58.816 101.063  1.00  0.00     0.115 A 
ATOM     16  C   UNL     1      92.130 -61.092 100.627  1.00  0.00     0.013 A 
ATOM     17  C   UNL     1      92.270 -59.795 100.184  1.00  0.00     0.047 A 
BRANCH  15  18
ATOM     18  O   UNL     1      92.837 -57.507 100.639  1.00  0.00    -0.508 OA
ATOM     19  H   UNL     1      93.680 -56.972 100.746  1.00  0.00     0.293 HD
ENDBRANCH  15  18
ENDBRANCH   1  12
BRANCH  11  20
ATOM     20  C   UNL     1      90.423 -67.570 103.069  1.00  0.00     0.188 C 
ATOM     21  C   UNL     1      89.824 -67.139 104.210  1.00  0.00     0.179 C 
ATOM     22  O   UNL     1      90.976 -67.969 102.013  1.00  0.00    -0.362 OA
ATOM     23  C   UNL     1      88.476 -67.873 103.635  1.00  0.00     0.177 C 
ATOM     24  C   UNL     1      89.612 -68.606 101.703  1.00  0.00     0.176 C 
ATOM     25  C   UNL     1      88.824 -69.262 102.905  1.00  0.00     0.177 C 
BRANCH  21  26
ATOM     26  O   UNL     1      89.388 -65.836 104.361  1.00  0.00    -0.387 OA
ATOM     27  H   UNL     1      88.862 -65.576 103.574  1.00  0.00     0.211 HD
ENDBRANCH  21  26
BRANCH  23  28
ATOM     28  O   UNL     1      87.701 -68.201 104.728  1.00  0.00    -0.387 OA
ATOM     29  H   UNL     1      86.758 -68.023 104.507  1.00  0.00     0.211 HD
ENDBRANCH  23  28
BRANCH  24  30
ATOM     30  C   UNL     1      88.852 -67.556 101.050  1.00  0.00     0.191 C 
BRANCH  30  31
ATOM     31  O   UNL     1      87.940 -68.137 100.101  1.00  0.00    -0.394 OA
ATOM     32  H   UNL     1      87.021 -67.866 100.329  1.00  0.00     0.210 HD
ENDBRANCH  30  31
ENDBRANCH  24  30
BRANCH  25  33
ATOM     33  O   UNL     1      87.689 -69.743 102.407  1.00  0.00    -0.388 OA
ATOM     34  H   UNL     1      86.902 -69.452 102.943  1.00  0.00     0.211 HD
ENDBRANCH  25  33
ENDBRANCH  11  20
BRANCH  10  35
ATOM     35  O   UNL     1      92.657 -68.718 104.458  1.00  0.00    -0.507 OA
ATOM     36  H   UNL     1      93.357 -69.421 104.205  1.00  0.00     0.293 HD
ENDBRANCH  10  35
TORSDOF 9
ENDMDL
MODEL 3
REMARK VINA RESULT:    -7.550      3.040      5.995
REMARK INTER + INTRA:          -8.649
REMARK INTER:                 -10.051
REMARK INTRA:                   1.401
REMARK UNBOUND:                 1.108
REMARK SMILES O=c1c(-c2ccc(O)cc2)coc2c([C@@H]3O[C@H](CO)[C@H](O)[C@@H](O)[C@@H]3O)c(O)ccc12
REMARK SMILES IDX 3 1 11 2 12 3 13 4 30 5 2 6 1 7 29 8 28 9 26 10 14 11 4 12
REMARK SMILES IDX 5 13 6 14 7 15 10 16 9 17 8 18 15 20 24 21 16 22 22 23 17 24
REMARK SMILES IDX 20 25 25 26 23 28 18 30 19 31 21 33 27 35
REMARK H PARENT 8 19 25 27 23 29 19 32 21 34 27 36
REMARK Flexibility Score: inf
ROOT
ATOM      1  C   UNL     1      97.472 -61.646 104.788  1.00  0.00     0.065 A 
ATOM      2  C   UNL     1      97.054 -62.867 104.298  1.00  0.00     0.208 A 
ATOM      3  O   UNL     1      95.885 -62.986 103.733  1.00  0.00    -0.463 OA
ATOM      4  C   UNL     1      95.049 -62.022 103.584  1.00  0.00     0.147 A 
ATOM      5  C   UNL     1      95.411 -60.753 104.059  1.00  0.00     0.066 A 
ATOM      6  C   UNL     1      96.625 -60.558 104.664  1.00  0.00     0.200 A 
ATOM      7  O   UNL     1      96.990 -59.429 105.102  1.00  0.00    -0.288 OA
ATOM      8  C   UNL     1      94.549 -59.719 103.912  1.00  0.00     0.020 A 
ATOM      9  C   UNL     1      93.323 -59.861 103.313  1.00  0.00     0.047 A 
ATOM     10  C   UNL     1      92.987 -61.160 102.844  1.00  0.00     0.125 A 
ATOM     11  C   UNL     1      93.871 -62.151 103.013  1.00  0.00     0.069 A 
ENDROOT
BRANCH   1  12
ATOM     12  C   UNL     1      98.747 -61.472 105.437  1.00  0.00    -0.011 A 
ATOM     13  C   UNL     1      98.845 -61.039 106.729  1.00  0.00     0.013 A 
ATOM     14  C   UNL     1     100.085 -60.894 107.327  1.00  0.00     0.047 A 
ATOM     15  C   UNL     1     101.261 -61.184 106.632  1.00  0.00     0.115 A 
ATOM     16  C   UNL     1      99.916 -61.760 104.748  1.00  0.00     0.013 A 
ATOM     17  C   UNL     1     101.159 -61.623 105.325  1.00  0.00     0.047 A 
BRANCH  15  18
ATOM     18  O   UNL     1     102.499 -61.039 107.230  1.00  0.00    -0.508 OA
ATOM     19  H   UNL     1     102.675 -60.448 108.023  1.00  0.00     0.293 HD
ENDBRANCH  15  18
ENDBRANCH   1  12
BRANCH  11  20
ATOM     20  C   UNL     1      93.388 -63.678 102.442  1.00  0.00     0.188 C 
ATOM     21  C   UNL     1      93.067 -64.086 103.699  1.00  0.00     0.179 C 
ATOM     22  O   UNL     1      93.683 -63.302 101.280  1.00  0.00    -0.362 OA
ATOM     23  C   UNL     1      92.478 -65.436 102.979  1.00  0.00     0.177 C 
ATOM     24  C   UNL     1      93.103 -64.657 100.843  1.00  0.00     0.176 C 
ATOM     25  C   UNL     1      93.406 -65.909 101.756  1.00  0.00     0.177 C 
BRANCH  21  26
ATOM     26  O   UNL     1      91.950 -63.612 104.360  1.00  0.00    -0.387 OA
ATOM     27  H   UNL     1      91.963 -62.630 104.355  1.00  0.00     0.211 HD
ENDBRANCH  21  26
BRANCH  23  28
ATOM     28  O   UNL     1      92.535 -66.447 103.915  1.00  0.00    -0.387 OA
ATOM     29  H   UNL     1      92.012 -66.173 104.703  1.00  0.00     0.211 HD
ENDBRANCH  23  28
BRANCH  24  30
ATOM     30  C   UNL     1      91.680 -64.417 100.687  1.00  0.00     0.191 C 
BRANCH  30  31
ATOM     31  O   UNL     1      91.472 -63.229  99.903  1.00  0.00    -0.394 OA
ATOM     32  H   UNL     1      90.935 -63.455  99.109  1.00  0.00     0.210 HD
ENDBRANCH  30  31
ENDBRANCH  24  30
BRANCH  25  33
ATOM     33  O   UNL     1      92.813 -66.956 101.190  1.00  0.00    -0.388 OA
ATOM     34  H   UNL     1      91.908 -67.114 101.572  1.00  0.00     0.211 HD
ENDBRANCH  25  33
ENDBRANCH  11  20
BRANCH  10  35
ATOM     35  O   UNL     1      91.756 -61.326 102.238  1.00  0.00    -0.507 OA
ATOM     36  H   UNL     1      91.585 -61.012 101.278  1.00  0.00     0.293 HD
ENDBRANCH  10  35
TORSDOF 9
ENDMDL
MODEL 4
REMARK VINA RESULT:    -7.550      1.771      2.617
REMARK INTER + INTRA:          -8.649
REMARK INTER:                  -9.988
REMARK INTRA:                   1.339
REMARK UNBOUND:                 1.108
REMARK SMILES O=c1c(-c2ccc(O)cc2)coc2c([C@@H]3O[C@H](CO)[C@H](O)[C@@H](O)[C@@H]3O)c(O)ccc12
REMARK SMILES IDX 3 1 11 2 12 3 13 4 30 5 2 6 1 7 29 8 28 9 26 10 14 11 4 12
REMARK SMILES IDX 5 13 6 14 7 15 10 16 9 17 8 18 15 20 24 21 16 22 22 23 17 24
REMARK SMILES IDX 20 25 25 26 23 28 18 30 19 31 21 33 27 35
REMARK H PARENT 8 19 25 27 23 29 19 32 21 34 27 36
REMARK Flexibility Score: inf
ROOT
ATOM      1  C   UNL     1      92.413 -62.483 102.358  1.00  0.00     0.065 A 
ATOM      2  C   UNL     1      91.964 -63.546 103.115  1.00  0.00     0.208 A 
ATOM      3  O   UNL     1      91.290 -64.513 102.560  1.00  0.00    -0.463 OA
ATOM      4  C   UNL     1      90.994 -64.568 101.311  1.00  0.00     0.147 A 
ATOM      5  C   UNL     1      91.421 -63.520 100.483  1.00  0.00     0.066 A 
ATOM      6  C   UNL     1      92.134 -62.471 101.002  1.00  0.00     0.200 A 
ATOM      7  O   UNL     1      92.540 -61.508 100.289  1.00  0.00    -0.288 OA
ATOM      8  C   UNL     1      91.125 -63.555  99.162  1.00  0.00     0.020 A 
ATOM      9  C   UNL     1      90.416 -64.582  98.592  1.00  0.00     0.047 A 
ATOM     10  C   UNL     1      89.996 -65.627  99.459  1.00  0.00     0.125 A 
ATOM     11  C   UNL     1      90.313 -65.548 100.758  1.00  0.00     0.069 A 
ENDROOT
BRANCH   1  12
ATOM     12  C   UNL     1      93.146 -61.382 102.933  1.00  0.00    -0.011 A 
ATOM     13  C   UNL     1      92.662 -60.105 102.910  1.00  0.00     0.013 A 
ATOM     14  C   UNL     1      93.384 -59.072 103.483  1.00  0.00     0.047 A 
ATOM     15  C   UNL     1      94.618 -59.306 104.094  1.00  0.00     0.115 A 
ATOM     16  C   UNL     1      94.371 -61.613 103.541  1.00  0.00     0.013 A 
ATOM     17  C   UNL     1      95.105 -60.599 104.117  1.00  0.00     0.047 A 
BRANCH  15  18
ATOM     18  O   UNL     1      95.340 -58.273 104.665  1.00  0.00    -0.508 OA
ATOM     19  H   UNL     1      95.884 -58.365 105.504  1.00  0.00     0.293 HD
ENDBRANCH  15  18
ENDBRANCH   1  12
BRANCH  11  20
ATOM     20  C   UNL     1      89.759 -66.828 101.733  1.00  0.00     0.188 C 
ATOM     21  C   UNL     1      90.923 -67.510 101.561  1.00  0.00     0.179 C 
ATOM     22  O   UNL     1      88.684 -66.198 101.892  1.00  0.00    -0.362 OA
ATOM     23  C   UNL     1      90.322 -68.569 102.657  1.00  0.00     0.177 C 
ATOM     24  C   UNL     1      88.322 -67.335 102.861  1.00  0.00     0.176 C 
ATOM     25  C   UNL     1      88.745 -68.802 102.454  1.00  0.00     0.177 C 
BRANCH  21  26
ATOM     26  O   UNL     1      92.099 -67.116 102.170  1.00  0.00    -0.387 OA
ATOM     27  H   UNL     1      91.971 -67.102 103.144  1.00  0.00     0.211 HD
ENDBRANCH  21  26
BRANCH  23  28
ATOM     28  O   UNL     1      90.921 -69.786 102.410  1.00  0.00    -0.387 OA
ATOM     29  H   UNL     1      90.226 -70.428 102.139  1.00  0.00     0.211 HD
ENDBRANCH  23  28
BRANCH  24  30
ATOM     30  C   UNL     1      88.887 -66.930 104.135  1.00  0.00     0.191 C 
BRANCH  30  31
ATOM     31  O   UNL     1      87.950 -67.207 105.191  1.00  0.00    -0.394 OA
ATOM     32  H   UNL     1      87.410 -66.402 105.364  1.00  0.00     0.210 HD
ENDBRANCH  30  31
ENDBRANCH  24  30
BRANCH  25  33
ATOM     33  O   UNL     1      88.334 -69.608 103.428  1.00  0.00    -0.388 OA
ATOM     34  H   UNL     1      87.341 -69.612 103.506  1.00  0.00     0.211 HD
ENDBRANCH  25  33
ENDBRANCH  11  20
BRANCH  10  35
ATOM     35  O   UNL     1      89.280 -66.672  98.907  1.00  0.00    -0.507 OA
ATOM     36  H   UNL     1      89.628 -67.635  98.937  1.00  0.00     0.293 HD
ENDBRANCH  10  35
TORSDOF 9
ENDMDL
MODEL 5
REMARK VINA RESULT:    -7.500      3.237      6.192
REMARK INTER + INTRA:          -8.584
REMARK INTER:                  -9.803
REMARK INTRA:                   1.219
REMARK UNBOUND:                 1.108
REMARK SMILES O=c1c(-c2ccc(O)cc2)coc2c([C@@H]3O[C@H](CO)[C@H](O)[C@@H](O)[C@@H]3O)c(O)ccc12
REMARK SMILES IDX 3 1 11 2 12 3 13 4 30 5 2 6 1 7 29 8 28 9 26 10 14 11 4 12
REMARK SMILES IDX 5 13 6 14 7 15 10 16 9 17 8 18 15 20 24 21 16 22 22 23 17 24
REMARK SMILES IDX 20 25 25 26 23 28 18 30 19 31 21 33 27 35
REMARK H PARENT 8 19 25 27 23 29 19 32 21 34 27 36
REMARK Flexibility Score: inf
ROOT
ATOM      1  C   UNL     1      97.833 -61.464 105.098  1.00  0.00     0.065 A 
ATOM      2  C   UNL     1      97.341 -62.688 104.694  1.00  0.00     0.208 A 
ATOM      3  O   UNL     1      96.153 -62.779 104.164  1.00  0.00    -0.463 OA
ATOM      4  C   UNL     1      95.364 -61.783 103.975  1.00  0.00     0.147 A 
ATOM      5  C   UNL     1      95.803 -60.508 104.362  1.00  0.00     0.066 A 
ATOM      6  C   UNL     1      97.041 -60.342 104.926  1.00  0.00     0.200 A 
ATOM      7  O   UNL     1      97.475 -59.210 105.286  1.00  0.00    -0.288 OA
ATOM      8  C   UNL     1      94.992 -59.441 104.171  1.00  0.00     0.020 A 
ATOM      9  C   UNL     1      93.745 -59.554 103.610  1.00  0.00     0.047 A 
ATOM     10  C   UNL     1      93.331 -60.859 103.230  1.00  0.00     0.125 A 
ATOM     11  C   UNL     1      94.167 -61.883 103.439  1.00  0.00     0.069 A 
ENDROOT
BRANCH   1  12
ATOM     12  C   UNL     1      99.133 -61.319 105.707  1.00  0.00    -0.011 A 
ATOM     13  C   UNL     1      99.278 -60.999 107.027  1.00  0.00     0.013 A 
ATOM     14  C   UNL     1     100.540 -60.880 107.583  1.00  0.00     0.047 A 
ATOM     15  C   UNL     1     101.690 -61.081 106.816  1.00  0.00     0.115 A 
ATOM     16  C   UNL     1     100.275 -61.519 104.946  1.00  0.00     0.013 A 
ATOM     17  C   UNL     1     101.540 -61.405 105.481  1.00  0.00     0.047 A 
BRANCH  15  18
ATOM     18  O   UNL     1     102.950 -60.961 107.373  1.00  0.00    -0.508 OA
ATOM     19  H   UNL     1     103.355 -61.633 108.000  1.00  0.00     0.293 HD
ENDBRANCH  15  18
ENDBRANCH   1  12
BRANCH  11  20
ATOM     20  C   UNL     1      93.591 -63.415 102.975  1.00  0.00     0.188 C 
ATOM     21  C   UNL     1      94.119 -63.277 101.730  1.00  0.00     0.179 C 
ATOM     22  O   UNL     1      93.103 -63.544 104.126  1.00  0.00    -0.362 OA
ATOM     23  C   UNL     1      93.657 -64.831 101.494  1.00  0.00     0.177 C 
ATOM     24  C   UNL     1      92.737 -64.963 103.661  1.00  0.00     0.176 C 
ATOM     25  C   UNL     1      92.234 -65.136 102.175  1.00  0.00     0.177 C 
BRANCH  21  26
ATOM     26  O   UNL     1      95.480 -63.352 101.499  1.00  0.00    -0.387 OA
ATOM     27  H   UNL     1      95.710 -62.785 100.731  1.00  0.00     0.211 HD
ENDBRANCH  21  26
BRANCH  23  28
ATOM     28  O   UNL     1      93.473 -64.993 100.137  1.00  0.00    -0.387 OA
ATOM     29  H   UNL     1      93.838 -65.869  99.875  1.00  0.00     0.211 HD
ENDBRANCH  23  28
BRANCH  24  30
ATOM     30  C   UNL     1      93.917 -65.761 103.943  1.00  0.00     0.191 C 
BRANCH  30  31
ATOM     31  O   UNL     1      93.524 -67.032 104.490  1.00  0.00    -0.394 OA
ATOM     32  H   UNL     1      94.279 -67.414 104.994  1.00  0.00     0.210 HD
ENDBRANCH  30  31
ENDBRANCH  24  30
BRANCH  25  33
ATOM     33  O   UNL     1      91.979 -66.430 101.999  1.00  0.00    -0.388 OA
ATOM     34  H   UNL     1      91.035 -66.650 102.223  1.00  0.00     0.211 HD
ENDBRANCH  25  33
ENDBRANCH  11  20
BRANCH  10  35
ATOM     35  O   UNL     1      92.078 -60.996 102.663  1.00  0.00    -0.507 OA
ATOM     36  H   UNL     1      91.638 -60.231 102.144  1.00  0.00     0.293 HD
ENDBRANCH  10  35
TORSDOF 9
ENDMDL
MODEL 6
REMARK VINA RESULT:    -7.138      3.468      8.040
REMARK INTER + INTRA:          -8.116
REMARK INTER:                  -9.448
REMARK INTRA:                   1.332
REMARK UNBOUND:                 1.108
REMARK SMILES O=c1c(-c2ccc(O)cc2)coc2c([C@@H]3O[C@H](CO)[C@H](O)[C@@H](O)[C@@H]3O)c(O)ccc12
REMARK SMILES IDX 3 1 11 2 12 3 13 4 30 5 2 6 1 7 29 8 28 9 26 10 14 11 4 12
REMARK SMILES IDX 5 13 6 14 7 15 10 16 9 17 8 18 15 20 24 21 16 22 22 23 17 24
REMARK SMILES IDX 20 25 25 26 23 28 18 30 19 31 21 33 27 35
REMARK H PARENT 8 19 25 27 23 29 19 32 21 34 27 36
REMARK Flexibility Score: inf
ROOT
ATOM      1  C   UNL     1      92.630 -63.215 101.323  1.00  0.00     0.065 A 
ATOM      2  C   UNL     1      93.566 -63.999 101.967  1.00  0.00     0.208 A 
ATOM      3  O   UNL     1      94.404 -63.466 102.812  1.00  0.00    -0.463 OA
ATOM      4  C   UNL     1      94.436 -62.217 103.112  1.00  0.00     0.147 A 
ATOM      5  C   UNL     1      93.511 -61.363 102.494  1.00  0.00     0.066 A 
ATOM      6  C   UNL     1      92.602 -61.858 101.596  1.00  0.00     0.200 A 
ATOM      7  O   UNL     1      91.750 -61.123 101.019  1.00  0.00    -0.288 OA
ATOM      8  C   UNL     1      93.521 -60.043 102.796  1.00  0.00     0.020 A 
ATOM      9  C   UNL     1      94.409 -59.498 103.689  1.00  0.00     0.047 A 
ATOM     10  C   UNL     1      95.334 -60.390 104.296  1.00  0.00     0.125 A 
ATOM     11  C   UNL     1      95.285 -61.687 103.966  1.00  0.00     0.069 A 
ENDROOT
BRANCH   1  12
ATOM     12  C   UNL     1      91.697 -63.759 100.368  1.00  0.00    -0.011 A 
ATOM     13  C   UNL     1      91.715 -63.389  99.052  1.00  0.00     0.013 A 
ATOM     14  C   UNL     1      90.814 -63.938  98.158  1.00  0.00     0.047 A 
ATOM     15  C   UNL     1      89.868 -64.879  98.572  1.00  0.00     0.115 A 
ATOM     16  C   UNL     1      90.757 -64.692 100.777  1.00  0.00     0.013 A 
ATOM     17  C   UNL     1      89.851 -65.252  99.903  1.00  0.00     0.047 A 
BRANCH  15  18
ATOM     18  O   UNL     1      88.966 -65.427  97.678  1.00  0.00    -0.508 OA
ATOM     19  H   UNL     1      89.231 -65.933  96.851  1.00  0.00     0.293 HD
ENDBRANCH  15  18
ENDBRANCH   1  12
BRANCH  11  20
ATOM     20  C   UNL     1      96.436 -62.686 104.721  1.00  0.00     0.188 C 
ATOM     21  C   UNL     1      95.560 -63.010 105.709  1.00  0.00     0.179 C 
ATOM     22  O   UNL     1      97.246 -62.387 103.808  1.00  0.00    -0.362 OA
ATOM     23  C   UNL     1      96.709 -64.064 106.214  1.00  0.00     0.177 C 
ATOM     24  C   UNL     1      98.173 -63.409 104.486  1.00  0.00     0.176 C 
ATOM     25  C   UNL     1      98.185 -63.448 106.064  1.00  0.00     0.177 C 
BRANCH  21  26
ATOM     26  O   UNL     1      94.486 -63.852 105.488  1.00  0.00    -0.387 OA
ATOM     27  H   UNL     1      93.653 -63.335 105.543  1.00  0.00     0.211 HD
ENDBRANCH  21  26
BRANCH  23  28
ATOM     28  O   UNL     1      96.510 -64.256 107.565  1.00  0.00    -0.387 OA
ATOM     29  H   UNL     1      96.818 -63.452 108.043  1.00  0.00     0.211 HD
ENDBRANCH  23  28
BRANCH  24  30
ATOM     30  C   UNL     1      97.804 -64.687 103.903  1.00  0.00     0.191 C 
BRANCH  30  31
ATOM     31  O   UNL     1      98.983 -65.487 103.703  1.00  0.00    -0.394 OA
ATOM     32  H   UNL     1      98.717 -66.425 103.564  1.00  0.00     0.210 HD
ENDBRANCH  30  31
ENDBRANCH  24  30
BRANCH  25  33
ATOM     33  O   UNL     1      99.048 -64.395 106.423  1.00  0.00    -0.388 OA
ATOM     34  H   UNL     1      98.715 -64.918 107.202  1.00  0.00     0.211 HD
ENDBRANCH  25  33
ENDBRANCH  11  20
BRANCH  10  35
ATOM     35  O   UNL     1      96.238 -59.863 105.199  1.00  0.00    -0.507 OA
ATOM     36  H   UNL     1      96.499 -58.872 105.179  1.00  0.00     0.293 HD
ENDBRANCH  10  35
TORSDOF 9
ENDMDL
MODEL 7
REMARK VINA RESULT:    -7.042      2.184      8.123
REMARK INTER + INTRA:          -7.993
REMARK INTER:                  -9.148
REMARK INTRA:                   1.155
REMARK UNBOUND:                 1.108
REMARK SMILES O=c1c(-c2ccc(O)cc2)coc2c([C@@H]3O[C@H](CO)[C@H](O)[C@@H](O)[C@@H]3O)c(O)ccc12
REMARK SMILES IDX 3 1 11 2 12 3 13 4 30 5 2 6 1 7 29 8 28 9 26 10 14 11 4 12
REMARK SMILES IDX 5 13 6 14 7 15 10 16 9 17 8 18 15 20 24 21 16 22 22 23 17 24
REMARK SMILES IDX 20 25 25 26 23 28 18 30 19 31 21 33 27 35
REMARK H PARENT 8 19 25 27 23 29 19 32 21 34 27 36
REMARK Flexibility Score: inf
ROOT
ATOM      1  C   UNL     1      90.927 -66.474 103.391  1.00  0.00     0.065 A 
ATOM      2  C   UNL     1      92.003 -66.430 104.254  1.00  0.00     0.208 A 
ATOM      3  O   UNL     1      92.893 -65.483 104.150  1.00  0.00    -0.463 OA
ATOM      4  C   UNL     1      92.855 -64.543 103.275  1.00  0.00     0.147 A 
ATOM      5  C   UNL     1      91.786 -64.528 102.367  1.00  0.00     0.066 A 
ATOM      6  C   UNL     1      90.816 -65.494 102.420  1.00  0.00     0.200 A 
ATOM      7  O   UNL     1      89.835 -65.514 101.622  1.00  0.00    -0.288 OA
ATOM      8  C   UNL     1      91.720 -63.546 101.436  1.00  0.00     0.020 A 
ATOM      9  C   UNL     1      92.665 -62.556 101.341  1.00  0.00     0.047 A 
ATOM     10  C   UNL     1      93.735 -62.601 102.276  1.00  0.00     0.125 A 
ATOM     11  C   UNL     1      93.757 -63.591 103.177  1.00  0.00     0.069 A 
ENDROOT
BRANCH   1  12
ATOM     12  C   UNL     1      89.929 -67.513 103.457  1.00  0.00    -0.011 A 
ATOM     13  C   UNL     1      88.736 -67.327 104.097  1.00  0.00     0.013 A 
ATOM     14  C   UNL     1      87.795 -68.340 104.132  1.00  0.00     0.047 A 
ATOM     15  C   UNL     1      88.037 -69.572 103.520  1.00  0.00     0.115 A 
ATOM     16  C   UNL     1      90.168 -68.737 102.850  1.00  0.00     0.013 A 
ATOM     17  C   UNL     1      89.244 -69.759 102.873  1.00  0.00     0.047 A 
BRANCH  15  18
ATOM     18  O   UNL     1      87.096 -70.585 103.557  1.00  0.00    -0.508 OA
ATOM     19  H   UNL     1      86.637 -70.956 102.744  1.00  0.00     0.293 HD
ENDBRANCH  15  18
ENDBRANCH   1  12
BRANCH  11  20
ATOM     20  C   UNL     1      95.079 -63.587 104.247  1.00  0.00     0.188 C 
ATOM     21  C   UNL     1      95.706 -64.560 103.534  1.00  0.00     0.179 C 
ATOM     22  O   UNL     1      94.500 -62.687 104.907  1.00  0.00    -0.362 OA
ATOM     23  C   UNL     1      96.973 -64.313 104.544  1.00  0.00     0.177 C 
ATOM     24  C   UNL     1      95.791 -62.661 105.741  1.00  0.00     0.176 C 
ATOM     25  C   UNL     1      96.487 -64.044 106.052  1.00  0.00     0.177 C 
BRANCH  21  26
ATOM     26  O   UNL     1      96.279 -64.311 102.301  1.00  0.00    -0.387 OA
ATOM     27  H   UNL     1      97.052 -63.716 102.417  1.00  0.00     0.211 HD
ENDBRANCH  21  26
BRANCH  23  28
ATOM     28  O   UNL     1      97.693 -65.489 104.579  1.00  0.00    -0.387 OA
ATOM     29  H   UNL     1      97.960 -65.719 103.660  1.00  0.00     0.211 HD
ENDBRANCH  23  28
BRANCH  24  30
ATOM     30  C   UNL     1      96.670 -61.745 105.036  1.00  0.00     0.191 C 
BRANCH  30  31
ATOM     31  O   UNL     1      96.005 -60.483 104.849  1.00  0.00    -0.394 OA
ATOM     32  H   UNL     1      95.475 -60.517 104.020  1.00  0.00     0.210 HD
ENDBRANCH  30  31
ENDBRANCH  24  30
BRANCH  25  33
ATOM     33  O   UNL     1      97.570 -63.781 106.777  1.00  0.00    -0.388 OA
ATOM     34  H   UNL     1      98.157 -64.580 106.861  1.00  0.00     0.211 HD
ENDBRANCH  25  33
ENDBRANCH  11  20
BRANCH  10  35
ATOM     35  O   UNL     1      94.698 -61.613 102.199  1.00  0.00    -0.507 OA
ATOM     36  H   UNL     1      95.350 -61.561 101.410  1.00  0.00     0.293 HD
ENDBRANCH  10  35
TORSDOF 9
ENDMDL
MODEL 8
REMARK VINA RESULT:    -7.031      4.810      9.746
REMARK INTER + INTRA:          -7.978
REMARK INTER:                  -9.034
REMARK INTRA:                   1.056
REMARK UNBOUND:                 1.108
REMARK SMILES O=c1c(-c2ccc(O)cc2)coc2c([C@@H]3O[C@H](CO)[C@H](O)[C@@H](O)[C@@H]3O)c(O)ccc12
REMARK SMILES IDX 3 1 11 2 12 3 13 4 30 5 2 6 1 7 29 8 28 9 26 10 14 11 4 12
REMARK SMILES IDX 5 13 6 14 7 15 10 16 9 17 8 18 15 20 24 21 16 22 22 23 17 24
REMARK SMILES IDX 20 25 25 26 23 28 18 30 19 31 21 33 27 35
REMARK H PARENT 8 19 25 27 23 29 19 32 21 34 27 36
REMARK Flexibility Score: inf
ROOT
ATOM      1  C   UNL     1      95.297 -63.018 103.752  1.00  0.00     0.065 A 
ATOM      2  C   UNL     1      96.319 -63.944 103.796  1.00  0.00     0.208 A 
ATOM      3  O   UNL     1      97.486 -63.616 104.273  1.00  0.00    -0.463 OA
ATOM      4  C   UNL     1      97.784 -62.452 104.727  1.00  0.00     0.147 A 
ATOM      5  C   UNL     1      96.790 -61.462 104.713  1.00  0.00     0.066 A 
ATOM      6  C   UNL     1      95.541 -61.740 104.225  1.00  0.00     0.200 A 
ATOM      7  O   UNL     1      94.616 -60.877 104.197  1.00  0.00    -0.288 OA
ATOM      8  C   UNL     1      97.077 -60.227 105.189  1.00  0.00     0.020 A 
ATOM      9  C   UNL     1      98.311 -59.898 105.690  1.00  0.00     0.047 A 
ATOM     10  C   UNL     1      99.295 -60.923 105.688  1.00  0.00     0.125 A 
ATOM     11  C   UNL     1      98.965 -62.128 105.207  1.00  0.00     0.069 A 
ENDROOT
BRANCH   1  12
ATOM     12  C   UNL     1      93.996 -63.332 103.215  1.00  0.00    -0.011 A 
ATOM     13  C   UNL     1      93.003 -63.858 103.994  1.00  0.00     0.013 A 
ATOM     14  C   UNL     1      91.761 -64.137 103.451  1.00  0.00     0.047 A 
ATOM     15  C   UNL     1      91.490 -63.891 102.103  1.00  0.00     0.115 A 
ATOM     16  C   UNL     1      93.725 -63.088 101.878  1.00  0.00     0.013 A 
ATOM     17  C   UNL     1      92.495 -63.358 101.318  1.00  0.00     0.047 A 
BRANCH  15  18
ATOM     18  O   UNL     1      90.249 -64.171 101.561  1.00  0.00    -0.508 OA
ATOM     19  H   UNL     1      89.962 -63.893 100.640  1.00  0.00     0.293 HD
ENDBRANCH  15  18
ENDBRANCH   1  12
BRANCH  11  20
ATOM     20  C   UNL     1     100.203 -63.295 105.223  1.00  0.00     0.188 C 
ATOM     21  C   UNL     1     100.431 -63.124 103.894  1.00  0.00     0.179 C 
ATOM     22  O   UNL     1      99.993 -63.454 106.452  1.00  0.00    -0.362 OA
ATOM     23  C   UNL     1     101.705 -64.132 104.107  1.00  0.00     0.177 C 
ATOM     24  C   UNL     1     101.208 -64.394 106.397  1.00  0.00     0.176 C 
ATOM     25  C   UNL     1     101.355 -65.322 105.128  1.00  0.00     0.177 C 
BRANCH  21  26
ATOM     26  O   UNL     1     101.050 -61.992 103.397  1.00  0.00    -0.387 OA
ATOM     27  H   UNL     1     100.416 -61.242 103.414  1.00  0.00     0.211 HD
ENDBRANCH  21  26
BRANCH  23  28
ATOM     28  O   UNL     1     101.949 -64.733 102.890  1.00  0.00    -0.387 OA
ATOM     29  H   UNL     1     101.200 -64.528 102.285  1.00  0.00     0.211 HD
ENDBRANCH  23  28
BRANCH  24  30
ATOM     30  C   UNL     1     102.356 -63.526 106.584  1.00  0.00     0.191 C 
BRANCH  30  31
ATOM     31  O   UNL     1     103.375 -64.223 107.324  1.00  0.00    -0.394 OA
ATOM     32  H   UNL     1     104.085 -63.587 107.573  1.00  0.00     0.210 HD
ENDBRANCH  30  31
ENDBRANCH  24  30
BRANCH  25  33
ATOM     33  O   UNL     1     102.463 -66.038 105.297  1.00  0.00    -0.388 OA
ATOM     34  H   UNL     1     102.283 -66.877 105.802  1.00  0.00     0.211 HD
ENDBRANCH  25  33
ENDBRANCH  11  20
BRANCH  10  35
ATOM     35  O   UNL     1     100.547 -60.614 106.188  1.00  0.00    -0.507 OA
ATOM     36  H   UNL     1     100.759 -59.686 106.566  1.00  0.00     0.293 HD
ENDBRANCH  10  35
TORSDOF 9
ENDMDL
MODEL 9
REMARK VINA RESULT:    -6.971      3.734      6.241
REMARK INTER + INTRA:          -7.901
REMARK INTER:                  -9.253
REMARK INTRA:                   1.352
REMARK UNBOUND:                 1.108
REMARK SMILES O=c1c(-c2ccc(O)cc2)coc2c([C@@H]3O[C@H](CO)[C@H](O)[C@@H](O)[C@@H]3O)c(O)ccc12
REMARK SMILES IDX 3 1 11 2 12 3 13 4 30 5 2 6 1 7 29 8 28 9 26 10 14 11 4 12
REMARK SMILES IDX 5 13 6 14 7 15 10 16 9 17 8 18 15 20 24 21 16 22 22 23 17 24
REMARK SMILES IDX 20 25 25 26 23 28 18 30 19 31 21 33 27 35
REMARK H PARENT 8 19 25 27 23 29 19 32 21 34 27 36
REMARK Flexibility Score: inf
ROOT
ATOM      1  C   UNL     1      97.314 -63.738 105.428  1.00  0.00     0.065 A 
ATOM      2  C   UNL     1      96.336 -64.512 104.837  1.00  0.00     0.208 A 
ATOM      3  O   UNL     1      95.324 -63.950 104.237  1.00  0.00    -0.463 OA
ATOM      4  C   UNL     1      95.149 -62.681 104.141  1.00  0.00     0.147 A 
ATOM      5  C   UNL     1      96.108 -61.836 104.719  1.00  0.00     0.066 A 
ATOM      6  C   UNL     1      97.196 -62.360 105.366  1.00  0.00     0.200 A 
ATOM      7  O   UNL     1      98.084 -61.634 105.898  1.00  0.00    -0.288 OA
ATOM      8  C   UNL     1      95.949 -60.494 104.631  1.00  0.00     0.020 A 
ATOM      9  C   UNL     1      94.879 -59.919 103.994  1.00  0.00     0.047 A 
ATOM     10  C   UNL     1      93.925 -60.803 103.421  1.00  0.00     0.125 A 
ATOM     11  C   UNL     1      94.125 -62.122 103.534  1.00  0.00     0.069 A 
ENDROOT
BRANCH   1  12
ATOM     12  C   UNL     1      98.440 -64.316 106.118  1.00  0.00    -0.011 A 
ATOM     13  C   UNL     1      98.327 -64.823 107.382  1.00  0.00     0.013 A 
ATOM     14  C   UNL     1      99.425 -65.382 108.013  1.00  0.00     0.047 A 
ATOM     15  C   UNL     1     100.668 -65.443 107.379  1.00  0.00     0.115 A 
ATOM     16  C   UNL     1      99.675 -64.378 105.491  1.00  0.00     0.013 A 
ATOM     17  C   UNL     1     100.780 -64.931 106.101  1.00  0.00     0.047 A 
BRANCH  15  18
ATOM     18  O   UNL     1     101.765 -66.002 108.010  1.00  0.00    -0.508 OA
ATOM     19  H   UNL     1     101.961 -65.902 108.990  1.00  0.00     0.293 HD
ENDBRANCH  15  18
ENDBRANCH   1  12
BRANCH  11  20
ATOM     20  C   UNL     1      92.931 -63.113 102.838  1.00  0.00     0.188 C 
ATOM     21  C   UNL     1      93.609 -63.167 101.661  1.00  0.00     0.179 C 
ATOM     22  O   UNL     1      92.303 -63.065 103.926  1.00  0.00    -0.362 OA
ATOM     23  C   UNL     1      92.473 -64.252 101.195  1.00  0.00     0.177 C 
ATOM     24  C   UNL     1      91.346 -64.066 103.258  1.00  0.00     0.176 C 
ATOM     25  C   UNL     1      91.013 -63.848 101.730  1.00  0.00     0.177 C 
BRANCH  21  26
ATOM     26  O   UNL     1      94.772 -63.900 101.519  1.00  0.00    -0.387 OA
ATOM     27  H   UNL     1      94.607 -64.654 100.910  1.00  0.00     0.211 HD
ENDBRANCH  21  26
BRANCH  23  28
ATOM     28  O   UNL     1      92.405 -64.196  99.819  1.00  0.00    -0.387 OA
ATOM     29  H   UNL     1      91.939 -63.368  99.563  1.00  0.00     0.211 HD
ENDBRANCH  23  28
BRANCH  24  30
ATOM     30  C   UNL     1      91.932 -65.369 103.517  1.00  0.00     0.191 C 
BRANCH  30  31
ATOM     31  O   UNL     1      91.706 -65.737 104.889  1.00  0.00    -0.394 OA
ATOM     32  H   UNL     1      91.148 -65.050 105.321  1.00  0.00     0.210 HD
ENDBRANCH  30  31
ENDBRANCH  24  30
BRANCH  25  33
ATOM     33  O   UNL     1      90.177 -64.819 101.372  1.00  0.00    -0.388 OA
ATOM     34  H   UNL     1      90.061 -64.856 100.384  1.00  0.00     0.211 HD
ENDBRANCH  25  33
ENDBRANCH  11  20
BRANCH  10  35
ATOM     35  O   UNL     1      92.838 -60.246 102.774  1.00  0.00    -0.507 OA
ATOM     36  H   UNL     1      91.959 -60.760 102.663  1.00  0.00     0.293 HD
ENDBRANCH  10  35
TORSDOF 9
ENDMDL
