MODEL 1
REMARK VINA RESULT:    -3.967      0.000      0.000
REMARK INTER + INTRA:          -5.314
REMARK INTER:                  -5.127
REMARK INTRA:                  -0.187
REMARK UNBOUND:                -0.187
REMARK SMILES C=CC(=O)CCCCC
REMARK SMILES IDX 6 1 7 2 8 3 9 4 5 5 3 6 4 7 2 8 1 9
REMARK H PARENT
REMARK Flexibility Score: inf
ROOT
ATOM      1  C   UNL     1      26.085  54.718   0.573  1.00  0.00     0.008 C 
ENDROOT
BRANCH   1   2
ATOM      2  C   UNL     1      27.093  55.656  -0.106  1.00  0.00     0.000 C 
BRANCH   2   3
ATOM      3  C   UNL     1      27.299  55.325  -1.591  1.00  0.00    -0.003 C 
ATOM      4  C   UNL     1      28.771  55.346  -2.003  1.00  0.00     0.004 C 
ENDBRANCH   2   3
ENDBRANCH   1   2
BRANCH   1   5
ATOM      5  C   UNL     1      25.480  53.740  -0.441  1.00  0.00     0.080 C 
BRANCH   5   6
ATOM      6  C   UNL     1      25.009  52.483   0.243  1.00  0.00     0.155 C 
ATOM      7  O   UNL     1      25.587  52.122   1.304  1.00  0.00    -0.295 OA
BRANCH   6   8
ATOM      8  C   UNL     1      23.878  51.668  -0.250  1.00  0.00     0.039 C 
ATOM      9  C   UNL     1      23.179  51.950  -1.349  1.00  0.00     0.012 C 
ENDBRANCH   6   8
ENDBRANCH   5   6
ENDBRANCH   1   5
TORSDOF 5
ENDMDL
MODEL 2
REMARK VINA RESULT:    -3.948     12.008     13.464
REMARK INTER + INTRA:          -5.288
REMARK INTER:                  -4.935
REMARK INTRA:                  -0.353
REMARK UNBOUND:                -0.187
REMARK SMILES C=CC(=O)CCCCC
REMARK SMILES IDX 6 1 7 2 8 3 9 4 5 5 3 6 4 7 2 8 1 9
REMARK H PARENT
REMARK Flexibility Score: inf
ROOT
ATOM      1  C   UNL     1      29.982  62.505  10.926  1.00  0.00     0.008 C 
ENDROOT
BRANCH   1   2
ATOM      2  C   UNL     1      30.936  63.540  10.313  1.00  0.00     0.000 C 
BRANCH   2   3
ATOM      3  C   UNL     1      31.254  63.249   8.839  1.00  0.00    -0.003 C 
ATOM      4  C   UNL     1      32.719  63.512   8.487  1.00  0.00     0.004 C 
ENDBRANCH   2   3
ENDBRANCH   1   2
BRANCH   1   5
ATOM      5  C   UNL     1      29.009  61.966   9.871  1.00  0.00     0.080 C 
BRANCH   5   6
ATOM      6  C   UNL     1      29.058  60.461   9.817  1.00  0.00     0.155 C 
ATOM      7  O   UNL     1      28.866  59.814  10.882  1.00  0.00    -0.295 OA
BRANCH   6   8
ATOM      8  C   UNL     1      29.289  59.702   8.569  1.00  0.00     0.039 C 
ATOM      9  C   UNL     1      29.939  60.187   7.510  1.00  0.00     0.012 C 
ENDBRANCH   6   8
ENDBRANCH   5   6
ENDBRANCH   1   5
TORSDOF 5
ENDMDL
MODEL 3
REMARK VINA RESULT:    -3.921      1.820      4.980
REMARK INTER + INTRA:          -5.254
REMARK INTER:                  -5.116
REMARK INTRA:                  -0.138
REMARK UNBOUND:                -0.187
REMARK SMILES C=CC(=O)CCCCC
REMARK SMILES IDX 6 1 7 2 8 3 9 4 5 5 3 6 4 7 2 8 1 9
REMARK H PARENT
REMARK Flexibility Score: inf
ROOT
ATOM      1  C   UNL     1      25.250  54.046  -0.311  1.00  0.00     0.008 C 
ENDROOT
BRANCH   1   2
ATOM      2  C   UNL     1      25.443  52.573   0.076  1.00  0.00     0.000 C 
BRANCH   2   3
ATOM      3  C   UNL     1      24.135  51.771   0.015  1.00  0.00    -0.003 C 
ATOM      4  C   UNL     1      23.252  52.168  -1.168  1.00  0.00     0.004 C 
ENDBRANCH   2   3
ENDBRANCH   1   2
BRANCH   1   5
ATOM      5  C   UNL     1      26.394  54.909   0.234  1.00  0.00     0.080 C 
BRANCH   5   6
ATOM      6  C   UNL     1      27.159  55.555  -0.892  1.00  0.00     0.155 C 
ATOM      7  O   UNL     1      26.645  55.564  -2.042  1.00  0.00    -0.295 OA
BRANCH   6   8
ATOM      8  C   UNL     1      28.472  56.210  -0.707  1.00  0.00     0.039 C 
ATOM      9  C   UNL     1      29.311  56.494  -1.703  1.00  0.00     0.012 C 
ENDBRANCH   6   8
ENDBRANCH   5   6
ENDBRANCH   1   5
TORSDOF 5
ENDMDL
MODEL 4
REMARK VINA RESULT:    -3.827     12.548     14.430
REMARK INTER + INTRA:          -5.132
REMARK INTER:                  -4.770
REMARK INTRA:                  -0.362
REMARK UNBOUND:                -0.187
REMARK SMILES C=CC(=O)CCCCC
REMARK SMILES IDX 6 1 7 2 8 3 9 4 5 5 3 6 4 7 2 8 1 9
REMARK H PARENT
REMARK Flexibility Score: inf
ROOT
ATOM      1  C   UNL     1      28.964  61.739   9.931  1.00  0.00     0.008 C 
ENDROOT
BRANCH   1   2
ATOM      2  C   UNL     1      28.949  60.234  10.231  1.00  0.00     0.000 C 
BRANCH   2   3
ATOM      3  C   UNL     1      29.563  59.400   9.097  1.00  0.00    -0.003 C 
ATOM      4  C   UNL     1      29.690  60.182   7.789  1.00  0.00     0.004 C 
ENDBRANCH   2   3
ENDBRANCH   1   2
BRANCH   1   5
ATOM      5  C   UNL     1      29.898  62.480  10.895  1.00  0.00     0.080 C 
BRANCH   5   6
ATOM      6  C   UNL     1      30.740  63.487  10.157  1.00  0.00     0.155 C 
ATOM      7  O   UNL     1      30.965  64.600  10.704  1.00  0.00    -0.295 OA
BRANCH   6   8
ATOM      8  C   UNL     1      31.346  63.222   8.834  1.00  0.00     0.039 C 
ATOM      9  C   UNL     1      32.606  63.524   8.517  1.00  0.00     0.012 C 
ENDBRANCH   6   8
ENDBRANCH   5   6
ENDBRANCH   1   5
TORSDOF 5
ENDMDL
MODEL 5
REMARK VINA RESULT:    -3.812      1.044      1.405
REMARK INTER + INTRA:          -5.113
REMARK INTER:                  -4.945
REMARK INTRA:                  -0.167
REMARK UNBOUND:                -0.187
REMARK SMILES C=CC(=O)CCCCC
REMARK SMILES IDX 6 1 7 2 8 3 9 4 5 5 3 6 4 7 2 8 1 9
REMARK H PARENT
REMARK Flexibility Score: inf
ROOT
ATOM      1  C   UNL     1      25.099  53.896  -0.503  1.00  0.00     0.008 C 
ENDROOT
BRANCH   1   2
ATOM      2  C   UNL     1      26.189  54.863  -0.018  1.00  0.00     0.000 C 
BRANCH   2   3
ATOM      3  C   UNL     1      27.055  55.400  -1.166  1.00  0.00    -0.003 C 
ATOM      4  C   UNL     1      28.304  56.132  -0.674  1.00  0.00     0.004 C 
ENDBRANCH   2   3
ENDBRANCH   1   2
BRANCH   1   5
ATOM      5  C   UNL     1      25.361  52.475   0.010  1.00  0.00     0.080 C 
BRANCH   5   6
ATOM      6  C   UNL     1      24.096  51.657  -0.012  1.00  0.00     0.155 C 
ATOM      7  O   UNL     1      23.947  50.755   0.856  1.00  0.00    -0.295 OA
BRANCH   6   8
ATOM      8  C   UNL     1      23.002  51.883  -0.982  1.00  0.00     0.039 C 
ATOM      9  C   UNL     1      22.957  51.332  -2.195  1.00  0.00     0.012 C 
ENDBRANCH   6   8
ENDBRANCH   5   6
ENDBRANCH   1   5
TORSDOF 5
ENDMDL
MODEL 6
REMARK VINA RESULT:    -3.716      1.657      5.070
REMARK INTER + INTRA:          -4.989
REMARK INTER:                  -4.785
REMARK INTRA:                  -0.204
REMARK UNBOUND:                -0.187
REMARK SMILES C=CC(=O)CCCCC
REMARK SMILES IDX 6 1 7 2 8 3 9 4 5 5 3 6 4 7 2 8 1 9
REMARK H PARENT
REMARK Flexibility Score: inf
ROOT
ATOM      1  C   UNL     1      23.938  52.454  -0.590  1.00  0.00     0.008 C 
ENDROOT
BRANCH   1   2
ATOM      2  C   UNL     1      22.835  51.478  -0.156  1.00  0.00     0.000 C 
BRANCH   2   3
ATOM      3  C   UNL     1      22.592  51.498   1.360  1.00  0.00    -0.003 C 
ATOM      4  C   UNL     1      21.113  51.370   1.725  1.00  0.00     0.004 C 
ENDBRANCH   2   3
ENDBRANCH   1   2
BRANCH   1   5
ATOM      5  C   UNL     1      25.126  52.403   0.378  1.00  0.00     0.080 C 
BRANCH   5   6
ATOM      6  C   UNL     1      25.709  53.777   0.582  1.00  0.00     0.155 C 
ATOM      7  O   UNL     1      26.067  54.113   1.743  1.00  0.00    -0.295 OA
BRANCH   6   8
ATOM      8  C   UNL     1      25.915  54.741  -0.521  1.00  0.00     0.039 C 
ATOM      9  C   UNL     1      26.969  55.553  -0.615  1.00  0.00     0.012 C 
ENDBRANCH   6   8
ENDBRANCH   5   6
ENDBRANCH   1   5
TORSDOF 5
ENDMDL
MODEL 7
REMARK VINA RESULT:    -3.696      1.306      4.615
REMARK INTER + INTRA:          -4.964
REMARK INTER:                  -4.761
REMARK INTRA:                  -0.202
REMARK UNBOUND:                -0.187
REMARK SMILES C=CC(=O)CCCCC
REMARK SMILES IDX 6 1 7 2 8 3 9 4 5 5 3 6 4 7 2 8 1 9
REMARK H PARENT
REMARK Flexibility Score: inf
ROOT
ATOM      1  C   UNL     1      24.539  51.938  -0.564  1.00  0.00     0.008 C 
ENDROOT
BRANCH   1   2
ATOM      2  C   UNL     1      23.013  51.829  -0.693  1.00  0.00     0.000 C 
BRANCH   2   3
ATOM      3  C   UNL     1      22.579  50.679  -1.614  1.00  0.00    -0.003 C 
ATOM      4  C   UNL     1      22.631  51.055  -3.095  1.00  0.00     0.004 C 
ENDBRANCH   2   3
ENDBRANCH   1   2
BRANCH   1   5
ATOM      5  C   UNL     1      24.938  52.399   0.843  1.00  0.00     0.080 C 
BRANCH   5   6
ATOM      6  C   UNL     1      25.641  53.730   0.790  1.00  0.00     0.155 C 
ATOM      7  O   UNL     1      26.191  54.162   1.839  1.00  0.00    -0.295 OA
BRANCH   6   8
ATOM      8  C   UNL     1      25.748  54.541  -0.442  1.00  0.00     0.039 C 
ATOM      9  C   UNL     1      26.781  55.336  -0.724  1.00  0.00     0.012 C 
ENDBRANCH   6   8
ENDBRANCH   5   6
ENDBRANCH   1   5
TORSDOF 5
ENDMDL
MODEL 8
REMARK VINA RESULT:    -3.614     11.240     12.595
REMARK INTER + INTRA:          -4.857
REMARK INTER:                  -4.570
REMARK INTRA:                  -0.287
REMARK UNBOUND:                -0.187
REMARK SMILES C=CC(=O)CCCCC
REMARK SMILES IDX 6 1 7 2 8 3 9 4 5 5 3 6 4 7 2 8 1 9
REMARK H PARENT
REMARK Flexibility Score: inf
ROOT
ATOM      1  C   UNL     1      29.701  60.496   8.695  1.00  0.00     0.008 C 
ENDROOT
BRANCH   1   2
ATOM      2  C   UNL     1      29.005  61.547   9.571  1.00  0.00     0.000 C 
BRANCH   2   3
ATOM      3  C   UNL     1      29.987  62.575  10.152  1.00  0.00    -0.003 C 
ATOM      4  C   UNL     1      30.895  63.192   9.088  1.00  0.00     0.004 C 
ENDBRANCH   2   3
ENDBRANCH   1   2
BRANCH   1   5
ATOM      5  C   UNL     1      28.817  59.255   8.523  1.00  0.00     0.080 C 
BRANCH   5   6
ATOM      6  C   UNL     1      28.820  58.418   9.776  1.00  0.00     0.155 C 
ATOM      7  O   UNL     1      27.730  57.927  10.174  1.00  0.00    -0.295 OA
BRANCH   6   8
ATOM      8  C   UNL     1      30.047  58.115  10.544  1.00  0.00     0.039 C 
ATOM      9  C   UNL     1      30.949  57.203  10.181  1.00  0.00     0.012 C 
ENDBRANCH   6   8
ENDBRANCH   5   6
ENDBRANCH   1   5
TORSDOF 5
ENDMDL
MODEL 9
REMARK VINA RESULT:    -3.595      1.804      2.960
REMARK INTER + INTRA:          -4.832
REMARK INTER:                  -4.640
REMARK INTRA:                  -0.193
REMARK UNBOUND:                -0.187
REMARK SMILES C=CC(=O)CCCCC
REMARK SMILES IDX 6 1 7 2 8 3 9 4 5 5 3 6 4 7 2 8 1 9
REMARK H PARENT
REMARK Flexibility Score: inf
ROOT
ATOM      1  C   UNL     1      24.295  52.133   0.446  1.00  0.00     0.008 C 
ENDROOT
BRANCH   1   2
ATOM      2  C   UNL     1      25.455  53.118   0.654  1.00  0.00     0.000 C 
BRANCH   2   3
ATOM      3  C   UNL     1      25.509  54.204  -0.430  1.00  0.00    -0.003 C 
ATOM      4  C   UNL     1      26.502  55.319  -0.103  1.00  0.00     0.004 C 
ENDBRANCH   2   3
ENDBRANCH   1   2
BRANCH   1   5
ATOM      5  C   UNL     1      23.591  52.393  -0.891  1.00  0.00     0.080 C 
BRANCH   5   6
ATOM      6  C   UNL     1      23.475  51.121  -1.690  1.00  0.00     0.155 C 
ATOM      7  O   UNL     1      24.067  50.090  -1.271  1.00  0.00    -0.295 OA
BRANCH   6   8
ATOM      8  C   UNL     1      22.671  51.012  -2.926  1.00  0.00     0.039 C 
ATOM      9  C   UNL     1      21.859  49.990  -3.201  1.00  0.00     0.012 C 
ENDBRANCH   6   8
ENDBRANCH   5   6
ENDBRANCH   1   5
TORSDOF 5
ENDMDL
