MODEL 1
REMARK VINA RESULT:    -3.746      0.000      0.000
REMARK INTER + INTRA:          -5.957
REMARK INTER:                  -5.060
REMARK INTRA:                  -0.897
REMARK UNBOUND:                -0.897
REMARK SMILES O=C[C@@H](O)[C@H](O)[C@@H](O)CO
REMARK SMILES IDX 7 1 9 2 10 3 5 5 3 6 2 7 1 8 4 9 6 11 8 13
REMARK H PARENT 10 4 4 10 6 12 8 14
REMARK Flexibility Score: inf
ROOT
ATOM      1  C   UNL     1      -9.032  -4.414  21.463  1.00  0.00     0.171 C 
ENDROOT
BRANCH   1   2
ATOM      2  C   UNL     1     -10.181  -4.614  22.466  1.00  0.00     0.190 C 
BRANCH   2   3
ATOM      3  O   UNL     1     -10.985  -3.466  22.496  1.00  0.00    -0.394 OA
ATOM      4  H   UNL     1     -10.369  -2.694  22.403  1.00  0.00     0.210 HD
ENDBRANCH   2   3
ENDBRANCH   1   2
BRANCH   1   5
ATOM      5  C   UNL     1      -9.517  -4.565  19.995  1.00  0.00     0.181 C 
BRANCH   5   6
ATOM      6  C   UNL     1      -9.547  -3.217  19.230  1.00  0.00     0.209 C 
BRANCH   6   7
ATOM      7  C   UNL     1     -10.154  -3.370  17.861  1.00  0.00     0.258 C 
ATOM      8  O   UNL     1     -10.109  -4.441  17.276  1.00  0.00    -0.300 OA
ENDBRANCH   6   7
BRANCH   6   9
ATOM      9  O   UNL     1     -10.292  -2.282  19.967  1.00  0.00    -0.383 OA
ATOM     10  H   UNL     1      -9.640  -1.725  20.467  1.00  0.00     0.211 HD
ENDBRANCH   6   9
ENDBRANCH   5   6
BRANCH   5  11
ATOM     11  O   UNL     1     -10.775  -5.194  19.942  1.00  0.00    -0.387 OA
ATOM     12  H   UNL     1     -11.139  -5.231  20.864  1.00  0.00     0.211 HD
ENDBRANCH   5  11
ENDBRANCH   1   5
BRANCH   1  13
ATOM     13  O   UNL     1      -8.386  -3.181  21.669  1.00  0.00    -0.388 OA
ATOM     14  H   UNL     1      -9.082  -2.478  21.742  1.00  0.00     0.211 HD
ENDBRANCH   1  13
TORSDOF 8
ENDMDL
MODEL 2
REMARK VINA RESULT:    -3.673      1.146      3.807
REMARK INTER + INTRA:          -5.858
REMARK INTER:                  -4.999
REMARK INTRA:                  -0.859
REMARK UNBOUND:                -0.897
REMARK SMILES O=C[C@@H](O)[C@H](O)[C@@H](O)CO
REMARK SMILES IDX 7 1 9 2 10 3 5 5 3 6 2 7 1 8 4 9 6 11 8 13
REMARK H PARENT 10 4 4 10 6 12 8 14
REMARK Flexibility Score: inf
ROOT
ATOM      1  C   UNL     1      -9.749  -4.291  18.980  1.00  0.00     0.171 C 
ENDROOT
BRANCH   1   2
ATOM      2  C   UNL     1     -10.123  -3.697  17.612  1.00  0.00     0.190 C 
BRANCH   2   3
ATOM      3  O   UNL     1     -11.186  -2.797  17.763  1.00  0.00    -0.394 OA
ATOM      4  H   UNL     1     -11.568  -2.969  18.662  1.00  0.00     0.210 HD
ENDBRANCH   2   3
ENDBRANCH   1   2
BRANCH   1   5
ATOM      5  C   UNL     1      -9.289  -3.193  19.978  1.00  0.00     0.181 C 
BRANCH   5   6
ATOM      6  C   UNL     1      -8.707  -3.778  21.290  1.00  0.00     0.209 C 
BRANCH   6   7
ATOM      7  C   UNL     1      -9.711  -3.728  22.411  1.00  0.00     0.258 C 
ATOM      8  O   UNL     1     -10.666  -4.488  22.427  1.00  0.00    -0.300 OA
ENDBRANCH   6   7
BRANCH   6   9
ATOM      9  O   UNL     1      -8.320  -5.110  21.072  1.00  0.00    -0.383 OA
ATOM     10  H   UNL     1      -8.967  -5.496  20.425  1.00  0.00     0.211 HD
ENDBRANCH   6   9
ENDBRANCH   5   6
BRANCH   5  11
ATOM     11  O   UNL     1     -10.336  -2.294  20.255  1.00  0.00    -0.387 OA
ATOM     12  H   UNL     1     -10.846  -2.646  21.029  1.00  0.00     0.211 HD
ENDBRANCH   5  11
ENDBRANCH   1   5
BRANCH   1  13
ATOM     13  O   UNL     1     -10.805  -5.057  19.507  1.00  0.00    -0.388 OA
ATOM     14  H   UNL     1     -11.310  -4.488  20.144  1.00  0.00     0.211 HD
ENDBRANCH   1  13
TORSDOF 8
ENDMDL
MODEL 3
REMARK VINA RESULT:    -3.586      9.262     10.657
REMARK INTER + INTRA:          -5.741
REMARK INTER:                  -4.758
REMARK INTRA:                  -0.983
REMARK UNBOUND:                -0.897
REMARK SMILES O=C[C@@H](O)[C@H](O)[C@@H](O)CO
REMARK SMILES IDX 7 1 9 2 10 3 5 5 3 6 2 7 1 8 4 9 6 11 8 13
REMARK H PARENT 10 4 4 10 6 12 8 14
REMARK Flexibility Score: inf
ROOT
ATOM      1  C   UNL     1      -4.718   4.241  14.035  1.00  0.00     0.171 C 
ENDROOT
BRANCH   1   2
ATOM      2  C   UNL     1      -3.862   5.424  14.518  1.00  0.00     0.190 C 
BRANCH   2   3
ATOM      3  O   UNL     1      -4.244   5.784  15.817  1.00  0.00    -0.394 OA
ATOM      4  H   UNL     1      -4.978   5.166  16.071  1.00  0.00     0.210 HD
ENDBRANCH   2   3
ENDBRANCH   1   2
BRANCH   1   5
ATOM      5  C   UNL     1      -4.332   2.920  14.756  1.00  0.00     0.181 C 
BRANCH   5   6
ATOM      6  C   UNL     1      -5.460   2.383  15.673  1.00  0.00     0.209 C 
BRANCH   6   7
ATOM      7  C   UNL     1      -5.109   1.037  16.252  1.00  0.00     0.258 C 
ATOM      8  O   UNL     1      -4.310   0.307  15.690  1.00  0.00    -0.300 OA
ENDBRANCH   6   7
BRANCH   6   9
ATOM      9  O   UNL     1      -5.681   3.295  16.718  1.00  0.00    -0.383 OA
ATOM     10  H   UNL     1      -4.905   3.223  17.332  1.00  0.00     0.211 HD
ENDBRANCH   6   9
ENDBRANCH   5   6
BRANCH   5  11
ATOM     11  O   UNL     1      -3.133   3.073  15.479  1.00  0.00    -0.387 OA
ATOM     12  H   UNL     1      -2.725   3.938  15.218  1.00  0.00     0.211 HD
ENDBRANCH   5  11
ENDBRANCH   1   5
BRANCH   1  13
ATOM     13  O   UNL     1      -6.091   4.519  14.169  1.00  0.00    -0.388 OA
ATOM     14  H   UNL     1      -6.198   5.500  14.267  1.00  0.00     0.211 HD
ENDBRANCH   1  13
TORSDOF 8
ENDMDL
MODEL 4
REMARK VINA RESULT:    -3.510      1.633      2.196
REMARK INTER + INTRA:          -5.638
REMARK INTER:                  -4.679
REMARK INTRA:                  -0.959
REMARK UNBOUND:                -0.897
REMARK SMILES O=C[C@@H](O)[C@H](O)[C@@H](O)CO
REMARK SMILES IDX 7 1 9 2 10 3 5 5 3 6 2 7 1 8 4 9 6 11 8 13
REMARK H PARENT 10 4 4 10 6 12 8 14
REMARK Flexibility Score: inf
ROOT
ATOM      1  C   UNL     1      -9.174  -3.169  20.920  1.00  0.00     0.171 C 
ENDROOT
BRANCH   1   2
ATOM      2  C   UNL     1      -9.523  -3.459  22.389  1.00  0.00     0.190 C 
BRANCH   2   3
ATOM      3  O   UNL     1     -10.798  -4.036  22.467  1.00  0.00    -0.394 OA
ATOM      4  H   UNL     1     -10.903  -4.349  23.402  1.00  0.00     0.210 HD
ENDBRANCH   2   3
ENDBRANCH   1   2
BRANCH   1   5
ATOM      5  C   UNL     1      -8.702  -4.450  20.177  1.00  0.00     0.181 C 
BRANCH   5   6
ATOM      6  C   UNL     1      -9.700  -4.917  19.087  1.00  0.00     0.209 C 
BRANCH   6   7
ATOM      7  C   UNL     1      -9.142  -6.058  18.278  1.00  0.00     0.258 C 
ATOM      8  O   UNL     1      -7.984  -6.414  18.421  1.00  0.00    -0.300 OA
ENDBRANCH   6   7
BRANCH   6   9
ATOM      9  O   UNL     1     -10.897  -5.322  19.698  1.00  0.00    -0.383 OA
ATOM     10  H   UNL     1     -10.697  -5.462  20.661  1.00  0.00     0.211 HD
ENDBRANCH   6   9
ENDBRANCH   5   6
BRANCH   5  11
ATOM     11  O   UNL     1      -8.436  -5.490  21.088  1.00  0.00    -0.387 OA
ATOM     12  H   UNL     1      -8.904  -5.282  21.937  1.00  0.00     0.211 HD
ENDBRANCH   5  11
ENDBRANCH   1   5
BRANCH   1  13
ATOM     13  O   UNL     1     -10.251  -2.555  20.253  1.00  0.00    -0.388 OA
ATOM     14  H   UNL     1     -10.309  -1.614  20.563  1.00  0.00     0.211 HD
ENDBRANCH   1  13
TORSDOF 8
ENDMDL
MODEL 5
REMARK VINA RESULT:    -3.467      1.204      1.764
REMARK INTER + INTRA:          -5.581
REMARK INTER:                  -4.875
REMARK INTRA:                  -0.706
REMARK UNBOUND:                -0.897
REMARK SMILES O=C[C@@H](O)[C@H](O)[C@@H](O)CO
REMARK SMILES IDX 7 1 9 2 10 3 5 5 3 6 2 7 1 8 4 9 6 11 8 13
REMARK H PARENT 10 4 4 10 6 12 8 14
REMARK Flexibility Score: inf
ROOT
ATOM      1  C   UNL     1      -9.375  -3.186  20.326  1.00  0.00     0.171 C 
ENDROOT
BRANCH   1   2
ATOM      2  C   UNL     1      -9.493  -3.489  21.830  1.00  0.00     0.190 C 
BRANCH   2   3
ATOM      3  O   UNL     1     -10.817  -3.298  22.247  1.00  0.00    -0.394 OA
ATOM      4  H   UNL     1     -10.770  -2.752  23.074  1.00  0.00     0.210 HD
ENDBRANCH   2   3
ENDBRANCH   1   2
BRANCH   1   5
ATOM      5  C   UNL     1      -9.674  -4.441  19.461  1.00  0.00     0.181 C 
BRANCH   5   6
ATOM      6  C   UNL     1     -10.031  -4.091  17.995  1.00  0.00     0.209 C 
BRANCH   6   7
ATOM      7  C   UNL     1      -9.817  -5.265  17.076  1.00  0.00     0.258 C 
ATOM      8  O   UNL     1      -9.565  -6.370  17.528  1.00  0.00    -0.300 OA
ENDBRANCH   6   7
BRANCH   6   9
ATOM      9  O   UNL     1     -11.374  -3.688  17.928  1.00  0.00    -0.383 OA
ATOM     10  H   UNL     1     -11.457  -2.868  18.482  1.00  0.00     0.211 HD
ENDBRANCH   6   9
ENDBRANCH   5   6
BRANCH   5  11
ATOM     11  O   UNL     1     -10.687  -5.226  20.046  1.00  0.00    -0.387 OA
ATOM     12  H   UNL     1     -10.300  -5.693  20.830  1.00  0.00     0.211 HD
ENDBRANCH   5  11
ENDBRANCH   1   5
BRANCH   1  13
ATOM     13  O   UNL     1     -10.194  -2.101  19.961  1.00  0.00    -0.388 OA
ATOM     14  H   UNL     1     -10.771  -1.876  20.736  1.00  0.00     0.211 HD
ENDBRANCH   1  13
TORSDOF 8
ENDMDL
MODEL 6
REMARK VINA RESULT:    -3.386     10.442     11.801
REMARK INTER + INTRA:          -5.471
REMARK INTER:                  -4.725
REMARK INTRA:                  -0.746
REMARK UNBOUND:                -0.897
REMARK SMILES O=C[C@@H](O)[C@H](O)[C@@H](O)CO
REMARK SMILES IDX 7 1 9 2 10 3 5 5 3 6 2 7 1 8 4 9 6 11 8 13
REMARK H PARENT 10 4 4 10 6 12 8 14
REMARK Flexibility Score: inf
ROOT
ATOM      1  C   UNL     1      -4.103   5.664  14.649  1.00  0.00     0.171 C 
ENDROOT
BRANCH   1   2
ATOM      2  C   UNL     1      -2.803   6.363  14.219  1.00  0.00     0.190 C 
BRANCH   2   3
ATOM      3  O   UNL     1      -2.135   6.853  15.349  1.00  0.00    -0.394 OA
ATOM      4  H   UNL     1      -2.057   7.833  15.221  1.00  0.00     0.210 HD
ENDBRANCH   2   3
ENDBRANCH   1   2
BRANCH   1   5
ATOM      5  C   UNL     1      -4.080   4.147  14.314  1.00  0.00     0.181 C 
BRANCH   5   6
ATOM      6  C   UNL     1      -5.494   3.514  14.287  1.00  0.00     0.209 C 
BRANCH   6   7
ATOM      7  C   UNL     1      -5.741   2.659  15.503  1.00  0.00     0.258 C 
ATOM      8  O   UNL     1      -5.571   3.108  16.625  1.00  0.00    -0.300 OA
ENDBRANCH   6   7
BRANCH   6   9
ATOM      9  O   UNL     1      -6.457   4.534  14.233  1.00  0.00    -0.383 OA
ATOM     10  H   UNL     1      -6.661   4.788  15.171  1.00  0.00     0.211 HD
ENDBRANCH   6   9
ENDBRANCH   5   6
BRANCH   5  11
ATOM     11  O   UNL     1      -3.239   3.449  15.201  1.00  0.00    -0.387 OA
ATOM     12  H   UNL     1      -2.995   4.063  15.941  1.00  0.00     0.211 HD
ENDBRANCH   5  11
ENDBRANCH   1   5
BRANCH   1  13
ATOM     13  O   UNL     1      -4.374   5.886  16.012  1.00  0.00    -0.388 OA
ATOM     14  H   UNL     1      -5.324   5.654  16.179  1.00  0.00     0.211 HD
ENDBRANCH   1  13
TORSDOF 8
ENDMDL
MODEL 7
REMARK VINA RESULT:    -3.126      1.502      3.923
REMARK INTER + INTRA:          -5.119
REMARK INTER:                  -5.037
REMARK INTRA:                  -0.083
REMARK UNBOUND:                -0.897
REMARK SMILES O=C[C@@H](O)[C@H](O)[C@@H](O)CO
REMARK SMILES IDX 7 1 9 2 10 3 5 5 3 6 2 7 1 8 4 9 6 11 8 13
REMARK H PARENT 10 4 4 10 6 12 8 14
REMARK Flexibility Score: inf
ROOT
ATOM      1  C   UNL     1     -10.161  -4.639  19.323  1.00  0.00     0.171 C 
ENDROOT
BRANCH   1   2
ATOM      2  C   UNL     1      -9.045  -5.491  18.696  1.00  0.00     0.190 C 
BRANCH   2   3
ATOM      3  O   UNL     1      -7.900  -5.434  19.501  1.00  0.00    -0.394 OA
ATOM      4  H   UNL     1      -7.954  -4.578  20.000  1.00  0.00     0.210 HD
ENDBRANCH   2   3
ENDBRANCH   1   2
BRANCH   1   5
ATOM      5  C   UNL     1      -9.587  -3.494  20.202  1.00  0.00     0.181 C 
BRANCH   5   6
ATOM      6  C   UNL     1      -9.779  -3.745  21.719  1.00  0.00     0.209 C 
BRANCH   6   7
ATOM      7  C   UNL     1      -8.531  -3.420  22.497  1.00  0.00     0.258 C 
ATOM      8  O   UNL     1      -8.574  -2.666  23.456  1.00  0.00    -0.300 OA
ENDBRANCH   6   7
BRANCH   6   9
ATOM      9  O   UNL     1     -10.840  -2.955  22.190  1.00  0.00    -0.383 OA
ATOM     10  H   UNL     1     -10.609  -2.011  21.985  1.00  0.00     0.211 HD
ENDBRANCH   6   9
ENDBRANCH   5   6
BRANCH   5  11
ATOM     11  O   UNL     1     -10.134  -2.251  19.831  1.00  0.00    -0.387 OA
ATOM     12  H   UNL     1     -10.938  -2.090  20.389  1.00  0.00     0.211 HD
ENDBRANCH   5  11
ENDBRANCH   1   5
BRANCH   1  13
ATOM     13  O   UNL     1     -11.036  -4.143  18.338  1.00  0.00    -0.388 OA
ATOM     14  H   UNL     1     -10.663  -3.290  17.996  1.00  0.00     0.211 HD
ENDBRANCH   1  13
TORSDOF 8
ENDMDL
MODEL 8
REMARK VINA RESULT:    -3.056      8.957     10.268
REMARK INTER + INTRA:          -5.025
REMARK INTER:                  -4.357
REMARK INTRA:                  -0.667
REMARK UNBOUND:                -0.897
REMARK SMILES O=C[C@@H](O)[C@H](O)[C@@H](O)CO
REMARK SMILES IDX 7 1 9 2 10 3 5 5 3 6 2 7 1 8 4 9 6 11 8 13
REMARK H PARENT 10 4 4 10 6 12 8 14
REMARK Flexibility Score: inf
ROOT
ATOM      1  C   UNL     1      -5.269   3.267  15.097  1.00  0.00     0.171 C 
ENDROOT
BRANCH   1   2
ATOM      2  C   UNL     1      -4.977   4.660  14.514  1.00  0.00     0.190 C 
BRANCH   2   3
ATOM      3  O   UNL     1      -4.305   5.438  15.466  1.00  0.00    -0.394 OA
ATOM      4  H   UNL     1      -3.353   5.453  15.189  1.00  0.00     0.210 HD
ENDBRANCH   2   3
ENDBRANCH   1   2
BRANCH   1   5
ATOM      5  C   UNL     1      -4.086   2.286  14.864  1.00  0.00     0.181 C 
BRANCH   5   6
ATOM      6  C   UNL     1      -4.450   0.816  15.193  1.00  0.00     0.209 C 
BRANCH   6   7
ATOM      7  C   UNL     1      -3.616  -0.152  14.396  1.00  0.00     0.258 C 
ATOM      8  O   UNL     1      -2.418   0.027  14.254  1.00  0.00    -0.300 OA
ENDBRANCH   6   7
BRANCH   6   9
ATOM      9  O   UNL     1      -4.248   0.585  16.563  1.00  0.00    -0.383 OA
ATOM     10  H   UNL     1      -3.277   0.420  16.688  1.00  0.00     0.211 HD
ENDBRANCH   6   9
ENDBRANCH   5   6
BRANCH   5  11
ATOM     11  O   UNL     1      -2.947   2.691  15.585  1.00  0.00    -0.387 OA
ATOM     12  H   UNL     1      -2.833   2.072  16.351  1.00  0.00     0.211 HD
ENDBRANCH   5  11
ENDBRANCH   1   5
BRANCH   1  13
ATOM     13  O   UNL     1      -5.610   3.347  16.459  1.00  0.00    -0.388 OA
ATOM     14  H   UNL     1      -6.561   3.627  16.522  1.00  0.00     0.211 HD
ENDBRANCH   1  13
TORSDOF 8
ENDMDL
