MODEL 1
REMARK VINA RESULT:    -3.837      0.000      0.000
REMARK INTER + INTRA:          -3.949
REMARK INTER:                  -3.949
REMARK INTRA:                   0.000
REMARK UNBOUND:                 0.000
REMARK SMILES Nc1ncnc2nc[nH]c12
REMARK SMILES IDX 8 1 7 2 6 3 5 4 4 5 3 6 2 7 10 8 9 9 1 11
REMARK H PARENT 9 10 1 12 1 13
REMARK Flexibility Score: inf
ROOT
ATOM      1  C   UNL     1     129.880 143.380 130.754  1.00  0.00     0.199 A 
ATOM      2  N   UNL     1     128.951 143.954 131.566  1.00  0.00    -0.217 NA
ATOM      3  C   UNL     1     128.372 144.849 130.749  1.00  0.00     0.182 A 
ATOM      4  N   UNL     1     127.366 145.700 131.065  1.00  0.00    -0.215 NA
ATOM      5  C   UNL     1     126.906 146.544 130.093  1.00  0.00     0.226 A 
ATOM      6  N   UNL     1     127.454 146.523 128.834  1.00  0.00    -0.217 NA
ATOM      7  C   UNL     1     128.468 145.664 128.514  1.00  0.00     0.152 A 
ATOM      8  C   UNL     1     128.926 144.812 129.515  1.00  0.00     0.127 A 
ATOM      9  N   UNL     1     129.889 143.883 129.494  1.00  0.00    -0.340 N 
ATOM     10  H   UNL     1     130.509 143.602 128.702  1.00  0.00     0.168 HD
ENDROOT
BRANCH   7  11
ATOM     11  N   UNL     1     129.023 145.660 127.198  1.00  0.00    -0.382 N 
ATOM     12  H   UNL     1     128.463 145.351 126.373  1.00  0.00     0.158 HD
ATOM     13  H   UNL     1     130.007 145.969 127.045  1.00  0.00     0.158 HD
ENDBRANCH   7  11
TORSDOF 1
ENDMDL
MODEL 2
REMARK VINA RESULT:    -3.742     17.840     19.005
REMARK INTER + INTRA:          -3.851
REMARK INTER:                  -3.851
REMARK INTRA:                   0.000
REMARK UNBOUND:                 0.000
REMARK SMILES Nc1ncnc2nc[nH]c12
REMARK SMILES IDX 8 1 7 2 6 3 5 4 4 5 3 6 2 7 10 8 9 9 1 11
REMARK H PARENT 9 10 1 12 1 13
REMARK Flexibility Score: inf
ROOT
ATOM      1  C   UNL     1     127.476 134.315 115.897  1.00  0.00     0.199 A 
ATOM      2  N   UNL     1     128.146 133.620 114.938  1.00  0.00    -0.217 NA
ATOM      3  C   UNL     1     128.368 132.441 115.542  1.00  0.00     0.182 A 
ATOM      4  N   UNL     1     129.011 131.371 115.016  1.00  0.00    -0.215 NA
ATOM      5  C   UNL     1     129.141 130.251 115.790  1.00  0.00     0.226 A 
ATOM      6  N   UNL     1     128.630 130.221 117.064  1.00  0.00    -0.217 NA
ATOM      7  C   UNL     1     127.981 131.300 117.596  1.00  0.00     0.152 A 
ATOM      8  C   UNL     1     127.858 132.432 116.795  1.00  0.00     0.127 A 
ATOM      9  N   UNL     1     127.284 133.616 117.045  1.00  0.00    -0.340 N 
ATOM     10  H   UNL     1     126.800 133.938 117.912  1.00  0.00     0.168 HD
ENDROOT
BRANCH   7  11
ATOM     11  N   UNL     1     127.458 131.246 118.924  1.00  0.00    -0.382 N 
ATOM     12  H   UNL     1     128.054 130.962 119.732  1.00  0.00     0.158 HD
ATOM     13  H   UNL     1     126.461 131.494 119.103  1.00  0.00     0.158 HD
ENDBRANCH   7  11
TORSDOF 1
ENDMDL
MODEL 3
REMARK VINA RESULT:    -3.701     11.742     13.629
REMARK INTER + INTRA:          -3.809
REMARK INTER:                  -3.809
REMARK INTRA:                   0.000
REMARK UNBOUND:                 0.000
REMARK SMILES Nc1ncnc2nc[nH]c12
REMARK SMILES IDX 8 1 7 2 6 3 5 4 4 5 3 6 2 7 10 8 9 9 1 11
REMARK H PARENT 9 10 1 12 1 13
REMARK Flexibility Score: inf
ROOT
ATOM      1  C   UNL     1     131.755 145.205 116.327  1.00  0.00     0.199 A 
ATOM      2  N   UNL     1     131.431 144.335 115.332  1.00  0.00    -0.217 NA
ATOM      3  C   UNL     1     130.284 143.801 115.782  1.00  0.00     0.182 A 
ATOM      4  N   UNL     1     129.529 142.863 115.161  1.00  0.00    -0.215 NA
ATOM      5  C   UNL     1     128.386 142.439 115.781  1.00  0.00     0.226 A 
ATOM      6  N   UNL     1     128.021 142.958 116.998  1.00  0.00    -0.217 NA
ATOM      7  C   UNL     1     128.780 143.905 117.626  1.00  0.00     0.152 A 
ATOM      8  C   UNL     1     129.941 144.324 116.982  1.00  0.00     0.127 A 
ATOM      9  N   UNL     1     130.864 145.222 117.350  1.00  0.00    -0.340 N 
ATOM     10  H   UNL     1     130.901 145.804 118.216  1.00  0.00     0.168 HD
ENDROOT
BRANCH   7  11
ATOM     11  N   UNL     1     128.380 144.430 118.893  1.00  0.00    -0.382 N 
ATOM     12  H   UNL     1     128.303 143.818 119.735  1.00  0.00     0.158 HD
ATOM     13  H   UNL     1     128.156 145.444 118.991  1.00  0.00     0.158 HD
ENDBRANCH   7  11
TORSDOF 1
ENDMDL
MODEL 4
REMARK VINA RESULT:    -3.697     18.504     19.458
REMARK INTER + INTRA:          -3.806
REMARK INTER:                  -3.806
REMARK INTRA:                   0.000
REMARK UNBOUND:                 0.000
REMARK SMILES Nc1ncnc2nc[nH]c12
REMARK SMILES IDX 8 1 7 2 6 3 5 4 4 5 3 6 2 7 10 8 9 9 1 11
REMARK H PARENT 9 10 1 12 1 13
REMARK Flexibility Score: inf
ROOT
ATOM      1  C   UNL     1     129.642 129.426 115.522  1.00  0.00     0.199 A 
ATOM      2  N   UNL     1     129.913 130.511 114.746  1.00  0.00    -0.217 NA
ATOM      3  C   UNL     1     129.175 131.470 115.330  1.00  0.00     0.182 A 
ATOM      4  N   UNL     1     129.081 132.766 114.945  1.00  0.00    -0.215 NA
ATOM      5  C   UNL     1     128.273 133.598 115.669  1.00  0.00     0.226 A 
ATOM      6  N   UNL     1     127.580 133.124 116.755  1.00  0.00    -0.217 NA
ATOM      7  C   UNL     1     127.674 131.818 117.146  1.00  0.00     0.152 A 
ATOM      8  C   UNL     1     128.500 130.984 116.397  1.00  0.00     0.127 A 
ATOM      9  N   UNL     1     128.782 129.683 116.540  1.00  0.00    -0.340 N 
ATOM     10  H   UNL     1     128.431 129.013 117.259  1.00  0.00     0.168 HD
ENDROOT
BRANCH   7  11
ATOM     11  N   UNL     1     126.944 131.347 118.279  1.00  0.00    -0.382 N 
ATOM     12  H   UNL     1     126.570 132.006 118.997  1.00  0.00     0.158 HD
ATOM     13  H   UNL     1     126.774 130.325 118.403  1.00  0.00     0.158 HD
ENDBRANCH   7  11
TORSDOF 1
ENDMDL
MODEL 5
REMARK VINA RESULT:    -3.684     12.089     14.109
REMARK INTER + INTRA:          -3.792
REMARK INTER:                  -3.792
REMARK INTRA:                   0.000
REMARK UNBOUND:                 0.000
REMARK SMILES Nc1ncnc2nc[nH]c12
REMARK SMILES IDX 8 1 7 2 6 3 5 4 4 5 3 6 2 7 10 8 9 9 1 11
REMARK H PARENT 9 10 1 12 1 13
REMARK Flexibility Score: inf
ROOT
ATOM      1  C   UNL     1     127.647 141.896 115.269  1.00  0.00     0.199 A 
ATOM      2  N   UNL     1     128.725 142.186 114.490  1.00  0.00    -0.217 NA
ATOM      3  C   UNL     1     129.392 143.073 115.247  1.00  0.00     0.182 A 
ATOM      4  N   UNL     1     130.558 143.689 114.932  1.00  0.00    -0.215 NA
ATOM      5  C   UNL     1     131.088 144.567 115.837  1.00  0.00     0.226 A 
ATOM      6  N   UNL     1     130.451 144.812 117.027  1.00  0.00    -0.217 NA
ATOM      7  C   UNL     1     129.275 144.191 117.346  1.00  0.00     0.152 A 
ATOM      8  C   UNL     1     128.748 143.301 116.414  1.00  0.00     0.127 A 
ATOM      9  N   UNL     1     127.633 142.561 116.452  1.00  0.00    -0.340 N 
ATOM     10  H   UNL     1     126.914 142.501 117.206  1.00  0.00     0.168 HD
ENDROOT
BRANCH   7  11
ATOM     11  N   UNL     1     128.629 144.461 118.591  1.00  0.00    -0.382 N 
ATOM     12  H   UNL     1     128.682 145.403 119.038  1.00  0.00     0.158 HD
ATOM     13  H   UNL     1     128.091 143.709 119.074  1.00  0.00     0.158 HD
ENDBRANCH   7  11
TORSDOF 1
ENDMDL
MODEL 6
REMARK VINA RESULT:    -3.675      0.934      3.575
REMARK INTER + INTRA:          -3.782
REMARK INTER:                  -3.782
REMARK INTRA:                   0.000
REMARK UNBOUND:                 0.000
REMARK SMILES Nc1ncnc2nc[nH]c12
REMARK SMILES IDX 8 1 7 2 6 3 5 4 4 5 3 6 2 7 10 8 9 9 1 11
REMARK H PARENT 9 10 1 12 1 13
REMARK Flexibility Score: inf
ROOT
ATOM      1  C   UNL     1     127.182 146.746 130.113  1.00  0.00     0.199 A 
ATOM      2  N   UNL     1     127.399 146.767 128.769  1.00  0.00    -0.217 NA
ATOM      3  C   UNL     1     128.344 145.824 128.618  1.00  0.00     0.182 A 
ATOM      4  N   UNL     1     128.924 145.440 127.456  1.00  0.00    -0.215 NA
ATOM      5  C   UNL     1     129.873 144.456 127.503  1.00  0.00     0.226 A 
ATOM      6  N   UNL     1     130.222 143.881 128.699  1.00  0.00    -0.217 NA
ATOM      7  C   UNL     1     129.637 144.267 129.873  1.00  0.00     0.152 A 
ATOM      8  C   UNL     1     128.674 145.270 129.808  1.00  0.00     0.127 A 
ATOM      9  N   UNL     1     127.946 145.841 130.776  1.00  0.00    -0.340 N 
ATOM     10  H   UNL     1     127.954 145.646 131.801  1.00  0.00     0.168 HD
ENDROOT
BRANCH   7  11
ATOM     11  N   UNL     1     130.016 143.654 131.106  1.00  0.00    -0.382 N 
ATOM     12  H   UNL     1     130.650 144.136 131.780  1.00  0.00     0.158 HD
ATOM     13  H   UNL     1     129.659 142.705 131.348  1.00  0.00     0.158 HD
ENDBRANCH   7  11
TORSDOF 1
ENDMDL
MODEL 7
REMARK VINA RESULT:    -3.666     17.185     18.643
REMARK INTER + INTRA:          -3.773
REMARK INTER:                  -3.773
REMARK INTRA:                   0.000
REMARK UNBOUND:                 0.000
REMARK SMILES Nc1ncnc2nc[nH]c12
REMARK SMILES IDX 8 1 7 2 6 3 5 4 4 5 3 6 2 7 10 8 9 9 1 11
REMARK H PARENT 9 10 1 12 1 13
REMARK Flexibility Score: inf
ROOT
ATOM      1  C   UNL     1     143.295 144.572 116.165  1.00  0.00     0.199 A 
ATOM      2  N   UNL     1     142.446 144.715 115.110  1.00  0.00    -0.217 NA
ATOM      3  C   UNL     1     141.495 145.518 115.616  1.00  0.00     0.182 A 
ATOM      4  N   UNL     1     140.397 145.977 114.970  1.00  0.00    -0.215 NA
ATOM      5  C   UNL     1     139.537 146.789 115.657  1.00  0.00     0.226 A 
ATOM      6  N   UNL     1     139.789 147.125 116.964  1.00  0.00    -0.217 NA
ATOM      7  C   UNL     1     140.897 146.663 117.616  1.00  0.00     0.152 A 
ATOM      8  C   UNL     1     141.762 145.836 116.904  1.00  0.00     0.127 A 
ATOM      9  N   UNL     1     142.904 145.245 117.276  1.00  0.00    -0.340 N 
ATOM     10  H   UNL     1     143.390 145.285 118.199  1.00  0.00     0.168 HD
ENDROOT
BRANCH   7  11
ATOM     11  N   UNL     1     141.138 147.025 118.977  1.00  0.00    -0.382 N 
ATOM     12  H   UNL     1     141.984 147.572 119.252  1.00  0.00     0.158 HD
ATOM     13  H   UNL     1     140.462 146.743 119.720  1.00  0.00     0.158 HD
ENDBRANCH   7  11
TORSDOF 1
ENDMDL
MODEL 8
REMARK VINA RESULT:    -3.657     26.129     27.516
REMARK INTER + INTRA:          -3.764
REMARK INTER:                  -3.764
REMARK INTRA:                   0.000
REMARK UNBOUND:                 0.000
REMARK SMILES Nc1ncnc2nc[nH]c12
REMARK SMILES IDX 8 1 7 2 6 3 5 4 4 5 3 6 2 7 10 8 9 9 1 11
REMARK H PARENT 9 10 1 12 1 13
REMARK Flexibility Score: inf
ROOT
ATOM      1  C   UNL     1     141.806 127.476 115.731  1.00  0.00     0.199 A 
ATOM      2  N   UNL     1     142.235 127.160 116.983  1.00  0.00    -0.217 NA
ATOM      3  C   UNL     1     143.570 127.148 116.834  1.00  0.00     0.182 A 
ATOM      4  N   UNL     1     144.489 126.884 117.793  1.00  0.00    -0.215 NA
ATOM      5  C   UNL     1     145.812 126.919 117.447  1.00  0.00     0.226 A 
ATOM      6  N   UNL     1     146.188 127.215 116.160  1.00  0.00    -0.217 NA
ATOM      7  C   UNL     1     145.261 127.481 115.191  1.00  0.00     0.152 A 
ATOM      8  C   UNL     1     143.919 127.441 115.560  1.00  0.00     0.127 A 
ATOM      9  N   UNL     1     142.812 127.654 114.838  1.00  0.00    -0.340 N 
ATOM     10  H   UNL     1     142.729 127.900 113.827  1.00  0.00     0.168 HD
ENDROOT
BRANCH   7  11
ATOM     11  N   UNL     1     145.676 127.786 113.859  1.00  0.00    -0.382 N 
ATOM     12  H   UNL     1     146.341 127.170 113.342  1.00  0.00     0.158 HD
ATOM     13  H   UNL     1     145.314 128.641 113.382  1.00  0.00     0.158 HD
ENDBRANCH   7  11
TORSDOF 1
ENDMDL
MODEL 9
REMARK VINA RESULT:    -3.607     25.535     27.205
REMARK INTER + INTRA:          -3.712
REMARK INTER:                  -3.712
REMARK INTRA:                   0.000
REMARK UNBOUND:                 0.000
REMARK SMILES Nc1ncnc2nc[nH]c12
REMARK SMILES IDX 8 1 7 2 6 3 5 4 4 5 3 6 2 7 10 8 9 9 1 11
REMARK H PARENT 9 10 1 12 1 13
REMARK Flexibility Score: inf
ROOT
ATOM      1  C   UNL     1     145.429 129.166 114.520  1.00  0.00     0.199 A 
ATOM      2  N   UNL     1     145.593 127.861 114.867  1.00  0.00    -0.217 NA
ATOM      3  C   UNL     1     145.690 127.931 116.205  1.00  0.00     0.182 A 
ATOM      4  N   UNL     1     145.865 126.894 117.059  1.00  0.00    -0.215 NA
ATOM      5  C   UNL     1     145.940 127.165 118.398  1.00  0.00     0.226 A 
ATOM      6  N   UNL     1     145.840 128.456 118.854  1.00  0.00    -0.217 NA
ATOM      7  C   UNL     1     145.662 129.503 117.994  1.00  0.00     0.152 A 
ATOM      8  C   UNL     1     145.588 129.210 116.635  1.00  0.00     0.127 A 
ATOM      9  N   UNL     1     145.422 130.016 115.579  1.00  0.00    -0.340 N 
ATOM     10  H   UNL     1     145.311 131.054 115.559  1.00  0.00     0.168 HD
ENDROOT
BRANCH   7  11
ATOM     11  N   UNL     1     145.561 130.838 118.491  1.00  0.00    -0.382 N 
ATOM     12  H   UNL     1     145.481 131.033 119.513  1.00  0.00     0.158 HD
ATOM     13  H   UNL     1     145.565 131.644 117.828  1.00  0.00     0.158 HD
ENDBRANCH   7  11
TORSDOF 1
ENDMDL
