MODEL 1
REMARK VINA RESULT:    -4.200      0.000      0.000
REMARK INTER + INTRA:          -4.482
REMARK INTER:                  -4.446
REMARK INTRA:                  -0.036
REMARK UNBOUND:                -0.036
REMARK SMILES COc1ccc2ccc(=O)oc2c1
REMARK SMILES IDX 3 1 13 2 12 3 6 4 5 5 4 6 7 7 8 8 9 9 10 10 11 11 2 12 1 13
REMARK H PARENT
REMARK Flexibility Score: inf
ROOT
ATOM      1  C   UNL     1      -3.327   0.449  18.551  1.00  0.00     0.122 A 
ATOM      2  C   UNL     1      -4.081   0.491  17.361  1.00  0.00     0.094 A 
ATOM      3  C   UNL     1      -4.510   1.715  16.839  1.00  0.00     0.142 A 
ATOM      4  C   UNL     1      -4.186   2.916  17.509  1.00  0.00     0.018 A 
ATOM      5  C   UNL     1      -3.438   2.876  18.691  1.00  0.00     0.016 A 
ATOM      6  C   UNL     1      -3.012   1.648  19.206  1.00  0.00     0.047 A 
ATOM      7  C   UNL     1      -4.629   4.125  16.962  1.00  0.00     0.019 A 
ATOM      8  C   UNL     1      -5.372   4.111  15.782  1.00  0.00     0.094 A 
ATOM      9  C   UNL     1      -5.655   2.883  15.174  1.00  0.00     0.336 A 
ATOM     10  O   UNL     1      -6.324   2.849  14.108  1.00  0.00    -0.246 OA
ATOM     11  O   UNL     1      -5.221   1.747  15.715  1.00  0.00    -0.423 OA
ENDROOT
BRANCH   1  12
ATOM     12  O   UNL     1      -2.875  -0.754  19.113  1.00  0.00    -0.497 OA
ATOM     13  C   UNL     1      -2.877  -1.041  20.507  1.00  0.00     0.278 C 
ENDBRANCH   1  12
TORSDOF 1
ENDMDL
MODEL 2
REMARK VINA RESULT:    -4.033      0.988      4.839
REMARK INTER + INTRA:          -4.305
REMARK INTER:                  -4.265
REMARK INTRA:                  -0.040
REMARK UNBOUND:                -0.036
REMARK SMILES COc1ccc2ccc(=O)oc2c1
REMARK SMILES IDX 3 1 13 2 12 3 6 4 5 5 4 6 7 7 8 8 9 9 10 10 11 11 2 12 1 13
REMARK H PARENT
REMARK Flexibility Score: inf
ROOT
ATOM      1  C   UNL     1      -5.623   2.899  15.596  1.00  0.00     0.122 A 
ATOM      2  C   UNL     1      -5.170   1.686  16.153  1.00  0.00     0.094 A 
ATOM      3  C   UNL     1      -4.404   1.688  17.322  1.00  0.00     0.142 A 
ATOM      4  C   UNL     1      -4.081   2.913  17.949  1.00  0.00     0.018 A 
ATOM      5  C   UNL     1      -4.530   4.118  17.396  1.00  0.00     0.016 A 
ATOM      6  C   UNL     1      -5.297   4.108  16.227  1.00  0.00     0.047 A 
ATOM      7  C   UNL     1      -3.313   2.882  19.117  1.00  0.00     0.019 A 
ATOM      8  C   UNL     1      -2.890   1.655  19.626  1.00  0.00     0.094 A 
ATOM      9  C   UNL     1      -3.247   0.482  18.952  1.00  0.00     0.336 A 
ATOM     10  O   UNL     1      -2.875  -0.636  19.397  1.00  0.00    -0.246 OA
ATOM     11  O   UNL     1      -3.979   0.539  17.842  1.00  0.00    -0.423 OA
ENDROOT
BRANCH   1  12
ATOM     12  O   UNL     1      -6.394   2.948  14.426  1.00  0.00    -0.497 OA
ATOM     13  C   UNL     1      -7.069   4.109  13.955  1.00  0.00     0.278 C 
ENDBRANCH   1  12
TORSDOF 1
ENDMDL
MODEL 3
REMARK VINA RESULT:    -3.819      1.807      5.031
REMARK INTER + INTRA:          -4.078
REMARK INTER:                  -4.039
REMARK INTRA:                  -0.039
REMARK UNBOUND:                -0.036
REMARK SMILES COc1ccc2ccc(=O)oc2c1
REMARK SMILES IDX 3 1 13 2 12 3 6 4 5 5 4 6 7 7 8 8 9 9 10 10 11 11 2 12 1 13
REMARK H PARENT
REMARK Flexibility Score: inf
ROOT
ATOM      1  C   UNL     1      -5.676   2.245  15.079  1.00  0.00     0.122 A 
ATOM      2  C   UNL     1      -5.314   3.013  16.204  1.00  0.00     0.094 A 
ATOM      3  C   UNL     1      -4.530   2.454  17.218  1.00  0.00     0.142 A 
ATOM      4  C   UNL     1      -4.099   1.113  17.114  1.00  0.00     0.018 A 
ATOM      5  C   UNL     1      -4.459   0.349  15.997  1.00  0.00     0.016 A 
ATOM      6  C   UNL     1      -5.243   0.916  14.987  1.00  0.00     0.047 A 
ATOM      7  C   UNL     1      -3.316   0.582  18.144  1.00  0.00     0.019 A 
ATOM      8  C   UNL     1      -2.985   1.384  19.235  1.00  0.00     0.094 A 
ATOM      9  C   UNL     1      -3.448   2.705  19.271  1.00  0.00     0.336 A 
ATOM     10  O   UNL     1      -3.160   3.445  20.248  1.00  0.00    -0.246 OA
ATOM     11  O   UNL     1      -4.191   3.185  18.278  1.00  0.00    -0.423 OA
ENDROOT
BRANCH   1  12
ATOM     12  O   UNL     1      -6.461   2.762  14.038  1.00  0.00    -0.497 OA
ATOM     13  C   UNL     1      -6.856   4.125  13.928  1.00  0.00     0.278 C 
ENDBRANCH   1  12
TORSDOF 1
ENDMDL
MODEL 4
REMARK VINA RESULT:    -3.774      1.009      1.040
REMARK INTER + INTRA:          -4.031
REMARK INTER:                  -3.998
REMARK INTRA:                  -0.033
REMARK UNBOUND:                -0.036
REMARK SMILES COc1ccc2ccc(=O)oc2c1
REMARK SMILES IDX 3 1 13 2 12 3 6 4 5 5 4 6 7 7 8 8 9 9 10 10 11 11 2 12 1 13
REMARK H PARENT
REMARK Flexibility Score: inf
ROOT
ATOM      1  C   UNL     1      -3.138   0.051  19.373  1.00  0.00     0.122 A 
ATOM      2  C   UNL     1      -3.650   0.019  18.060  1.00  0.00     0.094 A 
ATOM      3  C   UNL     1      -3.896   1.210  17.370  1.00  0.00     0.142 A 
ATOM      4  C   UNL     1      -3.630   2.450  17.991  1.00  0.00     0.018 A 
ATOM      5  C   UNL     1      -3.121   2.483  19.295  1.00  0.00     0.016 A 
ATOM      6  C   UNL     1      -2.878   1.288  19.979  1.00  0.00     0.047 A 
ATOM      7  C   UNL     1      -3.886   3.624  17.274  1.00  0.00     0.019 A 
ATOM      8  C   UNL     1      -4.393   3.537  15.978  1.00  0.00     0.094 A 
ATOM      9  C   UNL     1      -4.633   2.274  15.426  1.00  0.00     0.336 A 
ATOM     10  O   UNL     1      -5.090   2.175  14.258  1.00  0.00    -0.246 OA
ATOM     11  O   UNL     1      -4.380   1.173  16.130  1.00  0.00    -0.423 OA
ENDROOT
BRANCH   1  12
ATOM     12  O   UNL     1      -2.875  -1.115  20.106  1.00  0.00    -0.497 OA
ATOM     13  C   UNL     1      -3.475  -1.431  21.357  1.00  0.00     0.278 C 
ENDBRANCH   1  12
TORSDOF 1
ENDMDL
MODEL 5
REMARK VINA RESULT:    -1.946      1.492      5.095
REMARK INTER + INTRA:          -2.096
REMARK INTER:                  -2.065
REMARK INTRA:                  -0.031
REMARK UNBOUND:                -0.036
REMARK SMILES COc1ccc2ccc(=O)oc2c1
REMARK SMILES IDX 3 1 13 2 12 3 6 4 5 5 4 6 7 7 8 8 9 9 10 10 11 11 2 12 1 13
REMARK H PARENT
REMARK Flexibility Score: inf
ROOT
ATOM      1  C   UNL     1      -3.854   1.153  16.764  1.00  0.00     0.122 A 
ATOM      2  C   UNL     1      -3.839   0.033  17.621  1.00  0.00     0.094 A 
ATOM      3  C   UNL     1      -3.513   0.183  18.973  1.00  0.00     0.142 A 
ATOM      4  C   UNL     1      -3.198   1.462  19.482  1.00  0.00     0.018 A 
ATOM      5  C   UNL     1      -3.212   2.574  18.632  1.00  0.00     0.016 A 
ATOM      6  C   UNL     1      -3.539   2.417  17.282  1.00  0.00     0.047 A 
ATOM      7  C   UNL     1      -2.876   1.578  20.838  1.00  0.00     0.019 A 
ATOM      8  C   UNL     1      -2.875   0.440  21.642  1.00  0.00     0.094 A 
ATOM      9  C   UNL     1      -3.198  -0.796  21.069  1.00  0.00     0.336 A 
ATOM     10  O   UNL     1      -3.203  -1.835  21.778  1.00  0.00    -0.246 OA
ATOM     11  O   UNL     1      -3.500  -0.879  19.776  1.00  0.00    -0.423 OA
ENDROOT
BRANCH   1  12
ATOM     12  O   UNL     1      -4.174   1.053  15.403  1.00  0.00    -0.497 OA
ATOM     13  C   UNL     1      -5.398   1.501  14.830  1.00  0.00     0.278 C 
ENDBRANCH   1  12
TORSDOF 1
ENDMDL
MODEL 6
REMARK VINA RESULT:    -1.475      2.276      3.307
REMARK INTER + INTRA:          -1.597
REMARK INTER:                  -1.564
REMARK INTRA:                  -0.034
REMARK UNBOUND:                -0.036
REMARK SMILES COc1ccc2ccc(=O)oc2c1
REMARK SMILES IDX 3 1 13 2 12 3 6 4 5 5 4 6 7 7 8 8 9 9 10 10 11 11 2 12 1 13
REMARK H PARENT
REMARK Flexibility Score: inf
ROOT
ATOM      1  C   UNL     1      -2.935  -0.941  21.250  1.00  0.00     0.122 A 
ATOM      2  C   UNL     1      -2.955  -0.779  19.850  1.00  0.00     0.094 A 
ATOM      3  C   UNL     1      -2.935   0.500  19.286  1.00  0.00     0.142 A 
ATOM      4  C   UNL     1      -2.895   1.637  20.124  1.00  0.00     0.018 A 
ATOM      5  C   UNL     1      -2.875   1.477  21.515  1.00  0.00     0.016 A 
ATOM      6  C   UNL     1      -2.895   0.194  22.071  1.00  0.00     0.047 A 
ATOM      7  C   UNL     1      -2.876   2.903  19.531  1.00  0.00     0.019 A 
ATOM      8  C   UNL     1      -2.897   3.008  18.140  1.00  0.00     0.094 A 
ATOM      9  C   UNL     1      -2.938   1.838  17.373  1.00  0.00     0.336 A 
ATOM     10  O   UNL     1      -2.957   1.912  16.116  1.00  0.00    -0.246 OA
ATOM     11  O   UNL     1      -2.955   0.646  17.963  1.00  0.00    -0.423 OA
ENDROOT
BRANCH   1  12
ATOM     12  O   UNL     1      -2.953  -2.202  21.861  1.00  0.00    -0.497 OA
ATOM     13  C   UNL     1      -4.107  -2.795  22.447  1.00  0.00     0.278 C 
ENDBRANCH   1  12
TORSDOF 1
ENDMDL
MODEL 7
REMARK VINA RESULT:    -1.289      1.990      2.791
REMARK INTER + INTRA:          -1.400
REMARK INTER:                  -1.361
REMARK INTRA:                  -0.039
REMARK UNBOUND:                -0.036
REMARK SMILES COc1ccc2ccc(=O)oc2c1
REMARK SMILES IDX 3 1 13 2 12 3 6 4 5 5 4 6 7 7 8 8 9 9 10 10 11 11 2 12 1 13
REMARK H PARENT
REMARK Flexibility Score: inf
ROOT
ATOM      1  C   UNL     1      -4.323   3.086  18.607  1.00  0.00     0.122 A 
ATOM      2  C   UNL     1      -4.141   1.949  17.793  1.00  0.00     0.094 A 
ATOM      3  C   UNL     1      -4.779   1.860  16.552  1.00  0.00     0.142 A 
ATOM      4  C   UNL     1      -5.610   2.914  16.112  1.00  0.00     0.018 A 
ATOM      5  C   UNL     1      -5.792   4.043  16.920  1.00  0.00     0.016 A 
ATOM      6  C   UNL     1      -5.150   4.125  18.159  1.00  0.00     0.047 A 
ATOM      7  C   UNL     1      -6.234   2.795  14.866  1.00  0.00     0.019 A 
ATOM      8  C   UNL     1      -6.021   1.649  14.100  1.00  0.00     0.094 A 
ATOM      9  C   UNL     1      -5.185   0.645  14.601  1.00  0.00     0.336 A 
ATOM     10  O   UNL     1      -4.980  -0.397  13.924  1.00  0.00    -0.246 OA
ATOM     11  O   UNL     1      -4.603   0.784  15.789  1.00  0.00    -0.423 OA
ENDROOT
BRANCH   1  12
ATOM     12  O   UNL     1      -3.705   3.221  19.858  1.00  0.00    -0.497 OA
ATOM     13  C   UNL     1      -2.876   2.231  20.457  1.00  0.00     0.278 C 
ENDBRANCH   1  12
TORSDOF 1
ENDMDL
