MODEL 1
REMARK VINA RESULT:    22.347      0.000      0.000
REMARK INTER + INTRA:          30.090
REMARK INTER:                  30.186
REMARK INTRA:                  -0.096
REMARK UNBOUND:                -0.096
REMARK SMILES CC[C@@H](CC[C@@H](C)[C@@H]1CC[C@@H]2[C@@H]3CC(=O)C4=CC(=O)CC[C@@]4(C)[C@@H]3CC[C@]21C)C(C)C
REMARK SMILES IDX 4 1 3 2 2 3 1 4 29 5 30 6 31 7 5 8 6 9 7 10 8 11 9 12 27 13
REMARK SMILES IDX 10 14 11 15 26 16 28 17 12 18 25 19 24 20 13 21 22 22 14 23
REMARK SMILES IDX 16 24 21 25 23 26 15 27 17 28 20 29 18 30 19 31
REMARK H PARENT
REMARK Flexibility Score: inf
ROOT
ATOM      1  C   UNL     1       5.580  10.976  -8.217  1.00  0.00     0.004 C 
ENDROOT
BRANCH   1   2
ATOM      2  C   UNL     1       5.981  12.460  -7.958  1.00  0.00    -0.009 C 
BRANCH   2   3
ATOM      3  C   UNL     1       6.815  13.076  -9.125  1.00  0.00     0.000 C 
ATOM      4  C   UNL     1       6.981  14.605  -9.114  1.00  0.00     0.004 C 
ENDBRANCH   2   3
BRANCH   2   5
ATOM      5  C   UNL     1       6.637  12.657  -6.544  1.00  0.00    -0.014 C 
ATOM      6  C   UNL     1       6.217  13.958  -5.828  1.00  0.00     0.007 C 
ATOM      7  C   UNL     1       6.395  11.449  -5.609  1.00  0.00     0.007 C 
ENDBRANCH   2   5
ENDBRANCH   1   2
BRANCH   1   8
ATOM      8  C   UNL     1       4.334  10.778  -9.112  1.00  0.00     0.004 C 
BRANCH   8   9
ATOM      9  C   UNL     1       2.998  11.295  -8.524  1.00  0.00    -0.011 C 
ATOM     10  C   UNL     1       2.151  10.092  -8.062  1.00  0.00     0.008 C 
BRANCH   9  11
ATOM     11  C   UNL     1       3.237  12.293  -7.342  1.00  0.00    -0.002 C 
ATOM     12  C   UNL     1       2.382  11.943  -6.094  1.00  0.00     0.005 C 
ATOM     13  C   UNL     1       2.965  13.827  -7.554  1.00  0.00    -0.026 C 
ATOM     14  C   UNL     1       2.098  13.244  -5.339  1.00  0.00     0.005 C 
ATOM     15  C   UNL     1       2.948  14.255  -6.073  1.00  0.00    -0.001 C 
ATOM     16  C   UNL     1       4.088  14.636  -8.257  1.00  0.00     0.007 C 
ATOM     17  C   UNL     1       1.602  14.033  -8.297  1.00  0.00     0.012 C 
ATOM     18  C   UNL     1       2.773  15.754  -5.757  1.00  0.00     0.004 C 
ATOM     19  C   UNL     1       3.962  16.166  -7.999  1.00  0.00     0.005 C 
ATOM     20  C   UNL     1       3.883  16.560  -6.489  1.00  0.00     0.003 C 
ATOM     21  C   UNL     1       1.376  16.337  -6.029  1.00  0.00     0.085 C 
ATOM     22  C   UNL     1       3.816  18.133  -6.177  1.00  0.00    -0.000 C 
ATOM     23  C   UNL     1       1.320  17.714  -5.451  1.00  0.00     0.159 C 
ATOM     24  C   UNL     1       2.561  18.533  -5.386  1.00  0.00     0.005 C 
ATOM     25  C   UNL     1       5.068  18.515  -5.323  1.00  0.00     0.020 C 
ATOM     26  C   UNL     1       3.812  18.996  -7.474  1.00  0.00     0.017 C 
ATOM     27  O   UNL     1       0.205  18.186  -5.094  1.00  0.00    -0.295 OA
ATOM     28  C   UNL     1       2.552  19.671  -4.664  1.00  0.00     0.055 C 
ATOM     29  C   UNL     1       5.113  19.999  -4.902  1.00  0.00     0.081 C 
ATOM     30  C   UNL     1       3.746  20.523  -4.553  1.00  0.00     0.156 C 
ATOM     31  O   UNL     1       3.603  21.743  -4.263  1.00  0.00    -0.295 OA
ENDBRANCH   9  11
ENDBRANCH   8   9
ENDBRANCH   1   8
TORSDOF 6
ENDMDL
MODEL 2
REMARK VINA RESULT:    24.945      1.370      2.336
REMARK INTER + INTRA:          33.599
REMARK INTER:                  25.785
REMARK INTRA:                   7.814
REMARK UNBOUND:                -0.096
REMARK SMILES CC[C@@H](CC[C@@H](C)[C@@H]1CC[C@@H]2[C@@H]3CC(=O)C4=CC(=O)CC[C@@]4(C)[C@@H]3CC[C@]21C)C(C)C
REMARK SMILES IDX 4 1 3 2 2 3 1 4 29 5 30 6 31 7 5 8 6 9 7 10 8 11 9 12 27 13
REMARK SMILES IDX 10 14 11 15 26 16 28 17 12 18 25 19 24 20 13 21 22 22 14 23
REMARK SMILES IDX 16 24 21 25 23 26 15 27 17 28 20 29 18 30 19 31
REMARK H PARENT
REMARK Flexibility Score: inf
ROOT
ATOM      1  C   UNL     1       5.292  10.932  -7.482  1.00  0.00     0.004 C 
ENDROOT
BRANCH   1   2
ATOM      2  C   UNL     1       5.910  12.363  -7.482  1.00  0.00    -0.009 C 
BRANCH   2   3
ATOM      3  C   UNL     1       6.654  12.703  -8.812  1.00  0.00     0.000 C 
ATOM      4  C   UNL     1       6.896  14.194  -9.099  1.00  0.00     0.004 C 
ENDBRANCH   2   3
BRANCH   2   5
ATOM      5  C   UNL     1       6.767  12.638  -6.194  1.00  0.00    -0.014 C 
ATOM      6  C   UNL     1       6.454  13.981  -5.502  1.00  0.00     0.007 C 
ATOM      7  C   UNL     1       6.666  11.488  -5.165  1.00  0.00     0.007 C 
ENDBRANCH   2   5
ENDBRANCH   1   2
BRANCH   1   8
ATOM      8  C   UNL     1       4.076  10.741  -8.420  1.00  0.00     0.004 C 
BRANCH   8   9
ATOM      9  C   UNL     1       2.687  10.818  -7.741  1.00  0.00    -0.011 C 
ATOM     10  C   UNL     1       2.789  10.238  -6.316  1.00  0.00     0.008 C 
BRANCH   9  11
ATOM     11  C   UNL     1       2.146  12.287  -7.705  1.00  0.00    -0.002 C 
ATOM     12  C   UNL     1       1.768  12.809  -9.117  1.00  0.00     0.005 C 
ATOM     13  C   UNL     1       3.050  13.433  -7.121  1.00  0.00    -0.026 C 
ATOM     14  C   UNL     1       1.964  14.327  -9.125  1.00  0.00     0.005 C 
ATOM     15  C   UNL     1       2.267  14.638  -7.677  1.00  0.00    -0.001 C 
ATOM     16  C   UNL     1       3.076  13.572  -5.575  1.00  0.00     0.007 C 
ATOM     17  C   UNL     1       4.509  13.303  -7.677  1.00  0.00     0.012 C 
ATOM     18  C   UNL     1       2.752  16.052  -7.299  1.00  0.00     0.004 C 
ATOM     19  C   UNL     1       3.578  14.973  -5.117  1.00  0.00     0.005 C 
ATOM     20  C   UNL     1       2.804  16.172  -5.750  1.00  0.00     0.003 C 
ATOM     21  C   UNL     1       4.071  16.503  -7.947  1.00  0.00     0.085 C 
ATOM     22  C   UNL     1       3.248  17.633  -5.255  1.00  0.00    -0.000 C 
ATOM     23  C   UNL     1       4.262  17.958  -7.663  1.00  0.00     0.159 C 
ATOM     24  C   UNL     1       3.716  18.537  -6.405  1.00  0.00     0.005 C 
ATOM     25  C   UNL     1       2.016  18.314  -4.575  1.00  0.00     0.020 C 
ATOM     26  C   UNL     1       4.421  17.582  -4.231  1.00  0.00     0.017 C 
ATOM     27  O   UNL     1       4.946  18.656  -8.463  1.00  0.00    -0.295 OA
ATOM     28  C   UNL     1       3.691  19.878  -6.265  1.00  0.00     0.055 C 
ATOM     29  C   UNL     1       2.283  19.755  -4.090  1.00  0.00     0.081 C 
ATOM     30  C   UNL     1       3.159  20.516  -5.050  1.00  0.00     0.156 C 
ATOM     31  O   UNL     1       3.533  21.685  -4.758  1.00  0.00    -0.295 OA
ENDBRANCH   9  11
ENDBRANCH   8   9
ENDBRANCH   1   8
TORSDOF 6
ENDMDL
