MODEL 1
REMARK VINA RESULT:    -4.249      0.000      0.000
REMARK INTER + INTRA:          -8.859
REMARK INTER:                  -6.484
REMARK INTRA:                  -2.375
REMARK UNBOUND:                -2.375
REMARK SMILES CC(=O)CCC=C(C)CCC=C(C)CCC=C(C)C
REMARK SMILES IDX 10 1 11 2 12 3 13 4 14 5 15 6 16 7 18 8 17 9 19 10 9 11 7 12
REMARK SMILES IDX 6 13 8 14 5 15 4 16 2 17 3 18 1 19
REMARK H PARENT
REMARK Flexibility Score: inf
ROOT
ATOM      1  C   UNL     1       8.030  -1.095  -1.915  1.00  0.00     0.032 C 
ENDROOT
BRANCH   1   2
ATOM      2  C   UNL     1       7.323  -1.724  -0.742  1.00  0.00    -0.028 C 
ATOM      3  C   UNL     1       6.025  -1.507  -0.430  1.00  0.00    -0.077 C 
ATOM      4  C   UNL     1       5.125  -0.664  -1.302  1.00  0.00     0.039 C 
BRANCH   3   5
ATOM      5  C   UNL     1       5.454  -2.135   0.826  1.00  0.00     0.034 C 
BRANCH   5   6
ATOM      6  C   UNL     1       5.713  -3.649   0.879  1.00  0.00     0.032 C 
BRANCH   6   7
ATOM      7  C   UNL     1       5.292  -4.337  -0.398  1.00  0.00    -0.028 C 
ATOM      8  C   UNL     1       7.559  -5.314  -0.825  1.00  0.00     0.039 C 
ATOM      9  C   UNL     1       6.114  -5.061  -1.188  1.00  0.00    -0.080 C 
ATOM     10  C   UNL     1       5.555  -5.647  -2.459  1.00  0.00     0.039 C 
ENDBRANCH   6   7
ENDBRANCH   5   6
ENDBRANCH   3   5
ENDBRANCH   1   2
BRANCH   1  11
ATOM     11  C   UNL     1       8.832  -2.147  -2.689  1.00  0.00     0.034 C 
BRANCH  11  12
ATOM     12  C   UNL     1       7.950  -2.871  -3.682  1.00  0.00    -0.077 C 
ATOM     13  C   UNL     1       6.788  -2.296  -4.070  1.00  0.00    -0.028 C 
ATOM     14  C   UNL     1       8.404  -4.204  -4.232  1.00  0.00     0.039 C 
BRANCH  13  15
ATOM     15  C   UNL     1       5.799  -2.922  -5.023  1.00  0.00     0.035 C 
BRANCH  15  16
ATOM     16  C   UNL     1       4.389  -2.985  -4.422  1.00  0.00     0.079 C 
BRANCH  16  17
ATOM     17  C   UNL     1       3.350  -3.269  -5.474  1.00  0.00     0.130 C 
ATOM     18  O   UNL     1       2.294  -3.796  -5.155  1.00  0.00    -0.300 OA
ATOM     19  C   UNL     1       3.573  -2.883  -6.905  1.00  0.00     0.087 C 
ENDBRANCH  16  17
ENDBRANCH  15  16
ENDBRANCH  13  15
ENDBRANCH  11  12
ENDBRANCH   1  11
TORSDOF 9
ENDMDL
MODEL 2
REMARK VINA RESULT:    -4.239      3.193      7.863
REMARK INTER + INTRA:          -8.844
REMARK INTER:                  -7.859
REMARK INTRA:                  -0.985
REMARK UNBOUND:                -2.375
REMARK SMILES CC(=O)CCC=C(C)CCC=C(C)CCC=C(C)C
REMARK SMILES IDX 10 1 11 2 12 3 13 4 14 5 15 6 16 7 18 8 17 9 19 10 9 11 7 12
REMARK SMILES IDX 6 13 8 14 5 15 4 16 2 17 3 18 1 19
REMARK H PARENT
REMARK Flexibility Score: inf
ROOT
ATOM      1  C   UNL     1       3.754  -3.712  -5.557  1.00  0.00     0.032 C 
ENDROOT
BRANCH   1   2
ATOM      2  C   UNL     1       3.545  -2.898  -6.809  1.00  0.00    -0.028 C 
ATOM      3  C   UNL     1       3.625  -3.397  -8.063  1.00  0.00    -0.077 C 
ATOM      4  C   UNL     1       3.850  -4.868  -8.324  1.00  0.00     0.039 C 
BRANCH   3   5
ATOM      5  C   UNL     1       3.477  -2.455  -9.242  1.00  0.00     0.034 C 
BRANCH   5   6
ATOM      6  C   UNL     1       2.884  -1.101  -8.823  1.00  0.00     0.032 C 
BRANCH   6   7
ATOM      7  C   UNL     1       3.692   0.058  -9.358  1.00  0.00    -0.028 C 
ATOM      8  C   UNL     1       2.232   1.794  -8.296  1.00  0.00     0.039 C 
ATOM      9  C   UNL     1       3.396   1.360  -9.156  1.00  0.00    -0.080 C 
ATOM     10  C   UNL     1       4.274   2.403  -9.799  1.00  0.00     0.039 C 
ENDBRANCH   6   7
ENDBRANCH   5   6
ENDBRANCH   3   5
ENDBRANCH   1   2
BRANCH   1  11
ATOM     11  C   UNL     1       4.929  -3.158  -4.744  1.00  0.00     0.034 C 
BRANCH  11  12
ATOM     12  C   UNL     1       4.526  -2.928  -3.305  1.00  0.00    -0.077 C 
ATOM     13  C   UNL     1       4.827  -1.746  -2.719  1.00  0.00    -0.028 C 
ATOM     14  C   UNL     1       3.776  -4.016  -2.570  1.00  0.00     0.039 C 
BRANCH  13  15
ATOM     15  C   UNL     1       4.519  -1.399  -1.283  1.00  0.00     0.035 C 
BRANCH  15  16
ATOM     16  C   UNL     1       5.789  -1.337  -0.424  1.00  0.00     0.079 C 
BRANCH  16  17
ATOM     17  C   UNL     1       5.813  -2.430   0.611  1.00  0.00     0.130 C 
ATOM     18  O   UNL     1       5.498  -2.178   1.764  1.00  0.00    -0.300 OA
ATOM     19  C   UNL     1       6.182  -3.835   0.242  1.00  0.00     0.087 C 
ENDBRANCH  16  17
ENDBRANCH  15  16
ENDBRANCH  13  15
ENDBRANCH  11  12
ENDBRANCH   1  11
TORSDOF 9
ENDMDL
MODEL 3
REMARK VINA RESULT:    -4.159      2.382      4.623
REMARK INTER + INTRA:          -8.722
REMARK INTER:                  -6.435
REMARK INTRA:                  -2.287
REMARK UNBOUND:                -2.375
REMARK SMILES CC(=O)CCC=C(C)CCC=C(C)CCC=C(C)C
REMARK SMILES IDX 10 1 11 2 12 3 13 4 14 5 15 6 16 7 18 8 17 9 19 10 9 11 7 12
REMARK SMILES IDX 6 13 8 14 5 15 4 16 2 17 3 18 1 19
REMARK H PARENT
REMARK Flexibility Score: inf
ROOT
ATOM      1  C   UNL     1       7.140  -2.356  -4.117  1.00  0.00     0.032 C 
ENDROOT
BRANCH   1   2
ATOM      2  C   UNL     1       8.096  -3.242  -3.359  1.00  0.00    -0.028 C 
ATOM      3  C   UNL     1       8.783  -2.857  -2.260  1.00  0.00    -0.077 C 
ATOM      4  C   UNL     1       8.581  -1.500  -1.628  1.00  0.00     0.039 C 
BRANCH   3   5
ATOM      5  C   UNL     1       9.778  -3.817  -1.638  1.00  0.00     0.034 C 
BRANCH   5   6
ATOM      6  C   UNL     1       9.172  -4.581  -0.451  1.00  0.00     0.032 C 
BRANCH   6   7
ATOM      7  C   UNL     1       9.170  -6.074  -0.684  1.00  0.00    -0.028 C 
ATOM      8  C   UNL     1       6.774  -6.136  -1.408  1.00  0.00     0.039 C 
ATOM      9  C   UNL     1       8.096  -6.789  -1.083  1.00  0.00    -0.080 C 
ATOM     10  C   UNL     1       8.242  -8.282  -1.224  1.00  0.00     0.039 C 
ENDBRANCH   6   7
ENDBRANCH   5   6
ENDBRANCH   3   5
ENDBRANCH   1   2
BRANCH   1  11
ATOM     11  C   UNL     1       5.759  -3.013  -4.216  1.00  0.00     0.034 C 
BRANCH  11  12
ATOM     12  C   UNL     1       4.956  -2.768  -2.959  1.00  0.00    -0.077 C 
ATOM     13  C   UNL     1       5.061  -1.572  -2.335  1.00  0.00    -0.028 C 
ATOM     14  C   UNL     1       4.039  -3.856  -2.450  1.00  0.00     0.039 C 
BRANCH  13  15
ATOM     15  C   UNL     1       4.348  -1.207  -1.055  1.00  0.00     0.035 C 
BRANCH  15  16
ATOM     16  C   UNL     1       5.330  -0.796   0.049  1.00  0.00     0.079 C 
BRANCH  16  17
ATOM     17  C   UNL     1       5.470  -1.871   1.094  1.00  0.00     0.130 C 
ATOM     18  O   UNL     1       5.245  -1.608   2.267  1.00  0.00    -0.300 OA
ATOM     19  C   UNL     1       5.847  -3.271   0.717  1.00  0.00     0.087 C 
ENDBRANCH  16  17
ENDBRANCH  15  16
ENDBRANCH  13  15
ENDBRANCH  11  12
ENDBRANCH   1  11
TORSDOF 9
ENDMDL
MODEL 4
REMARK VINA RESULT:    -4.130      1.399      3.304
REMARK INTER + INTRA:          -8.679
REMARK INTER:                  -6.186
REMARK INTRA:                  -2.492
REMARK UNBOUND:                -2.375
REMARK SMILES CC(=O)CCC=C(C)CCC=C(C)CCC=C(C)C
REMARK SMILES IDX 10 1 11 2 12 3 13 4 14 5 15 6 16 7 18 8 17 9 19 10 9 11 7 12
REMARK SMILES IDX 6 13 8 14 5 15 4 16 2 17 3 18 1 19
REMARK H PARENT
REMARK Flexibility Score: inf
ROOT
ATOM      1  C   UNL     1       6.182  -0.613  -1.153  1.00  0.00     0.032 C 
ENDROOT
BRANCH   1   2
ATOM      2  C   UNL     1       7.588  -1.155  -1.090  1.00  0.00    -0.028 C 
ATOM      3  C   UNL     1       8.175  -1.866  -2.079  1.00  0.00    -0.077 C 
ATOM      4  C   UNL     1       7.487  -2.111  -3.402  1.00  0.00     0.039 C 
BRANCH   3   5
ATOM      5  C   UNL     1       9.565  -2.428  -1.858  1.00  0.00     0.034 C 
BRANCH   5   6
ATOM      6  C   UNL     1       9.672  -3.891  -2.317  1.00  0.00     0.032 C 
BRANCH   6   7
ATOM      7  C   UNL     1       8.763  -4.798  -1.522  1.00  0.00    -0.028 C 
ATOM      8  C   UNL     1       8.036  -6.117  -3.523  1.00  0.00     0.039 C 
ATOM      9  C   UNL     1       8.002  -5.780  -2.051  1.00  0.00    -0.080 C 
ATOM     10  C   UNL     1       7.108  -6.569  -1.129  1.00  0.00     0.039 C 
ENDBRANCH   6   7
ENDBRANCH   5   6
ENDBRANCH   3   5
ENDBRANCH   1   2
BRANCH   1  11
ATOM     11  C   UNL     1       5.287  -1.316  -0.127  1.00  0.00     0.034 C 
BRANCH  11  12
ATOM     12  C   UNL     1       5.005  -2.742  -0.547  1.00  0.00    -0.077 C 
ATOM     13  C   UNL     1       4.413  -2.969  -1.742  1.00  0.00    -0.028 C 
ATOM     14  C   UNL     1       5.416  -3.871   0.369  1.00  0.00     0.039 C 
BRANCH  13  15
ATOM     15  C   UNL     1       4.042  -4.335  -2.268  1.00  0.00     0.035 C 
BRANCH  15  16
ATOM     16  C   UNL     1       4.770  -4.661  -3.578  1.00  0.00     0.079 C 
BRANCH  16  17
ATOM     17  C   UNL     1       4.068  -4.060  -4.767  1.00  0.00     0.130 C 
ATOM     18  O   UNL     1       2.851  -4.141  -4.855  1.00  0.00    -0.300 OA
ATOM     19  C   UNL     1       4.832  -3.331  -5.829  1.00  0.00     0.087 C 
ENDBRANCH  16  17
ENDBRANCH  15  16
ENDBRANCH  13  15
ENDBRANCH  11  12
ENDBRANCH   1  11
TORSDOF 9
ENDMDL
MODEL 5
REMARK VINA RESULT:    -4.126      2.423      4.370
REMARK INTER + INTRA:          -8.672
REMARK INTER:                  -6.295
REMARK INTRA:                  -2.377
REMARK UNBOUND:                -2.375
REMARK SMILES CC(=O)CCC=C(C)CCC=C(C)CCC=C(C)C
REMARK SMILES IDX 10 1 11 2 12 3 13 4 14 5 15 6 16 7 18 8 17 9 19 10 9 11 7 12
REMARK SMILES IDX 6 13 8 14 5 15 4 16 2 17 3 18 1 19
REMARK H PARENT
REMARK Flexibility Score: inf
ROOT
ATOM      1  C   UNL     1       9.082  -1.997  -1.489  1.00  0.00     0.032 C 
ENDROOT
BRANCH   1   2
ATOM      2  C   UNL     1       7.860  -1.115  -1.458  1.00  0.00    -0.028 C 
ATOM      3  C   UNL     1       6.713  -1.425  -0.814  1.00  0.00    -0.077 C 
ATOM      4  C   UNL     1       6.581  -2.676   0.023  1.00  0.00     0.039 C 
BRANCH   3   5
ATOM      5  C   UNL     1       5.526  -0.490  -0.929  1.00  0.00     0.034 C 
BRANCH   5   6
ATOM      6  C   UNL     1       4.295  -1.196  -1.520  1.00  0.00     0.032 C 
BRANCH   6   7
ATOM      7  C   UNL     1       4.570  -1.748  -2.899  1.00  0.00    -0.028 C 
ATOM      8  C   UNL     1       3.897  -4.082  -2.289  1.00  0.00     0.039 C 
ATOM      9  C   UNL     1       4.426  -3.044  -3.251  1.00  0.00    -0.080 C 
ATOM     10  C   UNL     1       4.789  -3.450  -4.656  1.00  0.00     0.039 C 
ENDBRANCH   6   7
ENDBRANCH   5   6
ENDBRANCH   3   5
ENDBRANCH   1   2
BRANCH   1  11
ATOM     11  C   UNL     1       9.211  -2.691  -2.849  1.00  0.00     0.034 C 
BRANCH  11  12
ATOM     12  C   UNL     1       8.940  -4.174  -2.724  1.00  0.00    -0.077 C 
ATOM     13  C   UNL     1       7.663  -4.616  -2.788  1.00  0.00    -0.028 C 
ATOM     14  C   UNL     1      10.106  -5.121  -2.557  1.00  0.00     0.039 C 
BRANCH  13  15
ATOM     15  C   UNL     1       7.248  -6.060  -2.641  1.00  0.00     0.035 C 
BRANCH  15  16
ATOM     16  C   UNL     1       6.939  -6.420  -1.182  1.00  0.00     0.079 C 
BRANCH  16  17
ATOM     17  C   UNL     1       7.402  -7.812  -0.844  1.00  0.00     0.130 C 
ATOM     18  O   UNL     1       6.581  -8.710  -0.726  1.00  0.00    -0.300 OA
ATOM     19  C   UNL     1       8.858  -8.125  -0.686  1.00  0.00     0.087 C 
ENDBRANCH  16  17
ENDBRANCH  15  16
ENDBRANCH  13  15
ENDBRANCH  11  12
ENDBRANCH   1  11
TORSDOF 9
ENDMDL
MODEL 6
REMARK VINA RESULT:    -4.121      1.965      5.453
REMARK INTER + INTRA:          -8.664
REMARK INTER:                  -6.921
REMARK INTRA:                  -1.743
REMARK UNBOUND:                -2.375
REMARK SMILES CC(=O)CCC=C(C)CCC=C(C)CCC=C(C)C
REMARK SMILES IDX 10 1 11 2 12 3 13 4 14 5 15 6 16 7 18 8 17 9 19 10 9 11 7 12
REMARK SMILES IDX 6 13 8 14 5 15 4 16 2 17 3 18 1 19
REMARK H PARENT
REMARK Flexibility Score: inf
ROOT
ATOM      1  C   UNL     1       4.513  -1.398  -1.307  1.00  0.00     0.032 C 
ENDROOT
BRANCH   1   2
ATOM      2  C   UNL     1       4.648  -1.779  -2.759  1.00  0.00    -0.028 C 
ATOM      3  C   UNL     1       4.479  -3.032  -3.237  1.00  0.00    -0.077 C 
ATOM      4  C   UNL     1       4.043  -4.173  -2.347  1.00  0.00     0.039 C 
BRANCH   3   5
ATOM      5  C   UNL     1       4.724  -3.300  -4.709  1.00  0.00     0.034 C 
BRANCH   5   6
ATOM      6  C   UNL     1       3.415  -3.563  -5.470  1.00  0.00     0.032 C 
BRANCH   6   7
ATOM      7  C   UNL     1       3.353  -2.791  -6.767  1.00  0.00    -0.028 C 
ATOM      8  C   UNL     1       4.023  -4.754  -8.171  1.00  0.00     0.039 C 
ATOM      9  C   UNL     1       3.652  -3.302  -7.981  1.00  0.00    -0.080 C 
ATOM     10  C   UNL     1       3.590  -2.388  -9.178  1.00  0.00     0.039 C 
ENDBRANCH   6   7
ENDBRANCH   5   6
ENDBRANCH   3   5
ENDBRANCH   1   2
BRANCH   1  11
ATOM     11  C   UNL     1       5.776  -0.679  -0.819  1.00  0.00     0.034 C 
BRANCH  11  12
ATOM     12  C   UNL     1       6.982  -1.585  -0.918  1.00  0.00    -0.077 C 
ATOM     13  C   UNL     1       8.090  -1.136  -1.553  1.00  0.00    -0.028 C 
ATOM     14  C   UNL     1       6.926  -2.956  -0.284  1.00  0.00     0.039 C 
BRANCH  13  15
ATOM     15  C   UNL     1       9.348  -1.946  -1.757  1.00  0.00     0.035 C 
BRANCH  15  16
ATOM     16  C   UNL     1       9.684  -2.113  -3.245  1.00  0.00     0.079 C 
BRANCH  16  17
ATOM     17  C   UNL     1       8.581  -2.818  -3.987  1.00  0.00     0.130 C 
ATOM     18  O   UNL     1       8.052  -2.273  -4.945  1.00  0.00    -0.300 OA
ATOM     19  C   UNL     1       8.141  -4.195  -3.594  1.00  0.00     0.087 C 
ENDBRANCH  16  17
ENDBRANCH  15  16
ENDBRANCH  13  15
ENDBRANCH  11  12
ENDBRANCH   1  11
TORSDOF 9
ENDMDL
MODEL 7
REMARK VINA RESULT:    -4.102      2.509      4.644
REMARK INTER + INTRA:          -8.635
REMARK INTER:                  -7.331
REMARK INTRA:                  -1.304
REMARK UNBOUND:                -2.375
REMARK SMILES CC(=O)CCC=C(C)CCC=C(C)CCC=C(C)C
REMARK SMILES IDX 10 1 11 2 12 3 13 4 14 5 15 6 16 7 18 8 17 9 19 10 9 11 7 12
REMARK SMILES IDX 6 13 8 14 5 15 4 16 2 17 3 18 1 19
REMARK H PARENT
REMARK Flexibility Score: inf
ROOT
ATOM      1  C   UNL     1       4.713  -3.678  -4.627  1.00  0.00     0.032 C 
ENDROOT
BRANCH   1   2
ATOM      2  C   UNL     1       4.781  -2.482  -3.712  1.00  0.00    -0.028 C 
ATOM      3  C   UNL     1       4.525  -2.522  -2.385  1.00  0.00    -0.077 C 
ATOM      4  C   UNL     1       4.227  -3.819  -1.670  1.00  0.00     0.039 C 
BRANCH   3   5
ATOM      5  C   UNL     1       4.546  -1.232  -1.590  1.00  0.00     0.034 C 
BRANCH   5   6
ATOM      6  C   UNL     1       5.642  -1.240  -0.513  1.00  0.00     0.032 C 
BRANCH   6   7
ATOM      7  C   UNL     1       7.001  -0.916  -1.090  1.00  0.00    -0.028 C 
ATOM      8  C   UNL     1       7.840  -3.267  -0.890  1.00  0.00     0.039 C 
ATOM      9  C   UNL     1       8.006  -1.806  -1.238  1.00  0.00    -0.080 C 
ATOM     10  C   UNL     1       9.322  -1.317  -1.785  1.00  0.00     0.039 C 
ENDBRANCH   6   7
ENDBRANCH   5   6
ENDBRANCH   3   5
ENDBRANCH   1   2
BRANCH   1  11
ATOM     11  C   UNL     1       3.354  -3.740  -5.334  1.00  0.00     0.034 C 
BRANCH  11  12
ATOM     12  C   UNL     1       3.474  -3.283  -6.770  1.00  0.00    -0.077 C 
ATOM     13  C   UNL     1       3.023  -2.052  -7.107  1.00  0.00    -0.028 C 
ATOM     14  C   UNL     1       4.116  -4.203  -7.782  1.00  0.00     0.039 C 
BRANCH  13  15
ATOM     15  C   UNL     1       3.046  -1.485  -8.506  1.00  0.00     0.035 C 
BRANCH  15  16
ATOM     16  C   UNL     1       2.021  -0.357  -8.682  1.00  0.00     0.079 C 
BRANCH  16  17
ATOM     17  C   UNL     1       2.675   0.998  -8.644  1.00  0.00     0.130 C 
ATOM     18  O   UNL     1       2.142   1.910  -8.029  1.00  0.00    -0.300 OA
ATOM     19  C   UNL     1       3.991   1.241  -9.318  1.00  0.00     0.087 C 
ENDBRANCH  16  17
ENDBRANCH  15  16
ENDBRANCH  13  15
ENDBRANCH  11  12
ENDBRANCH   1  11
TORSDOF 9
ENDMDL
MODEL 8
REMARK VINA RESULT:    -4.091      1.040      3.733
REMARK INTER + INTRA:          -8.618
REMARK INTER:                  -6.327
REMARK INTRA:                  -2.291
REMARK UNBOUND:                -2.375
REMARK SMILES CC(=O)CCC=C(C)CCC=C(C)CCC=C(C)C
REMARK SMILES IDX 10 1 11 2 12 3 13 4 14 5 15 6 16 7 18 8 17 9 19 10 9 11 7 12
REMARK SMILES IDX 6 13 8 14 5 15 4 16 2 17 3 18 1 19
REMARK H PARENT
REMARK Flexibility Score: inf
ROOT
ATOM      1  C   UNL     1       8.393  -5.469  -2.361  1.00  0.00     0.032 C 
ENDROOT
BRANCH   1   2
ATOM      2  C   UNL     1       8.643  -4.055  -1.901  1.00  0.00    -0.028 C 
ATOM      3  C   UNL     1       8.662  -2.980  -2.721  1.00  0.00    -0.077 C 
ATOM      4  C   UNL     1       8.341  -3.093  -4.193  1.00  0.00     0.039 C 
BRANCH   3   5
ATOM      5  C   UNL     1       9.009  -1.620  -2.147  1.00  0.00     0.034 C 
BRANCH   5   6
ATOM      6  C   UNL     1       7.987  -1.166  -1.092  1.00  0.00     0.032 C 
BRANCH   6   7
ATOM      7  C   UNL     1       6.637  -0.876  -1.705  1.00  0.00    -0.028 C 
ATOM      8  C   UNL     1       5.410  -1.084   0.469  1.00  0.00     0.039 C 
ATOM      9  C   UNL     1       5.470  -0.865  -1.025  1.00  0.00    -0.080 C 
ATOM     10  C   UNL     1       4.197  -0.606  -1.789  1.00  0.00     0.039 C 
ENDBRANCH   6   7
ENDBRANCH   5   6
ENDBRANCH   3   5
ENDBRANCH   1   2
BRANCH   1  11
ATOM     11  C   UNL     1       7.214  -6.083  -1.599  1.00  0.00     0.034 C 
BRANCH  11  12
ATOM     12  C   UNL     1       5.996  -5.191  -1.683  1.00  0.00    -0.077 C 
ATOM     13  C   UNL     1       5.375  -5.039  -2.876  1.00  0.00    -0.028 C 
ATOM     14  C   UNL     1       5.492  -4.515  -0.429  1.00  0.00     0.039 C 
BRANCH  13  15
ATOM     15  C   UNL     1       4.176  -4.153  -3.111  1.00  0.00     0.035 C 
BRANCH  15  16
ATOM     16  C   UNL     1       4.344  -3.283  -4.363  1.00  0.00     0.079 C 
BRANCH  16  17
ATOM     17  C   UNL     1       3.343  -3.645  -5.428  1.00  0.00     0.130 C 
ATOM     18  O   UNL     1       2.168  -3.796  -5.127  1.00  0.00    -0.300 OA
ATOM     19  C   UNL     1       3.756  -3.789  -6.861  1.00  0.00     0.087 C 
ENDBRANCH  16  17
ENDBRANCH  15  16
ENDBRANCH  13  15
ENDBRANCH  11  12
ENDBRANCH   1  11
TORSDOF 9
ENDMDL
MODEL 9
REMARK VINA RESULT:    -4.064      1.181      2.907
REMARK INTER + INTRA:          -8.578
REMARK INTER:                  -6.031
REMARK INTRA:                  -2.546
REMARK UNBOUND:                -2.375
REMARK SMILES CC(=O)CCC=C(C)CCC=C(C)CCC=C(C)C
REMARK SMILES IDX 10 1 11 2 12 3 13 4 14 5 15 6 16 7 18 8 17 9 19 10 9 11 7 12
REMARK SMILES IDX 6 13 8 14 5 15 4 16 2 17 3 18 1 19
REMARK H PARENT
REMARK Flexibility Score: inf
ROOT
ATOM      1  C   UNL     1       9.102  -4.430  -1.288  1.00  0.00     0.032 C 
ENDROOT
BRANCH   1   2
ATOM      2  C   UNL     1       7.902  -4.157  -0.417  1.00  0.00    -0.028 C 
ATOM      3  C   UNL     1       6.700  -4.757  -0.567  1.00  0.00    -0.077 C 
ATOM      4  C   UNL     1       6.473  -5.844  -1.592  1.00  0.00     0.039 C 
BRANCH   3   5
ATOM      5  C   UNL     1       5.548  -4.334   0.322  1.00  0.00     0.034 C 
BRANCH   5   6
ATOM      6  C   UNL     1       5.667  -2.863   0.753  1.00  0.00     0.032 C 
BRANCH   6   7
ATOM      7  C   UNL     1       4.927  -1.939  -0.186  1.00  0.00    -0.028 C 
ATOM      8  C   UNL     1       7.005  -0.773  -0.957  1.00  0.00     0.039 C 
ATOM      9  C   UNL     1       5.509  -0.978  -0.936  1.00  0.00    -0.080 C 
ATOM     10  C   UNL     1       4.627  -0.103  -1.788  1.00  0.00     0.039 C 
ENDBRANCH   6   7
ENDBRANCH   5   6
ENDBRANCH   3   5
ENDBRANCH   1   2
BRANCH   1  11
ATOM     11  C   UNL     1       9.294  -3.303  -2.309  1.00  0.00     0.034 C 
BRANCH  11  12
ATOM     12  C   UNL     1       8.374  -3.489  -3.494  1.00  0.00    -0.077 C 
ATOM     13  C   UNL     1       7.352  -2.621  -3.675  1.00  0.00    -0.028 C 
ATOM     14  C   UNL     1       8.637  -4.624  -4.457  1.00  0.00     0.039 C 
BRANCH  13  15
ATOM     15  C   UNL     1       6.339  -2.711  -4.791  1.00  0.00     0.035 C 
BRANCH  15  16
ATOM     16  C   UNL     1       4.979  -3.215  -4.289  1.00  0.00     0.079 C 
BRANCH  16  17
ATOM     17  C   UNL     1       4.442  -4.320  -5.159  1.00  0.00     0.130 C 
ATOM     18  O   UNL     1       3.342  -4.200  -5.678  1.00  0.00    -0.300 OA
ATOM     19  C   UNL     1       5.250  -5.552  -5.430  1.00  0.00     0.087 C 
ENDBRANCH  16  17
ENDBRANCH  15  16
ENDBRANCH  13  15
ENDBRANCH  11  12
ENDBRANCH   1  11
TORSDOF 9
ENDMDL
