MODEL 1
REMARK VINA RESULT:     0.226      0.000      0.000
REMARK INTER + INTRA:           0.928
REMARK INTER:                   0.305
REMARK INTRA:                   0.623
REMARK UNBOUND:                 0.623
REMARK SMILES CC[C@H](CC[C@H](C)[C@@H]1CC[C@H]2[C@H]3CC(=O)C4=CC(=O)CC[C@@]4(C)[C@H]3CC[C@@]21C)C(C)C
REMARK SMILES IDX 4 1 3 2 2 3 1 4 29 5 30 6 31 7 5 8 6 9 7 10 8 11 9 12 27 13
REMARK SMILES IDX 10 14 11 15 26 16 28 17 12 18 25 19 24 20 13 21 22 22 14 23
REMARK SMILES IDX 16 24 21 25 23 26 15 27 17 28 20 29 18 30 19 31
REMARK H PARENT
REMARK Flexibility Score: inf
ROOT
ATOM      1  C   UNL     1     -10.148 -13.596  35.157  1.00  0.00     0.004 C 
ENDROOT
BRANCH   1   2
ATOM      2  C   UNL     1     -10.744 -12.913  36.431  1.00  0.00    -0.009 C 
BRANCH   2   3
ATOM      3  C   UNL     1     -10.509 -11.378  36.356  1.00  0.00     0.000 C 
ATOM      4  C   UNL     1     -10.409 -10.832  34.930  1.00  0.00     0.004 C 
ENDBRANCH   2   3
BRANCH   2   5
ATOM      5  C   UNL     1     -12.240 -13.298  36.704  1.00  0.00    -0.014 C 
ATOM      6  C   UNL     1     -12.973 -12.331  37.655  1.00  0.00     0.007 C 
ATOM      7  C   UNL     1     -13.035 -13.470  35.399  1.00  0.00     0.007 C 
ENDBRANCH   2   5
ENDBRANCH   1   2
BRANCH   1   8
ATOM      8  C   UNL     1     -10.360 -15.126  35.108  1.00  0.00     0.004 C 
BRANCH   8   9
ATOM      9  C   UNL     1      -9.884 -15.825  33.793  1.00  0.00    -0.011 C 
ATOM     10  C   UNL     1      -9.876 -14.822  32.617  1.00  0.00     0.008 C 
BRANCH   9  11
ATOM     11  C   UNL     1     -10.704 -17.107  33.378  1.00  0.00    -0.002 C 
ATOM     12  C   UNL     1      -9.875 -18.423  33.366  1.00  0.00     0.005 C 
ATOM     13  C   UNL     1     -11.468 -17.110  32.009  1.00  0.00    -0.026 C 
ATOM     14  C   UNL     1      -9.896 -18.977  31.932  1.00  0.00     0.005 C 
ATOM     15  C   UNL     1     -10.488 -17.850  31.094  1.00  0.00    -0.001 C 
ATOM     16  C   UNL     1     -11.789 -15.744  31.360  1.00  0.00     0.007 C 
ATOM     17  C   UNL     1     -12.808 -17.878  32.236  1.00  0.00     0.012 C 
ATOM     18  C   UNL     1     -10.985 -18.131  29.657  1.00  0.00     0.004 C 
ATOM     19  C   UNL     1     -12.332 -15.904  29.919  1.00  0.00     0.005 C 
ATOM     20  C   UNL     1     -11.441 -16.786  28.978  1.00  0.00     0.003 C 
ATOM     21  C   UNL     1     -11.970 -19.330  29.500  1.00  0.00     0.085 C 
ATOM     22  C   UNL     1     -12.086 -17.040  27.559  1.00  0.00    -0.000 C 
ATOM     23  C   UNL     1     -13.245 -19.006  28.773  1.00  0.00     0.159 C 
ATOM     24  C   UNL     1     -13.269 -17.988  27.698  1.00  0.00     0.005 C 
ATOM     25  C   UNL     1     -12.564 -15.700  26.911  1.00  0.00     0.020 C 
ATOM     26  C   UNL     1     -11.036 -17.698  26.624  1.00  0.00     0.017 C 
ATOM     27  O   UNL     1     -14.290 -19.651  29.063  1.00  0.00    -0.295 OA
ATOM     28  C   UNL     1     -14.280 -17.971  26.806  1.00  0.00     0.055 C 
ATOM     29  C   UNL     1     -13.300 -15.909  25.579  1.00  0.00     0.081 C 
ATOM     30  C   UNL     1     -14.330 -16.992  25.704  1.00  0.00     0.156 C 
ATOM     31  O   UNL     1     -15.229 -17.093  24.830  1.00  0.00    -0.295 OA
ENDBRANCH   9  11
ENDBRANCH   8   9
ENDBRANCH   1   8
TORSDOF 6
ENDMDL
