MODEL 1
REMARK VINA RESULT:    -3.653      0.000      0.000
REMARK INTER + INTRA:          -5.792
REMARK INTER:                  -5.576
REMARK INTRA:                  -0.216
REMARK UNBOUND:                -0.216
REMARK SMILES CC1=CCC[C@H](C)C(=O)C[C@@H](C(C)C)C(=O)C1
REMARK SMILES IDX 8 1 9 2 6 3 7 4 5 5 4 6 3 7 2 8 1 9 10 11 11 12 15 13 16 14
REMARK SMILES IDX 17 15 12 17 13 18 14 19
REMARK H PARENT
REMARK Flexibility Score: 70.00
ROOT
ATOM      1  C   UNL     1      20.846 -22.634  24.679  1.00  0.00     0.136 C 
ATOM      2  O   UNL     1      20.976 -21.873  25.627  1.00  0.00    -0.299 OA
ENDROOT
BRANCH   1   3
ATOM      3  C   UNL     1      21.815 -23.783  24.494  1.00  0.00     0.053 C 
ATOM      4  C   UNL     1      23.198 -23.230  24.140  1.00  0.00     0.016 C 
BRANCH   3   5
ATOM      5  C   UNL     1      21.902 -24.673  25.757  1.00  0.00     0.015 C 
BRANCH   5   6
ATOM      6  C   UNL     1      20.781 -25.721  25.841  1.00  0.00     0.028 C 
BRANCH   6   7
ATOM      7  C   UNL     1      20.652 -26.490  24.547  1.00  0.00    -0.028 C 
ATOM      8  C   UNL     1      19.559 -26.518  23.751  1.00  0.00    -0.070 CG0
ATOM      9  C   UNL     1      19.626 -27.343  22.490  1.00  0.00     0.039 C 
ATOM     10  G   UNL     1      18.294 -25.734  24.041  1.00  0.00     0.000 G0
ENDBRANCH   6   7
ENDBRANCH   5   6
ENDBRANCH   3   5
ENDBRANCH   1   3
BRANCH   1  11
ATOM     11  C   UNL     1      19.741 -22.382  23.687  1.00  0.00     0.087 C 
BRANCH  11  12
ATOM     12  C   UNL     1      18.421 -23.083  24.102  1.00  0.00     0.066 C 
BRANCH  12  13
ATOM     13  C   UNL     1      18.285 -24.387  23.333  1.00  0.00     0.140 C 
ATOM     14  O   UNL     1      18.104 -24.354  22.123  1.00  0.00    -0.299 OA
BRANCH  13  15
ATOM     15  C   UNL     1      18.274 -25.720  24.038  1.00  0.00     0.106 CG0
ATOM     16  G   UNL     1      19.544 -26.498  23.753  1.00  0.00     0.000 G0
ENDBRANCH  13  15
ENDBRANCH  12  13
BRANCH  12  17
ATOM     17  C   UNL     1      17.168 -22.177  23.865  1.00  0.00    -0.006 C 
ATOM     18  C   UNL     1      16.090 -22.411  24.944  1.00  0.00     0.008 C 
ATOM     19  C   UNL     1      17.526 -20.677  23.853  1.00  0.00     0.008 C 
ENDBRANCH  12  17
ENDBRANCH  11  12
ENDBRANCH   1  11
TORSDOF 1
ENDMDL
MODEL 2
REMARK VINA RESULT:    -3.576     10.367     12.589
REMARK INTER + INTRA:          -5.674
REMARK INTER:                  -5.400
REMARK INTRA:                  -0.274
REMARK UNBOUND:                -0.216
REMARK SMILES CC1=CCC[C@H](C)C(=O)C[C@@H](C(C)C)C(=O)C1
REMARK SMILES IDX 8 1 9 2 6 3 7 4 5 5 4 6 3 7 2 8 1 9 10 11 11 12 15 13 16 14
REMARK SMILES IDX 17 15 12 17 13 18 14 19
REMARK H PARENT
REMARK Flexibility Score: 70.00
ROOT
ATOM      1  C   UNL     1       7.036 -18.040  23.672  1.00  0.00     0.136 C 
ATOM      2  O   UNL     1       5.974 -18.516  23.297  1.00  0.00    -0.299 OA
ENDROOT
BRANCH   1   3
ATOM      3  C   UNL     1       7.218 -17.649  25.124  1.00  0.00     0.053 C 
ATOM      4  C   UNL     1       7.607 -18.886  25.938  1.00  0.00     0.016 C 
BRANCH   3   5
ATOM      5  C   UNL     1       8.282 -16.539  25.295  1.00  0.00     0.015 C 
BRANCH   5   6
ATOM      6  C   UNL     1       9.604 -17.051  25.887  1.00  0.00     0.028 C 
BRANCH   6   7
ATOM      7  C   UNL     1      10.791 -16.508  25.127  1.00  0.00    -0.028 C 
ATOM      8  C   UNL     1      11.521 -17.186  24.213  1.00  0.00    -0.070 CG0
ATOM      9  C   UNL     1      12.671 -16.466  23.553  1.00  0.00     0.039 C 
ATOM     10  G   UNL     1      11.217 -18.611  23.792  1.00  0.00     0.000 G0
ENDBRANCH   6   7
ENDBRANCH   5   6
ENDBRANCH   3   5
ENDBRANCH   1   3
BRANCH   1  11
ATOM     11  C   UNL     1       8.132 -17.815  22.664  1.00  0.00     0.087 C 
BRANCH  11  12
ATOM     12  C   UNL     1       9.005 -19.081  22.466  1.00  0.00     0.066 C 
BRANCH  12  13
ATOM     13  C   UNL     1      10.472 -18.686  22.505  1.00  0.00     0.140 C 
ATOM     14  O   UNL     1      11.067 -18.479  21.456  1.00  0.00    -0.299 OA
BRANCH  13  15
ATOM     15  C   UNL     1      11.240 -18.635  23.802  1.00  0.00     0.106 CG0
ATOM     16  G   UNL     1      11.528 -17.203  24.209  1.00  0.00     0.000 G0
ENDBRANCH  13  15
ENDBRANCH  12  13
BRANCH  12  17
ATOM     17  C   UNL     1       8.676 -19.827  21.131  1.00  0.00    -0.006 C 
ATOM     18  C   UNL     1       7.782 -21.059  21.377  1.00  0.00     0.008 C 
ATOM     19  C   UNL     1       7.971 -18.911  20.110  1.00  0.00     0.008 C 
ENDBRANCH  12  17
ENDBRANCH  11  12
ENDBRANCH   1  11
TORSDOF 1
ENDMDL
MODEL 3
REMARK VINA RESULT:    -3.567     11.361     13.569
REMARK INTER + INTRA:          -5.660
REMARK INTER:                  -5.361
REMARK INTRA:                  -0.299
REMARK UNBOUND:                -0.216
REMARK SMILES CC1=CCC[C@H](C)C(=O)C[C@@H](C(C)C)C(=O)C1
REMARK SMILES IDX 8 1 9 2 6 3 7 4 5 5 4 6 3 7 2 8 1 9 10 11 11 12 15 13 16 14
REMARK SMILES IDX 17 15 12 17 13 18 14 19
REMARK H PARENT
REMARK Flexibility Score: 70.00
ROOT
ATOM      1  C   UNL     1      10.721 -17.100  22.114  1.00  0.00     0.136 C 
ATOM      2  O   UNL     1      11.572 -16.846  21.275  1.00  0.00    -0.299 OA
ENDROOT
BRANCH   1   3
ATOM      3  C   UNL     1      10.793 -16.456  23.483  1.00  0.00     0.053 C 
ATOM      4  C   UNL     1      12.222 -16.566  24.021  1.00  0.00     0.016 C 
BRANCH   3   5
ATOM      5  C   UNL     1      10.347 -14.975  23.449  1.00  0.00     0.015 C 
BRANCH   5   6
ATOM      6  C   UNL     1       8.904 -14.763  23.932  1.00  0.00     0.028 C 
BRANCH   6   7
ATOM      7  C   UNL     1       8.488 -15.841  24.905  1.00  0.00    -0.028 C 
ATOM      8  C   UNL     1       7.499 -16.743  24.710  1.00  0.00    -0.070 CG0
ATOM      9  C   UNL     1       7.237 -17.750  25.801  1.00  0.00     0.039 C 
ATOM     10  G   UNL     1       6.674 -16.816  23.440  1.00  0.00     0.000 G0
ENDBRANCH   6   7
ENDBRANCH   5   6
ENDBRANCH   3   5
ENDBRANCH   1   3
BRANCH   1  11
ATOM     11  C   UNL     1       9.634 -18.087  21.777  1.00  0.00     0.087 C 
BRANCH  11  12
ATOM     12  C   UNL     1       8.296 -17.381  21.439  1.00  0.00     0.066 C 
BRANCH  12  13
ATOM     13  C   UNL     1       7.242 -17.800  22.452  1.00  0.00     0.140 C 
ATOM     14  O   UNL     1       6.802 -18.941  22.423  1.00  0.00    -0.299 OA
BRANCH  13  15
ATOM     15  C   UNL     1       6.656 -16.816  23.433  1.00  0.00     0.106 CG0
ATOM     16  G   UNL     1       7.499 -16.731  24.690  1.00  0.00     0.000 G0
ENDBRANCH  13  15
ENDBRANCH  12  13
BRANCH  12  17
ATOM     17  C   UNL     1       7.809 -17.692  19.986  1.00  0.00    -0.006 C 
ATOM     18  C   UNL     1       7.544 -16.399  19.190  1.00  0.00     0.008 C 
ATOM     19  C   UNL     1       8.826 -18.546  19.201  1.00  0.00     0.008 C 
ENDBRANCH  12  17
ENDBRANCH  11  12
ENDBRANCH   1  11
TORSDOF 1
ENDMDL
MODEL 4
REMARK VINA RESULT:    -3.539     10.247     12.637
REMARK INTER + INTRA:          -5.617
REMARK INTER:                  -5.396
REMARK INTRA:                  -0.221
REMARK UNBOUND:                -0.216
REMARK SMILES CC1=CCC[C@H](C)C(=O)C[C@@H](C(C)C)C(=O)C1
REMARK SMILES IDX 8 1 9 2 6 3 7 4 5 5 4 6 3 7 2 8 1 9 10 11 11 12 15 13 16 14
REMARK SMILES IDX 17 15 12 17 13 18 14 19
REMARK H PARENT
REMARK Flexibility Score: 70.00
ROOT
ATOM      1  C   UNL     1       8.587 -18.332  24.714  1.00  0.00     0.136 C 
ATOM      2  O   UNL     1       8.948 -17.654  25.666  1.00  0.00    -0.299 OA
ENDROOT
BRANCH   1   3
ATOM      3  C   UNL     1       7.122 -18.675  24.542  1.00  0.00     0.053 C 
ATOM      4  C   UNL     1       6.438 -17.579  23.721  1.00  0.00     0.016 C 
BRANCH   3   5
ATOM      5  C   UNL     1       6.927 -20.052  23.865  1.00  0.00     0.015 C 
BRANCH   5   6
ATOM      6  C   UNL     1       6.306 -19.958  22.462  1.00  0.00     0.028 C 
BRANCH   6   7
ATOM      7  C   UNL     1       7.155 -20.674  21.439  1.00  0.00    -0.028 C 
ATOM      8  C   UNL     1       8.095 -20.103  20.653  1.00  0.00    -0.070 CG0
ATOM      9  C   UNL     1       8.846 -20.990  19.692  1.00  0.00     0.039 C 
ATOM     10  G   UNL     1       8.457 -18.632  20.719  1.00  0.00     0.000 G0
ENDBRANCH   6   7
ENDBRANCH   5   6
ENDBRANCH   3   5
ENDBRANCH   1   3
BRANCH   1  11
ATOM     11  C   UNL     1       9.624 -18.848  23.751  1.00  0.00     0.087 C 
BRANCH  11  12
ATOM     12  C   UNL     1       9.994 -17.790  22.679  1.00  0.00     0.066 C 
BRANCH  12  13
ATOM     13  C   UNL     1       9.814 -18.397  21.297  1.00  0.00     0.140 C 
ATOM     14  O   UNL     1      10.800 -18.646  20.617  1.00  0.00    -0.299 OA
BRANCH  13  15
ATOM     15  C   UNL     1       8.444 -18.614  20.704  1.00  0.00     0.106 CG0
ATOM     16  G   UNL     1       8.092 -20.088  20.670  1.00  0.00     0.000 G0
ENDBRANCH  13  15
ENDBRANCH  12  13
BRANCH  12  17
ATOM     17  C   UNL     1      11.453 -17.253  22.853  1.00  0.00    -0.006 C 
ATOM     18  C   UNL     1      11.465 -15.842  23.476  1.00  0.00     0.008 C 
ATOM     19  C   UNL     1      12.315 -18.181  23.732  1.00  0.00     0.008 C 
ENDBRANCH  12  17
ENDBRANCH  11  12
ENDBRANCH   1  11
TORSDOF 1
ENDMDL
MODEL 5
REMARK VINA RESULT:    -3.470     10.875     13.295
REMARK INTER + INTRA:          -5.512
REMARK INTER:                  -5.322
REMARK INTRA:                  -0.190
REMARK UNBOUND:                -0.216
REMARK SMILES CC1=CCC[C@H](C)C(=O)C[C@@H](C(C)C)C(=O)C1
REMARK SMILES IDX 8 1 9 2 6 3 7 4 5 5 4 6 3 7 2 8 1 9 10 11 11 12 15 13 16 14
REMARK SMILES IDX 17 15 12 17 13 18 14 19
REMARK H PARENT
REMARK Flexibility Score: 70.00
ROOT
ATOM      1  C   UNL     1       6.984 -19.689  21.820  1.00  0.00     0.136 C 
ATOM      2  O   UNL     1       6.678 -20.715  21.230  1.00  0.00    -0.299 OA
ENDROOT
BRANCH   1   3
ATOM      3  C   UNL     1       6.305 -19.338  23.128  1.00  0.00     0.053 C 
ATOM      4  C   UNL     1       6.861 -20.228  24.243  1.00  0.00     0.016 C 
BRANCH   3   5
ATOM      5  C   UNL     1       6.489 -17.846  23.491  1.00  0.00     0.015 C 
BRANCH   5   6
ATOM      6  C   UNL     1       7.568 -17.609  24.560  1.00  0.00     0.028 C 
BRANCH   6   7
ATOM      7  C   UNL     1       8.309 -16.317  24.314  1.00  0.00    -0.028 C 
ATOM      8  C   UNL     1       9.572 -16.208  23.843  1.00  0.00    -0.070 CG0
ATOM      9  C   UNL     1      10.140 -14.824  23.656  1.00  0.00     0.039 C 
ATOM     10  G   UNL     1      10.426 -17.401  23.457  1.00  0.00     0.000 G0
ENDBRANCH   6   7
ENDBRANCH   5   6
ENDBRANCH   3   5
ENDBRANCH   1   3
BRANCH   1  11
ATOM     11  C   UNL     1       8.009 -18.772  21.206  1.00  0.00     0.087 C 
BRANCH  11  12
ATOM     12  C   UNL     1       9.446 -19.108  21.684  1.00  0.00     0.066 C 
BRANCH  12  13
ATOM     13  C   UNL     1      10.170 -17.818  22.031  1.00  0.00     0.140 C 
ATOM     14  O   UNL     1      10.625 -17.123  21.132  1.00  0.00    -0.299 OA
BRANCH  13  15
ATOM     15  C   UNL     1      10.425 -17.419  23.463  1.00  0.00     0.106 CG0
ATOM     16  G   UNL     1       9.584 -16.218  23.852  1.00  0.00     0.000 G0
ENDBRANCH  13  15
ENDBRANCH  12  13
BRANCH  12  17
ATOM     17  C   UNL     1      10.253 -19.916  20.615  1.00  0.00    -0.006 C 
ATOM     18  C   UNL     1      10.269 -21.424  20.940  1.00  0.00     0.008 C 
ATOM     19  C   UNL     1       9.686 -19.731  19.193  1.00  0.00     0.008 C 
ENDBRANCH  12  17
ENDBRANCH  11  12
ENDBRANCH   1  11
TORSDOF 1
ENDMDL
MODEL 6
REMARK VINA RESULT:    -3.460     10.045     12.044
REMARK INTER + INTRA:          -5.497
REMARK INTER:                  -5.357
REMARK INTRA:                  -0.140
REMARK UNBOUND:                -0.216
REMARK SMILES CC1=CCC[C@H](C)C(=O)C[C@@H](C(C)C)C(=O)C1
REMARK SMILES IDX 8 1 9 2 6 3 7 4 5 5 4 6 3 7 2 8 1 9 10 11 11 12 15 13 16 14
REMARK SMILES IDX 17 15 12 17 13 18 14 19
REMARK H PARENT
REMARK Flexibility Score: 70.00
ROOT
ATOM      1  C   UNL     1      10.256 -15.567  24.033  1.00  0.00     0.136 C 
ATOM      2  O   UNL     1      10.154 -14.408  23.658  1.00  0.00    -0.299 OA
ENDROOT
BRANCH   1   3
ATOM      3  C   UNL     1       9.042 -16.298  24.568  1.00  0.00     0.053 C 
ATOM      4  C   UNL     1       8.439 -15.501  25.728  1.00  0.00     0.016 C 
BRANCH   3   5
ATOM      5  C   UNL     1       7.978 -16.531  23.469  1.00  0.00     0.015 C 
BRANCH   5   6
ATOM      6  C   UNL     1       7.839 -18.006  23.061  1.00  0.00     0.028 C 
BRANCH   6   7
ATOM      7  C   UNL     1       8.475 -18.265  21.715  1.00  0.00    -0.028 C 
ATOM      8  C   UNL     1       9.734 -18.715  21.510  1.00  0.00    -0.070 CG0
ATOM      9  C   UNL     1      10.187 -18.918  20.086  1.00  0.00     0.039 C 
ATOM     10  G   UNL     1      10.691 -19.061  22.634  1.00  0.00     0.000 G0
ENDBRANCH   6   7
ENDBRANCH   5   6
ENDBRANCH   3   5
ENDBRANCH   1   3
BRANCH   1  11
ATOM     11  C   UNL     1      11.607 -16.231  23.990  1.00  0.00     0.087 C 
BRANCH  11  12
ATOM     12  C   UNL     1      11.959 -16.733  22.566  1.00  0.00     0.066 C 
BRANCH  12  13
ATOM     13  C   UNL     1      11.971 -18.254  22.562  1.00  0.00     0.140 C 
ATOM     14  O   UNL     1      13.030 -18.846  22.406  1.00  0.00    -0.299 OA
BRANCH  13  15
ATOM     15  C   UNL     1      10.694 -19.051  22.652  1.00  0.00     0.106 CG0
ATOM     16  G   UNL     1       9.755 -18.707  21.511  1.00  0.00     0.000 G0
ENDBRANCH  13  15
ENDBRANCH  12  13
BRANCH  12  17
ATOM     17  C   UNL     1      13.332 -16.176  22.063  1.00  0.00    -0.006 C 
ATOM     18  C   UNL     1      13.247 -15.705  20.597  1.00  0.00     0.008 C 
ATOM     19  C   UNL     1      13.835 -15.000  22.924  1.00  0.00     0.008 C 
ENDBRANCH  12  17
ENDBRANCH  11  12
ENDBRANCH   1  11
TORSDOF 1
ENDMDL
MODEL 7
REMARK VINA RESULT:    -3.423      9.090     11.555
REMARK INTER + INTRA:          -5.440
REMARK INTER:                  -5.439
REMARK INTRA:                  -0.000
REMARK UNBOUND:                -0.216
REMARK SMILES CC1=CCC[C@H](C)C(=O)C[C@@H](C(C)C)C(=O)C1
REMARK SMILES IDX 8 1 9 2 6 3 7 4 5 5 4 6 3 7 2 8 1 9 10 11 11 12 15 13 16 14
REMARK SMILES IDX 17 15 12 17 13 18 14 19
REMARK H PARENT
REMARK Flexibility Score: 70.00
ROOT
ATOM      1  C   UNL     1      11.407 -18.017  25.712  1.00  0.00     0.136 C 
ATOM      2  O   UNL     1      10.928 -18.819  26.501  1.00  0.00    -0.299 OA
ENDROOT
BRANCH   1   3
ATOM      3  C   UNL     1      12.677 -18.363  24.961  1.00  0.00     0.053 C 
ATOM      4  C   UNL     1      13.663 -19.039  25.917  1.00  0.00     0.016 C 
BRANCH   3   5
ATOM      5  C   UNL     1      12.397 -19.277  23.745  1.00  0.00     0.015 C 
BRANCH   5   6
ATOM      6  C   UNL     1      12.513 -18.549  22.397  1.00  0.00     0.028 C 
BRANCH   6   7
ATOM      7  C   UNL     1      13.242 -17.235  22.546  1.00  0.00    -0.028 C 
ATOM      8  C   UNL     1      12.692 -16.007  22.412  1.00  0.00    -0.070 CG0
ATOM      9  C   UNL     1      13.585 -14.807  22.605  1.00  0.00     0.039 C 
ATOM     10  G   UNL     1      11.222 -15.778  22.118  1.00  0.00     0.000 G0
ENDBRANCH   6   7
ENDBRANCH   5   6
ENDBRANCH   3   5
ENDBRANCH   1   3
BRANCH   1  11
ATOM     11  C   UNL     1      10.740 -16.678  25.536  1.00  0.00     0.087 C 
BRANCH  11  12
ATOM     12  C   UNL     1       9.900 -16.619  24.233  1.00  0.00     0.066 C 
BRANCH  12  13
ATOM     13  C   UNL     1      10.422 -15.493  23.355  1.00  0.00     0.140 C 
ATOM     14  O   UNL     1      10.132 -14.336  23.626  1.00  0.00    -0.299 OA
BRANCH  13  15
ATOM     15  C   UNL     1      11.211 -15.774  22.101  1.00  0.00     0.106 CG0
ATOM     16  G   UNL     1      12.677 -15.998  22.419  1.00  0.00     0.000 G0
ENDBRANCH  13  15
ENDBRANCH  12  13
BRANCH  12  17
ATOM     17  C   UNL     1       8.374 -16.424  24.519  1.00  0.00    -0.006 C 
ATOM     18  C   UNL     1       7.617 -15.966  23.256  1.00  0.00     0.008 C 
ATOM     19  C   UNL     1       7.710 -17.713  25.043  1.00  0.00     0.008 C 
ENDBRANCH  12  17
ENDBRANCH  11  12
ENDBRANCH   1  11
TORSDOF 1
ENDMDL
MODEL 8
REMARK VINA RESULT:    -3.376      9.822     11.922
REMARK INTER + INTRA:          -5.368
REMARK INTER:                  -5.201
REMARK INTRA:                  -0.167
REMARK UNBOUND:                -0.216
REMARK SMILES CC1=CCC[C@H](C)C(=O)C[C@@H](C(C)C)C(=O)C1
REMARK SMILES IDX 8 1 9 2 6 3 7 4 5 5 4 6 3 7 2 8 1 9 10 11 11 12 15 13 16 14
REMARK SMILES IDX 17 15 12 17 13 18 14 19
REMARK H PARENT
REMARK Flexibility Score: 70.00
ROOT
ATOM      1  C   UNL     1       8.155 -18.674  22.745  1.00  0.00     0.136 C 
ATOM      2  O   UNL     1       7.717 -17.734  22.099  1.00  0.00    -0.299 OA
ENDROOT
BRANCH   1   3
ATOM      3  C   UNL     1       7.875 -20.094  22.298  1.00  0.00     0.053 C 
ATOM      4  C   UNL     1       6.403 -20.218  21.896  1.00  0.00     0.016 C 
BRANCH   3   5
ATOM      5  C   UNL     1       8.788 -20.521  21.125  1.00  0.00     0.015 C 
BRANCH   5   6
ATOM      6  C   UNL     1      10.229 -20.834  21.559  1.00  0.00     0.028 C 
BRANCH   6   7
ATOM      7  C   UNL     1      11.184 -19.756  21.103  1.00  0.00    -0.028 C 
ATOM      8  C   UNL     1      11.869 -18.915  21.911  1.00  0.00    -0.070 CG0
ATOM      9  C   UNL     1      12.785 -17.906  21.265  1.00  0.00     0.039 C 
ATOM     10  G   UNL     1      11.793 -18.963  23.425  1.00  0.00     0.000 G0
ENDBRANCH   6   7
ENDBRANCH   5   6
ENDBRANCH   3   5
ENDBRANCH   1   3
BRANCH   1  11
ATOM     11  C   UNL     1       8.935 -18.395  24.003  1.00  0.00     0.087 C 
BRANCH  11  12
ATOM     12  C   UNL     1       9.886 -17.181  23.836  1.00  0.00     0.066 C 
BRANCH  12  13
ATOM     13  C   UNL     1      11.323 -17.646  24.007  1.00  0.00     0.140 C 
ATOM     14  O   UNL     1      12.134 -16.906  24.548  1.00  0.00    -0.299 OA
BRANCH  13  15
ATOM     15  C   UNL     1      11.798 -18.961  23.441  1.00  0.00     0.106 CG0
ATOM     16  G   UNL     1      11.858 -18.912  21.927  1.00  0.00     0.000 G0
ENDBRANCH  13  15
ENDBRANCH  12  13
BRANCH  12  17
ATOM     17  C   UNL     1       9.561 -16.030  24.844  1.00  0.00    -0.006 C 
ATOM     18  C   UNL     1       9.100 -14.752  24.113  1.00  0.00     0.008 C 
ATOM     19  C   UNL     1       8.471 -16.431  25.857  1.00  0.00     0.008 C 
ENDBRANCH  12  17
ENDBRANCH  11  12
ENDBRANCH   1  11
TORSDOF 1
ENDMDL
MODEL 9
REMARK VINA RESULT:    -3.299      9.533     12.109
REMARK INTER + INTRA:          -5.250
REMARK INTER:                  -4.923
REMARK INTRA:                  -0.327
REMARK UNBOUND:                -0.216
REMARK SMILES CC1=CCC[C@H](C)C(=O)C[C@@H](C(C)C)C(=O)C1
REMARK SMILES IDX 8 1 9 2 6 3 7 4 5 5 4 6 3 7 2 8 1 9 10 11 11 12 15 13 16 14
REMARK SMILES IDX 17 15 12 17 13 18 14 19
REMARK H PARENT
REMARK Flexibility Score: 70.00
ROOT
ATOM      1  C   UNL     1       7.743 -19.132  22.536  1.00  0.00     0.136 C 
ATOM      2  O   UNL     1       6.926 -19.967  22.895  1.00  0.00    -0.299 OA
ENDROOT
BRANCH   1   3
ATOM      3  C   UNL     1       7.867 -17.823  23.288  1.00  0.00     0.053 C 
ATOM      4  C   UNL     1       6.502 -17.132  23.330  1.00  0.00     0.016 C 
BRANCH   3   5
ATOM      5  C   UNL     1       8.407 -18.030  24.722  1.00  0.00     0.015 C 
BRANCH   5   6
ATOM      6  C   UNL     1       9.939 -18.139  24.785  1.00  0.00     0.028 C 
BRANCH   6   7
ATOM      7  C   UNL     1      10.599 -17.037  23.991  1.00  0.00    -0.028 C 
ATOM      8  C   UNL     1      11.494 -17.210  22.992  1.00  0.00    -0.070 CG0
ATOM      9  C   UNL     1      12.040 -15.980  22.312  1.00  0.00     0.039 C 
ATOM     10  G   UNL     1      11.943 -18.573  22.500  1.00  0.00     0.000 G0
ENDBRANCH   6   7
ENDBRANCH   5   6
ENDBRANCH   3   5
ENDBRANCH   1   3
BRANCH   1  11
ATOM     11  C   UNL     1       8.586 -19.413  21.320  1.00  0.00     0.087 C 
BRANCH  11  12
ATOM     12  C   UNL     1       9.939 -20.072  21.694  1.00  0.00     0.066 C 
BRANCH  12  13
ATOM     13  C   UNL     1      11.068 -19.096  21.399  1.00  0.00     0.140 C 
ATOM     14  O   UNL     1      11.308 -18.788  20.239  1.00  0.00    -0.299 OA
BRANCH  13  15
ATOM     15  C   UNL     1      11.960 -18.570  22.494  1.00  0.00     0.106 CG0
ATOM     16  G   UNL     1      11.490 -17.212  22.976  1.00  0.00     0.000 G0
ENDBRANCH  13  15
ENDBRANCH  12  13
BRANCH  12  17
ATOM     17  C   UNL     1      10.173 -21.420  20.936  1.00  0.00    -0.006 C 
ATOM     18  C   UNL     1      11.281 -22.259  21.604  1.00  0.00     0.008 C 
ATOM     19  C   UNL     1       8.893 -22.277  20.861  1.00  0.00     0.008 C 
ENDBRANCH  12  17
ENDBRANCH  11  12
ENDBRANCH   1  11
TORSDOF 1
ENDMDL
