MODEL 1
REMARK VINA RESULT:    -3.623      0.000      0.000
REMARK INTER + INTRA:          -6.850
REMARK INTER:                  -5.529
REMARK INTRA:                  -1.321
REMARK UNBOUND:                -1.321
REMARK SMILES CCCCCCCCCC=CC(=O)[O-]
REMARK SMILES IDX 7 1 8 2 9 3 10 4 11 5 12 6 13 7 14 8 6 9 5 10 4 11 3 12 2 13
REMARK SMILES IDX 1 14
REMARK H PARENT
REMARK Flexibility Score: inf
ROOT
ATOM      1  C   UNL     1      -2.494   3.577  16.893  1.00  0.00     0.000 C 
ENDROOT
BRANCH   1   2
ATOM      2  C   UNL     1      -1.210   4.379  17.165  1.00  0.00     0.004 C 
BRANCH   2   3
ATOM      3  C   UNL     1      -0.096   4.040  16.161  1.00  0.00     0.027 C 
BRANCH   3   4
ATOM      4  C   UNL     1       1.257   3.948  16.815  1.00  0.00    -0.025 C 
ATOM      5  C   UNL     1       1.832   2.831  17.290  1.00  0.00     0.020 C 
BRANCH   5   6
ATOM      6  C   UNL     1       1.239   1.477  17.314  1.00  0.00     0.064 C 
ATOM      7  O   UNL     1       0.827   1.013  18.408  1.00  0.00    -0.545 OA
ATOM      8  O   UNL     1       1.094   0.712  16.165  1.00  0.00    -0.545 OA
ENDBRANCH   5   6
ENDBRANCH   3   4
ENDBRANCH   2   3
ENDBRANCH   1   2
BRANCH   1   9
ATOM      9  C   UNL     1      -2.214   2.142  16.417  1.00  0.00     0.000 C 
BRANCH   9  10
ATOM     10  C   UNL     1      -3.018   1.738  15.163  1.00  0.00     0.000 C 
BRANCH  10  11
ATOM     11  C   UNL     1      -3.611   2.958  14.436  1.00  0.00    -0.000 C 
BRANCH  11  12
ATOM     12  C   UNL     1      -2.757   3.415  13.240  1.00  0.00    -0.000 C 
BRANCH  12  13
ATOM     13  C   UNL     1      -2.125   4.809  13.395  1.00  0.00    -0.003 C 
ATOM     14  C   UNL     1      -3.118   5.865  13.879  1.00  0.00     0.004 C 
ENDBRANCH  12  13
ENDBRANCH  11  12
ENDBRANCH  10  11
ENDBRANCH   9  10
ENDBRANCH   1   9
TORSDOF 9
ENDMDL
MODEL 2
REMARK VINA RESULT:    -3.613     13.507     14.981
REMARK INTER + INTRA:          -6.835
REMARK INTER:                  -6.253
REMARK INTRA:                  -0.583
REMARK UNBOUND:                -1.321
REMARK SMILES CCCCCCCCCC=CC(=O)[O-]
REMARK SMILES IDX 7 1 8 2 9 3 10 4 11 5 12 6 13 7 14 8 6 9 5 10 4 11 3 12 2 13
REMARK SMILES IDX 1 14
REMARK H PARENT
REMARK Flexibility Score: inf
ROOT
ATOM      1  C   UNL     1     -11.074  -7.929  15.574  1.00  0.00     0.000 C 
ENDROOT
BRANCH   1   2
ATOM      2  C   UNL     1     -10.801  -8.673  16.891  1.00  0.00     0.004 C 
BRANCH   2   3
ATOM      3  C   UNL     1     -11.646  -8.120  18.050  1.00  0.00     0.027 C 
BRANCH   3   4
ATOM      4  C   UNL     1     -11.387  -8.846  19.345  1.00  0.00    -0.025 C 
ATOM      5  C   UNL     1     -10.627  -8.405  20.361  1.00  0.00     0.020 C 
BRANCH   5   6
ATOM      6  C   UNL     1      -9.851  -7.148  20.399  1.00  0.00     0.064 C 
ATOM      7  O   UNL     1      -9.912  -6.426  21.428  1.00  0.00    -0.545 OA
ATOM      8  O   UNL     1      -9.032  -6.750  19.351  1.00  0.00    -0.545 OA
ENDBRANCH   5   6
ENDBRANCH   3   4
ENDBRANCH   2   3
ENDBRANCH   1   2
BRANCH   1   9
ATOM      9  C   UNL     1     -12.340  -8.425  14.856  1.00  0.00     0.000 C 
BRANCH   9  10
ATOM     10  C   UNL     1     -12.134  -8.693  13.350  1.00  0.00     0.000 C 
BRANCH  10  11
ATOM     11  C   UNL     1     -12.975  -7.750  12.473  1.00  0.00    -0.000 C 
BRANCH  11  12
ATOM     12  C   UNL     1     -12.271  -6.412  12.184  1.00  0.00    -0.000 C 
BRANCH  12  13
ATOM     13  C   UNL     1     -12.900  -5.191  12.878  1.00  0.00    -0.003 C 
ATOM     14  C   UNL     1     -12.009  -4.599  13.969  1.00  0.00     0.004 C 
ENDBRANCH  12  13
ENDBRANCH  11  12
ENDBRANCH  10  11
ENDBRANCH   9  10
ENDBRANCH   1   9
TORSDOF 9
ENDMDL
MODEL 3
REMARK VINA RESULT:    -3.517     14.113     16.003
REMARK INTER + INTRA:          -6.689
REMARK INTER:                  -5.858
REMARK INTRA:                  -0.831
REMARK UNBOUND:                -1.321
REMARK SMILES CCCCCCCCCC=CC(=O)[O-]
REMARK SMILES IDX 7 1 8 2 9 3 10 4 11 5 12 6 13 7 14 8 6 9 5 10 4 11 3 12 2 13
REMARK SMILES IDX 1 14
REMARK H PARENT
REMARK Flexibility Score: inf
ROOT
ATOM      1  C   UNL     1     -10.598  -7.037  14.185  1.00  0.00     0.000 C 
ENDROOT
BRANCH   1   2
ATOM      2  C   UNL     1     -11.180  -5.661  13.819  1.00  0.00     0.004 C 
BRANCH   2   3
ATOM      3  C   UNL     1     -12.559  -5.778  13.152  1.00  0.00     0.027 C 
BRANCH   3   4
ATOM      4  C   UNL     1     -12.546  -5.306  11.721  1.00  0.00    -0.025 C 
ATOM      5  C   UNL     1     -12.270  -6.057  10.643  1.00  0.00     0.020 C 
BRANCH   5   6
ATOM      6  C   UNL     1     -11.876  -7.481  10.639  1.00  0.00     0.064 C 
ATOM      7  O   UNL     1     -10.653  -7.774  10.591  1.00  0.00    -0.545 OA
ATOM      8  O   UNL     1     -12.807  -8.509  10.719  1.00  0.00    -0.545 OA
ENDBRANCH   5   6
ENDBRANCH   3   4
ENDBRANCH   2   3
ENDBRANCH   1   2
BRANCH   1   9
ATOM      9  C   UNL     1     -11.669  -8.138  14.261  1.00  0.00     0.000 C 
BRANCH   9  10
ATOM     10  C   UNL     1     -12.148  -8.437  15.697  1.00  0.00     0.000 C 
BRANCH  10  11
ATOM     11  C   UNL     1     -11.009  -8.315  16.725  1.00  0.00    -0.000 C 
BRANCH  11  12
ATOM     12  C   UNL     1     -11.517  -8.026  18.150  1.00  0.00    -0.000 C 
BRANCH  12  13
ATOM     13  C   UNL     1     -11.205  -9.125  19.180  1.00  0.00    -0.003 C 
ATOM     14  C   UNL     1     -10.849  -8.568  20.558  1.00  0.00     0.004 C 
ENDBRANCH  12  13
ENDBRANCH  11  12
ENDBRANCH  10  11
ENDBRANCH   9  10
ENDBRANCH   1   9
TORSDOF 9
ENDMDL
MODEL 4
REMARK VINA RESULT:    -3.505      3.313      5.474
REMARK INTER + INTRA:          -6.671
REMARK INTER:                  -5.583
REMARK INTRA:                  -1.088
REMARK UNBOUND:                -1.321
REMARK SMILES CCCCCCCCCC=CC(=O)[O-]
REMARK SMILES IDX 7 1 8 2 9 3 10 4 11 5 12 6 13 7 14 8 6 9 5 10 4 11 3 12 2 13
REMARK SMILES IDX 1 14
REMARK H PARENT
REMARK Flexibility Score: inf
ROOT
ATOM      1  C   UNL     1      -3.022   4.823  14.794  1.00  0.00     0.000 C 
ENDROOT
BRANCH   1   2
ATOM      2  C   UNL     1      -3.435   4.142  13.478  1.00  0.00     0.004 C 
BRANCH   2   3
ATOM      3  C   UNL     1      -2.823   2.738  13.340  1.00  0.00     0.027 C 
BRANCH   3   4
ATOM      4  C   UNL     1      -1.868   2.641  12.180  1.00  0.00    -0.025 C 
ATOM      5  C   UNL     1      -2.088   1.988  11.026  1.00  0.00     0.020 C 
BRANCH   5   6
ATOM      6  C   UNL     1      -3.285   1.195  10.679  1.00  0.00     0.064 C 
ATOM      7  O   UNL     1      -3.396   0.028  11.137  1.00  0.00    -0.545 OA
ATOM      8  O   UNL     1      -4.307   1.703   9.888  1.00  0.00    -0.545 OA
ENDBRANCH   5   6
ENDBRANCH   3   4
ENDBRANCH   2   3
ENDBRANCH   1   2
BRANCH   1   9
ATOM      9  C   UNL     1      -2.755   3.821  15.929  1.00  0.00     0.000 C 
BRANCH   9  10
ATOM     10  C   UNL     1      -1.518   4.170  16.784  1.00  0.00     0.000 C 
BRANCH  10  11
ATOM     11  C   UNL     1      -0.540   2.987  16.898  1.00  0.00    -0.000 C 
BRANCH  11  12
ATOM     12  C   UNL     1       0.249   2.735  15.600  1.00  0.00    -0.000 C 
BRANCH  12  13
ATOM     13  C   UNL     1       1.467   3.653  15.398  1.00  0.00    -0.003 C 
ATOM     14  C   UNL     1       1.239   4.720  14.328  1.00  0.00     0.004 C 
ENDBRANCH  12  13
ENDBRANCH  11  12
ENDBRANCH  10  11
ENDBRANCH   9  10
ENDBRANCH   1   9
TORSDOF 9
ENDMDL
MODEL 5
REMARK VINA RESULT:    -3.502      8.612     11.220
REMARK INTER + INTRA:          -6.666
REMARK INTER:                  -5.362
REMARK INTRA:                  -1.304
REMARK UNBOUND:                -1.321
REMARK SMILES CCCCCCCCCC=CC(=O)[O-]
REMARK SMILES IDX 7 1 8 2 9 3 10 4 11 5 12 6 13 7 14 8 6 9 5 10 4 11 3 12 2 13
REMARK SMILES IDX 1 14
REMARK H PARENT
REMARK Flexibility Score: inf
ROOT
ATOM      1  C   UNL     1       7.051  -4.071  10.772  1.00  0.00     0.000 C 
ENDROOT
BRANCH   1   2
ATOM      2  C   UNL     1       5.929  -3.078  10.424  1.00  0.00     0.004 C 
BRANCH   2   3
ATOM      3  C   UNL     1       6.267  -1.647  10.871  1.00  0.00     0.027 C 
BRANCH   3   4
ATOM      4  C   UNL     1       6.883  -1.606  12.245  1.00  0.00    -0.025 C 
ATOM      5  C   UNL     1       6.247  -1.307  13.389  1.00  0.00     0.020 C 
BRANCH   5   6
ATOM      6  C   UNL     1       4.831  -0.909  13.531  1.00  0.00     0.064 C 
ATOM      7  O   UNL     1       3.934  -1.768  13.327  1.00  0.00    -0.545 OA
ATOM      8  O   UNL     1       4.455   0.373  13.912  1.00  0.00    -0.545 OA
ENDBRANCH   5   6
ENDBRANCH   3   4
ENDBRANCH   2   3
ENDBRANCH   1   2
BRANCH   1   9
ATOM      9  C   UNL     1       6.531  -5.344  11.461  1.00  0.00     0.000 C 
BRANCH   9  10
ATOM     10  C   UNL     1       5.225  -5.128  12.254  1.00  0.00     0.000 C 
BRANCH  10  11
ATOM     11  C   UNL     1       5.482  -4.968  13.763  1.00  0.00    -0.000 C 
BRANCH  11  12
ATOM     12  C   UNL     1       6.899  -5.403  14.179  1.00  0.00    -0.000 C 
BRANCH  12  13
ATOM     13  C   UNL     1       6.946  -6.472  15.284  1.00  0.00    -0.003 C 
ATOM     14  C   UNL     1       6.569  -7.866  14.782  1.00  0.00     0.004 C 
ENDBRANCH  12  13
ENDBRANCH  11  12
ENDBRANCH  10  11
ENDBRANCH   9  10
ENDBRANCH   1   9
TORSDOF 9
ENDMDL
MODEL 6
REMARK VINA RESULT:    -3.499     10.480     12.639
REMARK INTER + INTRA:          -6.661
REMARK INTER:                  -6.151
REMARK INTRA:                  -0.510
REMARK UNBOUND:                -1.321
REMARK SMILES CCCCCCCCCC=CC(=O)[O-]
REMARK SMILES IDX 7 1 8 2 9 3 10 4 11 5 12 6 13 7 14 8 6 9 5 10 4 11 3 12 2 13
REMARK SMILES IDX 1 14
REMARK H PARENT
REMARK Flexibility Score: inf
ROOT
ATOM      1  C   UNL     1       6.049  -4.993  13.438  1.00  0.00     0.000 C 
ENDROOT
BRANCH   1   2
ATOM      2  C   UNL     1       6.423  -5.522  12.043  1.00  0.00     0.004 C 
BRANCH   2   3
ATOM      3  C   UNL     1       6.761  -4.384  11.067  1.00  0.00     0.027 C 
BRANCH   3   4
ATOM      4  C   UNL     1       7.067  -3.091  11.777  1.00  0.00    -0.025 C 
ATOM      5  C   UNL     1       6.717  -1.861  11.367  1.00  0.00     0.020 C 
BRANCH   5   6
ATOM      6  C   UNL     1       6.006  -1.519  10.118  1.00  0.00     0.064 C 
ATOM      7  O   UNL     1       6.634  -0.923   9.204  1.00  0.00    -0.545 OA
ATOM      8  O   UNL     1       4.677  -1.858   9.904  1.00  0.00    -0.545 OA
ENDBRANCH   5   6
ENDBRANCH   3   4
ENDBRANCH   2   3
ENDBRANCH   1   2
BRANCH   1   9
ATOM      9  C   UNL     1       6.865  -5.646  14.565  1.00  0.00     0.000 C 
BRANCH   9  10
ATOM     10  C   UNL     1       6.804  -7.188  14.560  1.00  0.00     0.000 C 
BRANCH  10  11
ATOM     11  C   UNL     1       6.352  -7.755  15.917  1.00  0.00    -0.000 C 
BRANCH  11  12
ATOM     12  C   UNL     1       6.967  -7.008  17.114  1.00  0.00    -0.000 C 
BRANCH  12  13
ATOM     13  C   UNL     1       6.267  -7.261  18.461  1.00  0.00    -0.003 C 
ATOM     14  C   UNL     1       7.099  -6.807  19.660  1.00  0.00     0.004 C 
ENDBRANCH  12  13
ENDBRANCH  11  12
ENDBRANCH  10  11
ENDBRANCH   9  10
ENDBRANCH   1   9
TORSDOF 9
ENDMDL
MODEL 7
REMARK VINA RESULT:    -3.434      9.661     12.374
REMARK INTER + INTRA:          -6.562
REMARK INTER:                  -5.968
REMARK INTRA:                  -0.595
REMARK UNBOUND:                -1.321
REMARK SMILES CCCCCCCCCC=CC(=O)[O-]
REMARK SMILES IDX 7 1 8 2 9 3 10 4 11 5 12 6 13 7 14 8 6 9 5 10 4 11 3 12 2 13
REMARK SMILES IDX 1 14
REMARK H PARENT
REMARK Flexibility Score: inf
ROOT
ATOM      1  C   UNL     1       6.735  -6.957  14.103  1.00  0.00     0.000 C 
ENDROOT
BRANCH   1   2
ATOM      2  C   UNL     1       5.597  -5.968  13.801  1.00  0.00     0.004 C 
BRANCH   2   3
ATOM      3  C   UNL     1       6.115  -4.673  13.157  1.00  0.00     0.027 C 
BRANCH   3   4
ATOM      4  C   UNL     1       6.929  -3.842  14.113  1.00  0.00    -0.025 C 
ATOM      5  C   UNL     1       7.095  -2.510  14.061  1.00  0.00     0.020 C 
BRANCH   5   6
ATOM      6  C   UNL     1       6.558  -1.595  13.032  1.00  0.00     0.064 C 
ATOM      7  O   UNL     1       7.125  -1.541  11.911  1.00  0.00    -0.545 OA
ATOM      8  O   UNL     1       5.429  -0.816  13.250  1.00  0.00    -0.545 OA
ENDBRANCH   5   6
ENDBRANCH   3   4
ENDBRANCH   2   3
ENDBRANCH   1   2
BRANCH   1   9
ATOM      9  C   UNL     1       6.440  -7.857  15.315  1.00  0.00     0.000 C 
BRANCH   9  10
ATOM     10  C   UNL     1       6.803  -7.210  16.668  1.00  0.00     0.000 C 
BRANCH  10  11
ATOM     11  C   UNL     1       5.566  -6.986  17.555  1.00  0.00    -0.000 C 
BRANCH  11  12
ATOM     12  C   UNL     1       5.716  -7.598  18.960  1.00  0.00    -0.000 C 
BRANCH  12  13
ATOM     13  C   UNL     1       6.924  -7.081  19.761  1.00  0.00    -0.003 C 
ATOM     14  C   UNL     1       6.658  -5.739  20.442  1.00  0.00     0.004 C 
ENDBRANCH  12  13
ENDBRANCH  11  12
ENDBRANCH  10  11
ENDBRANCH   9  10
ENDBRANCH   1   9
TORSDOF 9
ENDMDL
MODEL 8
REMARK VINA RESULT:    -3.425      1.817      2.903
REMARK INTER + INTRA:          -6.548
REMARK INTER:                  -5.148
REMARK INTRA:                  -1.400
REMARK UNBOUND:                -1.321
REMARK SMILES CCCCCCCCCC=CC(=O)[O-]
REMARK SMILES IDX 7 1 8 2 9 3 10 4 11 5 12 6 13 7 14 8 6 9 5 10 4 11 3 12 2 13
REMARK SMILES IDX 1 14
REMARK H PARENT
REMARK Flexibility Score: inf
ROOT
ATOM      1  C   UNL     1      -2.829   3.206  16.939  1.00  0.00     0.000 C 
ENDROOT
BRANCH   1   2
ATOM      2  C   UNL     1      -2.112   1.849  16.849  1.00  0.00     0.004 C 
BRANCH   2   3
ATOM      3  C   UNL     1      -0.606   2.010  16.585  1.00  0.00     0.027 C 
BRANCH   3   4
ATOM      4  C   UNL     1      -0.079   3.338  17.061  1.00  0.00    -0.025 C 
ATOM      5  C   UNL     1       0.833   4.099  16.434  1.00  0.00     0.020 C 
BRANCH   5   6
ATOM      6  C   UNL     1       1.541   3.769  15.179  1.00  0.00     0.064 C 
ATOM      7  O   UNL     1       1.579   4.626  14.259  1.00  0.00    -0.545 OA
ATOM      8  O   UNL     1       2.192   2.557  14.991  1.00  0.00    -0.545 OA
ENDBRANCH   5   6
ENDBRANCH   3   4
ENDBRANCH   2   3
ENDBRANCH   1   2
BRANCH   1   9
ATOM      9  C   UNL     1      -3.439   3.652  15.600  1.00  0.00     0.000 C 
BRANCH   9  10
ATOM     10  C   UNL     1      -2.721   4.862  14.965  1.00  0.00     0.000 C 
BRANCH  10  11
ATOM     11  C   UNL     1      -2.477   4.667  13.459  1.00  0.00    -0.000 C 
BRANCH  11  12
ATOM     12  C   UNL     1      -1.533   3.490  13.152  1.00  0.00    -0.000 C 
BRANCH  12  13
ATOM     13  C   UNL     1      -2.195   2.305  12.427  1.00  0.00    -0.003 C 
ATOM     14  C   UNL     1      -2.070   0.990  13.196  1.00  0.00     0.004 C 
ENDBRANCH  12  13
ENDBRANCH  11  12
ENDBRANCH  10  11
ENDBRANCH   9  10
ENDBRANCH   1   9
TORSDOF 9
ENDMDL
