MODEL 1
REMARK VINA RESULT:    -4.898      0.000      0.000
REMARK INTER + INTRA:          -6.227
REMARK INTER:                  -6.044
REMARK INTRA:                  -0.183
REMARK UNBOUND:                -0.183
REMARK SMILES CCCCC=CC(C)=O
REMARK SMILES IDX 4 1 3 2 2 3 1 4 5 5 6 6 7 7 9 8 8 9
REMARK H PARENT
REMARK Flexibility Score: inf
ROOT
ATOM      1  C   UNL     1      -6.110 -14.525  28.306  1.00  0.00     0.027 C 
ENDROOT
BRANCH   1   2
ATOM      2  C   UNL     1      -6.117 -15.186  29.693  1.00  0.00     0.004 C 
BRANCH   2   3
ATOM      3  C   UNL     1      -5.177 -14.485  30.685  1.00  0.00    -0.003 C 
ATOM      4  C   UNL     1      -5.341 -14.997  32.115  1.00  0.00     0.004 C 
ENDBRANCH   2   3
ENDBRANCH   1   2
BRANCH   1   5
ATOM      5  C   UNL     1      -5.048 -13.466  28.216  1.00  0.00    -0.023 C 
ATOM      6  C   UNL     1      -4.134 -13.475  27.238  1.00  0.00     0.042 C 
BRANCH   6   7
ATOM      7  C   UNL     1      -3.076 -12.454  27.138  1.00  0.00     0.152 C 
ATOM      8  O   UNL     1      -2.104 -12.450  27.943  1.00  0.00    -0.295 OA
ATOM      9  C   UNL     1      -3.154 -11.409  26.072  1.00  0.00     0.093 C 
ENDBRANCH   6   7
ENDBRANCH   1   5
TORSDOF 4
ENDMDL
MODEL 2
REMARK VINA RESULT:    -4.691      2.211      4.719
REMARK INTER + INTRA:          -5.972
REMARK INTER:                  -5.759
REMARK INTRA:                  -0.213
REMARK UNBOUND:                -0.183
REMARK SMILES CCCCC=CC(C)=O
REMARK SMILES IDX 4 1 3 2 2 3 1 4 5 5 6 6 7 7 9 8 8 9
REMARK H PARENT
REMARK Flexibility Score: inf
ROOT
ATOM      1  C   UNL     1      -5.244 -14.225  27.500  1.00  0.00     0.027 C 
ENDROOT
BRANCH   1   2
ATOM      2  C   UNL     1      -4.215 -13.724  26.474  1.00  0.00     0.004 C 
BRANCH   2   3
ATOM      3  C   UNL     1      -3.321 -12.608  27.033  1.00  0.00    -0.003 C 
ATOM      4  C   UNL     1      -3.125 -11.459  26.045  1.00  0.00     0.004 C 
ENDBRANCH   2   3
ENDBRANCH   1   2
BRANCH   1   5
ATOM      5  C   UNL     1      -4.715 -14.102  28.901  1.00  0.00    -0.023 C 
ATOM      6  C   UNL     1      -5.414 -14.547  29.952  1.00  0.00     0.042 C 
BRANCH   6   7
ATOM      7  C   UNL     1      -4.922 -14.426  31.336  1.00  0.00     0.152 C 
ATOM      8  O   UNL     1      -5.282 -15.246  32.224  1.00  0.00    -0.295 OA
ATOM      9  C   UNL     1      -3.986 -13.316  31.694  1.00  0.00     0.093 C 
ENDBRANCH   6   7
ENDBRANCH   1   5
TORSDOF 4
ENDMDL
MODEL 3
REMARK VINA RESULT:    -4.606      2.275      3.218
REMARK INTER + INTRA:          -5.866
REMARK INTER:                  -5.724
REMARK INTRA:                  -0.142
REMARK UNBOUND:                -0.183
REMARK SMILES CCCCC=CC(C)=O
REMARK SMILES IDX 4 1 3 2 2 3 1 4 5 5 6 6 7 7 9 8 8 9
REMARK H PARENT
REMARK Flexibility Score: inf
ROOT
ATOM      1  C   UNL     1      -4.072 -13.622  27.291  1.00  0.00     0.027 C 
ENDROOT
BRANCH   1   2
ATOM      2  C   UNL     1      -5.174 -13.585  28.362  1.00  0.00     0.004 C 
BRANCH   2   3
ATOM      3  C   UNL     1      -6.335 -14.539  28.045  1.00  0.00    -0.003 C 
ATOM      4  C   UNL     1      -6.629 -15.510  29.187  1.00  0.00     0.004 C 
ENDBRANCH   2   3
ENDBRANCH   1   2
BRANCH   1   5
ATOM      5  C   UNL     1      -2.761 -14.058  27.879  1.00  0.00    -0.023 C 
ATOM      6  C   UNL     1      -1.987 -13.210  28.567  1.00  0.00     0.042 C 
BRANCH   6   7
ATOM      7  C   UNL     1      -0.690 -13.612  29.141  1.00  0.00     0.152 C 
ATOM      8  O   UNL     1       0.163 -14.224  28.442  1.00  0.00    -0.295 OA
ATOM      9  C   UNL     1      -0.383 -13.295  30.569  1.00  0.00     0.093 C 
ENDBRANCH   6   7
ENDBRANCH   1   5
TORSDOF 4
ENDMDL
MODEL 4
REMARK VINA RESULT:    -4.587      2.948      3.864
REMARK INTER + INTRA:          -5.843
REMARK INTER:                  -5.615
REMARK INTRA:                  -0.227
REMARK UNBOUND:                -0.183
REMARK SMILES CCCCC=CC(C)=O
REMARK SMILES IDX 4 1 3 2 2 3 1 4 5 5 6 6 7 7 9 8 8 9
REMARK H PARENT
REMARK Flexibility Score: inf
ROOT
ATOM      1  C   UNL     1      -4.162 -13.608  31.965  1.00  0.00     0.027 C 
ENDROOT
BRANCH   1   2
ATOM      2  C   UNL     1      -5.040 -14.451  31.027  1.00  0.00     0.004 C 
BRANCH   2   3
ATOM      3  C   UNL     1      -4.819 -14.108  29.547  1.00  0.00    -0.003 C 
ATOM      4  C   UNL     1      -5.912 -14.674  28.641  1.00  0.00     0.004 C 
ENDBRANCH   2   3
ENDBRANCH   1   2
BRANCH   1   5
ATOM      5  C   UNL     1      -2.960 -13.069  31.243  1.00  0.00    -0.023 C 
ATOM      6  C   UNL     1      -1.723 -13.479  31.546  1.00  0.00     0.042 C 
BRANCH   6   7
ATOM      7  C   UNL     1      -0.528 -12.954  30.860  1.00  0.00     0.152 C 
ATOM      8  O   UNL     1       0.404 -12.409  31.512  1.00  0.00    -0.295 OA
ATOM      9  C   UNL     1      -0.419 -13.067  29.373  1.00  0.00     0.093 C 
ENDBRANCH   6   7
ENDBRANCH   1   5
TORSDOF 4
ENDMDL
MODEL 5
REMARK VINA RESULT:    -4.508      2.625      3.325
REMARK INTER + INTRA:          -5.745
REMARK INTER:                  -5.562
REMARK INTRA:                  -0.184
REMARK UNBOUND:                -0.183
REMARK SMILES CCCCC=CC(C)=O
REMARK SMILES IDX 4 1 3 2 2 3 1 4 5 5 6 6 7 7 9 8 8 9
REMARK H PARENT
REMARK Flexibility Score: inf
ROOT
ATOM      1  C   UNL     1      -4.488 -13.542  29.677  1.00  0.00     0.027 C 
ENDROOT
BRANCH   1   2
ATOM      2  C   UNL     1      -5.280 -13.341  28.376  1.00  0.00     0.004 C 
BRANCH   2   3
ATOM      3  C   UNL     1      -6.183 -14.539  28.047  1.00  0.00    -0.003 C 
ATOM      4  C   UNL     1      -6.491 -15.400  29.271  1.00  0.00     0.004 C 
ENDBRANCH   2   3
ENDBRANCH   1   2
BRANCH   1   5
ATOM      5  C   UNL     1      -3.010 -13.586  29.410  1.00  0.00    -0.023 C 
ATOM      6  C   UNL     1      -2.122 -13.206  30.336  1.00  0.00     0.042 C 
BRANCH   6   7
ATOM      7  C   UNL     1      -0.668 -13.229  30.092  1.00  0.00     0.152 C 
ATOM      8  O   UNL     1       0.141 -12.824  30.971  1.00  0.00    -0.295 OA
ATOM      9  C   UNL     1      -0.145 -13.735  28.786  1.00  0.00     0.093 C 
ENDBRANCH   6   7
ENDBRANCH   1   5
TORSDOF 4
ENDMDL
MODEL 6
REMARK VINA RESULT:    -4.501      2.880      4.011
REMARK INTER + INTRA:          -5.737
REMARK INTER:                  -5.551
REMARK INTRA:                  -0.186
REMARK UNBOUND:                -0.183
REMARK SMILES CCCCC=CC(C)=O
REMARK SMILES IDX 4 1 3 2 2 3 1 4 5 5 6 6 7 7 9 8 8 9
REMARK H PARENT
REMARK Flexibility Score: inf
ROOT
ATOM      1  C   UNL     1      -3.772 -13.362  31.597  1.00  0.00     0.027 C 
ENDROOT
BRANCH   1   2
ATOM      2  C   UNL     1      -2.505 -12.647  31.103  1.00  0.00     0.004 C 
BRANCH   2   3
ATOM      3  C   UNL     1      -1.224 -13.427  31.431  1.00  0.00    -0.003 C 
ATOM      4  C   UNL     1      -0.014 -12.516  31.634  1.00  0.00     0.004 C 
ENDBRANCH   2   3
ENDBRANCH   1   2
BRANCH   1   5
ATOM      5  C   UNL     1      -4.532 -13.970  30.452  1.00  0.00    -0.023 C 
ATOM      6  C   UNL     1      -4.329 -13.572  29.190  1.00  0.00     0.042 C 
BRANCH   6   7
ATOM      7  C   UNL     1      -5.071 -14.146  28.053  1.00  0.00     0.152 C 
ATOM      8  O   UNL     1      -4.558 -14.187  26.901  1.00  0.00    -0.295 OA
ATOM      9  C   UNL     1      -6.450 -14.682  28.265  1.00  0.00     0.093 C 
ENDBRANCH   6   7
ENDBRANCH   1   5
TORSDOF 4
ENDMDL
MODEL 7
REMARK VINA RESULT:    -4.498      2.220      4.517
REMARK INTER + INTRA:          -5.733
REMARK INTER:                  -5.440
REMARK INTRA:                  -0.293
REMARK UNBOUND:                -0.183
REMARK SMILES CCCCC=CC(C)=O
REMARK SMILES IDX 4 1 3 2 2 3 1 4 5 5 6 6 7 7 9 8 8 9
REMARK H PARENT
REMARK Flexibility Score: inf
ROOT
ATOM      1  C   UNL     1      -3.960 -13.374  26.191  1.00  0.00     0.027 C 
ENDROOT
BRANCH   1   2
ATOM      2  C   UNL     1      -3.413 -11.958  26.432  1.00  0.00     0.004 C 
BRANCH   2   3
ATOM      3  C   UNL     1      -2.696 -11.826  27.783  1.00  0.00    -0.003 C 
ATOM      4  C   UNL     1      -3.360 -10.805  28.706  1.00  0.00     0.004 C 
ENDBRANCH   2   3
ENDBRANCH   1   2
BRANCH   1   5
ATOM      5  C   UNL     1      -4.309 -14.047  27.487  1.00  0.00    -0.023 C 
ATOM      6  C   UNL     1      -5.582 -14.246  27.850  1.00  0.00     0.042 C 
BRANCH   6   7
ATOM      7  C   UNL     1      -5.948 -14.893  29.123  1.00  0.00     0.152 C 
ATOM      8  O   UNL     1      -6.828 -15.797  29.158  1.00  0.00    -0.295 OA
ATOM      9  C   UNL     1      -5.272 -14.473  30.388  1.00  0.00     0.093 C 
ENDBRANCH   6   7
ENDBRANCH   1   5
TORSDOF 4
ENDMDL
MODEL 8
REMARK VINA RESULT:    -4.456      1.877      4.496
REMARK INTER + INTRA:          -5.681
REMARK INTER:                  -5.397
REMARK INTRA:                  -0.284
REMARK UNBOUND:                -0.183
REMARK SMILES CCCCC=CC(C)=O
REMARK SMILES IDX 4 1 3 2 2 3 1 4 5 5 6 6 7 7 9 8 8 9
REMARK H PARENT
REMARK Flexibility Score: inf
ROOT
ATOM      1  C   UNL     1      -5.109 -13.576  28.051  1.00  0.00     0.027 C 
ENDROOT
BRANCH   1   2
ATOM      2  C   UNL     1      -3.899 -13.837  27.139  1.00  0.00     0.004 C 
BRANCH   2   3
ATOM      3  C   UNL     1      -3.717 -12.746  26.075  1.00  0.00    -0.003 C 
ATOM      4  C   UNL     1      -3.030 -11.496  26.624  1.00  0.00     0.004 C 
ENDBRANCH   2   3
ENDBRANCH   1   2
BRANCH   1   5
ATOM      5  C   UNL     1      -4.750 -13.769  29.496  1.00  0.00    -0.023 C 
ATOM      6  C   UNL     1      -3.645 -13.225  30.020  1.00  0.00     0.042 C 
BRANCH   6   7
ATOM      7  C   UNL     1      -3.266 -13.412  31.432  1.00  0.00     0.152 C 
ATOM      8  O   UNL     1      -2.095 -13.157  31.826  1.00  0.00    -0.295 OA
ATOM      9  C   UNL     1      -4.280 -13.911  32.410  1.00  0.00     0.093 C 
ENDBRANCH   6   7
ENDBRANCH   1   5
TORSDOF 4
ENDMDL
MODEL 9
REMARK VINA RESULT:    -4.402      2.903      4.020
REMARK INTER + INTRA:          -5.614
REMARK INTER:                  -5.416
REMARK INTRA:                  -0.198
REMARK UNBOUND:                -0.183
REMARK SMILES CCCCC=CC(C)=O
REMARK SMILES IDX 4 1 3 2 2 3 1 4 5 5 6 6 7 7 9 8 8 9
REMARK H PARENT
REMARK Flexibility Score: inf
ROOT
ATOM      1  C   UNL     1      -4.601 -14.012  30.458  1.00  0.00     0.027 C 
ENDROOT
BRANCH   1   2
ATOM      2  C   UNL     1      -5.298 -14.241  29.108  1.00  0.00     0.004 C 
BRANCH   2   3
ATOM      3  C   UNL     1      -4.810 -13.272  28.021  1.00  0.00    -0.003 C 
ATOM      4  C   UNL     1      -4.548 -13.968  26.686  1.00  0.00     0.004 C 
ENDBRANCH   2   3
ENDBRANCH   1   2
BRANCH   1   5
ATOM      5  C   UNL     1      -3.435 -13.076  30.314  1.00  0.00    -0.023 C 
ATOM      6  C   UNL     1      -2.433 -13.067  31.201  1.00  0.00     0.042 C 
BRANCH   6   7
ATOM      7  C   UNL     1      -1.286 -12.148  31.087  1.00  0.00     0.152 C 
ATOM      8  O   UNL     1      -1.412 -11.024  30.527  1.00  0.00    -0.295 OA
ATOM      9  C   UNL     1       0.044 -12.553  31.637  1.00  0.00     0.093 C 
ENDBRANCH   6   7
ENDBRANCH   1   5
TORSDOF 4
ENDMDL
