MODEL 1
REMARK VINA RESULT:    -5.209      0.000      0.000
REMARK INTER + INTRA:          -5.665
REMARK INTER:                  -5.514
REMARK INTRA:                  -0.151
REMARK UNBOUND:                -0.151
REMARK SMILES C=C(C)[C@@H]1CC[C@@H](C)[C@]12CC=C(C)CC2
REMARK SMILES IDX 8 1 7 2 6 3 5 4 4 5 9 6 15 7 14 8 12 9 11 10 10 11 13 12
REMARK SMILES IDX 2 13 1 14 3 15
REMARK H PARENT
REMARK Flexibility Score: inf
ROOT
ATOM      1  C   UNL     1     169.757 163.372 199.580  1.00  0.00     0.008 C 
ATOM      2  C   UNL     1     168.381 163.895 200.044  1.00  0.00    -0.007 C 
ATOM      3  C   UNL     1     167.904 163.089 201.250  1.00  0.00     0.004 C 
ATOM      4  C   UNL     1     167.178 161.886 200.673  1.00  0.00     0.009 C 
ATOM      5  C   UNL     1     166.639 162.320 199.296  1.00  0.00     0.021 C 
ATOM      6  C   UNL     1     167.227 163.752 198.996  1.00  0.00    -0.017 C 
ATOM      7  C   UNL     1     167.741 163.884 197.531  1.00  0.00     0.012 C 
ATOM      8  C   UNL     1     166.615 163.855 196.486  1.00  0.00     0.031 C 
ATOM      9  C   UNL     1     165.371 164.614 196.892  1.00  0.00    -0.077 C 
ATOM     10  C   UNL     1     165.173 165.036 198.154  1.00  0.00    -0.027 C 
ATOM     11  C   UNL     1     166.229 164.929 199.221  1.00  0.00     0.035 C 
ATOM     12  C   UNL     1     164.270 164.790 195.883  1.00  0.00     0.039 C 
ENDROOT
BRANCH   5  13
ATOM     13  C   UNL     1     165.117 162.148 199.197  1.00  0.00    -0.077 C 
ATOM     14  C   UNL     1     164.579 161.523 198.137  1.00  0.00     0.008 C 
ATOM     15  C   UNL     1     164.180 162.608 200.291  1.00  0.00     0.039 C 
ENDBRANCH   5  13
TORSDOF 1
ENDMDL
MODEL 2
REMARK VINA RESULT:    -5.204      4.193      6.446
REMARK INTER + INTRA:          -5.660
REMARK INTER:                  -5.511
REMARK INTRA:                  -0.149
REMARK UNBOUND:                -0.151
REMARK SMILES C=C(C)[C@@H]1CC[C@@H](C)[C@]12CC=C(C)CC2
REMARK SMILES IDX 8 1 7 2 6 3 5 4 4 5 9 6 15 7 14 8 12 9 11 10 10 11 13 12
REMARK SMILES IDX 2 13 1 14 3 15
REMARK H PARENT
REMARK Flexibility Score: inf
ROOT
ATOM      1  C   UNL     1     162.233 168.628 199.608  1.00  0.00     0.008 C 
ATOM      2  C   UNL     1     163.607 168.096 200.069  1.00  0.00    -0.007 C 
ATOM      3  C   UNL     1     164.091 168.898 201.274  1.00  0.00     0.004 C 
ATOM      4  C   UNL     1     164.823 170.097 200.696  1.00  0.00     0.009 C 
ATOM      5  C   UNL     1     165.357 169.660 199.318  1.00  0.00     0.021 C 
ATOM      6  C   UNL     1     164.759 168.232 199.019  1.00  0.00    -0.017 C 
ATOM      7  C   UNL     1     164.242 168.103 197.555  1.00  0.00     0.012 C 
ATOM      8  C   UNL     1     165.366 168.126 196.508  1.00  0.00     0.031 C 
ATOM      9  C   UNL     1     166.605 167.358 196.911  1.00  0.00    -0.077 C 
ATOM     10  C   UNL     1     166.804 166.935 198.173  1.00  0.00    -0.027 C 
ATOM     11  C   UNL     1     165.750 167.049 199.242  1.00  0.00     0.035 C 
ATOM     12  C   UNL     1     167.704 167.176 195.900  1.00  0.00     0.039 C 
ENDROOT
BRANCH   5  13
ATOM     13  C   UNL     1     166.879 169.822 199.216  1.00  0.00    -0.077 C 
ATOM     14  C   UNL     1     167.421 170.431 198.148  1.00  0.00     0.008 C 
ATOM     15  C   UNL     1     167.815 169.370 200.316  1.00  0.00     0.039 C 
ENDBRANCH   5  13
TORSDOF 1
ENDMDL
MODEL 3
REMARK VINA RESULT:    -5.112      4.346      6.699
REMARK INTER + INTRA:          -5.562
REMARK INTER:                  -5.423
REMARK INTRA:                  -0.139
REMARK UNBOUND:                -0.151
REMARK SMILES C=C(C)[C@@H]1CC[C@@H](C)[C@]12CC=C(C)CC2
REMARK SMILES IDX 8 1 7 2 6 3 5 4 4 5 9 6 15 7 14 8 12 9 11 10 10 11 13 12
REMARK SMILES IDX 2 13 1 14 3 15
REMARK H PARENT
REMARK Flexibility Score: inf
ROOT
ATOM      1  C   UNL     1     164.897 169.229 196.058  1.00  0.00     0.008 C 
ATOM      2  C   UNL     1     164.720 168.139 197.136  1.00  0.00    -0.007 C 
ATOM      3  C   UNL     1     163.235 167.940 197.429  1.00  0.00     0.004 C 
ATOM      4  C   UNL     1     162.892 168.961 198.500  1.00  0.00     0.009 C 
ATOM      5  C   UNL     1     164.192 169.224 199.285  1.00  0.00     0.021 C 
ATOM      6  C   UNL     1     165.353 168.471 198.528  1.00  0.00    -0.017 C 
ATOM      7  C   UNL     1     166.637 169.345 198.399  1.00  0.00     0.012 C 
ATOM      8  C   UNL     1     167.339 169.597 199.743  1.00  0.00     0.031 C 
ATOM      9  C   UNL     1     167.365 168.398 200.664  1.00  0.00    -0.077 C 
ATOM     10  C   UNL     1     166.607 167.310 200.441  1.00  0.00    -0.027 C 
ATOM     11  C   UNL     1     165.798 167.129 199.184  1.00  0.00     0.035 C 
ATOM     12  C   UNL     1     168.165 168.480 201.935  1.00  0.00     0.039 C 
ENDROOT
BRANCH   5  13
ATOM     13  C   UNL     1     164.025 168.936 200.783  1.00  0.00    -0.077 C 
ATOM     14  C   UNL     1     164.477 169.817 201.691  1.00  0.00     0.008 C 
ATOM     15  C   UNL     1     163.305 167.708 201.293  1.00  0.00     0.039 C 
ENDBRANCH   5  13
TORSDOF 1
ENDMDL
MODEL 4
REMARK VINA RESULT:    -5.101      1.124      3.315
REMARK INTER + INTRA:          -5.550
REMARK INTER:                  -5.404
REMARK INTRA:                  -0.146
REMARK UNBOUND:                -0.151
REMARK SMILES C=C(C)[C@@H]1CC[C@@H](C)[C@]12CC=C(C)CC2
REMARK SMILES IDX 8 1 7 2 6 3 5 4 4 5 9 6 15 7 14 8 12 9 11 10 10 11 13 12
REMARK SMILES IDX 2 13 1 14 3 15
REMARK H PARENT
REMARK Flexibility Score: inf
ROOT
ATOM      1  C   UNL     1     168.370 163.844 202.413  1.00  0.00     0.008 C 
ATOM      2  C   UNL     1     168.298 163.003 201.120  1.00  0.00    -0.007 C 
ATOM      3  C   UNL     1     169.435 163.403 200.183  1.00  0.00     0.004 C 
ATOM      4  C   UNL     1     168.903 164.572 199.374  1.00  0.00     0.009 C 
ATOM      5  C   UNL     1     167.373 164.402 199.314  1.00  0.00     0.021 C 
ATOM      6  C   UNL     1     167.000 163.203 200.268  1.00  0.00    -0.017 C 
ATOM      7  C   UNL     1     165.757 163.517 201.153  1.00  0.00     0.012 C 
ATOM      8  C   UNL     1     164.449 163.612 200.352  1.00  0.00     0.031 C 
ATOM      9  C   UNL     1     164.318 162.582 199.253  1.00  0.00    -0.077 C 
ATOM     10  C   UNL     1     165.362 161.840 198.842  1.00  0.00    -0.027 C 
ATOM     11  C   UNL     1     166.695 161.859 199.541  1.00  0.00     0.035 C 
ATOM     12  C   UNL     1     163.012 162.476 198.513  1.00  0.00     0.039 C 
ENDROOT
BRANCH   5  13
ATOM     13  C   UNL     1     166.859 164.338 197.870  1.00  0.00    -0.077 C 
ATOM     14  C   UNL     1     165.821 165.102 197.490  1.00  0.00     0.008 C 
ATOM     15  C   UNL     1     167.521 163.480 196.815  1.00  0.00     0.039 C 
ENDBRANCH   5  13
TORSDOF 1
ENDMDL
MODEL 5
REMARK VINA RESULT:    -5.086      4.330      6.385
REMARK INTER + INTRA:          -5.535
REMARK INTER:                  -5.382
REMARK INTRA:                  -0.153
REMARK UNBOUND:                -0.151
REMARK SMILES C=C(C)[C@@H]1CC[C@@H](C)[C@]12CC=C(C)CC2
REMARK SMILES IDX 8 1 7 2 6 3 5 4 4 5 9 6 15 7 14 8 12 9 11 10 10 11 13 12
REMARK SMILES IDX 2 13 1 14 3 15
REMARK H PARENT
REMARK Flexibility Score: inf
ROOT
ATOM      1  C   UNL     1     163.748 168.209 202.579  1.00  0.00     0.008 C 
ATOM      2  C   UNL     1     163.770 169.013 201.261  1.00  0.00    -0.007 C 
ATOM      3  C   UNL     1     162.610 168.575 200.372  1.00  0.00     0.004 C 
ATOM      4  C   UNL     1     163.130 167.389 199.579  1.00  0.00     0.009 C 
ATOM      5  C   UNL     1     164.656 167.574 199.467  1.00  0.00     0.021 C 
ATOM      6  C   UNL     1     165.043 168.804 200.375  1.00  0.00    -0.017 C 
ATOM      7  C   UNL     1     166.317 168.528 201.230  1.00  0.00     0.012 C 
ATOM      8  C   UNL     1     167.601 168.425 200.391  1.00  0.00     0.031 C 
ATOM      9  C   UNL     1     167.686 169.425 199.260  1.00  0.00    -0.077 C 
ATOM     10  C   UNL     1     166.621 170.144 198.861  1.00  0.00    -0.027 C 
ATOM     11  C   UNL     1     165.310 170.130 199.602  1.00  0.00     0.035 C 
ATOM     12  C   UNL     1     168.966 169.524 198.477  1.00  0.00     0.039 C 
ENDROOT
BRANCH   5  13
ATOM     13  C   UNL     1     165.124 167.603 198.006  1.00  0.00    -0.077 C 
ATOM     14  C   UNL     1     166.148 166.828 197.612  1.00  0.00     0.008 C 
ATOM     15  C   UNL     1     164.430 168.438 196.953  1.00  0.00     0.039 C 
ENDBRANCH   5  13
TORSDOF 1
ENDMDL
MODEL 6
REMARK VINA RESULT:    -5.069      1.748      4.193
REMARK INTER + INTRA:          -5.517
REMARK INTER:                  -5.378
REMARK INTRA:                  -0.139
REMARK UNBOUND:                -0.151
REMARK SMILES C=C(C)[C@@H]1CC[C@@H](C)[C@]12CC=C(C)CC2
REMARK SMILES IDX 8 1 7 2 6 3 5 4 4 5 9 6 15 7 14 8 12 9 11 10 10 11 13 12
REMARK SMILES IDX 2 13 1 14 3 15
REMARK H PARENT
REMARK Flexibility Score: inf
ROOT
ATOM      1  C   UNL     1     164.788 163.079 202.191  1.00  0.00     0.008 C 
ATOM      2  C   UNL     1     165.061 163.617 200.770  1.00  0.00    -0.007 C 
ATOM      3  C   UNL     1     164.928 162.483 199.756  1.00  0.00     0.004 C 
ATOM      4  C   UNL     1     166.296 161.827 199.699  1.00  0.00     0.009 C 
ATOM      5  C   UNL     1     167.319 162.917 200.074  1.00  0.00     0.021 C 
ATOM      6  C   UNL     1     166.501 164.183 200.537  1.00  0.00    -0.017 C 
ATOM      7  C   UNL     1     167.095 164.831 201.824  1.00  0.00     0.012 C 
ATOM      8  C   UNL     1     168.464 165.490 201.596  1.00  0.00     0.031 C 
ATOM      9  C   UNL     1     168.586 166.234 200.285  1.00  0.00    -0.077 C 
ATOM     10  C   UNL     1     167.680 166.095 199.299  1.00  0.00    -0.027 C 
ATOM     11  C   UNL     1     166.401 165.321 199.476  1.00  0.00     0.035 C 
ATOM     12  C   UNL     1     169.821 167.052 200.029  1.00  0.00     0.039 C 
ENDROOT
BRANCH   5  13
ATOM     13  C   UNL     1     168.369 163.120 198.974  1.00  0.00    -0.077 C 
ATOM     14  C   UNL     1     169.671 163.203 199.294  1.00  0.00     0.008 C 
ATOM     15  C   UNL     1     168.002 163.173 197.508  1.00  0.00     0.039 C 
ENDBRANCH   5  13
TORSDOF 1
ENDMDL
MODEL 7
REMARK VINA RESULT:    -4.966      3.859      5.880
REMARK INTER + INTRA:          -5.407
REMARK INTER:                  -5.260
REMARK INTRA:                  -0.147
REMARK UNBOUND:                -0.151
REMARK SMILES C=C(C)[C@@H]1CC[C@@H](C)[C@]12CC=C(C)CC2
REMARK SMILES IDX 8 1 7 2 6 3 5 4 4 5 9 6 15 7 14 8 12 9 11 10 10 11 13 12
REMARK SMILES IDX 2 13 1 14 3 15
REMARK H PARENT
REMARK Flexibility Score: inf
ROOT
ATOM      1  C   UNL     1     167.495 168.817 201.799  1.00  0.00     0.008 C 
ATOM      2  C   UNL     1     167.039 168.327 200.408  1.00  0.00    -0.007 C 
ATOM      3  C   UNL     1     167.015 169.500 199.431  1.00  0.00     0.004 C 
ATOM      4  C   UNL     1     165.642 170.129 199.586  1.00  0.00     0.009 C 
ATOM      5  C   UNL     1     164.696 169.006 200.053  1.00  0.00     0.021 C 
ATOM      6  C   UNL     1     165.589 167.741 200.351  1.00  0.00    -0.017 C 
ATOM      7  C   UNL     1     165.186 167.033 201.680  1.00  0.00     0.012 C 
ATOM      8  C   UNL     1     163.808 166.356 201.615  1.00  0.00     0.031 C 
ATOM      9  C   UNL     1     163.520 165.659 200.304  1.00  0.00    -0.077 C 
ATOM     10  C   UNL     1     164.280 165.852 199.211  1.00  0.00    -0.027 C 
ATOM     11  C   UNL     1     165.560 166.645 199.242  1.00  0.00     0.035 C 
ATOM     12  C   UNL     1     162.273 164.826 200.186  1.00  0.00     0.039 C 
ENDROOT
BRANCH   5  13
ATOM     13  C   UNL     1     163.509 168.823 199.100  1.00  0.00    -0.077 C 
ATOM     14  C   UNL     1     162.261 168.733 199.588  1.00  0.00     0.008 C 
ATOM     15  C   UNL     1     163.677 168.797 197.597  1.00  0.00     0.039 C 
ENDBRANCH   5  13
TORSDOF 1
ENDMDL
MODEL 8
REMARK VINA RESULT:    -3.759      4.580      5.477
REMARK INTER + INTRA:          -4.130
REMARK INTER:                  -3.980
REMARK INTRA:                  -0.149
REMARK UNBOUND:                -0.151
REMARK SMILES C=C(C)[C@@H]1CC[C@@H](C)[C@]12CC=C(C)CC2
REMARK SMILES IDX 8 1 7 2 6 3 5 4 4 5 9 6 15 7 14 8 12 9 11 10 10 11 13 12
REMARK SMILES IDX 2 13 1 14 3 15
REMARK H PARENT
REMARK Flexibility Score: inf
ROOT
ATOM      1  C   UNL     1     169.014 166.653 201.481  1.00  0.00     0.008 C 
ATOM      2  C   UNL     1     168.449 168.080 201.310  1.00  0.00    -0.007 C 
ATOM      3  C   UNL     1     167.426 168.364 202.407  1.00  0.00     0.004 C 
ATOM      4  C   UNL     1     166.103 167.847 201.873  1.00  0.00     0.009 C 
ATOM      5  C   UNL     1     166.190 167.928 200.336  1.00  0.00     0.021 C 
ATOM      6  C   UNL     1     167.671 168.332 199.975  1.00  0.00    -0.017 C 
ATOM      7  C   UNL     1     168.240 167.491 198.794  1.00  0.00     0.012 C 
ATOM      8  C   UNL     1     167.565 167.798 197.448  1.00  0.00     0.031 C 
ATOM      9  C   UNL     1     167.269 169.263 197.221  1.00  0.00    -0.077 C 
ATOM     10  C   UNL     1     167.338 170.167 198.215  1.00  0.00    -0.027 C 
ATOM     11  C   UNL     1     167.864 169.828 199.585  1.00  0.00     0.035 C 
ATOM     12  C   UNL     1     166.759 169.699 195.875  1.00  0.00     0.039 C 
ENDROOT
BRANCH   5  13
ATOM     13  C   UNL     1     165.062 168.783 199.743  1.00  0.00    -0.077 C 
ATOM     14  C   UNL     1     164.311 168.303 198.739  1.00  0.00     0.008 C 
ATOM     15  C   UNL     1     164.712 170.149 200.290  1.00  0.00     0.039 C 
ENDBRANCH   5  13
TORSDOF 1
ENDMDL
