MODEL 1
REMARK VINA RESULT:    -7.226      0.000      0.000
REMARK INTER + INTRA:         -15.350
REMARK INTER:                 -13.986
REMARK INTRA:                  -1.365
REMARK UNBOUND:                -1.365
REMARK SMILES CCCCCCCCCCCCCCCCCC(=O)[O-]
REMARK SMILES IDX 10 1 11 2 12 3 13 4 14 5 15 6 16 7 17 8 18 9 19 10 20 11
REMARK SMILES IDX 9 12 8 13 7 14 6 15 5 16 4 17 3 18 2 19 1 20
REMARK H PARENT
REMARK Flexibility Score: inf
ROOT
ATOM      1  C   UNL     1       6.607  -2.292  20.637  1.00  0.00     0.000 C 
ENDROOT
BRANCH   1   2
ATOM      2  C   UNL     1       5.883  -2.151  21.985  1.00  0.00     0.000 C 
BRANCH   2   3
ATOM      3  C   UNL     1       4.506  -2.834  21.996  1.00  0.00     0.000 C 
BRANCH   3   4
ATOM      4  C   UNL     1       3.304  -1.870  21.947  1.00  0.00     0.000 C 
BRANCH   4   5
ATOM      5  C   UNL     1       3.161  -1.120  20.605  1.00  0.00     0.000 C 
BRANCH   5   6
ATOM      6  C   UNL     1       2.365  -1.931  19.566  1.00  0.00     0.000 C 
BRANCH   6   7
ATOM      7  C   UNL     1       1.259  -1.102  18.881  1.00  0.00     0.006 C 
BRANCH   7   8
ATOM      8  C   UNL     1       1.454   0.417  19.013  1.00  0.00     0.053 C 
BRANCH   8   9
ATOM      9  C   UNL     1       1.786   1.067  17.707  1.00  0.00     0.041 C 
ATOM     10  O   UNL     1       2.756   0.649  17.020  1.00  0.00    -0.550 OA
ATOM     11  O   UNL     1       1.024   2.133  17.244  1.00  0.00    -0.550 OA
ENDBRANCH   8   9
ENDBRANCH   7   8
ENDBRANCH   6   7
ENDBRANCH   5   6
ENDBRANCH   4   5
ENDBRANCH   3   4
ENDBRANCH   2   3
ENDBRANCH   1   2
BRANCH   1  12
ATOM     12  C   UNL     1       5.971  -3.403  19.788  1.00  0.00     0.000 C 
BRANCH  12  13
ATOM     13  C   UNL     1       6.859  -4.654  19.687  1.00  0.00    -0.000 C 
BRANCH  13  14
ATOM     14  C   UNL     1       8.055  -4.610  20.648  1.00  0.00    -0.000 C 
BRANCH  14  15
ATOM     15  C   UNL     1       7.891  -5.634  21.777  1.00  0.00    -0.000 C 
BRANCH  15  16
ATOM     16  C   UNL     1       6.894  -6.731  21.386  1.00  0.00    -0.000 C 
BRANCH  16  17
ATOM     17  C   UNL     1       7.614  -8.057  21.101  1.00  0.00    -0.000 C 
BRANCH  17  18
ATOM     18  C   UNL     1       6.843  -9.272  21.658  1.00  0.00    -0.000 C 
BRANCH  18  19
ATOM     19  C   UNL     1       6.315  -9.065  23.087  1.00  0.00    -0.003 C 
ATOM     20  C   UNL     1       7.405  -8.643  24.072  1.00  0.00     0.004 C 
ENDBRANCH  18  19
ENDBRANCH  17  18
ENDBRANCH  16  17
ENDBRANCH  15  16
ENDBRANCH  14  15
ENDBRANCH  13  14
ENDBRANCH  12  13
ENDBRANCH   1  12
TORSDOF 16
ENDMDL
MODEL 2
REMARK VINA RESULT:    -7.217      4.374     10.164
REMARK INTER + INTRA:         -15.333
REMARK INTER:                 -14.505
REMARK INTRA:                  -0.828
REMARK UNBOUND:                -1.365
REMARK SMILES CCCCCCCCCCCCCCCCCC(=O)[O-]
REMARK SMILES IDX 10 1 11 2 12 3 13 4 14 5 15 6 16 7 17 8 18 9 19 10 20 11
REMARK SMILES IDX 9 12 8 13 7 14 6 15 5 16 4 17 3 18 2 19 1 20
REMARK H PARENT
REMARK Flexibility Score: inf
ROOT
ATOM      1  C   UNL     1       4.738  -1.569  19.690  1.00  0.00     0.000 C 
ENDROOT
BRANCH   1   2
ATOM      2  C   UNL     1       5.858  -1.293  20.703  1.00  0.00     0.000 C 
BRANCH   2   3
ATOM      3  C   UNL     1       5.863  -2.289  21.874  1.00  0.00     0.000 C 
BRANCH   3   4
ATOM      4  C   UNL     1       5.943  -3.772  21.462  1.00  0.00     0.000 C 
BRANCH   4   5
ATOM      5  C   UNL     1       7.232  -4.136  20.693  1.00  0.00     0.000 C 
BRANCH   5   6
ATOM      6  C   UNL     1       7.830  -5.476  21.159  1.00  0.00     0.000 C 
BRANCH   6   7
ATOM      7  C   UNL     1       6.763  -6.574  21.347  1.00  0.00     0.006 C 
BRANCH   7   8
ATOM      8  C   UNL     1       7.332  -8.002  21.314  1.00  0.00     0.053 C 
BRANCH   8   9
ATOM      9  C   UNL     1       6.919  -8.810  22.503  1.00  0.00     0.041 C 
ATOM     10  O   UNL     1       7.020  -8.328  23.663  1.00  0.00    -0.550 OA
ATOM     11  O   UNL     1       6.418 -10.095  22.333  1.00  0.00    -0.550 OA
ENDBRANCH   8   9
ENDBRANCH   7   8
ENDBRANCH   6   7
ENDBRANCH   5   6
ENDBRANCH   4   5
ENDBRANCH   3   4
ENDBRANCH   2   3
ENDBRANCH   1   2
BRANCH   1  12
ATOM     12  C   UNL     1       3.361  -1.281  20.306  1.00  0.00     0.000 C 
BRANCH  12  13
ATOM     13  C   UNL     1       2.571  -0.219  19.523  1.00  0.00    -0.000 C 
BRANCH  13  14
ATOM     14  C   UNL     1       3.053  -0.073  18.073  1.00  0.00    -0.000 C 
BRANCH  14  15
ATOM     15  C   UNL     1       2.061   0.752  17.244  1.00  0.00    -0.000 C 
BRANCH  15  16
ATOM     16  C   UNL     1       1.302   1.750  18.127  1.00  0.00    -0.000 C 
BRANCH  16  17
ATOM     17  C   UNL     1       0.875   2.987  17.323  1.00  0.00    -0.000 C 
BRANCH  17  18
ATOM     18  C   UNL     1       1.517   4.283  17.860  1.00  0.00    -0.000 C 
BRANCH  18  19
ATOM     19  C   UNL     1       1.092   5.545  17.092  1.00  0.00    -0.003 C 
ATOM     20  C   UNL     1       2.275   6.412  16.664  1.00  0.00     0.004 C 
ENDBRANCH  18  19
ENDBRANCH  17  18
ENDBRANCH  16  17
ENDBRANCH  15  16
ENDBRANCH  14  15
ENDBRANCH  13  14
ENDBRANCH  12  13
ENDBRANCH   1  12
TORSDOF 16
ENDMDL
MODEL 3
REMARK VINA RESULT:    -7.100      2.662      4.357
REMARK INTER + INTRA:         -15.105
REMARK INTER:                 -14.309
REMARK INTRA:                  -0.796
REMARK UNBOUND:                -1.365
REMARK SMILES CCCCCCCCCCCCCCCCCC(=O)[O-]
REMARK SMILES IDX 10 1 11 2 12 3 13 4 14 5 15 6 16 7 17 8 18 9 19 10 20 11
REMARK SMILES IDX 9 12 8 13 7 14 6 15 5 16 4 17 3 18 2 19 1 20
REMARK H PARENT
REMARK Flexibility Score: inf
ROOT
ATOM      1  C   UNL     1       2.824  -0.840  20.006  1.00  0.00     0.000 C 
ENDROOT
BRANCH   1   2
ATOM      2  C   UNL     1       3.606   0.219  19.214  1.00  0.00     0.000 C 
BRANCH   2   3
ATOM      3  C   UNL     1       3.012   0.481  17.821  1.00  0.00     0.000 C 
BRANCH   3   4
ATOM      4  C   UNL     1       1.472   0.494  17.764  1.00  0.00     0.000 C 
BRANCH   4   5
ATOM      5  C   UNL     1       0.875   1.853  17.339  1.00  0.00     0.000 C 
BRANCH   5   6
ATOM      6  C   UNL     1       1.784   3.035  17.724  1.00  0.00     0.000 C 
BRANCH   6   7
ATOM      7  C   UNL     1       1.037   4.384  17.734  1.00  0.00     0.006 C 
BRANCH   7   8
ATOM      8  C   UNL     1       1.968   5.607  17.705  1.00  0.00     0.053 C 
BRANCH   8   9
ATOM      9  C   UNL     1       1.442   6.706  16.836  1.00  0.00     0.041 C 
ATOM     10  O   UNL     1       1.321   7.873  17.295  1.00  0.00    -0.550 OA
ATOM     11  O   UNL     1       1.089   6.445  15.519  1.00  0.00    -0.550 OA
ENDBRANCH   8   9
ENDBRANCH   7   8
ENDBRANCH   6   7
ENDBRANCH   5   6
ENDBRANCH   4   5
ENDBRANCH   3   4
ENDBRANCH   2   3
ENDBRANCH   1   2
BRANCH   1  12
ATOM     12  C   UNL     1       3.732  -2.017  20.388  1.00  0.00     0.000 C 
BRANCH  12  13
ATOM     13  C   UNL     1       5.223  -1.642  20.383  1.00  0.00    -0.000 C 
BRANCH  13  14
ATOM     14  C   UNL     1       5.968  -2.162  21.622  1.00  0.00    -0.000 C 
BRANCH  14  15
ATOM     15  C   UNL     1       5.973  -3.695  21.657  1.00  0.00    -0.000 C 
BRANCH  15  16
ATOM     16  C   UNL     1       7.161  -4.260  20.870  1.00  0.00    -0.000 C 
BRANCH  16  17
ATOM     17  C   UNL     1       6.955  -5.748  20.550  1.00  0.00    -0.000 C 
BRANCH  17  18
ATOM     18  C   UNL     1       7.554  -6.667  21.634  1.00  0.00    -0.000 C 
BRANCH  18  19
ATOM     19  C   UNL     1       7.279  -8.161  21.396  1.00  0.00    -0.003 C 
ATOM     20  C   UNL     1       6.791  -8.886  22.650  1.00  0.00     0.004 C 
ENDBRANCH  18  19
ENDBRANCH  17  18
ENDBRANCH  16  17
ENDBRANCH  15  16
ENDBRANCH  14  15
ENDBRANCH  13  14
ENDBRANCH  12  13
ENDBRANCH   1  12
TORSDOF 16
ENDMDL
MODEL 4
REMARK VINA RESULT:    -7.015      3.453      5.405
REMARK INTER + INTRA:         -14.941
REMARK INTER:                 -14.362
REMARK INTRA:                  -0.578
REMARK UNBOUND:                -1.365
REMARK SMILES CCCCCCCCCCCCCCCCCC(=O)[O-]
REMARK SMILES IDX 10 1 11 2 12 3 13 4 14 5 15 6 16 7 17 8 18 9 19 10 20 11
REMARK SMILES IDX 9 12 8 13 7 14 6 15 5 16 4 17 3 18 2 19 1 20
REMARK H PARENT
REMARK Flexibility Score: inf
ROOT
ATOM      1  C   UNL     1       3.397  -0.350  18.922  1.00  0.00     0.000 C 
ENDROOT
BRANCH   1   2
ATOM      2  C   UNL     1       2.600   0.429  17.864  1.00  0.00     0.000 C 
BRANCH   2   3
ATOM      3  C   UNL     1       1.504   1.316  18.475  1.00  0.00     0.000 C 
BRANCH   3   4
ATOM      4  C   UNL     1       0.911   2.367  17.517  1.00  0.00     0.000 C 
BRANCH   4   5
ATOM      5  C   UNL     1       1.736   3.669  17.434  1.00  0.00     0.000 C 
BRANCH   5   6
ATOM      6  C   UNL     1       0.875   4.922  17.679  1.00  0.00     0.000 C 
BRANCH   6   7
ATOM      7  C   UNL     1       1.680   6.232  17.564  1.00  0.00     0.006 C 
BRANCH   7   8
ATOM      8  C   UNL     1       2.374   6.415  16.205  1.00  0.00     0.053 C 
BRANCH   8   9
ATOM      9  C   UNL     1       2.346   7.835  15.733  1.00  0.00     0.041 C 
ATOM     10  O   UNL     1       2.723   8.123  14.566  1.00  0.00    -0.550 OA
ATOM     11  O   UNL     1       1.899   8.841  16.580  1.00  0.00    -0.550 OA
ENDBRANCH   8   9
ENDBRANCH   7   8
ENDBRANCH   6   7
ENDBRANCH   5   6
ENDBRANCH   4   5
ENDBRANCH   3   4
ENDBRANCH   2   3
ENDBRANCH   1   2
BRANCH   1  12
ATOM     12  C   UNL     1       2.605  -1.570  19.414  1.00  0.00     0.000 C 
BRANCH  12  13
ATOM     13  C   UNL     1       3.512  -2.750  19.800  1.00  0.00    -0.000 C 
BRANCH  13  14
ATOM     14  C   UNL     1       4.357  -2.462  21.050  1.00  0.00    -0.000 C 
BRANCH  14  15
ATOM     15  C   UNL     1       5.268  -3.650  21.383  1.00  0.00    -0.000 C 
BRANCH  15  16
ATOM     16  C   UNL     1       6.519  -3.649  20.497  1.00  0.00    -0.000 C 
BRANCH  16  17
ATOM     17  C   UNL     1       7.516  -4.727  20.947  1.00  0.00    -0.000 C 
BRANCH  17  18
ATOM     18  C   UNL     1       6.905  -6.143  20.902  1.00  0.00    -0.000 C 
BRANCH  18  19
ATOM     19  C   UNL     1       7.592  -7.141  21.850  1.00  0.00    -0.003 C 
ATOM     20  C   UNL     1       7.361  -8.598  21.453  1.00  0.00     0.004 C 
ENDBRANCH  18  19
ENDBRANCH  17  18
ENDBRANCH  16  17
ENDBRANCH  15  16
ENDBRANCH  14  15
ENDBRANCH  13  14
ENDBRANCH  12  13
ENDBRANCH   1  12
TORSDOF 16
ENDMDL
MODEL 5
REMARK VINA RESULT:    -6.974      4.041      8.758
REMARK INTER + INTRA:         -14.861
REMARK INTER:                 -13.287
REMARK INTRA:                  -1.575
REMARK UNBOUND:                -1.365
REMARK SMILES CCCCCCCCCCCCCCCCCC(=O)[O-]
REMARK SMILES IDX 10 1 11 2 12 3 13 4 14 5 15 6 16 7 17 8 18 9 19 10 20 11
REMARK SMILES IDX 9 12 8 13 7 14 6 15 5 16 4 17 3 18 2 19 1 20
REMARK H PARENT
REMARK Flexibility Score: inf
ROOT
ATOM      1  C   UNL     1       6.697  -2.193  20.411  1.00  0.00     0.000 C 
ENDROOT
BRANCH   1   2
ATOM      2  C   UNL     1       5.947  -3.374  19.777  1.00  0.00     0.000 C 
BRANCH   2   3
ATOM      3  C   UNL     1       6.847  -4.598  19.547  1.00  0.00     0.000 C 
BRANCH   3   4
ATOM      4  C   UNL     1       8.100  -4.659  20.442  1.00  0.00     0.000 C 
BRANCH   4   5
ATOM      5  C   UNL     1       7.928  -5.545  21.695  1.00  0.00     0.000 C 
BRANCH   5   6
ATOM      6  C   UNL     1       6.908  -6.676  21.473  1.00  0.00     0.000 C 
BRANCH   6   7
ATOM      7  C   UNL     1       7.560  -7.980  20.970  1.00  0.00     0.006 C 
BRANCH   7   8
ATOM      8  C   UNL     1       7.095  -9.236  21.726  1.00  0.00     0.053 C 
BRANCH   8   9
ATOM      9  C   UNL     1       6.617  -8.927  23.110  1.00  0.00     0.041 C 
ATOM     10  O   UNL     1       5.388  -8.979  23.381  1.00  0.00    -0.550 OA
ATOM     11  O   UNL     1       7.527  -8.584  24.102  1.00  0.00    -0.550 OA
ENDBRANCH   8   9
ENDBRANCH   7   8
ENDBRANCH   6   7
ENDBRANCH   5   6
ENDBRANCH   4   5
ENDBRANCH   3   4
ENDBRANCH   2   3
ENDBRANCH   1   2
BRANCH   1  12
ATOM     12  C   UNL     1       5.844  -1.524  21.499  1.00  0.00     0.000 C 
BRANCH  12  13
ATOM     13  C   UNL     1       5.014  -2.535  22.307  1.00  0.00    -0.000 C 
BRANCH  13  14
ATOM     14  C   UNL     1       3.511  -2.222  22.280  1.00  0.00    -0.000 C 
BRANCH  14  15
ATOM     15  C   UNL     1       3.157  -1.327  21.086  1.00  0.00    -0.000 C 
BRANCH  15  16
ATOM     16  C   UNL     1       2.456  -2.129  19.984  1.00  0.00    -0.000 C 
BRANCH  16  17
ATOM     17  C   UNL     1       2.215  -1.265  18.738  1.00  0.00    -0.000 C 
BRANCH  17  18
ATOM     18  C   UNL     1       2.574   0.217  18.976  1.00  0.00    -0.000 C 
BRANCH  18  19
ATOM     19  C   UNL     1       1.385   1.175  18.792  1.00  0.00    -0.003 C 
ATOM     20  C   UNL     1       1.385   1.873  17.432  1.00  0.00     0.004 C 
ENDBRANCH  18  19
ENDBRANCH  17  18
ENDBRANCH  16  17
ENDBRANCH  15  16
ENDBRANCH  14  15
ENDBRANCH  13  14
ENDBRANCH  12  13
ENDBRANCH   1  12
TORSDOF 16
ENDMDL
MODEL 6
REMARK VINA RESULT:    -6.726      4.408     10.390
REMARK INTER + INTRA:         -14.381
REMARK INTER:                 -13.841
REMARK INTRA:                  -0.540
REMARK UNBOUND:                -1.365
REMARK SMILES CCCCCCCCCCCCCCCCCC(=O)[O-]
REMARK SMILES IDX 10 1 11 2 12 3 13 4 14 5 15 6 16 7 17 8 18 9 19 10 20 11
REMARK SMILES IDX 9 12 8 13 7 14 6 15 5 16 4 17 3 18 2 19 1 20
REMARK H PARENT
REMARK Flexibility Score: inf
ROOT
ATOM      1  C   UNL     1       3.921  -1.943  20.081  1.00  0.00     0.000 C 
ENDROOT
BRANCH   1   2
ATOM      2  C   UNL     1       5.022  -0.880  19.958  1.00  0.00     0.000 C 
BRANCH   2   3
ATOM      3  C   UNL     1       6.164  -1.084  20.968  1.00  0.00     0.000 C 
BRANCH   3   4
ATOM      4  C   UNL     1       6.323  -2.527  21.483  1.00  0.00     0.000 C 
BRANCH   4   5
ATOM      5  C   UNL     1       6.937  -3.494  20.448  1.00  0.00     0.000 C 
BRANCH   5   6
ATOM      6  C   UNL     1       7.603  -4.713  21.112  1.00  0.00     0.000 C 
BRANCH   6   7
ATOM      7  C   UNL     1       6.961  -6.049  20.688  1.00  0.00     0.006 C 
BRANCH   7   8
ATOM      8  C   UNL     1       6.374  -6.853  21.861  1.00  0.00     0.053 C 
BRANCH   8   9
ATOM      9  C   UNL     1       6.978  -8.217  21.978  1.00  0.00     0.041 C 
ATOM     10  O   UNL     1       6.557  -9.023  22.850  1.00  0.00    -0.550 OA
ATOM     11  O   UNL     1       8.003  -8.602  21.123  1.00  0.00    -0.550 OA
ENDBRANCH   8   9
ENDBRANCH   7   8
ENDBRANCH   6   7
ENDBRANCH   5   6
ENDBRANCH   4   5
ENDBRANCH   3   4
ENDBRANCH   2   3
ENDBRANCH   1   2
BRANCH   1  12
ATOM     12  C   UNL     1       2.582  -1.407  19.553  1.00  0.00     0.000 C 
BRANCH  12  13
ATOM     13  C   UNL     1       2.757  -0.234  18.574  1.00  0.00    -0.000 C 
BRANCH  13  14
ATOM     14  C   UNL     1       1.418   0.310  18.057  1.00  0.00    -0.000 C 
BRANCH  14  15
ATOM     15  C   UNL     1       1.208   1.763  18.498  1.00  0.00    -0.000 C 
BRANCH  15  16
ATOM     16  C   UNL     1       1.172   2.706  17.289  1.00  0.00    -0.000 C 
BRANCH  16  17
ATOM     17  C   UNL     1       0.878   4.150  17.721  1.00  0.00    -0.000 C 
BRANCH  17  18
ATOM     18  C   UNL     1       2.001   5.124  17.309  1.00  0.00    -0.000 C 
BRANCH  18  19
ATOM     19  C   UNL     1       1.516   6.288  16.429  1.00  0.00    -0.003 C 
ATOM     20  C   UNL     1       2.659   7.042  15.751  1.00  0.00     0.004 C 
ENDBRANCH  18  19
ENDBRANCH  17  18
ENDBRANCH  16  17
ENDBRANCH  15  16
ENDBRANCH  14  15
ENDBRANCH  13  14
ENDBRANCH  12  13
ENDBRANCH   1  12
TORSDOF 16
ENDMDL
MODEL 7
REMARK VINA RESULT:    -6.655      4.272      8.685
REMARK INTER + INTRA:         -14.245
REMARK INTER:                 -12.871
REMARK INTRA:                  -1.374
REMARK UNBOUND:                -1.365
REMARK SMILES CCCCCCCCCCCCCCCCCC(=O)[O-]
REMARK SMILES IDX 10 1 11 2 12 3 13 4 14 5 15 6 16 7 17 8 18 9 19 10 20 11
REMARK SMILES IDX 9 12 8 13 7 14 6 15 5 16 4 17 3 18 2 19 1 20
REMARK H PARENT
REMARK Flexibility Score: inf
ROOT
ATOM      1  C   UNL     1       4.347  -2.519  21.852  1.00  0.00     0.000 C 
ENDROOT
BRANCH   1   2
ATOM      2  C   UNL     1       5.843  -2.475  22.196  1.00  0.00     0.000 C 
BRANCH   2   3
ATOM      3  C   UNL     1       6.729  -2.199  20.970  1.00  0.00     0.000 C 
BRANCH   3   4
ATOM      4  C   UNL     1       7.232  -3.458  20.238  1.00  0.00     0.000 C 
BRANCH   4   5
ATOM      5  C   UNL     1       7.837  -4.524  21.176  1.00  0.00     0.000 C 
BRANCH   5   6
ATOM      6  C   UNL     1       7.120  -5.882  21.054  1.00  0.00     0.000 C 
BRANCH   6   7
ATOM      7  C   UNL     1       7.979  -7.058  21.562  1.00  0.00     0.006 C 
BRANCH   7   8
ATOM      8  C   UNL     1       7.372  -8.440  21.263  1.00  0.00     0.053 C 
BRANCH   8   9
ATOM      9  C   UNL     1       6.866  -9.120  22.496  1.00  0.00     0.041 C 
ATOM     10  O   UNL     1       6.111 -10.125  22.401  1.00  0.00    -0.550 OA
ATOM     11  O   UNL     1       7.229  -8.649  23.752  1.00  0.00    -0.550 OA
ENDBRANCH   8   9
ENDBRANCH   7   8
ENDBRANCH   6   7
ENDBRANCH   5   6
ENDBRANCH   4   5
ENDBRANCH   3   4
ENDBRANCH   2   3
ENDBRANCH   1   2
BRANCH   1  12
ATOM     12  C   UNL     1       4.090  -3.439  20.650  1.00  0.00     0.000 C 
BRANCH  12  13
ATOM     13  C   UNL     1       3.266  -2.756  19.545  1.00  0.00    -0.000 C 
BRANCH  13  14
ATOM     14  C   UNL     1       2.244  -1.755  20.103  1.00  0.00    -0.000 C 
BRANCH  14  15
ATOM     15  C   UNL     1       1.338  -1.216  18.990  1.00  0.00    -0.000 C 
BRANCH  15  16
ATOM     16  C   UNL     1       1.068   0.282  19.176  1.00  0.00    -0.000 C 
BRANCH  16  17
ATOM     17  C   UNL     1       2.288   1.119  18.763  1.00  0.00    -0.000 C 
BRANCH  17  18
ATOM     18  C   UNL     1       3.165   0.398  17.718  1.00  0.00    -0.000 C 
BRANCH  18  19
ATOM     19  C   UNL     1       4.632   0.237  18.151  1.00  0.00    -0.003 C 
ATOM     20  C   UNL     1       4.874   0.639  19.606  1.00  0.00     0.004 C 
ENDBRANCH  18  19
ENDBRANCH  17  18
ENDBRANCH  16  17
ENDBRANCH  15  16
ENDBRANCH  14  15
ENDBRANCH  13  14
ENDBRANCH  12  13
ENDBRANCH   1  12
TORSDOF 16
ENDMDL
MODEL 8
REMARK VINA RESULT:    -6.563      4.773     11.098
REMARK INTER + INTRA:         -14.066
REMARK INTER:                 -13.407
REMARK INTRA:                  -0.659
REMARK UNBOUND:                -1.365
REMARK SMILES CCCCCCCCCCCCCCCCCC(=O)[O-]
REMARK SMILES IDX 10 1 11 2 12 3 13 4 14 5 15 6 16 7 17 8 18 9 19 10 20 11
REMARK SMILES IDX 9 12 8 13 7 14 6 15 5 16 4 17 3 18 2 19 1 20
REMARK H PARENT
REMARK Flexibility Score: inf
ROOT
ATOM      1  C   UNL     1       3.430  -0.068  18.717  1.00  0.00     0.000 C 
ENDROOT
BRANCH   1   2
ATOM      2  C   UNL     1       3.514  -1.029  19.913  1.00  0.00     0.000 C 
BRANCH   2   3
ATOM      3  C   UNL     1       3.458  -2.507  19.495  1.00  0.00     0.000 C 
BRANCH   3   4
ATOM      4  C   UNL     1       4.782  -3.278  19.658  1.00  0.00     0.000 C 
BRANCH   4   5
ATOM      5  C   UNL     1       5.842  -2.526  20.492  1.00  0.00     0.000 C 
BRANCH   5   6
ATOM      6  C   UNL     1       6.567  -3.452  21.485  1.00  0.00     0.000 C 
BRANCH   6   7
ATOM      7  C   UNL     1       6.113  -4.922  21.372  1.00  0.00     0.006 C 
BRANCH   7   8
ATOM      8  C   UNL     1       7.110  -5.822  20.624  1.00  0.00     0.053 C 
BRANCH   8   9
ATOM      9  C   UNL     1       7.432  -7.072  21.381  1.00  0.00     0.041 C 
ATOM     10  O   UNL     1       7.932  -7.003  22.535  1.00  0.00    -0.550 OA
ATOM     11  O   UNL     1       7.176  -8.315  20.815  1.00  0.00    -0.550 OA
ENDBRANCH   8   9
ENDBRANCH   7   8
ENDBRANCH   6   7
ENDBRANCH   5   6
ENDBRANCH   4   5
ENDBRANCH   3   4
ENDBRANCH   2   3
ENDBRANCH   1   2
BRANCH   1  12
ATOM     12  C   UNL     1       2.081   0.665  18.698  1.00  0.00     0.000 C 
BRANCH  12  13
ATOM     13  C   UNL     1       1.839   1.429  17.386  1.00  0.00    -0.000 C 
BRANCH  13  14
ATOM     14  C   UNL     1       0.875   2.611  17.559  1.00  0.00    -0.000 C 
BRANCH  14  15
ATOM     15  C   UNL     1       1.644   3.918  17.789  1.00  0.00    -0.000 C 
BRANCH  15  16
ATOM     16  C   UNL     1       0.991   5.082  17.035  1.00  0.00    -0.000 C 
BRANCH  16  17
ATOM     17  C   UNL     1       1.935   6.290  16.957  1.00  0.00    -0.000 C 
BRANCH  17  18
ATOM     18  C   UNL     1       2.574   6.444  15.561  1.00  0.00    -0.000 C 
BRANCH  18  19
ATOM     19  C   UNL     1       2.544   7.885  15.025  1.00  0.00    -0.003 C 
ATOM     20  C   UNL     1       1.995   8.889  16.038  1.00  0.00     0.004 C 
ENDBRANCH  18  19
ENDBRANCH  17  18
ENDBRANCH  16  17
ENDBRANCH  15  16
ENDBRANCH  14  15
ENDBRANCH  13  14
ENDBRANCH  12  13
ENDBRANCH   1  12
TORSDOF 16
ENDMDL
