MODEL 1
REMARK VINA RESULT:    -8.076      0.000      0.000
REMARK INTER + INTRA:          -9.789
REMARK INTER:                  -9.492
REMARK INTRA:                  -0.297
REMARK UNBOUND:                -0.297
REMARK SMILES O=c1cc(-c2ccc(O)c(O)c2)oc2cc(O)cc(O)c12
REMARK SMILES IDX 4 1 3 2 2 3 1 4 21 5 19 6 18 7 16 8 15 9 14 10 13 11 5 12
REMARK SMILES IDX 6 13 7 14 8 15 12 16 10 17 9 18 11 20 20 22 17 24
REMARK H PARENT 9 19 11 21 20 23 17 25
REMARK Flexibility Score: inf
ROOT
ATOM      1  C   UNL     1      50.877  58.389   6.719  1.00  0.00     0.138 A 
ATOM      2  C   UNL     1      49.771  58.438   7.578  1.00  0.00     0.100 A 
ATOM      3  C   UNL     1      48.488  58.235   7.065  1.00  0.00     0.197 A 
ATOM      4  O   UNL     1      47.510  58.346   7.849  1.00  0.00    -0.289 OA
ATOM      5  C   UNL     1      48.318  57.950   5.690  1.00  0.00     0.107 A 
ATOM      6  C   UNL     1      47.063  57.686   5.064  1.00  0.00     0.134 A 
ATOM      7  C   UNL     1      47.004  57.532   3.674  1.00  0.00     0.093 A 
ATOM      8  C   UNL     1      48.159  57.573   2.895  1.00  0.00     0.123 A 
ATOM      9  C   UNL     1      49.399  57.778   3.502  1.00  0.00     0.094 A 
ATOM     10  C   UNL     1      49.487  57.969   4.883  1.00  0.00     0.146 A 
ATOM     11  O   UNL     1      50.684  58.174   5.421  1.00  0.00    -0.456 OA
ENDROOT
BRANCH   1  12
ATOM     12  C   UNL     1      52.262  58.597   7.211  1.00  0.00     0.021 A 
ATOM     13  C   UNL     1      52.562  59.567   8.188  1.00  0.00     0.016 A 
ATOM     14  C   UNL     1      53.873  59.734   8.641  1.00  0.00     0.051 A 
ATOM     15  C   UNL     1      54.904  58.936   8.135  1.00  0.00     0.157 A 
ATOM     16  C   UNL     1      53.302  57.789   6.717  1.00  0.00     0.062 A 
ATOM     17  C   UNL     1      54.618  57.957   7.170  1.00  0.00     0.158 A 
BRANCH  15  18
ATOM     18  O   UNL     1      56.202  59.130   8.606  1.00  0.00    -0.504 OA
ATOM     19  H   UNL     1      56.771  59.914   8.308  1.00  0.00     0.293 HD
ENDBRANCH  15  18
BRANCH  17  20
ATOM     20  O   UNL     1      55.641  57.157   6.665  1.00  0.00    -0.504 OA
ATOM     21  H   UNL     1      56.379  56.799   7.261  1.00  0.00     0.293 HD
ENDBRANCH  17  20
ENDBRANCH   1  12
BRANCH   6  22
ATOM     22  O   UNL     1      45.859  57.541   5.760  1.00  0.00    -0.507 OA
ATOM     23  H   UNL     1      45.119  56.904   5.508  1.00  0.00     0.293 HD
ENDBRANCH   6  22
BRANCH   8  24
ATOM     24  O   UNL     1      48.064  57.400   1.515  1.00  0.00    -0.508 OA
ATOM     25  H   UNL     1      47.610  56.588   1.112  1.00  0.00     0.293 HD
ENDBRANCH   8  24
TORSDOF 5
ENDMDL
MODEL 2
REMARK VINA RESULT:    -8.066      1.021      1.740
REMARK INTER + INTRA:          -9.777
REMARK INTER:                  -9.493
REMARK INTRA:                  -0.284
REMARK UNBOUND:                -0.297
REMARK SMILES O=c1cc(-c2ccc(O)c(O)c2)oc2cc(O)cc(O)c12
REMARK SMILES IDX 4 1 3 2 2 3 1 4 21 5 19 6 18 7 16 8 15 9 14 10 13 11 5 12
REMARK SMILES IDX 6 13 7 14 8 15 12 16 10 17 9 18 11 20 20 22 17 24
REMARK H PARENT 9 19 11 21 20 23 17 25
REMARK Flexibility Score: inf
ROOT
ATOM      1  C   UNL     1      50.736  58.847   6.814  1.00  0.00     0.138 A 
ATOM      2  C   UNL     1      49.617  58.752   7.652  1.00  0.00     0.100 A 
ATOM      3  C   UNL     1      48.378  58.405   7.112  1.00  0.00     0.197 A 
ATOM      4  O   UNL     1      47.380  58.388   7.879  1.00  0.00    -0.289 OA
ATOM      5  C   UNL     1      48.267  58.120   5.731  1.00  0.00     0.107 A 
ATOM      6  C   UNL     1      47.064  57.717   5.078  1.00  0.00     0.134 A 
ATOM      7  C   UNL     1      47.048  57.575   3.685  1.00  0.00     0.093 A 
ATOM      8  C   UNL     1      48.204  57.764   2.929  1.00  0.00     0.123 A 
ATOM      9  C   UNL     1      49.400  58.107   3.562  1.00  0.00     0.094 A 
ATOM     10  C   UNL     1      49.439  58.289   4.947  1.00  0.00     0.146 A 
ATOM     11  O   UNL     1      50.593  58.628   5.510  1.00  0.00    -0.456 OA
ENDROOT
BRANCH   1  12
ATOM     12  C   UNL     1      52.078  59.212   7.335  1.00  0.00     0.021 A 
ATOM     13  C   UNL     1      53.259  58.723   6.742  1.00  0.00     0.016 A 
ATOM     14  C   UNL     1      54.509  59.092   7.245  1.00  0.00     0.051 A 
ATOM     15  C   UNL     1      54.605  59.956   8.340  1.00  0.00     0.157 A 
ATOM     16  C   UNL     1      52.182  60.092   8.427  1.00  0.00     0.062 A 
ATOM     17  C   UNL     1      53.437  60.461   8.933  1.00  0.00     0.158 A 
BRANCH  15  18
ATOM     18  O   UNL     1      55.868  60.303   8.820  1.00  0.00    -0.504 OA
ATOM     19  H   UNL     1      56.527  60.836   8.264  1.00  0.00     0.293 HD
ENDBRANCH  15  18
BRANCH  17  20
ATOM     20  O   UNL     1      53.526  61.326  10.023  1.00  0.00    -0.504 OA
ATOM     21  H   UNL     1      54.109  61.113  10.824  1.00  0.00     0.293 HD
ENDBRANCH  17  20
ENDBRANCH   1  12
BRANCH   6  22
ATOM     22  O   UNL     1      45.873  57.420   5.749  1.00  0.00    -0.507 OA
ATOM     23  H   UNL     1      45.733  56.624   6.351  1.00  0.00     0.293 HD
ENDBRANCH   6  22
BRANCH   8  24
ATOM     24  O   UNL     1      48.155  57.599   1.546  1.00  0.00    -0.508 OA
ATOM     25  H   UNL     1      47.478  56.986   1.108  1.00  0.00     0.293 HD
ENDBRANCH   8  24
TORSDOF 5
ENDMDL
MODEL 3
REMARK VINA RESULT:    -7.971      7.121      9.462
REMARK INTER + INTRA:          -9.666
REMARK INTER:                  -9.381
REMARK INTRA:                  -0.285
REMARK UNBOUND:                -0.297
REMARK SMILES O=c1cc(-c2ccc(O)c(O)c2)oc2cc(O)cc(O)c12
REMARK SMILES IDX 4 1 3 2 2 3 1 4 21 5 19 6 18 7 16 8 15 9 14 10 13 11 5 12
REMARK SMILES IDX 6 13 7 14 8 15 12 16 10 17 9 18 11 20 20 22 17 24
REMARK H PARENT 9 19 11 21 20 23 17 25
REMARK Flexibility Score: inf
ROOT
ATOM      1  C   UNL     1      52.590  61.624  -0.249  1.00  0.00     0.138 A 
ATOM      2  C   UNL     1      52.245  62.698  -1.078  1.00  0.00     0.100 A 
ATOM      3  C   UNL     1      52.129  63.980  -0.537  1.00  0.00     0.197 A 
ATOM      4  O   UNL     1      51.758  64.914  -1.294  1.00  0.00    -0.289 OA
ATOM      5  C   UNL     1      52.394  64.189   0.837  1.00  0.00     0.107 A 
ATOM      6  C   UNL     1      52.348  65.457   1.491  1.00  0.00     0.134 A 
ATOM      7  C   UNL     1      52.514  65.524   2.879  1.00  0.00     0.093 A 
ATOM      8  C   UNL     1      52.783  64.381   3.629  1.00  0.00     0.123 A 
ATOM      9  C   UNL     1      52.883  63.142   2.994  1.00  0.00     0.094 A 
ATOM     10  C   UNL     1      52.689  63.037   1.614  1.00  0.00     0.146 A 
ATOM     11  O   UNL     1      52.779  61.838   1.050  1.00  0.00    -0.456 OA
ENDROOT
BRANCH   1  12
ATOM     12  C   UNL     1      52.727  60.240  -0.772  1.00  0.00     0.021 A 
ATOM     13  C   UNL     1      53.597  59.307  -0.176  1.00  0.00     0.016 A 
ATOM     14  C   UNL     1      53.698  58.009  -0.681  1.00  0.00     0.051 A 
ATOM     15  C   UNL     1      52.931  57.617  -1.782  1.00  0.00     0.157 A 
ATOM     16  C   UNL     1      51.949  59.835  -1.871  1.00  0.00     0.062 A 
ATOM     17  C   UNL     1      52.050  58.532  -2.380  1.00  0.00     0.158 A 
BRANCH  15  18
ATOM     18  O   UNL     1      53.056  56.314  -2.265  1.00  0.00    -0.504 OA
ATOM     19  H   UNL     1      53.939  55.949  -2.605  1.00  0.00     0.293 HD
ENDBRANCH  15  18
BRANCH  17  20
ATOM     20  O   UNL     1      51.280  58.146  -3.476  1.00  0.00    -0.504 OA
ATOM     21  H   UNL     1      50.900  58.827  -4.124  1.00  0.00     0.293 HD
ENDBRANCH  17  20
ENDBRANCH   1  12
BRANCH   6  22
ATOM     22  O   UNL     1      52.169  66.673   0.823  1.00  0.00    -0.507 OA
ATOM     23  H   UNL     1      52.718  67.503   0.979  1.00  0.00     0.293 HD
ENDBRANCH   6  22
BRANCH   8  24
ATOM     24  O   UNL     1      52.958  64.488   5.008  1.00  0.00    -0.508 OA
ATOM     25  H   UNL     1      53.451  65.271   5.420  1.00  0.00     0.293 HD
ENDBRANCH   8  24
TORSDOF 5
ENDMDL
MODEL 4
REMARK VINA RESULT:    -7.836      7.091      9.296
REMARK INTER + INTRA:          -9.507
REMARK INTER:                  -9.238
REMARK INTRA:                  -0.269
REMARK UNBOUND:                -0.297
REMARK SMILES O=c1cc(-c2ccc(O)c(O)c2)oc2cc(O)cc(O)c12
REMARK SMILES IDX 4 1 3 2 2 3 1 4 21 5 19 6 18 7 16 8 15 9 14 10 13 11 5 12
REMARK SMILES IDX 6 13 7 14 8 15 12 16 10 17 9 18 11 20 20 22 17 24
REMARK H PARENT 9 19 11 21 20 23 17 25
REMARK Flexibility Score: inf
ROOT
ATOM      1  C   UNL     1      52.602  61.530  -0.270  1.00  0.00     0.138 A 
ATOM      2  C   UNL     1      52.261  62.590  -1.121  1.00  0.00     0.100 A 
ATOM      3  C   UNL     1      52.151  63.882  -0.605  1.00  0.00     0.197 A 
ATOM      4  O   UNL     1      51.784  64.803  -1.380  1.00  0.00    -0.289 OA
ATOM      5  C   UNL     1      52.415  64.117   0.765  1.00  0.00     0.107 A 
ATOM      6  C   UNL     1      52.374  65.398   1.394  1.00  0.00     0.134 A 
ATOM      7  C   UNL     1      52.539  65.492   2.780  1.00  0.00     0.093 A 
ATOM      8  C   UNL     1      52.803  64.362   3.553  1.00  0.00     0.123 A 
ATOM      9  C   UNL     1      52.899  63.111   2.942  1.00  0.00     0.094 A 
ATOM     10  C   UNL     1      52.705  62.980   1.565  1.00  0.00     0.146 A 
ATOM     11  O   UNL     1      52.790  61.769   1.024  1.00  0.00    -0.456 OA
ENDROOT
BRANCH   1  12
ATOM     12  C   UNL     1      52.732  60.137  -0.766  1.00  0.00     0.021 A 
ATOM     13  C   UNL     1      51.616  59.404  -1.214  1.00  0.00     0.016 A 
ATOM     14  C   UNL     1      51.769  58.098  -1.686  1.00  0.00     0.051 A 
ATOM     15  C   UNL     1      53.034  57.503  -1.726  1.00  0.00     0.157 A 
ATOM     16  C   UNL     1      54.003  59.537  -0.822  1.00  0.00     0.062 A 
ATOM     17  C   UNL     1      54.158  58.226  -1.295  1.00  0.00     0.158 A 
BRANCH  15  18
ATOM     18  O   UNL     1      53.153  56.197  -2.201  1.00  0.00    -0.504 OA
ATOM     19  H   UNL     1      53.825  55.944  -2.916  1.00  0.00     0.293 HD
ENDBRANCH  15  18
BRANCH  17  20
ATOM     20  O   UNL     1      55.422  57.640  -1.336  1.00  0.00    -0.504 OA
ATOM     21  H   UNL     1      56.229  58.142  -1.688  1.00  0.00     0.293 HD
ENDBRANCH  17  20
ENDBRANCH   1  12
BRANCH   6  22
ATOM     22  O   UNL     1      52.201  66.601   0.702  1.00  0.00    -0.507 OA
ATOM     23  H   UNL     1      52.326  67.518   1.100  1.00  0.00     0.293 HD
ENDBRANCH   6  22
BRANCH   8  24
ATOM     24  O   UNL     1      52.977  64.495   4.930  1.00  0.00    -0.508 OA
ATOM     25  H   UNL     1      53.886  64.378   5.362  1.00  0.00     0.293 HD
ENDBRANCH   8  24
TORSDOF 5
ENDMDL
MODEL 5
REMARK VINA RESULT:    -7.749      8.490     10.664
REMARK INTER + INTRA:          -9.405
REMARK INTER:                  -9.091
REMARK INTRA:                  -0.314
REMARK UNBOUND:                -0.297
REMARK SMILES O=c1cc(-c2ccc(O)c(O)c2)oc2cc(O)cc(O)c12
REMARK SMILES IDX 4 1 3 2 2 3 1 4 21 5 19 6 18 7 16 8 15 9 14 10 13 11 5 12
REMARK SMILES IDX 6 13 7 14 8 15 12 16 10 17 9 18 11 20 20 22 17 24
REMARK H PARENT 9 19 11 21 20 23 17 25
REMARK Flexibility Score: inf
ROOT
ATOM      1  C   UNL     1      47.844  66.152   2.666  1.00  0.00     0.138 A 
ATOM      2  C   UNL     1      49.040  66.870   2.793  1.00  0.00     0.100 A 
ATOM      3  C   UNL     1      50.208  66.375   2.212  1.00  0.00     0.197 A 
ATOM      4  O   UNL     1      51.279  67.010   2.395  1.00  0.00    -0.289 OA
ATOM      5  C   UNL     1      50.170  65.170   1.472  1.00  0.00     0.107 A 
ATOM      6  C   UNL     1      51.288  64.590   0.802  1.00  0.00     0.134 A 
ATOM      7  C   UNL     1      51.157  63.334   0.199  1.00  0.00     0.093 A 
ATOM      8  C   UNL     1      49.935  62.663   0.189  1.00  0.00     0.123 A 
ATOM      9  C   UNL     1      48.820  63.244   0.796  1.00  0.00     0.094 A 
ATOM     10  C   UNL     1      48.927  64.481   1.436  1.00  0.00     0.146 A 
ATOM     11  O   UNL     1      47.846  64.994   2.013  1.00  0.00    -0.456 OA
ENDROOT
BRANCH   1  12
ATOM     12  C   UNL     1      46.572  66.633   3.264  1.00  0.00     0.021 A 
ATOM     13  C   UNL     1      46.399  67.976   3.650  1.00  0.00     0.016 A 
ATOM     14  C   UNL     1      45.188  68.404   4.200  1.00  0.00     0.051 A 
ATOM     15  C   UNL     1      44.130  67.506   4.368  1.00  0.00     0.157 A 
ATOM     16  C   UNL     1      45.499  65.738   3.424  1.00  0.00     0.062 A 
ATOM     17  C   UNL     1      44.284  66.166   3.977  1.00  0.00     0.158 A 
BRANCH  15  18
ATOM     18  O   UNL     1      42.935  67.963   4.923  1.00  0.00    -0.504 OA
ATOM     19  H   UNL     1      42.199  67.329   5.214  1.00  0.00     0.293 HD
ENDBRANCH  15  18
BRANCH  17  20
ATOM     20  O   UNL     1      43.232  65.266   4.139  1.00  0.00    -0.504 OA
ATOM     21  H   UNL     1      42.367  65.361   3.618  1.00  0.00     0.293 HD
ENDBRANCH  17  20
ENDBRANCH   1  12
BRANCH   6  22
ATOM     22  O   UNL     1      52.533  65.215   0.679  1.00  0.00    -0.507 OA
ATOM     23  H   UNL     1      52.876  65.659  -0.159  1.00  0.00     0.293 HD
ENDBRANCH   6  22
BRANCH   8  24
ATOM     24  O   UNL     1      49.837  61.420  -0.434  1.00  0.00    -0.508 OA
ATOM     25  H   UNL     1      50.171  60.575   0.015  1.00  0.00     0.293 HD
ENDBRANCH   8  24
TORSDOF 5
ENDMDL
MODEL 6
REMARK VINA RESULT:    -7.721      1.900      7.012
REMARK INTER + INTRA:          -9.371
REMARK INTER:                  -9.091
REMARK INTRA:                  -0.281
REMARK UNBOUND:                -0.297
REMARK SMILES O=c1cc(-c2ccc(O)c(O)c2)oc2cc(O)cc(O)c12
REMARK SMILES IDX 4 1 3 2 2 3 1 4 21 5 19 6 18 7 16 8 15 9 14 10 13 11 5 12
REMARK SMILES IDX 6 13 7 14 8 15 12 16 10 17 9 18 11 20 20 22 17 24
REMARK H PARENT 9 19 11 21 20 23 17 25
REMARK Flexibility Score: inf
ROOT
ATOM      1  C   UNL     1      50.822  59.821   6.812  1.00  0.00     0.138 A 
ATOM      2  C   UNL     1      51.273  60.805   7.702  1.00  0.00     0.100 A 
ATOM      3  C   UNL     1      52.564  60.721   8.227  1.00  0.00     0.197 A 
ATOM      4  O   UNL     1      52.920  61.585   9.070  1.00  0.00    -0.289 OA
ATOM      5  C   UNL     1      53.417  59.664   7.831  1.00  0.00     0.107 A 
ATOM      6  C   UNL     1      54.766  59.499   8.269  1.00  0.00     0.134 A 
ATOM      7  C   UNL     1      55.475  58.350   7.902  1.00  0.00     0.093 A 
ATOM      8  C   UNL     1      54.908  57.389   7.067  1.00  0.00     0.123 A 
ATOM      9  C   UNL     1      53.608  57.564   6.590  1.00  0.00     0.094 A 
ATOM     10  C   UNL     1      52.862  58.684   6.965  1.00  0.00     0.146 A 
ATOM     11  O   UNL     1      51.623  58.808   6.501  1.00  0.00    -0.456 OA
ENDROOT
BRANCH   1  12
ATOM     12  C   UNL     1      49.458  59.861   6.225  1.00  0.00     0.021 A 
ATOM     13  C   UNL     1      49.020  60.951   5.448  1.00  0.00     0.016 A 
ATOM     14  C   UNL     1      47.736  60.958   4.898  1.00  0.00     0.051 A 
ATOM     15  C   UNL     1      46.871  59.879   5.105  1.00  0.00     0.157 A 
ATOM     16  C   UNL     1      48.588  58.773   6.417  1.00  0.00     0.062 A 
ATOM     17  C   UNL     1      47.299  58.780   5.866  1.00  0.00     0.158 A 
BRANCH  15  18
ATOM     18  O   UNL     1      45.595  59.917   4.544  1.00  0.00    -0.504 OA
ATOM     19  H   UNL     1      45.391  59.498   3.643  1.00  0.00     0.293 HD
ENDBRANCH  15  18
BRANCH  17  20
ATOM     20  O   UNL     1      46.443  57.699   6.073  1.00  0.00    -0.504 OA
ATOM     21  H   UNL     1      46.403  56.922   5.424  1.00  0.00     0.293 HD
ENDBRANCH  17  20
ENDBRANCH   1  12
BRANCH   6  22
ATOM     22  O   UNL     1      55.457  60.442   9.037  1.00  0.00    -0.507 OA
ATOM     23  H   UNL     1      55.666  61.383   8.744  1.00  0.00     0.293 HD
ENDBRANCH   6  22
BRANCH   8  24
ATOM     24  O   UNL     1      55.649  56.263   6.711  1.00  0.00    -0.508 OA
ATOM     25  H   UNL     1      55.697  55.448   7.311  1.00  0.00     0.293 HD
ENDBRANCH   8  24
TORSDOF 5
ENDMDL
MODEL 7
REMARK VINA RESULT:    -7.434      1.433      7.046
REMARK INTER + INTRA:          -9.034
REMARK INTER:                  -8.768
REMARK INTRA:                  -0.266
REMARK UNBOUND:                -0.297
REMARK SMILES O=c1cc(-c2ccc(O)c(O)c2)oc2cc(O)cc(O)c12
REMARK SMILES IDX 4 1 3 2 2 3 1 4 21 5 19 6 18 7 16 8 15 9 14 10 13 11 5 12
REMARK SMILES IDX 6 13 7 14 8 15 12 16 10 17 9 18 11 20 20 22 17 24
REMARK H PARENT 9 19 11 21 20 23 17 25
REMARK Flexibility Score: inf
ROOT
ATOM      1  C   UNL     1      50.581  58.817   5.923  1.00  0.00     0.138 A 
ATOM      2  C   UNL     1      50.547  60.025   6.631  1.00  0.00     0.100 A 
ATOM      3  C   UNL     1      51.655  60.417   7.383  1.00  0.00     0.197 A 
ATOM      4  O   UNL     1      51.572  61.477   8.057  1.00  0.00    -0.289 OA
ATOM      5  C   UNL     1      52.816  59.608   7.398  1.00  0.00     0.107 A 
ATOM      6  C   UNL     1      54.020  59.926   8.096  1.00  0.00     0.134 A 
ATOM      7  C   UNL     1      55.063  58.993   8.134  1.00  0.00     0.093 A 
ATOM      8  C   UNL     1      54.970  57.780   7.453  1.00  0.00     0.123 A 
ATOM      9  C   UNL     1      53.818  57.481   6.723  1.00  0.00     0.094 A 
ATOM     10  C   UNL     1      52.747  58.377   6.693  1.00  0.00     0.146 A 
ATOM     11  O   UNL     1      51.663  58.048   5.999  1.00  0.00    -0.456 OA
ENDROOT
BRANCH   1  12
ATOM     12  C   UNL     1      49.430  58.352   5.107  1.00  0.00     0.021 A 
ATOM     13  C   UNL     1      49.568  58.052   3.738  1.00  0.00     0.016 A 
ATOM     14  C   UNL     1      48.471  57.606   2.997  1.00  0.00     0.051 A 
ATOM     15  C   UNL     1      47.224  57.444   3.606  1.00  0.00     0.157 A 
ATOM     16  C   UNL     1      48.175  58.175   5.716  1.00  0.00     0.062 A 
ATOM     17  C   UNL     1      47.074  57.728   4.973  1.00  0.00     0.158 A 
BRANCH  15  18
ATOM     18  O   UNL     1      46.148  57.000   2.838  1.00  0.00    -0.504 OA
ATOM     19  H   UNL     1      46.158  56.101   2.368  1.00  0.00     0.293 HD
ENDBRANCH  15  18
BRANCH  17  20
ATOM     20  O   UNL     1      45.833  57.565   5.587  1.00  0.00    -0.504 OA
ATOM     21  H   UNL     1      44.967  57.688   5.075  1.00  0.00     0.293 HD
ENDBRANCH  17  20
ENDBRANCH   1  12
BRANCH   6  22
ATOM     22  O   UNL     1      54.250  61.146   8.740  1.00  0.00    -0.507 OA
ATOM     23  H   UNL     1      54.474  62.011   8.274  1.00  0.00     0.293 HD
ENDBRANCH   6  22
BRANCH   8  24
ATOM     24  O   UNL     1      56.034  56.881   7.501  1.00  0.00    -0.508 OA
ATOM     25  H   UNL     1      55.894  55.887   7.360  1.00  0.00     0.293 HD
ENDBRANCH   8  24
TORSDOF 5
ENDMDL
MODEL 8
REMARK VINA RESULT:    -7.372      7.325      8.393
REMARK INTER + INTRA:          -8.961
REMARK INTER:                  -8.654
REMARK INTRA:                  -0.307
REMARK UNBOUND:                -0.297
REMARK SMILES O=c1cc(-c2ccc(O)c(O)c2)oc2cc(O)cc(O)c12
REMARK SMILES IDX 4 1 3 2 2 3 1 4 21 5 19 6 18 7 16 8 15 9 14 10 13 11 5 12
REMARK SMILES IDX 6 13 7 14 8 15 12 16 10 17 9 18 11 20 20 22 17 24
REMARK H PARENT 9 19 11 21 20 23 17 25
REMARK Flexibility Score: inf
ROOT
ATOM      1  C   UNL     1      52.310  61.912   0.376  1.00  0.00     0.138 A 
ATOM      2  C   UNL     1      51.200  61.425  -0.326  1.00  0.00     0.100 A 
ATOM      3  C   UNL     1      51.270  60.179  -0.951  1.00  0.00     0.197 A 
ATOM      4  O   UNL     1      50.280  59.795  -1.625  1.00  0.00    -0.289 OA
ATOM      5  C   UNL     1      52.449  59.404  -0.843  1.00  0.00     0.107 A 
ATOM      6  C   UNL     1      52.621  58.102  -1.403  1.00  0.00     0.134 A 
ATOM      7  C   UNL     1      53.873  57.480  -1.332  1.00  0.00     0.093 A 
ATOM      8  C   UNL     1      54.941  58.083  -0.670  1.00  0.00     0.123 A 
ATOM      9  C   UNL     1      54.770  59.333  -0.072  1.00  0.00     0.094 A 
ATOM     10  C   UNL     1      53.543  59.995  -0.155  1.00  0.00     0.146 A 
ATOM     11  O   UNL     1      53.424  61.188   0.415  1.00  0.00    -0.456 OA
ENDROOT
BRANCH   1  12
ATOM     12  C   UNL     1      52.290  63.231   1.059  1.00  0.00     0.021 A 
ATOM     13  C   UNL     1      51.453  64.276   0.623  1.00  0.00     0.016 A 
ATOM     14  C   UNL     1      51.445  65.503   1.291  1.00  0.00     0.051 A 
ATOM     15  C   UNL     1      52.264  65.707   2.406  1.00  0.00     0.157 A 
ATOM     16  C   UNL     1      53.100  63.439   2.189  1.00  0.00     0.062 A 
ATOM     17  C   UNL     1      53.095  64.671   2.860  1.00  0.00     0.158 A 
BRANCH  15  18
ATOM     18  O   UNL     1      52.235  66.945   3.049  1.00  0.00    -0.504 OA
ATOM     19  H   UNL     1      51.889  67.050   3.996  1.00  0.00     0.293 HD
ENDBRANCH  15  18
BRANCH  17  20
ATOM     20  O   UNL     1      53.911  64.867   3.972  1.00  0.00    -0.504 OA
ATOM     21  H   UNL     1      54.841  65.259   3.886  1.00  0.00     0.293 HD
ENDBRANCH  17  20
ENDBRANCH   1  12
BRANCH   6  22
ATOM     22  O   UNL     1      51.595  57.374  -2.013  1.00  0.00    -0.507 OA
ATOM     23  H   UNL     1      51.329  56.434  -1.765  1.00  0.00     0.293 HD
ENDBRANCH   6  22
BRANCH   8  24
ATOM     24  O   UNL     1      56.169  57.427  -0.606  1.00  0.00    -0.508 OA
ATOM     25  H   UNL     1      56.465  56.938   0.231  1.00  0.00     0.293 HD
ENDBRANCH   8  24
TORSDOF 5
ENDMDL
MODEL 9
REMARK VINA RESULT:    -7.323      8.559      9.383
REMARK INTER + INTRA:          -8.904
REMARK INTER:                  -8.606
REMARK INTRA:                  -0.298
REMARK UNBOUND:                -0.297
REMARK SMILES O=c1cc(-c2ccc(O)c(O)c2)oc2cc(O)cc(O)c12
REMARK SMILES IDX 4 1 3 2 2 3 1 4 21 5 19 6 18 7 16 8 15 9 14 10 13 11 5 12
REMARK SMILES IDX 6 13 7 14 8 15 12 16 10 17 9 18 11 20 20 22 17 24
REMARK H PARENT 9 19 11 21 20 23 17 25
REMARK Flexibility Score: inf
ROOT
ATOM      1  C   UNL     1      49.409  65.791   2.298  1.00  0.00     0.138 A 
ATOM      2  C   UNL     1      49.496  67.157   2.595  1.00  0.00     0.100 A 
ATOM      3  C   UNL     1      48.380  67.826   3.102  1.00  0.00     0.197 A 
ATOM      4  O   UNL     1      48.469  69.065   3.301  1.00  0.00    -0.289 OA
ATOM      5  C   UNL     1      47.182  67.113   3.341  1.00  0.00     0.107 A 
ATOM      6  C   UNL     1      45.994  67.680   3.894  1.00  0.00     0.134 A 
ATOM      7  C   UNL     1      44.832  66.903   3.977  1.00  0.00     0.093 A 
ATOM      8  C   UNL     1      44.830  65.566   3.584  1.00  0.00     0.123 A 
ATOM      9  C   UNL     1      46.000  64.985   3.092  1.00  0.00     0.094 A 
ATOM     10  C   UNL     1      47.166  65.743   2.965  1.00  0.00     0.146 A 
ATOM     11  O   UNL     1      48.255  65.157   2.480  1.00  0.00    -0.456 OA
ENDROOT
BRANCH   1  12
ATOM     12  C   UNL     1      50.565  65.031   1.757  1.00  0.00     0.021 A 
ATOM     13  C   UNL     1      51.870  65.218   2.252  1.00  0.00     0.016 A 
ATOM     14  C   UNL     1      52.937  64.482   1.733  1.00  0.00     0.051 A 
ATOM     15  C   UNL     1      52.723  63.544   0.719  1.00  0.00     0.157 A 
ATOM     16  C   UNL     1      50.355  64.076   0.746  1.00  0.00     0.062 A 
ATOM     17  C   UNL     1      51.426  63.337   0.223  1.00  0.00     0.158 A 
BRANCH  15  18
ATOM     18  O   UNL     1      53.811  62.826   0.220  1.00  0.00    -0.504 OA
ATOM     19  H   UNL     1      54.556  63.274  -0.301  1.00  0.00     0.293 HD
ENDBRANCH  15  18
BRANCH  17  20
ATOM     20  O   UNL     1      51.206  62.401  -0.786  1.00  0.00    -0.504 OA
ATOM     21  H   UNL     1      50.791  62.664  -1.672  1.00  0.00     0.293 HD
ENDBRANCH  17  20
ENDBRANCH   1  12
BRANCH   6  22
ATOM     22  O   UNL     1      45.912  68.983   4.395  1.00  0.00    -0.507 OA
ATOM     23  H   UNL     1      46.694  69.607   4.509  1.00  0.00     0.293 HD
ENDBRANCH   6  22
BRANCH   8  24
ATOM     24  O   UNL     1      43.658  64.818   3.695  1.00  0.00    -0.508 OA
ATOM     25  H   UNL     1      42.886  65.127   4.274  1.00  0.00     0.293 HD
ENDBRANCH   8  24
TORSDOF 5
ENDMDL
