MODEL 1
REMARK VINA RESULT:    -4.347      0.000      0.000
REMARK INTER + INTRA:          -4.853
REMARK INTER:                  -4.728
REMARK INTRA:                  -0.125
REMARK UNBOUND:                -0.125
REMARK SMILES Cc1ccc(C(C)C)cc1O
REMARK SMILES IDX 1 1 2 2 10 3 9 4 5 5 4 6 3 7 11 8 6 10 7 11 8 12
REMARK H PARENT 11 9
REMARK Flexibility Score: inf
ROOT
ATOM      1  C   UNL     1     161.623 171.806 187.450  1.00  0.00     0.048 C 
ATOM      2  C   UNL     1     161.640 173.307 187.515  1.00  0.00    -0.009 A 
ATOM      3  C   UNL     1     162.850 173.994 187.724  1.00  0.00     0.118 A 
ATOM      4  C   UNL     1     162.858 175.395 187.783  1.00  0.00     0.050 A 
ATOM      5  C   UNL     1     161.667 176.126 187.636  1.00  0.00    -0.042 A 
ATOM      6  C   UNL     1     160.463 175.431 187.427  1.00  0.00     0.004 A 
ATOM      7  C   UNL     1     160.450 174.036 187.367  1.00  0.00     0.007 A 
ENDROOT
BRANCH   3   8
ATOM      8  O   UNL     1     164.039 173.281 187.873  1.00  0.00    -0.508 OA
ATOM      9  H   UNL     1     164.462 173.138 188.783  1.00  0.00     0.293 HD
ENDBRANCH   3   8
BRANCH   5  10
ATOM     10  C   UNL     1     161.694 177.643 187.704  1.00  0.00     0.013 C 
ATOM     11  C   UNL     1     163.108 178.182 187.460  1.00  0.00     0.012 C 
ATOM     12  C   UNL     1     160.691 178.257 186.720  1.00  0.00     0.012 C 
ENDBRANCH   5  10
TORSDOF 2
ENDMDL
MODEL 2
REMARK VINA RESULT:    -4.281      2.623      4.151
REMARK INTER + INTRA:          -4.781
REMARK INTER:                  -4.659
REMARK INTRA:                  -0.122
REMARK UNBOUND:                -0.125
REMARK SMILES Cc1ccc(C(C)C)cc1O
REMARK SMILES IDX 1 1 2 2 10 3 9 4 5 5 4 6 3 7 11 8 6 10 7 11 8 12
REMARK H PARENT 11 9
REMARK Flexibility Score: inf
ROOT
ATOM      1  C   UNL     1     166.715 176.636 185.959  1.00  0.00     0.048 C 
ATOM      2  C   UNL     1     165.306 176.712 186.474  1.00  0.00    -0.009 A 
ATOM      3  C   UNL     1     164.570 177.904 186.349  1.00  0.00     0.118 A 
ATOM      4  C   UNL     1     163.255 177.969 186.832  1.00  0.00     0.050 A 
ATOM      5  C   UNL     1     162.660 176.853 187.444  1.00  0.00    -0.042 A 
ATOM      6  C   UNL     1     163.404 175.665 187.564  1.00  0.00     0.004 A 
ATOM      7  C   UNL     1     164.713 175.597 187.085  1.00  0.00     0.007 A 
ENDROOT
BRANCH   3   8
ATOM      8  O   UNL     1     165.147 179.020 185.745  1.00  0.00    -0.508 OA
ATOM      9  H   UNL     1     166.079 178.987 185.347  1.00  0.00     0.293 HD
ENDBRANCH   3   8
BRANCH   5  10
ATOM     10  C   UNL     1     161.235 176.940 187.962  1.00  0.00     0.013 C 
ATOM     11  C   UNL     1     160.564 178.244 187.516  1.00  0.00     0.012 C 
ATOM     12  C   UNL     1     160.414 175.720 187.529  1.00  0.00     0.012 C 
ENDBRANCH   5  10
TORSDOF 2
ENDMDL
MODEL 3
REMARK VINA RESULT:    -4.260      2.224      2.408
REMARK INTER + INTRA:          -4.759
REMARK INTER:                  -4.659
REMARK INTRA:                  -0.099
REMARK UNBOUND:                -0.125
REMARK SMILES Cc1ccc(C(C)C)cc1O
REMARK SMILES IDX 1 1 2 2 10 3 9 4 5 5 4 6 3 7 11 8 6 10 7 11 8 12
REMARK H PARENT 11 9
REMARK Flexibility Score: inf
ROOT
ATOM      1  C   UNL     1     160.045 172.444 184.875  1.00  0.00     0.048 C 
ATOM      2  C   UNL     1     160.292 173.682 185.690  1.00  0.00    -0.009 A 
ATOM      3  C   UNL     1     160.934 174.793 185.114  1.00  0.00     0.118 A 
ATOM      4  C   UNL     1     161.162 175.945 185.881  1.00  0.00     0.050 A 
ATOM      5  C   UNL     1     160.754 176.004 187.225  1.00  0.00    -0.042 A 
ATOM      6  C   UNL     1     160.112 174.889 187.791  1.00  0.00     0.004 A 
ATOM      7  C   UNL     1     159.883 173.740 187.031  1.00  0.00     0.007 A 
ENDROOT
BRANCH   3   8
ATOM      8  O   UNL     1     161.346 174.748 183.783  1.00  0.00    -0.508 OA
ATOM      9  H   UNL     1     161.874 175.505 183.364  1.00  0.00     0.293 HD
ENDBRANCH   3   8
BRANCH   5  10
ATOM     10  C   UNL     1     161.009 177.259 188.040  1.00  0.00     0.013 C 
ATOM     11  C   UNL     1     162.510 177.494 188.241  1.00  0.00     0.012 C 
ATOM     12  C   UNL     1     160.340 178.481 187.399  1.00  0.00     0.012 C 
ENDBRANCH   5  10
TORSDOF 2
ENDMDL
MODEL 4
REMARK VINA RESULT:    -4.239      9.453     11.179
REMARK INTER + INTRA:          -4.735
REMARK INTER:                  -4.628
REMARK INTRA:                  -0.107
REMARK UNBOUND:                -0.125
REMARK SMILES Cc1ccc(C(C)C)cc1O
REMARK SMILES IDX 1 1 2 2 10 3 9 4 5 5 4 6 3 7 11 8 6 10 7 11 8 12
REMARK H PARENT 11 9
REMARK Flexibility Score: inf
ROOT
ATOM      1  C   UNL     1     169.166 177.130 187.718  1.00  0.00     0.048 C 
ATOM      2  C   UNL     1     170.492 177.832 187.644  1.00  0.00    -0.009 A 
ATOM      3  C   UNL     1     171.688 177.095 187.722  1.00  0.00     0.118 A 
ATOM      4  C   UNL     1     172.923 177.757 187.652  1.00  0.00     0.050 A 
ATOM      5  C   UNL     1     172.982 179.153 187.505  1.00  0.00    -0.042 A 
ATOM      6  C   UNL     1     171.780 179.880 187.427  1.00  0.00     0.004 A 
ATOM      7  C   UNL     1     170.549 179.226 187.496  1.00  0.00     0.007 A 
ENDROOT
BRANCH   3   8
ATOM      8  O   UNL     1     171.646 175.710 187.870  1.00  0.00    -0.508 OA
ATOM      9  H   UNL     1     171.895 175.086 187.110  1.00  0.00     0.293 HD
ENDBRANCH   3   8
BRANCH   5  10
ATOM     10  C   UNL     1     174.327 179.853 187.431  1.00  0.00     0.013 C 
ATOM     11  C   UNL     1     175.408 179.051 188.163  1.00  0.00     0.012 C 
ATOM     12  C   UNL     1     174.729 180.125 185.977  1.00  0.00     0.012 C 
ENDBRANCH   5  10
TORSDOF 2
ENDMDL
MODEL 5
REMARK VINA RESULT:    -4.203      3.534      4.847
REMARK INTER + INTRA:          -4.697
REMARK INTER:                  -4.571
REMARK INTRA:                  -0.126
REMARK UNBOUND:                -0.125
REMARK SMILES Cc1ccc(C(C)C)cc1O
REMARK SMILES IDX 1 1 2 2 10 3 9 4 5 5 4 6 3 7 11 8 6 10 7 11 8 12
REMARK H PARENT 11 9
REMARK Flexibility Score: inf
ROOT
ATOM      1  C   UNL     1     162.457 177.363 181.393  1.00  0.00     0.048 C 
ATOM      2  C   UNL     1     162.340 177.531 182.881  1.00  0.00    -0.009 A 
ATOM      3  C   UNL     1     163.485 177.786 183.657  1.00  0.00     0.118 A 
ATOM      4  C   UNL     1     163.368 177.941 185.047  1.00  0.00     0.050 A 
ATOM      5  C   UNL     1     162.116 177.843 185.677  1.00  0.00    -0.042 A 
ATOM      6  C   UNL     1     160.977 177.588 184.892  1.00  0.00     0.004 A 
ATOM      7  C   UNL     1     161.089 177.433 183.508  1.00  0.00     0.007 A 
ENDROOT
BRANCH   3   8
ATOM      8  O   UNL     1     164.734 177.884 183.046  1.00  0.00    -0.508 OA
ATOM      9  H   UNL     1     164.850 178.329 182.143  1.00  0.00     0.293 HD
ENDBRANCH   3   8
BRANCH   5  10
ATOM     10  C   UNL     1     162.007 178.013 187.181  1.00  0.00     0.013 C 
ATOM     11  C   UNL     1     160.542 178.081 187.626  1.00  0.00     0.012 C 
ATOM     12  C   UNL     1     162.756 176.897 187.919  1.00  0.00     0.012 C 
ENDBRANCH   5  10
TORSDOF 2
ENDMDL
MODEL 6
REMARK VINA RESULT:    -4.165      3.350      4.036
REMARK INTER + INTRA:          -4.655
REMARK INTER:                  -4.552
REMARK INTRA:                  -0.103
REMARK UNBOUND:                -0.125
REMARK SMILES Cc1ccc(C(C)C)cc1O
REMARK SMILES IDX 1 1 2 2 10 3 9 4 5 5 4 6 3 7 11 8 6 10 7 11 8 12
REMARK H PARENT 11 9
REMARK Flexibility Score: inf
ROOT
ATOM      1  C   UNL     1     160.767 175.410 182.307  1.00  0.00     0.048 C 
ATOM      2  C   UNL     1     160.820 175.903 183.726  1.00  0.00    -0.009 A 
ATOM      3  C   UNL     1     160.944 177.278 183.993  1.00  0.00     0.118 A 
ATOM      4  C   UNL     1     160.993 177.731 185.320  1.00  0.00     0.050 A 
ATOM      5  C   UNL     1     160.920 176.824 186.391  1.00  0.00    -0.042 A 
ATOM      6  C   UNL     1     160.795 175.451 186.113  1.00  0.00     0.004 A 
ATOM      7  C   UNL     1     160.746 174.996 184.793  1.00  0.00     0.007 A 
ENDROOT
BRANCH   3   8
ATOM      8  O   UNL     1     161.019 178.190 182.941  1.00  0.00    -0.508 OA
ATOM      9  H   UNL     1     161.261 177.897 182.001  1.00  0.00     0.293 HD
ENDBRANCH   3   8
BRANCH   5  10
ATOM     10  C   UNL     1     160.975 177.332 187.821  1.00  0.00     0.013 C 
ATOM     11  C   UNL     1     162.423 177.460 188.307  1.00  0.00     0.012 C 
ATOM     12  C   UNL     1     160.224 178.661 187.965  1.00  0.00     0.012 C 
ENDBRANCH   5  10
TORSDOF 2
ENDMDL
MODEL 7
REMARK VINA RESULT:    -4.054      1.612      2.154
REMARK INTER + INTRA:          -4.534
REMARK INTER:                  -4.409
REMARK INTRA:                  -0.125
REMARK UNBOUND:                -0.125
REMARK SMILES Cc1ccc(C(C)C)cc1O
REMARK SMILES IDX 1 1 2 2 10 3 9 4 5 5 4 6 3 7 11 8 6 10 7 11 8 12
REMARK H PARENT 11 9
REMARK Flexibility Score: inf
ROOT
ATOM      1  C   UNL     1     163.092 172.080 188.138  1.00  0.00     0.048 C 
ATOM      2  C   UNL     1     162.443 173.401 187.834  1.00  0.00    -0.009 A 
ATOM      3  C   UNL     1     161.074 173.460 187.515  1.00  0.00     0.118 A 
ATOM      4  C   UNL     1     160.475 174.697 187.232  1.00  0.00     0.050 A 
ATOM      5  C   UNL     1     161.228 175.883 187.263  1.00  0.00    -0.042 A 
ATOM      6  C   UNL     1     162.595 175.813 187.585  1.00  0.00     0.004 A 
ATOM      7  C   UNL     1     163.196 174.584 187.867  1.00  0.00     0.007 A 
ENDROOT
BRANCH   3   8
ATOM      8  O   UNL     1     160.315 172.292 187.478  1.00  0.00    -0.508 OA
ATOM      9  H   UNL     1     160.558 171.519 186.869  1.00  0.00     0.293 HD
ENDBRANCH   3   8
BRANCH   5  10
ATOM     10  C   UNL     1     160.563 177.213 186.955  1.00  0.00     0.013 C 
ATOM     11  C   UNL     1     160.773 178.214 188.096  1.00  0.00     0.012 C 
ATOM     12  C   UNL     1     161.061 177.783 185.622  1.00  0.00     0.012 C 
ENDBRANCH   5  10
TORSDOF 2
ENDMDL
MODEL 8
REMARK VINA RESULT:    -3.996     12.873     13.809
REMARK INTER + INTRA:          -4.471
REMARK INTER:                  -4.346
REMARK INTRA:                  -0.126
REMARK UNBOUND:                -0.125
REMARK SMILES Cc1ccc(C(C)C)cc1O
REMARK SMILES IDX 1 1 2 2 10 3 9 4 5 5 4 6 3 7 11 8 6 10 7 11 8 12
REMARK H PARENT 11 9
REMARK Flexibility Score: inf
ROOT
ATOM      1  C   UNL     1     175.235 173.580 186.126  1.00  0.00     0.048 C 
ATOM      2  C   UNL     1     175.330 175.060 186.363  1.00  0.00    -0.009 A 
ATOM      3  C   UNL     1     176.469 175.773 185.947  1.00  0.00     0.118 A 
ATOM      4  C   UNL     1     176.552 177.154 186.172  1.00  0.00     0.050 A 
ATOM      5  C   UNL     1     175.507 177.841 186.813  1.00  0.00    -0.042 A 
ATOM      6  C   UNL     1     174.371 177.120 187.225  1.00  0.00     0.004 A 
ATOM      7  C   UNL     1     174.285 175.744 187.003  1.00  0.00     0.007 A 
ENDROOT
BRANCH   3   8
ATOM      8  O   UNL     1     177.515 175.105 185.311  1.00  0.00    -0.508 OA
ATOM      9  H   UNL     1     177.361 174.546 184.479  1.00  0.00     0.293 HD
ENDBRANCH   3   8
BRANCH   5  10
ATOM     10  C   UNL     1     175.612 179.337 187.049  1.00  0.00     0.013 C 
ATOM     11  C   UNL     1     175.114 180.125 185.832  1.00  0.00     0.012 C 
ATOM     12  C   UNL     1     174.862 179.750 188.320  1.00  0.00     0.012 C 
ENDBRANCH   5  10
TORSDOF 2
ENDMDL
MODEL 9
REMARK VINA RESULT:    -3.975      1.977      4.017
REMARK INTER + INTRA:          -4.449
REMARK INTER:                  -4.322
REMARK INTRA:                  -0.127
REMARK UNBOUND:                -0.125
REMARK SMILES Cc1ccc(C(C)C)cc1O
REMARK SMILES IDX 1 1 2 2 10 3 9 4 5 5 4 6 3 7 11 8 6 10 7 11 8 12
REMARK H PARENT 11 9
REMARK Flexibility Score: inf
ROOT
ATOM      1  C   UNL     1     166.877 177.448 186.327  1.00  0.00     0.048 C 
ATOM      2  C   UNL     1     165.434 177.325 186.726  1.00  0.00    -0.009 A 
ATOM      3  C   UNL     1     164.885 176.064 187.021  1.00  0.00     0.118 A 
ATOM      4  C   UNL     1     163.537 175.957 187.393  1.00  0.00     0.050 A 
ATOM      5  C   UNL     1     162.723 177.099 187.475  1.00  0.00    -0.042 A 
ATOM      6  C   UNL     1     163.281 178.356 187.180  1.00  0.00     0.004 A 
ATOM      7  C   UNL     1     164.623 178.467 186.809  1.00  0.00     0.007 A 
ENDROOT
BRANCH   3   8
ATOM      8  O   UNL     1     165.681 174.922 186.942  1.00  0.00    -0.508 OA
ATOM      9  H   UNL     1     165.502 174.109 187.520  1.00  0.00     0.293 HD
ENDBRANCH   3   8
BRANCH   5  10
ATOM     10  C   UNL     1     161.265 176.965 187.879  1.00  0.00     0.013 C 
ATOM     11  C   UNL     1     160.517 178.290 187.695  1.00  0.00     0.012 C 
ATOM     12  C   UNL     1     160.580 175.832 187.107  1.00  0.00     0.012 C 
ENDBRANCH   5  10
TORSDOF 2
ENDMDL
