MODEL 1
REMARK VINA RESULT:    -0.231      0.000      0.000
REMARK INTER + INTRA:          -0.562
REMARK INTER:                  -0.272
REMARK INTRA:                  -0.290
REMARK UNBOUND:                -0.290
REMARK SMILES O=c1c(O)c(-c2ccc(O)cc2)oc2cc(O)cc(O)c12
REMARK SMILES IDX 5 1 3 2 2 3 1 4 21 5 19 6 18 7 16 8 15 9 14 10 13 11 6 12
REMARK SMILES IDX 7 13 8 14 9 15 12 16 11 17 10 18 4 20 20 22 17 24
REMARK H PARENT 10 19 4 21 20 23 17 25
REMARK Flexibility Score: inf
ROOT
ATOM      1  C   UNL     1      26.567  26.345  47.784  1.00  0.00     0.180 A 
ATOM      2  C   UNL     1      25.349  25.651  47.646  1.00  0.00     0.208 A 
ATOM      3  C   UNL     1      24.177  26.381  47.395  1.00  0.00     0.238 A 
ATOM      4  O   UNL     1      23.078  25.772  47.281  1.00  0.00    -0.285 OA
ATOM      5  C   UNL     1      24.244  27.784  47.266  1.00  0.00     0.111 A 
ATOM      6  C   UNL     1      23.111  28.593  47.008  1.00  0.00     0.134 A 
ATOM      7  C   UNL     1      23.261  29.981  46.883  1.00  0.00     0.093 A 
ATOM      8  C   UNL     1      24.522  30.576  47.010  1.00  0.00     0.123 A 
ATOM      9  C   UNL     1      25.641  29.782  47.264  1.00  0.00     0.094 A 
ATOM     10  C   UNL     1      25.513  28.397  47.393  1.00  0.00     0.146 A 
ATOM     11  O   UNL     1      26.594  27.667  47.640  1.00  0.00    -0.452 OA
ENDROOT
BRANCH   1  12
ATOM     12  C   UNL     1      27.842  25.648  48.068  1.00  0.00     0.021 A 
ATOM     13  C   UNL     1      28.204  25.384  49.399  1.00  0.00     0.016 A 
ATOM     14  C   UNL     1      29.393  24.707  49.690  1.00  0.00     0.047 A 
ATOM     15  C   UNL     1      30.224  24.271  48.655  1.00  0.00     0.115 A 
ATOM     16  C   UNL     1      28.674  25.189  47.030  1.00  0.00     0.016 A 
ATOM     17  C   UNL     1      29.861  24.511  47.324  1.00  0.00     0.047 A 
BRANCH  15  18
ATOM     18  O   UNL     1      31.405  23.598  48.958  1.00  0.00    -0.508 OA
ATOM     19  H   UNL     1      32.266  23.784  48.456  1.00  0.00     0.293 HD
ENDBRANCH  15  18
ENDBRANCH   1  12
BRANCH   2  20
ATOM     20  O   UNL     1      25.318  24.256  47.729  1.00  0.00    -0.502 OA
ATOM     21  H   UNL     1      26.080  23.719  48.125  1.00  0.00     0.293 HD
ENDBRANCH   2  20
BRANCH   6  22
ATOM     22  O   UNL     1      21.841  28.029  46.875  1.00  0.00    -0.507 OA
ATOM     23  H   UNL     1      21.671  27.235  46.269  1.00  0.00     0.293 HD
ENDBRANCH   6  22
BRANCH   8  24
ATOM     24  O   UNL     1      24.672  31.955  46.886  1.00  0.00    -0.508 OA
ATOM     25  H   UNL     1      24.628  32.415  45.983  1.00  0.00     0.293 HD
ENDBRANCH   8  24
TORSDOF 5
ENDMDL
MODEL 2
REMARK VINA RESULT:    -0.199      2.139      5.997
REMARK INTER + INTRA:          -0.523
REMARK INTER:                  -0.232
REMARK INTRA:                  -0.291
REMARK UNBOUND:                -0.290
REMARK SMILES O=c1c(O)c(-c2ccc(O)cc2)oc2cc(O)cc(O)c12
REMARK SMILES IDX 5 1 3 2 2 3 1 4 21 5 19 6 18 7 16 8 15 9 14 10 13 11 6 12
REMARK SMILES IDX 7 13 8 14 9 15 12 16 11 17 10 18 4 20 20 22 17 24
REMARK H PARENT 10 19 4 21 20 23 17 25
REMARK Flexibility Score: inf
ROOT
ATOM      1  C   UNL     1      25.198  28.657  47.931  1.00  0.00     0.180 A 
ATOM      2  C   UNL     1      23.845  28.280  47.824  1.00  0.00     0.208 A 
ATOM      3  C   UNL     1      23.535  26.947  47.516  1.00  0.00     0.238 A 
ATOM      4  O   UNL     1      22.327  26.599  47.406  1.00  0.00    -0.285 OA
ATOM      5  C   UNL     1      24.575  26.011  47.341  1.00  0.00     0.111 A 
ATOM      6  C   UNL     1      24.348  24.648  47.033  1.00  0.00     0.134 A 
ATOM      7  C   UNL     1      25.437  23.778  46.884  1.00  0.00     0.093 A 
ATOM      8  C   UNL     1      26.749  24.243  47.037  1.00  0.00     0.123 A 
ATOM      9  C   UNL     1      26.977  25.586  47.340  1.00  0.00     0.094 A 
ATOM     10  C   UNL     1      25.906  26.471  47.492  1.00  0.00     0.146 A 
ATOM     11  O   UNL     1      26.153  27.744  47.775  1.00  0.00    -0.452 OA
ENDROOT
BRANCH   1  12
ATOM     12  C   UNL     1      25.606  30.048  48.235  1.00  0.00     0.021 A 
ATOM     13  C   UNL     1      25.769  30.965  47.184  1.00  0.00     0.016 A 
ATOM     14  C   UNL     1      26.132  32.290  47.449  1.00  0.00     0.047 A 
ATOM     15  C   UNL     1      26.319  32.717  48.767  1.00  0.00     0.115 A 
ATOM     16  C   UNL     1      25.777  30.489  49.560  1.00  0.00     0.016 A 
ATOM     17  C   UNL     1      26.138  31.814  49.822  1.00  0.00     0.047 A 
BRANCH  15  18
ATOM     18  O   UNL     1      26.680  34.038  49.017  1.00  0.00    -0.508 OA
ATOM     19  H   UNL     1      27.445  34.270  49.641  1.00  0.00     0.293 HD
ENDBRANCH  15  18
ENDBRANCH   1  12
BRANCH   2  20
ATOM     20  O   UNL     1      22.832  29.215  48.051  1.00  0.00    -0.502 OA
ATOM     21  H   UNL     1      23.006  30.213  48.056  1.00  0.00     0.293 HD
ENDBRANCH   2  20
BRANCH   6  22
ATOM     22  O   UNL     1      23.053  24.154  46.876  1.00  0.00    -0.507 OA
ATOM     23  H   UNL     1      22.332  24.318  47.569  1.00  0.00     0.293 HD
ENDBRANCH   6  22
BRANCH   8  24
ATOM     24  O   UNL     1      27.831  23.379  46.889  1.00  0.00    -0.508 OA
ATOM     25  H   UNL     1      28.760  23.723  46.674  1.00  0.00     0.293 HD
ENDBRANCH   8  24
TORSDOF 5
ENDMDL
MODEL 3
REMARK VINA RESULT:    -0.198      2.735      4.975
REMARK INTER + INTRA:          -0.523
REMARK INTER:                  -0.232
REMARK INTRA:                  -0.291
REMARK UNBOUND:                -0.290
REMARK SMILES O=c1c(O)c(-c2ccc(O)cc2)oc2cc(O)cc(O)c12
REMARK SMILES IDX 5 1 3 2 2 3 1 4 21 5 19 6 18 7 16 8 15 9 14 10 13 11 6 12
REMARK SMILES IDX 7 13 8 14 9 15 12 16 11 17 10 18 4 20 20 22 17 24
REMARK H PARENT 10 19 4 21 20 23 17 25
REMARK Flexibility Score: inf
ROOT
ATOM      1  C   UNL     1      24.736  26.148  47.774  1.00  0.00     0.180 A 
ATOM      2  C   UNL     1      23.694  27.023  47.409  1.00  0.00     0.208 A 
ATOM      3  C   UNL     1      22.405  26.499  47.222  1.00  0.00     0.238 A 
ATOM      4  O   UNL     1      21.465  27.270  46.884  1.00  0.00    -0.285 OA
ATOM      5  C   UNL     1      22.175  25.123  47.422  1.00  0.00     0.111 A 
ATOM      6  C   UNL     1      20.905  24.517  47.259  1.00  0.00     0.134 A 
ATOM      7  C   UNL     1      20.757  23.141  47.486  1.00  0.00     0.093 A 
ATOM      8  C   UNL     1      21.852  22.360  47.874  1.00  0.00     0.123 A 
ATOM      9  C   UNL     1      23.105  22.953  48.036  1.00  0.00     0.094 A 
ATOM     10  C   UNL     1      23.275  24.322  47.813  1.00  0.00     0.146 A 
ATOM     11  O   UNL     1      24.480  24.858  47.969  1.00  0.00    -0.452 OA
ENDROOT
BRANCH   1  12
ATOM     12  C   UNL     1      26.126  26.621  47.971  1.00  0.00     0.021 A 
ATOM     13  C   UNL     1      27.003  26.663  46.875  1.00  0.00     0.016 A 
ATOM     14  C   UNL     1      28.313  27.127  47.034  1.00  0.00     0.047 A 
ATOM     15  C   UNL     1      28.756  27.569  48.284  1.00  0.00     0.115 A 
ATOM     16  C   UNL     1      26.572  27.085  49.222  1.00  0.00     0.016 A 
ATOM     17  C   UNL     1      27.882  27.549  49.377  1.00  0.00     0.047 A 
BRANCH  15  18
ATOM     18  O   UNL     1      30.063  28.028  48.428  1.00  0.00    -0.508 OA
ATOM     19  H   UNL     1      30.852  27.509  48.058  1.00  0.00     0.293 HD
ENDBRANCH  15  18
ENDBRANCH   1  12
BRANCH   2  20
ATOM     20  O   UNL     1      23.937  28.391  47.265  1.00  0.00    -0.502 OA
ATOM     21  H   UNL     1      23.481  29.087  47.843  1.00  0.00     0.293 HD
ENDBRANCH   2  20
BRANCH   6  22
ATOM     22  O   UNL     1      19.795  25.270  46.875  1.00  0.00    -0.507 OA
ATOM     23  H   UNL     1      19.031  24.862  46.349  1.00  0.00     0.293 HD
ENDBRANCH   6  22
BRANCH   8  24
ATOM     24  O   UNL     1      21.704  20.994  48.100  1.00  0.00    -0.508 OA
ATOM     25  H   UNL     1      21.750  20.322  47.342  1.00  0.00     0.293 HD
ENDBRANCH   8  24
TORSDOF 5
ENDMDL
MODEL 4
REMARK VINA RESULT:    -0.197      3.633      4.947
REMARK INTER + INTRA:          -0.522
REMARK INTER:                  -0.224
REMARK INTRA:                  -0.298
REMARK UNBOUND:                -0.290
REMARK SMILES O=c1c(O)c(-c2ccc(O)cc2)oc2cc(O)cc(O)c12
REMARK SMILES IDX 5 1 3 2 2 3 1 4 21 5 19 6 18 7 16 8 15 9 14 10 13 11 6 12
REMARK SMILES IDX 7 13 8 14 9 15 12 16 11 17 10 18 4 20 20 22 17 24
REMARK H PARENT 10 19 4 21 20 23 17 25
REMARK Flexibility Score: inf
ROOT
ATOM      1  C   UNL     1      23.427  27.608  47.763  1.00  0.00     0.180 A 
ATOM      2  C   UNL     1      24.689  28.118  47.397  1.00  0.00     0.208 A 
ATOM      3  C   UNL     1      24.833  29.502  47.214  1.00  0.00     0.238 A 
ATOM      4  O   UNL     1      25.954  29.970  46.875  1.00  0.00    -0.285 OA
ATOM      5  C   UNL     1      23.726  30.352  47.419  1.00  0.00     0.111 A 
ATOM      6  C   UNL     1      23.789  31.758  47.260  1.00  0.00     0.134 A 
ATOM      7  C   UNL     1      22.646  32.535  47.492  1.00  0.00     0.093 A 
ATOM      8  C   UNL     1      21.442  31.936  47.880  1.00  0.00     0.123 A 
ATOM      9  C   UNL     1      21.376  30.551  48.038  1.00  0.00     0.094 A 
ATOM     10  C   UNL     1      22.503  29.757  47.810  1.00  0.00     0.146 A 
ATOM     11  O   UNL     1      22.410  28.441  47.963  1.00  0.00    -0.452 OA
ENDROOT
BRANCH   1  12
ATOM     12  C   UNL     1      23.191  26.159  47.956  1.00  0.00     0.021 A 
ATOM     13  C   UNL     1      23.240  25.618  49.251  1.00  0.00     0.016 A 
ATOM     14  C   UNL     1      22.997  24.256  49.459  1.00  0.00     0.047 A 
ATOM     15  C   UNL     1      22.687  23.424  48.380  1.00  0.00     0.115 A 
ATOM     16  C   UNL     1      22.858  25.320  46.876  1.00  0.00     0.016 A 
ATOM     17  C   UNL     1      22.615  23.960  47.088  1.00  0.00     0.047 A 
BRANCH  15  18
ATOM     18  O   UNL     1      22.448  22.070  48.601  1.00  0.00    -0.508 OA
ATOM     19  H   UNL     1      23.134  21.364  48.360  1.00  0.00     0.293 HD
ENDBRANCH  15  18
ENDBRANCH   1  12
BRANCH   2  20
ATOM     20  O   UNL     1      25.781  27.260  47.248  1.00  0.00    -0.502 OA
ATOM     21  H   UNL     1      26.463  27.373  46.507  1.00  0.00     0.293 HD
ENDBRANCH   2  20
BRANCH   6  22
ATOM     22  O   UNL     1      24.975  32.384  46.876  1.00  0.00    -0.507 OA
ATOM     23  H   UNL     1      25.815  31.856  46.670  1.00  0.00     0.293 HD
ENDBRANCH   6  22
BRANCH   8  24
ATOM     24  O   UNL     1      20.306  32.708  48.111  1.00  0.00    -0.508 OA
ATOM     25  H   UNL     1      19.388  32.407  47.804  1.00  0.00     0.293 HD
ENDBRANCH   8  24
TORSDOF 5
ENDMDL
MODEL 5
REMARK VINA RESULT:    -0.197      1.485      3.190
REMARK INTER + INTRA:          -0.522
REMARK INTER:                  -0.224
REMARK INTRA:                  -0.298
REMARK UNBOUND:                -0.290
REMARK SMILES O=c1c(O)c(-c2ccc(O)cc2)oc2cc(O)cc(O)c12
REMARK SMILES IDX 5 1 3 2 2 3 1 4 21 5 19 6 18 7 16 8 15 9 14 10 13 11 6 12
REMARK SMILES IDX 7 13 8 14 9 15 12 16 11 17 10 18 4 20 20 22 17 24
REMARK H PARENT 10 19 4 21 20 23 17 25
REMARK Flexibility Score: inf
ROOT
ATOM      1  C   UNL     1      25.977  26.848  48.146  1.00  0.00     0.180 A 
ATOM      2  C   UNL     1      25.867  28.247  48.015  1.00  0.00     0.208 A 
ATOM      3  C   UNL     1      24.630  28.797  47.644  1.00  0.00     0.238 A 
ATOM      4  O   UNL     1      24.521  30.047  47.513  1.00  0.00    -0.285 OA
ATOM      5  C   UNL     1      23.524  27.948  47.432  1.00  0.00     0.111 A 
ATOM      6  C   UNL     1      22.243  28.423  47.062  1.00  0.00     0.134 A 
ATOM      7  C   UNL     1      21.191  27.515  46.878  1.00  0.00     0.093 A 
ATOM      8  C   UNL     1      21.394  26.141  47.059  1.00  0.00     0.123 A 
ATOM      9  C   UNL     1      22.656  25.669  47.425  1.00  0.00     0.094 A 
ATOM     10  C   UNL     1      23.718  26.558  47.611  1.00  0.00     0.146 A 
ATOM     11  O   UNL     1      24.909  26.080  47.953  1.00  0.00    -0.452 OA
ENDROOT
BRANCH   1  12
ATOM     12  C   UNL     1      27.252  26.191  48.515  1.00  0.00     0.021 A 
ATOM     13  C   UNL     1      27.521  25.914  49.865  1.00  0.00     0.016 A 
ATOM     14  C   UNL     1      28.709  25.273  50.234  1.00  0.00     0.047 A 
ATOM     15  C   UNL     1      29.632  24.888  49.258  1.00  0.00     0.115 A 
ATOM     16  C   UNL     1      28.177  25.783  47.536  1.00  0.00     0.016 A 
ATOM     17  C   UNL     1      29.362  25.142  47.908  1.00  0.00     0.047 A 
BRANCH  15  18
ATOM     18  O   UNL     1      30.811  24.252  49.640  1.00  0.00    -0.508 OA
ATOM     19  H   UNL     1      31.466  24.687  50.279  1.00  0.00     0.293 HD
ENDBRANCH  15  18
ENDBRANCH   1  12
BRANCH   2  20
ATOM     20  O   UNL     1      26.965  29.070  48.279  1.00  0.00    -0.502 OA
ATOM     21  H   UNL     1      26.905  30.081  48.250  1.00  0.00     0.293 HD
ENDBRANCH   2  20
BRANCH   6  22
ATOM     22  O   UNL     1      22.009  29.786  46.875  1.00  0.00    -0.507 OA
ATOM     23  H   UNL     1      21.070  30.160  46.798  1.00  0.00     0.293 HD
ENDBRANCH   6  22
BRANCH   8  24
ATOM     24  O   UNL     1      20.349  25.239  46.878  1.00  0.00    -0.508 OA
ATOM     25  H   UNL     1      20.329  24.347  47.359  1.00  0.00     0.293 HD
ENDBRANCH   8  24
TORSDOF 5
ENDMDL
MODEL 6
REMARK VINA RESULT:    -0.188      3.348      6.333
REMARK INTER + INTRA:          -0.511
REMARK INTER:                  -0.214
REMARK INTRA:                  -0.298
REMARK UNBOUND:                -0.290
REMARK SMILES O=c1c(O)c(-c2ccc(O)cc2)oc2cc(O)cc(O)c12
REMARK SMILES IDX 5 1 3 2 2 3 1 4 21 5 19 6 18 7 16 8 15 9 14 10 13 11 6 12
REMARK SMILES IDX 7 13 8 14 9 15 12 16 11 17 10 18 4 20 20 22 17 24
REMARK H PARENT 10 19 4 21 20 23 17 25
REMARK Flexibility Score: inf
ROOT
ATOM      1  C   UNL     1      23.650  29.628  47.810  1.00  0.00     0.180 A 
ATOM      2  C   UNL     1      22.252  29.610  47.636  1.00  0.00     0.208 A 
ATOM      3  C   UNL     1      21.616  28.384  47.388  1.00  0.00     0.238 A 
ATOM      4  O   UNL     1      20.366  28.356  47.220  1.00  0.00    -0.285 OA
ATOM      5  C   UNL     1      22.379  27.200  47.338  1.00  0.00     0.111 A 
ATOM      6  C   UNL     1      21.815  25.923  47.098  1.00  0.00     0.134 A 
ATOM      7  C   UNL     1      22.642  24.791  47.074  1.00  0.00     0.093 A 
ATOM      8  C   UNL     1      24.021  24.909  47.285  1.00  0.00     0.123 A 
ATOM      9  C   UNL     1      24.580  26.165  47.523  1.00  0.00     0.094 A 
ATOM     10  C   UNL     1      23.775  27.307  47.550  1.00  0.00     0.146 A 
ATOM     11  O   UNL     1      24.336  28.490  47.772  1.00  0.00    -0.452 OA
ENDROOT
BRANCH   1  12
ATOM     12  C   UNL     1      24.395  30.884  48.057  1.00  0.00     0.021 A 
ATOM     13  C   UNL     1      24.644  31.292  49.378  1.00  0.00     0.016 A 
ATOM     14  C   UNL     1      25.365  32.463  49.634  1.00  0.00     0.047 A 
ATOM     15  C   UNL     1      25.861  33.229  48.575  1.00  0.00     0.115 A 
ATOM     16  C   UNL     1      24.914  31.649  46.996  1.00  0.00     0.016 A 
ATOM     17  C   UNL     1      25.635  32.818  47.256  1.00  0.00     0.047 A 
BRANCH  15  18
ATOM     18  O   UNL     1      26.577  34.393  48.845  1.00  0.00    -0.508 OA
ATOM     19  H   UNL     1      26.483  35.220  48.266  1.00  0.00     0.293 HD
ENDBRANCH  15  18
ENDBRANCH   1  12
BRANCH   2  20
ATOM     20  O   UNL     1      21.512  30.791  47.740  1.00  0.00    -0.502 OA
ATOM     21  H   UNL     1      21.874  31.620  48.196  1.00  0.00     0.293 HD
ENDBRANCH   2  20
BRANCH   6  22
ATOM     22  O   UNL     1      20.444  25.773  46.885  1.00  0.00    -0.507 OA
ATOM     23  H   UNL     1      20.038  25.841  45.959  1.00  0.00     0.293 HD
ENDBRANCH   6  22
BRANCH   8  24
ATOM     24  O   UNL     1      24.841  23.785  47.261  1.00  0.00    -0.508 OA
ATOM     25  H   UNL     1      24.513  22.895  46.902  1.00  0.00     0.293 HD
ENDBRANCH   8  24
TORSDOF 5
ENDMDL
MODEL 7
REMARK VINA RESULT:    -0.187      3.353      7.171
REMARK INTER + INTRA:          -0.510
REMARK INTER:                  -0.214
REMARK INTRA:                  -0.297
REMARK UNBOUND:                -0.290
REMARK SMILES O=c1c(O)c(-c2ccc(O)cc2)oc2cc(O)cc(O)c12
REMARK SMILES IDX 5 1 3 2 2 3 1 4 21 5 19 6 18 7 16 8 15 9 14 10 13 11 6 12
REMARK SMILES IDX 7 13 8 14 9 15 12 16 11 17 10 18 4 20 20 22 17 24
REMARK H PARENT 10 19 4 21 20 23 17 25
REMARK Flexibility Score: inf
ROOT
ATOM      1  C   UNL     1      22.956  27.434  47.894  1.00  0.00     0.180 A 
ATOM      2  C   UNL     1      24.240  26.867  47.775  1.00  0.00     0.208 A 
ATOM      3  C   UNL     1      24.351  25.491  47.518  1.00  0.00     0.238 A 
ATOM      4  O   UNL     1      25.495  24.969  47.420  1.00  0.00    -0.285 OA
ATOM      5  C   UNL     1      23.185  24.713  47.365  1.00  0.00     0.111 A 
ATOM      6  C   UNL     1      23.211  23.323  47.099  1.00  0.00     0.134 A 
ATOM      7  C   UNL     1      22.006  22.621  46.950  1.00  0.00     0.093 A 
ATOM      8  C   UNL     1      20.777  23.282  47.060  1.00  0.00     0.123 A 
ATOM      9  C   UNL     1      20.747  24.653  47.321  1.00  0.00     0.094 A 
ATOM     10  C   UNL     1      21.936  25.371  47.475  1.00  0.00     0.146 A 
ATOM     11  O   UNL     1      21.878  26.673  47.728  1.00  0.00    -0.452 OA
ENDROOT
BRANCH   1  12
ATOM     12  C   UNL     1      22.755  28.873  48.183  1.00  0.00     0.021 A 
ATOM     13  C   UNL     1      22.547  29.768  47.122  1.00  0.00     0.016 A 
ATOM     14  C   UNL     1      22.333  31.128  47.373  1.00  0.00     0.047 A 
ATOM     15  C   UNL     1      22.309  31.605  48.686  1.00  0.00     0.115 A 
ATOM     16  C   UNL     1      22.710  29.356  49.504  1.00  0.00     0.016 A 
ATOM     17  C   UNL     1      22.495  30.715  49.752  1.00  0.00     0.047 A 
BRANCH  15  18
ATOM     18  O   UNL     1      22.096  32.961  48.922  1.00  0.00    -0.508 OA
ATOM     19  H   UNL     1      22.782  33.659  48.660  1.00  0.00     0.293 HD
ENDBRANCH  15  18
ENDBRANCH   1  12
BRANCH   2  20
ATOM     20  O   UNL     1      25.379  27.668  47.882  1.00  0.00    -0.502 OA
ATOM     21  H   UNL     1      25.653  28.107  48.753  1.00  0.00     0.293 HD
ENDBRANCH   2  20
BRANCH   6  22
ATOM     22  O   UNL     1      24.420  22.636  46.983  1.00  0.00    -0.507 OA
ATOM     23  H   UNL     1      24.631  21.827  47.556  1.00  0.00     0.293 HD
ENDBRANCH   6  22
BRANCH   8  24
ATOM     24  O   UNL     1      19.580  22.585  46.911  1.00  0.00    -0.508 OA
ATOM     25  H   UNL     1      19.514  21.765  46.319  1.00  0.00     0.293 HD
ENDBRANCH   8  24
TORSDOF 5
ENDMDL
MODEL 8
REMARK VINA RESULT:    -0.181      2.719      4.545
REMARK INTER + INTRA:          -0.503
REMARK INTER:                  -0.213
REMARK INTRA:                  -0.291
REMARK UNBOUND:                -0.290
REMARK SMILES O=c1c(O)c(-c2ccc(O)cc2)oc2cc(O)cc(O)c12
REMARK SMILES IDX 5 1 3 2 2 3 1 4 21 5 19 6 18 7 16 8 15 9 14 10 13 11 6 12
REMARK SMILES IDX 7 13 8 14 9 15 12 16 11 17 10 18 4 20 20 22 17 24
REMARK H PARENT 10 19 4 21 20 23 17 25
REMARK Flexibility Score: inf
ROOT
ATOM      1  C   UNL     1      27.166  27.525  48.016  1.00  0.00     0.180 A 
ATOM      2  C   UNL     1      26.113  28.340  47.556  1.00  0.00     0.208 A 
ATOM      3  C   UNL     1      24.859  27.757  47.318  1.00  0.00     0.238 A 
ATOM      4  O   UNL     1      23.911  28.474  46.896  1.00  0.00    -0.285 OA
ATOM      5  C   UNL     1      24.672  26.380  47.562  1.00  0.00     0.111 A 
ATOM      6  C   UNL     1      23.439  25.717  47.353  1.00  0.00     0.134 A 
ATOM      7  C   UNL     1      23.332  24.346  47.628  1.00  0.00     0.093 A 
ATOM      8  C   UNL     1      24.432  23.627  48.110  1.00  0.00     0.123 A 
ATOM      9  C   UNL     1      25.649  24.277  48.318  1.00  0.00     0.094 A 
ATOM     10  C   UNL     1      25.778  25.642  48.048  1.00  0.00     0.146 A 
ATOM     11  O   UNL     1      26.950  26.234  48.250  1.00  0.00    -0.452 OA
ENDROOT
BRANCH   1  12
ATOM     12  C   UNL     1      28.522  28.062  48.272  1.00  0.00     0.021 A 
ATOM     13  C   UNL     1      29.459  28.102  47.226  1.00  0.00     0.016 A 
ATOM     14  C   UNL     1      30.738  28.626  47.439  1.00  0.00     0.047 A 
ATOM     15  C   UNL     1      31.090  29.131  48.694  1.00  0.00     0.115 A 
ATOM     16  C   UNL     1      28.877  28.590  49.528  1.00  0.00     0.016 A 
ATOM     17  C   UNL     1      30.156  29.114  49.737  1.00  0.00     0.047 A 
BRANCH  15  18
ATOM     18  O   UNL     1      32.368  29.649  48.893  1.00  0.00    -0.508 OA
ATOM     19  H   UNL     1      33.151  29.365  48.316  1.00  0.00     0.293 HD
ENDBRANCH  15  18
ENDBRANCH   1  12
BRANCH   2  20
ATOM     20  O   UNL     1      26.311  29.711  47.370  1.00  0.00    -0.502 OA
ATOM     21  H   UNL     1      26.825  30.280  48.032  1.00  0.00     0.293 HD
ENDBRANCH   2  20
BRANCH   6  22
ATOM     22  O   UNL     1      22.325  26.407  46.875  1.00  0.00    -0.507 OA
ATOM     23  H   UNL     1      21.962  27.227  47.347  1.00  0.00     0.293 HD
ENDBRANCH   6  22
BRANCH   8  24
ATOM     24  O   UNL     1      24.325  22.265  48.384  1.00  0.00    -0.508 OA
ATOM     25  H   UNL     1      24.119  21.927  49.317  1.00  0.00     0.293 HD
ENDBRANCH   8  24
TORSDOF 5
ENDMDL
MODEL 9
REMARK VINA RESULT:    -0.181      3.265      6.715
REMARK INTER + INTRA:          -0.503
REMARK INTER:                  -0.205
REMARK INTRA:                  -0.298
REMARK UNBOUND:                -0.290
REMARK SMILES O=c1c(O)c(-c2ccc(O)cc2)oc2cc(O)cc(O)c12
REMARK SMILES IDX 5 1 3 2 2 3 1 4 21 5 19 6 18 7 16 8 15 9 14 10 13 11 6 12
REMARK SMILES IDX 7 13 8 14 9 15 12 16 11 17 10 18 4 20 20 22 17 24
REMARK H PARENT 10 19 4 21 20 23 17 25
REMARK Flexibility Score: inf
ROOT
ATOM      1  C   UNL     1      24.429  29.805  47.815  1.00  0.00     0.180 A 
ATOM      2  C   UNL     1      25.473  28.964  47.380  1.00  0.00     0.208 A 
ATOM      3  C   UNL     1      25.235  27.584  47.282  1.00  0.00     0.238 A 
ATOM      4  O   UNL     1      26.164  26.819  46.904  1.00  0.00    -0.285 OA
ATOM      5  C   UNL     1      23.960  27.072  47.598  1.00  0.00     0.111 A 
ATOM      6  C   UNL     1      23.637  25.695  47.520  1.00  0.00     0.134 A 
ATOM      7  C   UNL     1      22.342  25.266  47.843  1.00  0.00     0.093 A 
ATOM      8  C   UNL     1      21.363  26.185  48.240  1.00  0.00     0.123 A 
ATOM      9  C   UNL     1      21.678  27.542  48.318  1.00  0.00     0.094 A 
ATOM     10  C   UNL     1      22.963  27.991  48.002  1.00  0.00     0.146 A 
ATOM     11  O   UNL     1      23.235  29.288  48.090  1.00  0.00    -0.452 OA
ENDROOT
BRANCH   1  12
ATOM     12  C   UNL     1      24.608  31.267  47.962  1.00  0.00     0.021 A 
ATOM     13  C   UNL     1      24.281  32.114  46.891  1.00  0.00     0.016 A 
ATOM     14  C   UNL     1      24.420  33.501  47.016  1.00  0.00     0.047 A 
ATOM     15  C   UNL     1      24.871  34.057  48.217  1.00  0.00     0.115 A 
ATOM     16  C   UNL     1      25.042  31.834  49.175  1.00  0.00     0.016 A 
ATOM     17  C   UNL     1      25.179  33.220  49.297  1.00  0.00     0.047 A 
BRANCH  15  18
ATOM     18  O   UNL     1      25.005  35.439  48.327  1.00  0.00    -0.508 OA
ATOM     19  H   UNL     1      24.908  35.911  49.219  1.00  0.00     0.293 HD
ENDBRANCH  15  18
ENDBRANCH   1  12
BRANCH   2  20
ATOM     20  O   UNL     1      26.712  29.502  47.025  1.00  0.00    -0.502 OA
ATOM     21  H   UNL     1      27.513  29.474  47.645  1.00  0.00     0.293 HD
ENDBRANCH   2  20
BRANCH   6  22
ATOM     22  O   UNL     1      24.590  24.755  47.127  1.00  0.00    -0.507 OA
ATOM     23  H   UNL     1      24.340  23.940  46.580  1.00  0.00     0.293 HD
ENDBRANCH   6  22
BRANCH   8  24
ATOM     24  O   UNL     1      20.077  25.758  48.560  1.00  0.00    -0.508 OA
ATOM     25  H   UNL     1      19.917  24.961  49.166  1.00  0.00     0.293 HD
ENDBRANCH   8  24
TORSDOF 5
ENDMDL
