MODEL 1
REMARK VINA RESULT:    -4.668      0.000      0.000
REMARK INTER + INTRA:          -5.801
REMARK INTER:                  -5.487
REMARK INTRA:                  -0.314
REMARK UNBOUND:                -0.314
REMARK SMILES O=c1cc(-c2ccc(O)c(O)c2)oc2cc(O)cc(O)c12
REMARK SMILES IDX 4 1 3 2 2 3 1 4 21 5 19 6 18 7 16 8 15 9 14 10 13 11 5 12
REMARK SMILES IDX 6 13 7 14 8 15 12 16 10 17 9 18 11 20 20 22 17 24
REMARK H PARENT 9 19 11 21 20 23 17 25
REMARK Flexibility Score: inf
ROOT
ATOM      1  C   UNL     1      13.949 -18.874  87.779  1.00  0.00     0.138 A 
ATOM      2  C   UNL     1      13.731 -17.537  87.414  1.00  0.00     0.100 A 
ATOM      3  C   UNL     1      12.824 -17.239  86.396  1.00  0.00     0.197 A 
ATOM      4  O   UNL     1      12.696 -16.037  86.048  1.00  0.00    -0.289 OA
ATOM      5  C   UNL     1      12.108 -18.284  85.764  1.00  0.00     0.107 A 
ATOM      6  C   UNL     1      11.128 -18.095  84.744  1.00  0.00     0.134 A 
ATOM      7  C   UNL     1      10.569 -19.211  84.110  1.00  0.00     0.093 A 
ATOM      8  C   UNL     1      10.909 -20.509  84.502  1.00  0.00     0.123 A 
ATOM      9  C   UNL     1      11.825 -20.703  85.533  1.00  0.00     0.094 A 
ATOM     10  C   UNL     1      12.426 -19.610  86.162  1.00  0.00     0.146 A 
ATOM     11  O   UNL     1      13.305 -19.839  87.132  1.00  0.00    -0.456 OA
ENDROOT
BRANCH   1  12
ATOM     12  C   UNL     1      14.902 -19.247  88.854  1.00  0.00     0.021 A 
ATOM     13  C   UNL     1      15.853 -18.309  89.292  1.00  0.00     0.016 A 
ATOM     14  C   UNL     1      16.767 -18.639  90.297  1.00  0.00     0.051 A 
ATOM     15  C   UNL     1      16.752 -19.915  90.874  1.00  0.00     0.157 A 
ATOM     16  C   UNL     1      14.902 -20.533  89.430  1.00  0.00     0.062 A 
ATOM     17  C   UNL     1      15.820 -20.864  90.438  1.00  0.00     0.158 A 
BRANCH  15  18
ATOM     18  O   UNL     1      17.660 -20.246  91.877  1.00  0.00    -0.504 OA
ATOM     19  H   UNL     1      18.610 -19.896  91.869  1.00  0.00     0.293 HD
ENDBRANCH  15  18
BRANCH  17  20
ATOM     20  O   UNL     1      15.816 -22.137  91.006  1.00  0.00    -0.504 OA
ATOM     21  H   UNL     1      16.325 -22.339  91.859  1.00  0.00     0.293 HD
ENDBRANCH  17  20
ENDBRANCH   1  12
BRANCH   6  22
ATOM     22  O   UNL     1      10.655 -16.844  84.337  1.00  0.00    -0.507 OA
ATOM     23  H   UNL     1      10.876 -15.970  84.787  1.00  0.00     0.293 HD
ENDBRANCH   6  22
BRANCH   8  24
ATOM     24  O   UNL     1      10.336 -21.614  83.875  1.00  0.00    -0.508 OA
ATOM     25  H   UNL     1      10.214 -21.648  82.870  1.00  0.00     0.293 HD
ENDBRANCH   8  24
TORSDOF 5
ENDMDL
MODEL 2
REMARK VINA RESULT:    -4.557      0.765      1.439
REMARK INTER + INTRA:          -5.670
REMARK INTER:                  -5.390
REMARK INTRA:                  -0.280
REMARK UNBOUND:                -0.314
REMARK SMILES O=c1cc(-c2ccc(O)c(O)c2)oc2cc(O)cc(O)c12
REMARK SMILES IDX 4 1 3 2 2 3 1 4 21 5 19 6 18 7 16 8 15 9 14 10 13 11 5 12
REMARK SMILES IDX 6 13 7 14 8 15 12 16 10 17 9 18 11 20 20 22 17 24
REMARK H PARENT 9 19 11 21 20 23 17 25
REMARK Flexibility Score: inf
ROOT
ATOM      1  C   UNL     1      13.942 -19.404  87.901  1.00  0.00     0.138 A 
ATOM      2  C   UNL     1      13.852 -18.042  87.577  1.00  0.00     0.100 A 
ATOM      3  C   UNL     1      12.989 -17.631  86.561  1.00  0.00     0.197 A 
ATOM      4  O   UNL     1      12.975 -16.413  86.250  1.00  0.00    -0.289 OA
ATOM      5  C   UNL     1      12.189 -18.586  85.888  1.00  0.00     0.107 A 
ATOM      6  C   UNL     1      11.243 -18.277  84.864  1.00  0.00     0.134 A 
ATOM      7  C   UNL     1      10.593 -19.318  84.189  1.00  0.00     0.093 A 
ATOM      8  C   UNL     1      10.809 -20.652  84.543  1.00  0.00     0.123 A 
ATOM      9  C   UNL     1      11.690 -20.961  85.577  1.00  0.00     0.094 A 
ATOM     10  C   UNL     1      12.380 -19.947  86.246  1.00  0.00     0.146 A 
ATOM     11  O   UNL     1      13.221 -20.285  87.217  1.00  0.00    -0.456 OA
ENDROOT
BRANCH   1  12
ATOM     12  C   UNL     1      14.844 -19.896  88.974  1.00  0.00     0.021 A 
ATOM     13  C   UNL     1      14.390 -20.891  89.856  1.00  0.00     0.016 A 
ATOM     14  C   UNL     1      15.216 -21.365  90.878  1.00  0.00     0.051 A 
ATOM     15  C   UNL     1      16.506 -20.845  91.042  1.00  0.00     0.157 A 
ATOM     16  C   UNL     1      16.138 -19.368  89.152  1.00  0.00     0.062 A 
ATOM     17  C   UNL     1      16.966 -19.844  90.180  1.00  0.00     0.158 A 
BRANCH  15  18
ATOM     18  O   UNL     1      17.334 -21.317  92.059  1.00  0.00    -0.504 OA
ATOM     19  H   UNL     1      18.310 -21.529  91.893  1.00  0.00     0.293 HD
ENDBRANCH  15  18
BRANCH  17  20
ATOM     20  O   UNL     1      18.247 -19.320  90.353  1.00  0.00    -0.504 OA
ATOM     21  H   UNL     1      18.867 -19.165  89.566  1.00  0.00     0.293 HD
ENDBRANCH  17  20
ENDBRANCH   1  12
BRANCH   6  22
ATOM     22  O   UNL     1      10.892 -16.976  84.493  1.00  0.00    -0.507 OA
ATOM     23  H   UNL     1      11.520 -16.188  84.489  1.00  0.00     0.293 HD
ENDBRANCH   6  22
BRANCH   8  24
ATOM     24  O   UNL     1      10.146 -21.681  83.875  1.00  0.00    -0.508 OA
ATOM     25  H   UNL     1       9.886 -22.538  84.349  1.00  0.00     0.293 HD
ENDBRANCH   8  24
TORSDOF 5
ENDMDL
MODEL 3
REMARK VINA RESULT:    -4.508      1.045      2.623
REMARK INTER + INTRA:          -5.613
REMARK INTER:                  -5.320
REMARK INTRA:                  -0.293
REMARK UNBOUND:                -0.314
REMARK SMILES O=c1cc(-c2ccc(O)c(O)c2)oc2cc(O)cc(O)c12
REMARK SMILES IDX 4 1 3 2 2 3 1 4 21 5 19 6 18 7 16 8 15 9 14 10 13 11 5 12
REMARK SMILES IDX 6 13 7 14 8 15 12 16 10 17 9 18 11 20 20 22 17 24
REMARK H PARENT 9 19 11 21 20 23 17 25
REMARK Flexibility Score: inf
ROOT
ATOM      1  C   UNL     1      13.946 -19.600  87.773  1.00  0.00     0.138 A 
ATOM      2  C   UNL     1      13.412 -20.777  87.231  1.00  0.00     0.100 A 
ATOM      3  C   UNL     1      12.462 -20.699  86.212  1.00  0.00     0.197 A 
ATOM      4  O   UNL     1      11.955 -21.770  85.789  1.00  0.00    -0.289 OA
ATOM      5  C   UNL     1      12.068 -19.434  85.713  1.00  0.00     0.107 A 
ATOM      6  C   UNL     1      11.139 -19.234  84.648  1.00  0.00     0.134 A 
ATOM      7  C   UNL     1      10.739 -17.934  84.318  1.00  0.00     0.093 A 
ATOM      8  C   UNL     1      11.280 -16.824  84.972  1.00  0.00     0.123 A 
ATOM      9  C   UNL     1      12.228 -17.007  85.976  1.00  0.00     0.094 A 
ATOM     10  C   UNL     1      12.623 -18.293  86.353  1.00  0.00     0.146 A 
ATOM     11  O   UNL     1      13.519 -18.424  87.324  1.00  0.00    -0.456 OA
ENDROOT
BRANCH   1  12
ATOM     12  C   UNL     1      14.959 -19.625  88.858  1.00  0.00     0.021 A 
ATOM     13  C   UNL     1      15.718 -18.473  89.123  1.00  0.00     0.016 A 
ATOM     14  C   UNL     1      16.684 -18.473  90.133  1.00  0.00     0.051 A 
ATOM     15  C   UNL     1      16.914 -19.630  90.889  1.00  0.00     0.157 A 
ATOM     16  C   UNL     1      15.206 -20.789  89.614  1.00  0.00     0.062 A 
ATOM     17  C   UNL     1      16.176 -20.789  90.627  1.00  0.00     0.158 A 
BRANCH  15  18
ATOM     18  O   UNL     1      17.875 -19.634  91.898  1.00  0.00    -0.504 OA
ATOM     19  H   UNL     1      18.565 -20.371  91.970  1.00  0.00     0.293 HD
ENDBRANCH  15  18
BRANCH  17  20
ATOM     20  O   UNL     1      16.416 -21.943  91.373  1.00  0.00    -0.504 OA
ATOM     21  H   UNL     1      15.660 -22.463  91.803  1.00  0.00     0.293 HD
ENDBRANCH  17  20
ENDBRANCH   1  12
BRANCH   6  22
ATOM     22  O   UNL     1      10.603 -20.268  83.875  1.00  0.00    -0.507 OA
ATOM     23  H   UNL     1      10.455 -21.212  84.197  1.00  0.00     0.293 HD
ENDBRANCH   6  22
BRANCH   8  24
ATOM     24  O   UNL     1      10.887 -15.532  84.626  1.00  0.00    -0.508 OA
ATOM     25  H   UNL     1       9.976 -15.171  84.881  1.00  0.00     0.293 HD
ENDBRANCH   8  24
TORSDOF 5
ENDMDL
MODEL 4
REMARK VINA RESULT:    -4.435     14.388     14.822
REMARK INTER + INTRA:          -5.528
REMARK INTER:                  -5.231
REMARK INTRA:                  -0.296
REMARK UNBOUND:                -0.314
REMARK SMILES O=c1cc(-c2ccc(O)c(O)c2)oc2cc(O)cc(O)c12
REMARK SMILES IDX 4 1 3 2 2 3 1 4 21 5 19 6 18 7 16 8 15 9 14 10 13 11 5 12
REMARK SMILES IDX 6 13 7 14 8 15 12 16 10 17 9 18 11 20 20 22 17 24
REMARK H PARENT 9 19 11 21 20 23 17 25
REMARK Flexibility Score: inf
ROOT
ATOM      1  C   UNL     1       7.837 -19.446 101.111  1.00  0.00     0.138 A 
ATOM      2  C   UNL     1       7.930 -18.047 101.119  1.00  0.00     0.100 A 
ATOM      3  C   UNL     1       7.032 -17.291 100.365  1.00  0.00     0.197 A 
ATOM      4  O   UNL     1       7.180 -16.043 100.342  1.00  0.00    -0.289 OA
ATOM      5  C   UNL     1       6.016 -17.940  99.623  1.00  0.00     0.107 A 
ATOM      6  C   UNL     1       5.019 -17.271  98.851  1.00  0.00     0.134 A 
ATOM      7  C   UNL     1       4.136 -18.021  98.066  1.00  0.00     0.093 A 
ATOM      8  C   UNL     1       4.173 -19.418  98.073  1.00  0.00     0.123 A 
ATOM      9  C   UNL     1       5.107 -20.082  98.865  1.00  0.00     0.094 A 
ATOM     10  C   UNL     1       6.025 -19.361  99.633  1.00  0.00     0.146 A 
ATOM     11  O   UNL     1       6.908 -20.032 100.363  1.00  0.00    -0.456 OA
ENDROOT
BRANCH   1  12
ATOM     12  C   UNL     1       8.766 -20.298 101.896  1.00  0.00     0.021 A 
ATOM     13  C   UNL     1       8.574 -21.690 101.921  1.00  0.00     0.016 A 
ATOM     14  C   UNL     1       9.429 -22.513 102.658  1.00  0.00     0.051 A 
ATOM     15  C   UNL     1      10.486 -21.957 103.390  1.00  0.00     0.157 A 
ATOM     16  C   UNL     1       9.824 -19.745 102.645  1.00  0.00     0.062 A 
ATOM     17  C   UNL     1      10.681 -20.572 103.386  1.00  0.00     0.158 A 
BRANCH  15  18
ATOM     18  O   UNL     1      11.343 -22.775 104.125  1.00  0.00    -0.504 OA
ATOM     19  H   UNL     1      11.581 -22.565 105.086  1.00  0.00     0.293 HD
ENDBRANCH  15  18
BRANCH  17  20
ATOM     20  O   UNL     1      11.727 -20.021 104.125  1.00  0.00    -0.504 OA
ATOM     21  H   UNL     1      11.562 -19.316 104.835  1.00  0.00     0.293 HD
ENDBRANCH  17  20
ENDBRANCH   1  12
BRANCH   6  22
ATOM     22  O   UNL     1       4.842 -15.885  98.840  1.00  0.00    -0.507 OA
ATOM     23  H   UNL     1       4.009 -15.412  98.525  1.00  0.00     0.293 HD
ENDBRANCH   6  22
BRANCH   8  24
ATOM     24  O   UNL     1       3.279 -20.157  97.299  1.00  0.00    -0.508 OA
ATOM     25  H   UNL     1       3.370 -21.161  97.201  1.00  0.00     0.293 HD
ENDBRANCH   8  24
TORSDOF 5
ENDMDL
MODEL 5
REMARK VINA RESULT:    -4.285     14.549     15.148
REMARK INTER + INTRA:          -5.351
REMARK INTER:                  -5.034
REMARK INTRA:                  -0.317
REMARK UNBOUND:                -0.314
REMARK SMILES O=c1cc(-c2ccc(O)c(O)c2)oc2cc(O)cc(O)c12
REMARK SMILES IDX 4 1 3 2 2 3 1 4 21 5 19 6 18 7 16 8 15 9 14 10 13 11 5 12
REMARK SMILES IDX 6 13 7 14 8 15 12 16 10 17 9 18 11 20 20 22 17 24
REMARK H PARENT 9 19 11 21 20 23 17 25
REMARK Flexibility Score: inf
ROOT
ATOM      1  C   UNL     1       7.722 -19.889 101.069  1.00  0.00     0.138 A 
ATOM      2  C   UNL     1       6.644 -20.547 100.460  1.00  0.00     0.100 A 
ATOM      3  C   UNL     1       5.712 -19.813  99.726  1.00  0.00     0.197 A 
ATOM      4  O   UNL     1       4.723 -20.421  99.244  1.00  0.00    -0.289 OA
ATOM      5  C   UNL     1       5.880 -18.415  99.574  1.00  0.00     0.107 A 
ATOM      6  C   UNL     1       5.018 -17.571  98.813  1.00  0.00     0.134 A 
ATOM      7  C   UNL     1       5.217 -16.185  98.831  1.00  0.00     0.093 A 
ATOM      8  C   UNL     1       6.285 -15.619  99.532  1.00  0.00     0.123 A 
ATOM      9  C   UNL     1       7.165 -16.440 100.233  1.00  0.00     0.094 A 
ATOM     10  C   UNL     1       6.972 -17.823 100.264  1.00  0.00     0.146 A 
ATOM     11  O   UNL     1       7.826 -18.569 100.957  1.00  0.00    -0.456 OA
ENDROOT
BRANCH   1  12
ATOM     12  C   UNL     1       8.742 -20.621 101.861  1.00  0.00     0.021 A 
ATOM     13  C   UNL     1       8.725 -22.026 101.880  1.00  0.00     0.016 A 
ATOM     14  C   UNL     1       9.669 -22.739 102.625  1.00  0.00     0.051 A 
ATOM     15  C   UNL     1      10.639 -22.059 103.370  1.00  0.00     0.157 A 
ATOM     16  C   UNL     1       9.714 -19.943 102.624  1.00  0.00     0.062 A 
ATOM     17  C   UNL     1      10.660 -20.660 103.372  1.00  0.00     0.158 A 
BRANCH  15  18
ATOM     18  O   UNL     1      11.584 -22.766 104.112  1.00  0.00    -0.504 OA
ATOM     19  H   UNL     1      11.602 -22.724 105.124  1.00  0.00     0.293 HD
ENDBRANCH  15  18
BRANCH  17  20
ATOM     20  O   UNL     1      11.621 -19.985 104.125  1.00  0.00    -0.504 OA
ATOM     21  H   UNL     1      11.395 -19.143 104.642  1.00  0.00     0.293 HD
ENDBRANCH  17  20
ENDBRANCH   1  12
BRANCH   6  22
ATOM     22  O   UNL     1       3.974 -18.041  98.011  1.00  0.00    -0.507 OA
ATOM     23  H   UNL     1       3.404 -18.847  98.219  1.00  0.00     0.293 HD
ENDBRANCH   6  22
BRANCH   8  24
ATOM     24  O   UNL     1       6.485 -14.240  99.531  1.00  0.00    -0.508 OA
ATOM     25  H   UNL     1       5.721 -13.595  99.694  1.00  0.00     0.293 HD
ENDBRANCH   8  24
TORSDOF 5
ENDMDL
MODEL 6
REMARK VINA RESULT:    -4.284      3.123      6.868
REMARK INTER + INTRA:          -5.349
REMARK INTER:                  -5.074
REMARK INTRA:                  -0.275
REMARK UNBOUND:                -0.314
REMARK SMILES O=c1cc(-c2ccc(O)c(O)c2)oc2cc(O)cc(O)c12
REMARK SMILES IDX 4 1 3 2 2 3 1 4 21 5 19 6 18 7 16 8 15 9 14 10 13 11 5 12
REMARK SMILES IDX 6 13 7 14 8 15 12 16 10 17 9 18 11 20 20 22 17 24
REMARK H PARENT 9 19 11 21 20 23 17 25
REMARK Flexibility Score: inf
ROOT
ATOM      1  C   UNL     1      12.881 -17.199  86.453  1.00  0.00     0.138 A 
ATOM      2  C   UNL     1      13.340 -17.267  87.777  1.00  0.00     0.100 A 
ATOM      3  C   UNL     1      13.976 -16.162  88.344  1.00  0.00     0.197 A 
ATOM      4  O   UNL     1      14.432 -16.274  89.510  1.00  0.00    -0.289 OA
ATOM      5  C   UNL     1      14.125 -14.972  87.591  1.00  0.00     0.107 A 
ATOM      6  C   UNL     1      14.719 -13.770  88.079  1.00  0.00     0.134 A 
ATOM      7  C   UNL     1      14.917 -12.694  87.206  1.00  0.00     0.093 A 
ATOM      8  C   UNL     1      14.486 -12.755  85.878  1.00  0.00     0.123 A 
ATOM      9  C   UNL     1      13.856 -13.904  85.406  1.00  0.00     0.094 A 
ATOM     10  C   UNL     1      13.675 -15.007  86.244  1.00  0.00     0.146 A 
ATOM     11  O   UNL     1      13.083 -16.089  85.751  1.00  0.00    -0.456 OA
ENDROOT
BRANCH   1  12
ATOM     12  C   UNL     1      12.198 -18.344  85.801  1.00  0.00     0.021 A 
ATOM     13  C   UNL     1      12.894 -19.550  85.614  1.00  0.00     0.016 A 
ATOM     14  C   UNL     1      12.276 -20.640  84.995  1.00  0.00     0.051 A 
ATOM     15  C   UNL     1      10.955 -20.539  84.544  1.00  0.00     0.157 A 
ATOM     16  C   UNL     1      10.872 -18.246  85.333  1.00  0.00     0.062 A 
ATOM     17  C   UNL     1      10.253 -19.340  84.710  1.00  0.00     0.158 A 
BRANCH  15  18
ATOM     18  O   UNL     1      10.334 -21.625  83.928  1.00  0.00    -0.504 OA
ATOM     19  H   UNL     1       9.326 -21.717  83.908  1.00  0.00     0.293 HD
ENDBRANCH  15  18
BRANCH  17  20
ATOM     20  O   UNL     1       8.941 -19.240  84.250  1.00  0.00    -0.504 OA
ATOM     21  H   UNL     1       8.563 -18.362  83.909  1.00  0.00     0.293 HD
ENDBRANCH  17  20
ENDBRANCH   1  12
BRANCH   6  22
ATOM     22  O   UNL     1      15.108 -13.576  89.408  1.00  0.00    -0.507 OA
ATOM     23  H   UNL     1      15.956 -13.932  89.819  1.00  0.00     0.293 HD
ENDBRANCH   6  22
BRANCH   8  24
ATOM     24  O   UNL     1      14.673 -11.672  85.020  1.00  0.00    -0.508 OA
ATOM     25  H   UNL     1      15.587 -11.258  84.883  1.00  0.00     0.293 HD
ENDBRANCH   8  24
TORSDOF 5
ENDMDL
MODEL 7
REMARK VINA RESULT:    -4.273     13.972     16.399
REMARK INTER + INTRA:          -5.337
REMARK INTER:                  -5.041
REMARK INTRA:                  -0.295
REMARK UNBOUND:                -0.314
REMARK SMILES O=c1cc(-c2ccc(O)c(O)c2)oc2cc(O)cc(O)c12
REMARK SMILES IDX 4 1 3 2 2 3 1 4 21 5 19 6 18 7 16 8 15 9 14 10 13 11 5 12
REMARK SMILES IDX 6 13 7 14 8 15 12 16 10 17 9 18 11 20 20 22 17 24
REMARK H PARENT 9 19 11 21 20 23 17 25
REMARK Flexibility Score: inf
ROOT
ATOM      1  C   UNL     1       6.612 -19.315 100.253  1.00  0.00     0.138 A 
ATOM      2  C   UNL     1       7.205 -20.490 100.738  1.00  0.00     0.100 A 
ATOM      3  C   UNL     1       8.150 -20.414 101.762  1.00  0.00     0.197 A 
ATOM      4  O   UNL     1       8.710 -21.477 102.133  1.00  0.00    -0.289 OA
ATOM      5  C   UNL     1       8.478 -19.157 102.325  1.00  0.00     0.107 A 
ATOM      6  C   UNL     1       9.396 -18.963 103.400  1.00  0.00     0.134 A 
ATOM      7  C   UNL     1       9.730 -17.662 103.796  1.00  0.00     0.093 A 
ATOM      8  C   UNL     1       9.133 -16.550 103.196  1.00  0.00     0.123 A 
ATOM      9  C   UNL     1       8.196 -16.731 102.181  1.00  0.00     0.094 A 
ATOM     10  C   UNL     1       7.867 -18.015 101.741  1.00  0.00     0.146 A 
ATOM     11  O   UNL     1       6.979 -18.143 100.761  1.00  0.00    -0.456 OA
ENDROOT
BRANCH   1  12
ATOM     12  C   UNL     1       5.602 -19.338  99.166  1.00  0.00     0.021 A 
ATOM     13  C   UNL     1       4.879 -18.170  98.868  1.00  0.00     0.016 A 
ATOM     14  C   UNL     1       3.916 -18.169  97.855  1.00  0.00     0.051 A 
ATOM     15  C   UNL     1       3.654 -19.336  97.129  1.00  0.00     0.157 A 
ATOM     16  C   UNL     1       5.323 -20.513  98.440  1.00  0.00     0.062 A 
ATOM     17  C   UNL     1       4.355 -20.511  97.423  1.00  0.00     0.158 A 
BRANCH  15  18
ATOM     18  O   UNL     1       2.696 -19.338  96.116  1.00  0.00    -0.504 OA
ATOM     19  H   UNL     1       2.643 -18.589  95.437  1.00  0.00     0.293 HD
ENDBRANCH  15  18
BRANCH  17  20
ATOM     20  O   UNL     1       4.083 -21.675  96.706  1.00  0.00    -0.504 OA
ATOM     21  H   UNL     1       3.331 -21.717  96.028  1.00  0.00     0.293 HD
ENDBRANCH  17  20
ENDBRANCH   1  12
BRANCH   6  22
ATOM     22  O   UNL     1       9.983 -20.005 104.123  1.00  0.00    -0.507 OA
ATOM     23  H   UNL     1       9.491 -20.620 104.753  1.00  0.00     0.293 HD
ENDBRANCH   6  22
BRANCH   8  24
ATOM     24  O   UNL     1       9.461 -15.259 103.607  1.00  0.00    -0.508 OA
ATOM     25  H   UNL     1      10.339 -15.058 104.068  1.00  0.00     0.293 HD
ENDBRANCH   8  24
TORSDOF 5
ENDMDL
MODEL 8
REMARK VINA RESULT:    -4.269     13.933     15.936
REMARK INTER + INTRA:          -5.332
REMARK INTER:                  -5.034
REMARK INTRA:                  -0.298
REMARK UNBOUND:                -0.314
REMARK SMILES O=c1cc(-c2ccc(O)c(O)c2)oc2cc(O)cc(O)c12
REMARK SMILES IDX 4 1 3 2 2 3 1 4 21 5 19 6 18 7 16 8 15 9 14 10 13 11 5 12
REMARK SMILES IDX 6 13 7 14 8 15 12 16 10 17 9 18 11 20 20 22 17 24
REMARK H PARENT 9 19 11 21 20 23 17 25
REMARK Flexibility Score: inf
ROOT
ATOM      1  C   UNL     1       5.898 -18.714  99.497  1.00  0.00     0.138 A 
ATOM      2  C   UNL     1       6.205 -17.346  99.512  1.00  0.00     0.100 A 
ATOM      3  C   UNL     1       7.109 -16.852 100.453  1.00  0.00     0.197 A 
ATOM      4  O   UNL     1       7.317 -15.612 100.483  1.00  0.00    -0.289 OA
ATOM      5  C   UNL     1       7.731 -17.739 101.365  1.00  0.00     0.107 A 
ATOM      6  C   UNL     1       8.699 -17.355 102.340  1.00  0.00     0.134 A 
ATOM      7  C   UNL     1       9.159 -18.300 103.265  1.00  0.00     0.093 A 
ATOM      8  C   UNL     1       8.733 -19.629 103.210  1.00  0.00     0.123 A 
ATOM      9  C   UNL     1       7.830 -20.027 102.227  1.00  0.00     0.094 A 
ATOM     10  C   UNL     1       7.325 -19.099 101.312  1.00  0.00     0.146 A 
ATOM     11  O   UNL     1       6.454 -19.516 100.399  1.00  0.00    -0.456 OA
ENDROOT
BRANCH   1  12
ATOM     12  C   UNL     1       4.944 -19.293  98.518  1.00  0.00     0.021 A 
ATOM     13  C   UNL     1       3.790 -18.572  98.167  1.00  0.00     0.016 A 
ATOM     14  C   UNL     1       2.873 -19.099  97.253  1.00  0.00     0.051 A 
ATOM     15  C   UNL     1       3.090 -20.359  96.682  1.00  0.00     0.157 A 
ATOM     16  C   UNL     1       5.149 -20.566  97.949  1.00  0.00     0.062 A 
ATOM     17  C   UNL     1       4.227 -21.094  97.033  1.00  0.00     0.158 A 
BRANCH  15  18
ATOM     18  O   UNL     1       2.178 -20.886  95.769  1.00  0.00    -0.504 OA
ATOM     19  H   UNL     1       1.259 -20.480  95.644  1.00  0.00     0.293 HD
ENDBRANCH  15  18
BRANCH  17  20
ATOM     20  O   UNL     1       4.434 -22.354  96.471  1.00  0.00    -0.504 OA
ATOM     21  H   UNL     1       4.013 -22.616  95.587  1.00  0.00     0.293 HD
ENDBRANCH  17  20
ENDBRANCH   1  12
BRANCH   6  22
ATOM     22  O   UNL     1       9.253 -16.074 102.428  1.00  0.00    -0.507 OA
ATOM     23  H   UNL     1       8.726 -15.225 102.560  1.00  0.00     0.293 HD
ENDBRANCH   6  22
BRANCH   8  24
ATOM     24  O   UNL     1       9.209 -20.567 104.125  1.00  0.00    -0.508 OA
ATOM     25  H   UNL     1       8.951 -20.529 105.104  1.00  0.00     0.293 HD
ENDBRANCH   8  24
TORSDOF 5
ENDMDL
MODEL 9
REMARK VINA RESULT:    -4.245     13.899     16.231
REMARK INTER + INTRA:          -5.304
REMARK INTER:                  -4.988
REMARK INTRA:                  -0.316
REMARK UNBOUND:                -0.314
REMARK SMILES O=c1cc(-c2ccc(O)c(O)c2)oc2cc(O)cc(O)c12
REMARK SMILES IDX 4 1 3 2 2 3 1 4 21 5 19 6 18 7 16 8 15 9 14 10 13 11 5 12
REMARK SMILES IDX 6 13 7 14 8 15 12 16 10 17 9 18 11 20 20 22 17 24
REMARK H PARENT 9 19 11 21 20 23 17 25
REMARK Flexibility Score: inf
ROOT
ATOM      1  C   UNL     1       6.809 -18.716 100.397  1.00  0.00     0.138 A 
ATOM      2  C   UNL     1       7.062 -17.413 100.848  1.00  0.00     0.100 A 
ATOM      3  C   UNL     1       7.973 -17.205 101.884  1.00  0.00     0.197 A 
ATOM      4  O   UNL     1       8.132 -16.033 102.310  1.00  0.00    -0.289 OA
ATOM      5  C   UNL     1       8.657 -18.308 102.450  1.00  0.00     0.107 A 
ATOM      6  C   UNL     1       9.638 -18.213 103.482  1.00  0.00     0.134 A 
ATOM      7  C   UNL     1      10.164 -19.382 104.045  1.00  0.00     0.093 A 
ATOM      8  C   UNL     1       9.789 -20.642 103.569  1.00  0.00     0.123 A 
ATOM      9  C   UNL     1       8.873 -20.744 102.525  1.00  0.00     0.094 A 
ATOM     10  C   UNL     1       8.305 -19.597 101.967  1.00  0.00     0.146 A 
ATOM     11  O   UNL     1       7.424 -19.738 100.983  1.00  0.00    -0.456 OA
ENDROOT
BRANCH   1  12
ATOM     12  C   UNL     1       5.850 -18.993  99.298  1.00  0.00     0.021 A 
ATOM     13  C   UNL     1       4.987 -17.974  98.859  1.00  0.00     0.016 A 
ATOM     14  C   UNL     1       4.070 -18.212  97.832  1.00  0.00     0.051 A 
ATOM     15  C   UNL     1       3.994 -19.475  97.233  1.00  0.00     0.157 A 
ATOM     16  C   UNL     1       5.758 -20.266  98.699  1.00  0.00     0.062 A 
ATOM     17  C   UNL     1       4.836 -20.504  97.669  1.00  0.00     0.158 A 
BRANCH  15  18
ATOM     18  O   UNL     1       3.081 -19.716  96.207  1.00  0.00    -0.504 OA
ATOM     19  H   UNL     1       3.351 -19.653  95.233  1.00  0.00     0.293 HD
ENDBRANCH  15  18
BRANCH  17  20
ATOM     20  O   UNL     1       4.749 -21.764  97.078  1.00  0.00    -0.504 OA
ATOM     21  H   UNL     1       5.064 -21.927  96.128  1.00  0.00     0.293 HD
ENDBRANCH  17  20
ENDBRANCH   1  12
BRANCH   6  22
ATOM     22  O   UNL     1      10.143 -17.004 103.970  1.00  0.00    -0.507 OA
ATOM     23  H   UNL     1       9.668 -16.403 104.625  1.00  0.00     0.293 HD
ENDBRANCH   6  22
BRANCH   8  24
ATOM     24  O   UNL     1      10.330 -21.801 104.125  1.00  0.00    -0.508 OA
ATOM     25  H   UNL     1      10.233 -22.009 105.111  1.00  0.00     0.293 HD
ENDBRANCH   8  24
TORSDOF 5
ENDMDL
