MODEL 1
REMARK VINA RESULT:    -2.849      0.000      0.000
REMARK INTER + INTRA:          -4.403
REMARK INTER:                  -3.848
REMARK INTRA:                  -0.554
REMARK UNBOUND:                -0.554
REMARK SMILES [NH3+]CCCC[C@H]([NH3+])C(=O)[O-]
REMARK SMILES IDX 4 1 3 2 2 3 1 4 5 8 6 9 7 10 8 14 9 15 10 16
REMARK H PARENT 1 5 1 6 1 7 7 11 7 12 7 13
REMARK Flexibility Score: inf
ROOT
ATOM      1  C   UNL     1      11.752  -0.801   1.345  1.00  0.00     0.012 C 
ENDROOT
BRANCH   1   2
ATOM      2  C   UNL     1      10.382  -0.448   1.942  1.00  0.00     0.061 C 
BRANCH   2   3
ATOM      3  C   UNL     1      10.478   0.591   3.072  1.00  0.00     0.258 C 
BRANCH   3   4
ATOM      4  N   UNL     1      10.161   1.943   2.608  1.00  0.00    -0.358 N 
ATOM      5  H   UNL     1       9.406   1.913   1.888  1.00  0.00     0.344 HD
ATOM      6  H   UNL     1       9.821   2.509   3.419  1.00  0.00     0.344 HD
ATOM      7  H   UNL     1      11.014   2.403   2.213  1.00  0.00     0.344 HD
ENDBRANCH   3   4
ENDBRANCH   2   3
ENDBRANCH   1   2
BRANCH   1   8
ATOM      8  C   UNL     1      11.898  -0.219  -0.072  1.00  0.00     0.072 C 
BRANCH   8   9
ATOM      9  C   UNL     1      12.767   1.057  -0.151  1.00  0.00     0.227 C 
BRANCH   9  10
ATOM     10  N   UNL     1      13.378   1.392   1.144  1.00  0.00    -0.350 N 
ATOM     11  H   UNL     1      13.007   0.756   1.887  1.00  0.00     0.345 HD
ATOM     12  H   UNL     1      14.413   1.256   1.086  1.00  0.00     0.345 HD
ATOM     13  H   UNL     1      13.186   2.384   1.413  1.00  0.00     0.345 HD
ENDBRANCH   9  10
BRANCH   9  14
ATOM     14  C   UNL     1      11.994   2.221  -0.717  1.00  0.00     0.099 C 
ATOM     15  O   UNL     1      11.185   2.871  -0.002  1.00  0.00    -0.544 OA
ATOM     16  O   UNL     1      12.137   2.552  -2.060  1.00  0.00    -0.544 OA
ENDBRANCH   9  14
ENDBRANCH   8   9
ENDBRANCH   1   8
TORSDOF 7
ENDMDL
MODEL 2
REMARK VINA RESULT:    -2.820      1.825      3.274
REMARK INTER + INTRA:          -4.363
REMARK INTER:                  -4.157
REMARK INTRA:                  -0.207
REMARK UNBOUND:                -0.554
REMARK SMILES [NH3+]CCCC[C@H]([NH3+])C(=O)[O-]
REMARK SMILES IDX 4 1 3 2 2 3 1 4 5 8 6 9 7 10 8 14 9 15 10 16
REMARK H PARENT 1 5 1 6 1 7 7 11 7 12 7 13
REMARK Flexibility Score: inf
ROOT
ATOM      1  C   UNL     1      11.037  -0.617   0.198  1.00  0.00     0.012 C 
ENDROOT
BRANCH   1   2
ATOM      2  C   UNL     1      12.572  -0.581   0.223  1.00  0.00     0.061 C 
BRANCH   2   3
ATOM      3  C   UNL     1      13.170  -1.534   1.271  1.00  0.00     0.258 C 
BRANCH   3   4
ATOM      4  N   UNL     1      14.369  -2.216   0.778  1.00  0.00    -0.358 N 
ATOM      5  H   UNL     1      14.358  -2.263  -0.265  1.00  0.00     0.344 HD
ATOM      6  H   UNL     1      15.213  -1.675   1.074  1.00  0.00     0.344 HD
ATOM      7  H   UNL     1      14.432  -3.180   1.179  1.00  0.00     0.344 HD
ENDBRANCH   3   4
ENDBRANCH   2   3
ENDBRANCH   1   2
BRANCH   1   8
ATOM      8  C   UNL     1      10.456  -0.166   1.550  1.00  0.00     0.072 C 
BRANCH   8   9
ATOM      9  C   UNL     1      10.721   1.318   1.894  1.00  0.00     0.227 C 
BRANCH   9  10
ATOM     10  N   UNL     1      10.154   1.694   3.198  1.00  0.00    -0.350 N 
ATOM     11  H   UNL     1      10.815   2.330   3.702  1.00  0.00     0.345 HD
ATOM     12  H   UNL     1       9.256   2.208   3.051  1.00  0.00     0.345 HD
ATOM     13  H   UNL     1       9.966   0.854   3.791  1.00  0.00     0.345 HD
ENDBRANCH   9  10
BRANCH   9  14
ATOM     14  C   UNL     1      10.245   2.236   0.797  1.00  0.00     0.099 C 
ATOM     15  O   UNL     1       9.027   2.289   0.479  1.00  0.00    -0.544 OA
ATOM     16  O   UNL     1      11.168   2.998   0.091  1.00  0.00    -0.544 OA
ENDBRANCH   9  14
ENDBRANCH   8   9
ENDBRANCH   1   8
TORSDOF 7
ENDMDL
MODEL 3
REMARK VINA RESULT:    -2.746      2.902      3.732
REMARK INTER + INTRA:          -4.264
REMARK INTER:                  -3.812
REMARK INTRA:                  -0.451
REMARK UNBOUND:                -0.554
REMARK SMILES [NH3+]CCCC[C@H]([NH3+])C(=O)[O-]
REMARK SMILES IDX 4 1 3 2 2 3 1 4 5 8 6 9 7 10 8 14 9 15 10 16
REMARK H PARENT 1 5 1 6 1 7 7 11 7 12 7 13
REMARK Flexibility Score: inf
ROOT
ATOM      1  C   UNL     1      13.104  -0.243   0.519  1.00  0.00     0.012 C 
ENDROOT
BRANCH   1   2
ATOM      2  C   UNL     1      13.794  -1.609   0.637  1.00  0.00     0.061 C 
BRANCH   2   3
ATOM      3  C   UNL     1      13.733  -2.183   2.063  1.00  0.00     0.258 C 
BRANCH   3   4
ATOM      4  N   UNL     1      12.688  -1.547   2.870  1.00  0.00    -0.358 N 
ATOM      5  H   UNL     1      12.857  -0.519   2.939  1.00  0.00     0.344 HD
ATOM      6  H   UNL     1      11.763  -1.698   2.406  1.00  0.00     0.344 HD
ATOM      7  H   UNL     1      12.657  -1.970   3.825  1.00  0.00     0.344 HD
ENDBRANCH   3   4
ENDBRANCH   2   3
ENDBRANCH   1   2
BRANCH   1   8
ATOM      8  C   UNL     1      11.799  -0.355  -0.289  1.00  0.00     0.072 C 
BRANCH   8   9
ATOM      9  C   UNL     1      10.569   0.287   0.393  1.00  0.00     0.227 C 
BRANCH   9  10
ATOM     10  N   UNL     1      10.954   1.245   1.440  1.00  0.00    -0.350 N 
ATOM     11  H   UNL     1      10.722   2.219   1.134  1.00  0.00     0.345 HD
ATOM     12  H   UNL     1      10.415   1.041   2.313  1.00  0.00     0.345 HD
ATOM     13  H   UNL     1      11.975   1.187   1.656  1.00  0.00     0.345 HD
ENDBRANCH   9  10
BRANCH   9  14
ATOM     14  C   UNL     1       9.618  -0.757   0.920  1.00  0.00     0.099 C 
ATOM     15  O   UNL     1       9.779  -1.263   2.063  1.00  0.00    -0.544 OA
ATOM     16  O   UNL     1       8.577  -1.206   0.116  1.00  0.00    -0.544 OA
ENDBRANCH   9  14
ENDBRANCH   8   9
ENDBRANCH   1   8
TORSDOF 7
ENDMDL
MODEL 4
REMARK VINA RESULT:    -2.735      1.836      2.944
REMARK INTER + INTRA:          -4.249
REMARK INTER:                  -3.709
REMARK INTRA:                  -0.540
REMARK UNBOUND:                -0.554
REMARK SMILES [NH3+]CCCC[C@H]([NH3+])C(=O)[O-]
REMARK SMILES IDX 4 1 3 2 2 3 1 4 5 8 6 9 7 10 8 14 9 15 10 16
REMARK H PARENT 1 5 1 6 1 7 7 11 7 12 7 13
REMARK Flexibility Score: inf
ROOT
ATOM      1  C   UNL     1      13.062  -1.042   0.506  1.00  0.00     0.012 C 
ENDROOT
BRANCH   1   2
ATOM      2  C   UNL     1      13.648  -0.026   1.497  1.00  0.00     0.061 C 
BRANCH   2   3
ATOM      3  C   UNL     1      14.486   1.062   0.804  1.00  0.00     0.258 C 
BRANCH   3   4
ATOM      4  N   UNL     1      13.918   2.399   0.989  1.00  0.00    -0.358 N 
ATOM      5  H   UNL     1      13.155   2.570   0.297  1.00  0.00     0.344 HD
ATOM      6  H   UNL     1      13.510   2.464   1.950  1.00  0.00     0.344 HD
ATOM      7  H   UNL     1      14.661   3.129   0.890  1.00  0.00     0.344 HD
ENDBRANCH   3   4
ENDBRANCH   2   3
ENDBRANCH   1   2
BRANCH   1   8
ATOM      8  C   UNL     1      11.894  -0.427  -0.284  1.00  0.00     0.072 C 
BRANCH   8   9
ATOM      9  C   UNL     1      10.780   0.184   0.597  1.00  0.00     0.227 C 
BRANCH   9  10
ATOM     10  N   UNL     1       9.573  -0.654   0.626  1.00  0.00    -0.350 N 
ATOM     11  H   UNL     1       9.243  -0.769   1.612  1.00  0.00     0.345 HD
ATOM     12  H   UNL     1       8.813  -0.188   0.080  1.00  0.00     0.345 HD
ATOM     13  H   UNL     1       9.752  -1.598   0.212  1.00  0.00     0.345 HD
ENDBRANCH   9  10
BRANCH   9  14
ATOM     14  C   UNL     1      10.462   1.600   0.188  1.00  0.00     0.099 C 
ATOM     15  O   UNL     1       9.359   2.130   0.491  1.00  0.00    -0.544 OA
ATOM     16  O   UNL     1      11.375   2.315  -0.578  1.00  0.00    -0.544 OA
ENDBRANCH   9  14
ENDBRANCH   8   9
ENDBRANCH   1   8
TORSDOF 7
ENDMDL
MODEL 5
REMARK VINA RESULT:    -2.720      2.357      3.466
REMARK INTER + INTRA:          -4.229
REMARK INTER:                  -4.065
REMARK INTRA:                  -0.164
REMARK UNBOUND:                -0.554
REMARK SMILES [NH3+]CCCC[C@H]([NH3+])C(=O)[O-]
REMARK SMILES IDX 4 1 3 2 2 3 1 4 5 8 6 9 7 10 8 14 9 15 10 16
REMARK H PARENT 1 5 1 6 1 7 7 11 7 12 7 13
REMARK Flexibility Score: inf
ROOT
ATOM      1  C   UNL     1      13.266  -0.595   0.560  1.00  0.00     0.012 C 
ENDROOT
BRANCH   1   2
ATOM      2  C   UNL     1      13.064  -1.591   1.711  1.00  0.00     0.061 C 
BRANCH   2   3
ATOM      3  C   UNL     1      14.209  -2.612   1.820  1.00  0.00     0.258 C 
BRANCH   3   4
ATOM      4  N   UNL     1      14.880  -2.828   0.536  1.00  0.00    -0.358 N 
ATOM      5  H   UNL     1      15.434  -3.713   0.560  1.00  0.00     0.344 HD
ATOM      6  H   UNL     1      14.156  -2.914  -0.214  1.00  0.00     0.344 HD
ATOM      7  H   UNL     1      15.504  -2.021   0.309  1.00  0.00     0.344 HD
ENDBRANCH   3   4
ENDBRANCH   2   3
ENDBRANCH   1   2
BRANCH   1   8
ATOM      8  C   UNL     1      11.956  -0.384  -0.219  1.00  0.00     0.072 C 
BRANCH   8   9
ATOM      9  C   UNL     1      10.811   0.235   0.615  1.00  0.00     0.227 C 
BRANCH   9  10
ATOM     10  N   UNL     1       9.610  -0.614   0.623  1.00  0.00    -0.350 N 
ATOM     11  H   UNL     1       9.688  -1.346  -0.120  1.00  0.00     0.345 HD
ATOM     12  H   UNL     1       9.531  -1.095   1.548  1.00  0.00     0.345 HD
ATOM     13  H   UNL     1       8.743  -0.052   0.463  1.00  0.00     0.345 HD
ENDBRANCH   9  10
BRANCH   9  14
ATOM     14  C   UNL     1      10.494   1.639   0.167  1.00  0.00     0.099 C 
ATOM     15  O   UNL     1       9.393   2.179   0.458  1.00  0.00    -0.544 OA
ATOM     16  O   UNL     1      11.407   2.332  -0.620  1.00  0.00    -0.544 OA
ENDBRANCH   9  14
ENDBRANCH   8   9
ENDBRANCH   1   8
TORSDOF 7
ENDMDL
MODEL 6
REMARK VINA RESULT:    -2.686      1.395      1.851
REMARK INTER + INTRA:          -4.183
REMARK INTER:                  -3.958
REMARK INTRA:                  -0.225
REMARK UNBOUND:                -0.554
REMARK SMILES [NH3+]CCCC[C@H]([NH3+])C(=O)[O-]
REMARK SMILES IDX 4 1 3 2 2 3 1 4 5 8 6 9 7 10 8 14 9 15 10 16
REMARK H PARENT 1 5 1 6 1 7 7 11 7 12 7 13
REMARK Flexibility Score: inf
ROOT
ATOM      1  C   UNL     1      12.180  -0.596   1.606  1.00  0.00     0.012 C 
ENDROOT
BRANCH   1   2
ATOM      2  C   UNL     1      10.693  -0.846   1.893  1.00  0.00     0.061 C 
BRANCH   2   3
ATOM      3  C   UNL     1       9.770  -0.185   0.856  1.00  0.00     0.258 C 
BRANCH   3   4
ATOM      4  N   UNL     1       8.791  -1.126   0.307  1.00  0.00    -0.358 N 
ATOM      5  H   UNL     1       9.276  -1.931  -0.149  1.00  0.00     0.344 HD
ATOM      6  H   UNL     1       8.202  -1.496   1.088  1.00  0.00     0.344 HD
ATOM      7  H   UNL     1       8.169  -0.645  -0.383  1.00  0.00     0.344 HD
ENDBRANCH   3   4
ENDBRANCH   2   3
ENDBRANCH   1   2
BRANCH   1   8
ATOM      8  C   UNL     1      12.389  -0.139   0.152  1.00  0.00     0.072 C 
BRANCH   8   9
ATOM      9  C   UNL     1      13.030   1.260   0.009  1.00  0.00     0.227 C 
BRANCH   9  10
ATOM     10  N   UNL     1      13.482   1.797   1.301  1.00  0.00    -0.350 N 
ATOM     11  H   UNL     1      14.153   1.129   1.748  1.00  0.00     0.345 HD
ATOM     12  H   UNL     1      13.980   2.703   1.146  1.00  0.00     0.345 HD
ATOM     13  H   UNL     1      12.679   1.963   1.949  1.00  0.00     0.345 HD
ENDBRANCH   9  10
BRANCH   9  14
ATOM     14  C   UNL     1      12.110   2.223  -0.699  1.00  0.00     0.099 C 
ATOM     15  O   UNL     1      12.181   2.387  -1.947  1.00  0.00    -0.544 OA
ATOM     16  O   UNL     1      11.206   2.977   0.038  1.00  0.00    -0.544 OA
ENDBRANCH   9  14
ENDBRANCH   8   9
ENDBRANCH   1   8
TORSDOF 7
ENDMDL
MODEL 7
REMARK VINA RESULT:    -2.657      1.158      1.724
REMARK INTER + INTRA:          -4.144
REMARK INTER:                  -3.544
REMARK INTRA:                  -0.600
REMARK UNBOUND:                -0.554
REMARK SMILES [NH3+]CCCC[C@H]([NH3+])C(=O)[O-]
REMARK SMILES IDX 4 1 3 2 2 3 1 4 5 8 6 9 7 10 8 14 9 15 10 16
REMARK H PARENT 1 5 1 6 1 7 7 11 7 12 7 13
REMARK Flexibility Score: inf
ROOT
ATOM      1  C   UNL     1      10.849  -0.793   2.080  1.00  0.00     0.012 C 
ENDROOT
BRANCH   1   2
ATOM      2  C   UNL     1      10.506   0.352   3.044  1.00  0.00     0.061 C 
BRANCH   2   3
ATOM      3  C   UNL     1      11.749   1.134   3.501  1.00  0.00     0.258 C 
BRANCH   3   4
ATOM      4  N   UNL     1      11.825   2.460   2.884  1.00  0.00    -0.358 N 
ATOM      5  H   UNL     1      12.822   2.743   2.751  1.00  0.00     0.344 HD
ATOM      6  H   UNL     1      11.366   2.424   1.945  1.00  0.00     0.344 HD
ATOM      7  H   UNL     1      11.328   3.166   3.474  1.00  0.00     0.344 HD
ENDBRANCH   3   4
ENDBRANCH   2   3
ENDBRANCH   1   2
BRANCH   1   8
ATOM      8  C   UNL     1      10.397  -0.458   0.647  1.00  0.00     0.072 C 
BRANCH   8   9
ATOM      9  C   UNL     1      11.527   0.060  -0.272  1.00  0.00     0.227 C 
BRANCH   9  10
ATOM     10  N   UNL     1      12.861  -0.207   0.285  1.00  0.00    -0.350 N 
ATOM     11  H   UNL     1      12.924   0.176   1.256  1.00  0.00     0.345 HD
ATOM     12  H   UNL     1      13.018  -1.240   0.331  1.00  0.00     0.345 HD
ATOM     13  H   UNL     1      13.614   0.219  -0.302  1.00  0.00     0.345 HD
ENDBRANCH   9  10
BRANCH   9  14
ATOM     14  C   UNL     1      11.347   1.520  -0.604  1.00  0.00     0.099 C 
ATOM     15  O   UNL     1      11.983   2.052  -1.553  1.00  0.00    -0.544 OA
ATOM     16  O   UNL     1      10.507   2.304   0.178  1.00  0.00    -0.544 OA
ENDBRANCH   9  14
ENDBRANCH   8   9
ENDBRANCH   1   8
TORSDOF 7
ENDMDL
MODEL 8
REMARK VINA RESULT:    -2.610      1.872      3.088
REMARK INTER + INTRA:          -4.080
REMARK INTER:                  -3.608
REMARK INTRA:                  -0.472
REMARK UNBOUND:                -0.554
REMARK SMILES [NH3+]CCCC[C@H]([NH3+])C(=O)[O-]
REMARK SMILES IDX 4 1 3 2 2 3 1 4 5 8 6 9 7 10 8 14 9 15 10 16
REMARK H PARENT 1 5 1 6 1 7 7 11 7 12 7 13
REMARK Flexibility Score: inf
ROOT
ATOM      1  C   UNL     1      12.485  -1.068   0.949  1.00  0.00     0.012 C 
ENDROOT
BRANCH   1   2
ATOM      2  C   UNL     1      13.913  -1.489   0.572  1.00  0.00     0.061 C 
BRANCH   2   3
ATOM      3  C   UNL     1      14.985  -0.707   1.348  1.00  0.00     0.258 C 
BRANCH   3   4
ATOM      4  N   UNL     1      15.559   0.381   0.553  1.00  0.00    -0.358 N 
ATOM      5  H   UNL     1      16.247   0.924   1.121  1.00  0.00     0.344 HD
ATOM      6  H   UNL     1      16.062  -0.028  -0.268  1.00  0.00     0.344 HD
ATOM      7  H   UNL     1      14.805   1.014   0.202  1.00  0.00     0.344 HD
ENDBRANCH   3   4
ENDBRANCH   2   3
ENDBRANCH   1   2
BRANCH   1   8
ATOM      8  C   UNL     1      11.859  -0.200  -0.157  1.00  0.00     0.072 C 
BRANCH   8   9
ATOM      9  C   UNL     1      11.780   1.306   0.183  1.00  0.00     0.227 C 
BRANCH   9  10
ATOM     10  N   UNL     1      10.392   1.782   0.275  1.00  0.00    -0.350 N 
ATOM     11  H   UNL     1       9.735   1.012   0.009  1.00  0.00     0.345 HD
ATOM     12  H   UNL     1      10.185   2.060   1.262  1.00  0.00     0.345 HD
ATOM     13  H   UNL     1      10.227   2.605  -0.346  1.00  0.00     0.345 HD
ENDBRANCH   9  10
BRANCH   9  14
ATOM     14  C   UNL     1      12.588   2.136  -0.783  1.00  0.00     0.099 C 
ATOM     15  O   UNL     1      13.763   2.494  -0.504  1.00  0.00    -0.544 OA
ATOM     16  O   UNL     1      12.011   2.556  -1.976  1.00  0.00    -0.544 OA
ENDBRANCH   9  14
ENDBRANCH   8   9
ENDBRANCH   1   8
TORSDOF 7
ENDMDL
MODEL 9
REMARK VINA RESULT:    -2.521      2.171      2.607
REMARK INTER + INTRA:          -3.960
REMARK INTER:                  -3.367
REMARK INTRA:                  -0.593
REMARK UNBOUND:                -0.554
REMARK SMILES [NH3+]CCCC[C@H]([NH3+])C(=O)[O-]
REMARK SMILES IDX 4 1 3 2 2 3 1 4 5 8 6 9 7 10 8 14 9 15 10 16
REMARK H PARENT 1 5 1 6 1 7 7 11 7 12 7 13
REMARK Flexibility Score: inf
ROOT
ATOM      1  C   UNL     1      12.950  -0.796   0.241  1.00  0.00     0.012 C 
ENDROOT
BRANCH   1   2
ATOM      2  C   UNL     1      12.871  -1.389   1.656  1.00  0.00     0.061 C 
BRANCH   2   3
ATOM      3  C   UNL     1      13.644  -0.556   2.691  1.00  0.00     0.258 C 
BRANCH   3   4
ATOM      4  N   UNL     1      12.807   0.478   3.305  1.00  0.00    -0.358 N 
ATOM      5  H   UNL     1      13.377   1.076   3.944  1.00  0.00     0.344 HD
ATOM      6  H   UNL     1      12.411   1.085   2.552  1.00  0.00     0.344 HD
ATOM      7  H   UNL     1      12.017   0.041   3.834  1.00  0.00     0.344 HD
ENDBRANCH   3   4
ENDBRANCH   2   3
ENDBRANCH   1   2
BRANCH   1   8
ATOM      8  C   UNL     1      11.559  -0.349  -0.244  1.00  0.00     0.072 C 
BRANCH   8   9
ATOM      9  C   UNL     1      11.326   1.178  -0.190  1.00  0.00     0.227 C 
BRANCH   9  10
ATOM     10  N   UNL     1      12.565   1.918   0.093  1.00  0.00    -0.350 N 
ATOM     11  H   UNL     1      12.335   2.848   0.514  1.00  0.00     0.345 HD
ATOM     12  H   UNL     1      13.140   1.382   0.782  1.00  0.00     0.345 HD
ATOM     13  H   UNL     1      13.131   2.064  -0.774  1.00  0.00     0.345 HD
ENDBRANCH   9  10
BRANCH   9  14
ATOM     14  C   UNL     1      10.231   1.539   0.781  1.00  0.00     0.099 C 
ATOM     15  O   UNL     1       9.337   2.370   0.469  1.00  0.00    -0.544 OA
ATOM     16  O   UNL     1      10.234   0.986   2.056  1.00  0.00    -0.544 OA
ENDBRANCH   9  14
ENDBRANCH   8   9
ENDBRANCH   1   8
TORSDOF 7
ENDMDL
