MODEL 1
REMARK VINA RESULT:    -3.468      0.000      0.000
REMARK INTER + INTRA:          -4.477
REMARK INTER:                  -4.381
REMARK INTRA:                  -0.096
REMARK UNBOUND:                -0.096
REMARK SMILES CCCCCCO
REMARK SMILES IDX 4 1 3 2 2 3 1 4 5 5 6 6 7 7
REMARK H PARENT 7 8
REMARK Flexibility Score: inf
ROOT
ATOM      1  C   UNL     1      22.144  23.144  23.163  1.00  0.00     0.002 C 
ENDROOT
BRANCH   1   2
ATOM      2  C   UNL     1      21.785  23.797  24.508  1.00  0.00    -0.000 C 
BRANCH   2   3
ATOM      3  C   UNL     1      20.300  23.636  24.866  1.00  0.00    -0.003 C 
ATOM      4  C   UNL     1      19.612  24.992  24.978  1.00  0.00     0.004 C 
ENDBRANCH   2   3
ENDBRANCH   1   2
BRANCH   1   5
ATOM      5  C   UNL     1      21.310  21.885  22.876  1.00  0.00     0.028 C 
BRANCH   5   6
ATOM      6  C   UNL     1      21.828  21.132  21.649  1.00  0.00     0.156 C 
BRANCH   6   7
ATOM      7  O   UNL     1      23.095  21.608  21.291  1.00  0.00    -0.396 OA
ATOM      8  H   UNL     1      22.991  22.585  21.150  1.00  0.00     0.210 HD
ENDBRANCH   6   7
ENDBRANCH   5   6
ENDBRANCH   1   5
TORSDOF 5
ENDMDL
MODEL 2
REMARK VINA RESULT:    -3.407      8.360      9.256
REMARK INTER + INTRA:          -4.399
REMARK INTER:                  -4.297
REMARK INTRA:                  -0.102
REMARK UNBOUND:                -0.096
REMARK SMILES CCCCCCO
REMARK SMILES IDX 4 1 3 2 2 3 1 4 5 5 6 6 7 7
REMARK H PARENT 7 8
REMARK Flexibility Score: inf
ROOT
ATOM      1  C   UNL     1      29.007  26.041  22.246  1.00  0.00     0.002 C 
ENDROOT
BRANCH   1   2
ATOM      2  C   UNL     1      30.318  26.382  22.973  1.00  0.00    -0.000 C 
BRANCH   2   3
ATOM      3  C   UNL     1      31.306  25.207  22.995  1.00  0.00    -0.003 C 
ATOM      4  C   UNL     1      31.808  24.936  24.410  1.00  0.00     0.004 C 
ENDBRANCH   2   3
ENDBRANCH   1   2
BRANCH   1   5
ATOM      5  C   UNL     1      29.198  24.981  21.150  1.00  0.00     0.028 C 
BRANCH   5   6
ATOM      6  C   UNL     1      28.660  25.461  19.800  1.00  0.00     0.156 C 
BRANCH   6   7
ATOM      7  O   UNL     1      27.468  26.172  19.982  1.00  0.00    -0.396 OA
ATOM      8  H   UNL     1      27.347  26.258  20.963  1.00  0.00     0.210 HD
ENDBRANCH   6   7
ENDBRANCH   5   6
ENDBRANCH   1   5
TORSDOF 5
ENDMDL
MODEL 3
REMARK VINA RESULT:    -3.371      2.576      4.737
REMARK INTER + INTRA:          -4.355
REMARK INTER:                  -4.321
REMARK INTRA:                  -0.033
REMARK UNBOUND:                -0.096
REMARK SMILES CCCCCCO
REMARK SMILES IDX 4 1 3 2 2 3 1 4 5 5 6 6 7 7
REMARK H PARENT 7 8
REMARK Flexibility Score: inf
ROOT
ATOM      1  C   UNL     1      21.101  20.485  22.403  1.00  0.00     0.002 C 
ENDROOT
BRANCH   1   2
ATOM      2  C   UNL     1      20.089  19.847  21.438  1.00  0.00    -0.000 C 
BRANCH   2   3
ATOM      3  C   UNL     1      19.690  18.424  21.856  1.00  0.00    -0.003 C 
ATOM      4  C   UNL     1      18.943  17.711  20.733  1.00  0.00     0.004 C 
ENDBRANCH   2   3
ENDBRANCH   1   2
BRANCH   1   5
ATOM      5  C   UNL     1      22.008  21.515  21.711  1.00  0.00     0.028 C 
BRANCH   5   6
ATOM      6  C   UNL     1      22.214  22.760  22.577  1.00  0.00     0.156 C 
BRANCH   6   7
ATOM      7  O   UNL     1      22.041  23.916  21.808  1.00  0.00    -0.396 OA
ATOM      8  H   UNL     1      22.833  24.487  21.988  1.00  0.00     0.210 HD
ENDBRANCH   6   7
ENDBRANCH   5   6
ENDBRANCH   1   5
TORSDOF 5
ENDMDL
MODEL 4
REMARK VINA RESULT:    -3.350      2.131      3.653
REMARK INTER + INTRA:          -4.327
REMARK INTER:                  -4.244
REMARK INTRA:                  -0.083
REMARK UNBOUND:                -0.096
REMARK SMILES CCCCCCO
REMARK SMILES IDX 4 1 3 2 2 3 1 4 5 5 6 6 7 7
REMARK H PARENT 7 8
REMARK Flexibility Score: inf
ROOT
ATOM      1  C   UNL     1      22.062  23.362  23.430  1.00  0.00     0.002 C 
ENDROOT
BRANCH   1   2
ATOM      2  C   UNL     1      21.260  22.057  23.294  1.00  0.00    -0.000 C 
BRANCH   2   3
ATOM      3  C   UNL     1      21.613  21.276  22.020  1.00  0.00    -0.003 C 
ATOM      4  C   UNL     1      20.614  20.151  21.771  1.00  0.00     0.004 C 
ENDBRANCH   2   3
ENDBRANCH   1   2
BRANCH   1   5
ATOM      5  C   UNL     1      23.320  23.377  22.548  1.00  0.00     0.028 C 
BRANCH   5   6
ATOM      6  C   UNL     1      24.466  24.144  23.211  1.00  0.00     0.156 C 
BRANCH   6   7
ATOM      7  O   UNL     1      25.645  23.982  22.474  1.00  0.00    -0.396 OA
ATOM      8  H   UNL     1      25.983  24.898  22.292  1.00  0.00     0.210 HD
ENDBRANCH   6   7
ENDBRANCH   5   6
ENDBRANCH   1   5
TORSDOF 5
ENDMDL
MODEL 5
REMARK VINA RESULT:    -3.298      8.623      9.548
REMARK INTER + INTRA:          -4.262
REMARK INTER:                  -4.181
REMARK INTRA:                  -0.080
REMARK UNBOUND:                -0.096
REMARK SMILES CCCCCCO
REMARK SMILES IDX 4 1 3 2 2 3 1 4 5 5 6 6 7 7
REMARK H PARENT 7 8
REMARK Flexibility Score: inf
ROOT
ATOM      1  C   UNL     1      29.724  25.822  22.189  1.00  0.00     0.002 C 
ENDROOT
BRANCH   1   2
ATOM      2  C   UNL     1      30.996  25.331  22.899  1.00  0.00    -0.000 C 
BRANCH   2   3
ATOM      3  C   UNL     1      31.952  26.477  23.259  1.00  0.00    -0.003 C 
ATOM      4  C   UNL     1      31.409  27.818  22.777  1.00  0.00     0.004 C 
ENDBRANCH   2   3
ENDBRANCH   1   2
BRANCH   1   5
ATOM      5  C   UNL     1      29.238  24.846  21.106  1.00  0.00     0.028 C 
BRANCH   5   6
ATOM      6  C   UNL     1      28.628  25.584  19.912  1.00  0.00     0.156 C 
BRANCH   6   7
ATOM      7  O   UNL     1      27.411  26.171  20.279  1.00  0.00    -0.396 OA
ATOM      8  H   UNL     1      26.701  25.595  19.893  1.00  0.00     0.210 HD
ENDBRANCH   6   7
ENDBRANCH   5   6
ENDBRANCH   1   5
TORSDOF 5
ENDMDL
MODEL 6
REMARK VINA RESULT:    -3.278      6.811      8.206
REMARK INTER + INTRA:          -4.236
REMARK INTER:                  -4.191
REMARK INTRA:                  -0.045
REMARK UNBOUND:                -0.096
REMARK SMILES CCCCCCO
REMARK SMILES IDX 4 1 3 2 2 3 1 4 5 5 6 6 7 7
REMARK H PARENT 7 8
REMARK Flexibility Score: inf
ROOT
ATOM      1  C   UNL     1      27.801  26.297  22.304  1.00  0.00     0.002 C 
ENDROOT
BRANCH   1   2
ATOM      2  C   UNL     1      28.361  25.372  21.212  1.00  0.00    -0.000 C 
BRANCH   2   3
ATOM      3  C   UNL     1      28.777  26.136  19.946  1.00  0.00    -0.003 C 
ATOM      4  C   UNL     1      28.750  25.226  18.722  1.00  0.00     0.004 C 
ENDBRANCH   2   3
ENDBRANCH   1   2
BRANCH   1   5
ATOM      5  C   UNL     1      26.302  26.071  22.558  1.00  0.00     0.028 C 
BRANCH   5   6
ATOM      6  C   UNL     1      25.776  26.971  23.679  1.00  0.00     0.156 C 
BRANCH   6   7
ATOM      7  O   UNL     1      25.234  28.145  23.140  1.00  0.00    -0.396 OA
ATOM      8  H   UNL     1      25.944  28.537  22.568  1.00  0.00     0.210 HD
ENDBRANCH   6   7
ENDBRANCH   5   6
ENDBRANCH   1   5
TORSDOF 5
ENDMDL
MODEL 7
REMARK VINA RESULT:    -3.206      5.921      7.216
REMARK INTER + INTRA:          -4.146
REMARK INTER:                  -3.996
REMARK INTRA:                  -0.150
REMARK UNBOUND:                -0.096
REMARK SMILES CCCCCCO
REMARK SMILES IDX 4 1 3 2 2 3 1 4 5 5 6 6 7 7
REMARK H PARENT 7 8
REMARK Flexibility Score: inf
ROOT
ATOM      1  C   UNL     1      27.243  26.602  23.209  1.00  0.00     0.002 C 
ENDROOT
BRANCH   1   2
ATOM      2  C   UNL     1      28.493  26.475  22.323  1.00  0.00    -0.000 C 
BRANCH   2   3
ATOM      3  C   UNL     1      28.414  25.286  21.355  1.00  0.00    -0.003 C 
ATOM      4  C   UNL     1      28.649  25.733  19.915  1.00  0.00     0.004 C 
ENDBRANCH   2   3
ENDBRANCH   1   2
BRANCH   1   5
ATOM      5  C   UNL     1      25.973  26.083  22.516  1.00  0.00     0.028 C 
BRANCH   5   6
ATOM      6  C   UNL     1      25.274  25.006  23.348  1.00  0.00     0.156 C 
BRANCH   6   7
ATOM      7  O   UNL     1      25.315  23.777  22.678  1.00  0.00    -0.396 OA
ATOM      8  H   UNL     1      24.723  23.166  23.190  1.00  0.00     0.210 HD
ENDBRANCH   6   7
ENDBRANCH   5   6
ENDBRANCH   1   5
TORSDOF 5
ENDMDL
MODEL 8
REMARK VINA RESULT:    -3.197      2.802      3.717
REMARK INTER + INTRA:          -4.134
REMARK INTER:                  -4.053
REMARK INTRA:                  -0.081
REMARK UNBOUND:                -0.096
REMARK SMILES CCCCCCO
REMARK SMILES IDX 4 1 3 2 2 3 1 4 5 5 6 6 7 7
REMARK H PARENT 7 8
REMARK Flexibility Score: inf
ROOT
ATOM      1  C   UNL     1      20.920  20.516  22.412  1.00  0.00     0.002 C 
ENDROOT
BRANCH   1   2
ATOM      2  C   UNL     1      21.958  21.396  21.697  1.00  0.00    -0.000 C 
BRANCH   2   3
ATOM      3  C   UNL     1      22.196  22.732  22.415  1.00  0.00    -0.003 C 
ATOM      4  C   UNL     1      21.278  22.878  23.624  1.00  0.00     0.004 C 
ENDBRANCH   2   3
ENDBRANCH   1   2
BRANCH   1   5
ATOM      5  C   UNL     1      20.073  19.686  21.433  1.00  0.00     0.028 C 
BRANCH   5   6
ATOM      6  C   UNL     1      19.656  18.347  22.043  1.00  0.00     0.156 C 
BRANCH   6   7
ATOM      7  O   UNL     1      18.925  17.600  21.111  1.00  0.00    -0.396 OA
ATOM      8  H   UNL     1      18.800  16.702  21.516  1.00  0.00     0.210 HD
ENDBRANCH   6   7
ENDBRANCH   5   6
ENDBRANCH   1   5
TORSDOF 5
ENDMDL
MODEL 9
REMARK VINA RESULT:    -3.176      7.041      8.287
REMARK INTER + INTRA:          -4.108
REMARK INTER:                  -3.983
REMARK INTRA:                  -0.125
REMARK UNBOUND:                -0.096
REMARK SMILES CCCCCCO
REMARK SMILES IDX 4 1 3 2 2 3 1 4 5 5 6 6 7 7
REMARK H PARENT 7 8
REMARK Flexibility Score: inf
ROOT
ATOM      1  C   UNL     1      28.101  25.223  21.309  1.00  0.00     0.002 C 
ENDROOT
BRANCH   1   2
ATOM      2  C   UNL     1      29.608  25.014  21.528  1.00  0.00    -0.000 C 
BRANCH   2   3
ATOM      3  C   UNL     1      30.164  25.870  22.675  1.00  0.00    -0.003 C 
ATOM      4  C   UNL     1      31.371  25.201  23.325  1.00  0.00     0.004 C 
ENDBRANCH   2   3
ENDBRANCH   1   2
BRANCH   1   5
ATOM      5  C   UNL     1      27.506  26.272  22.262  1.00  0.00     0.028 C 
BRANCH   5   6
ATOM      6  C   UNL     1      26.126  25.853  22.772  1.00  0.00     0.156 C 
BRANCH   6   7
ATOM      7  O   UNL     1      25.907  24.494  22.513  1.00  0.00    -0.396 OA
ATOM      8  H   UNL     1      24.972  24.309  22.791  1.00  0.00     0.210 HD
ENDBRANCH   6   7
ENDBRANCH   5   6
ENDBRANCH   1   5
TORSDOF 5
ENDMDL
