MODEL 1
REMARK VINA RESULT:    -3.251      0.000      0.000
REMARK INTER + INTRA:          -4.817
REMARK INTER:                  -4.391
REMARK INTRA:                  -0.427
REMARK UNBOUND:                -0.427
REMARK SMILES CCCCCCC=CC(=O)[O-]
REMARK SMILES IDX 5 1 6 2 7 3 8 4 9 5 10 6 11 7 4 8 3 9 2 10 1 11
REMARK H PARENT
REMARK Flexibility Score: inf
ROOT
ATOM      1  C   UNL     1    -100.383 -27.681 -13.393  1.00  0.00     0.004 C 
ENDROOT
BRANCH   1   2
ATOM      2  C   UNL     1    -101.849 -27.689 -13.868  1.00  0.00     0.027 C 
BRANCH   2   3
ATOM      3  C   UNL     1    -101.988 -27.326 -15.324  1.00  0.00    -0.025 C 
ATOM      4  C   UNL     1    -101.852 -28.164 -16.365  1.00  0.00     0.020 C 
BRANCH   4   5
ATOM      5  C   UNL     1    -101.602 -29.618 -16.299  1.00  0.00     0.064 C 
ATOM      6  O   UNL     1    -102.584 -30.405 -16.295  1.00  0.00    -0.545 OA
ATOM      7  O   UNL     1    -100.322 -30.146 -16.203  1.00  0.00    -0.545 OA
ENDBRANCH   4   5
ENDBRANCH   2   3
ENDBRANCH   1   2
BRANCH   1   8
ATOM      8  C   UNL     1     -99.896 -29.025 -12.821  1.00  0.00     0.000 C 
BRANCH   8   9
ATOM      9  C   UNL     1     -98.421 -29.314 -13.152  1.00  0.00    -0.000 C 
BRANCH   9  10
ATOM     10  C   UNL     1     -97.664 -29.936 -11.968  1.00  0.00    -0.003 C 
ATOM     11  C   UNL     1     -96.149 -29.952 -12.175  1.00  0.00     0.004 C 
ENDBRANCH   9  10
ENDBRANCH   8   9
ENDBRANCH   1   8
TORSDOF 6
ENDMDL
MODEL 2
REMARK VINA RESULT:    -3.243      2.449      5.715
REMARK INTER + INTRA:          -4.807
REMARK INTER:                  -4.416
REMARK INTRA:                  -0.391
REMARK UNBOUND:                -0.427
REMARK SMILES CCCCCCC=CC(=O)[O-]
REMARK SMILES IDX 5 1 6 2 7 3 8 4 9 5 10 6 11 7 4 8 3 9 2 10 1 11
REMARK H PARENT
REMARK Flexibility Score: inf
ROOT
ATOM      1  C   UNL     1    -102.020 -28.012 -16.532  1.00  0.00     0.004 C 
ENDROOT
BRANCH   1   2
ATOM      2  C   UNL     1    -101.600 -28.670 -15.205  1.00  0.00     0.027 C 
BRANCH   2   3
ATOM      3  C   UNL     1    -101.143 -27.667 -14.178  1.00  0.00    -0.025 C 
ATOM      4  C   UNL     1    -100.236 -27.881 -13.210  1.00  0.00     0.020 C 
BRANCH   4   5
ATOM      5  C   UNL     1     -99.457 -29.118 -12.991  1.00  0.00     0.064 C 
ATOM      6  O   UNL     1     -98.236 -29.129 -13.293  1.00  0.00    -0.545 OA
ATOM      7  O   UNL     1    -100.035 -30.280 -12.498  1.00  0.00    -0.545 OA
ENDBRANCH   4   5
ENDBRANCH   2   3
ENDBRANCH   1   2
BRANCH   1   8
ATOM      8  C   UNL     1    -103.459 -27.464 -16.541  1.00  0.00     0.000 C 
BRANCH   8   9
ATOM      9  C   UNL     1    -103.512 -25.928 -16.582  1.00  0.00    -0.000 C 
BRANCH   9  10
ATOM     10  C   UNL     1    -104.002 -25.321 -15.257  1.00  0.00    -0.003 C 
ATOM     11  C   UNL     1    -104.692 -23.969 -15.443  1.00  0.00     0.004 C 
ENDBRANCH   9  10
ENDBRANCH   8   9
ENDBRANCH   1   8
TORSDOF 6
ENDMDL
MODEL 3
REMARK VINA RESULT:    -3.238      2.317      5.459
REMARK INTER + INTRA:          -4.800
REMARK INTER:                  -4.283
REMARK INTRA:                  -0.517
REMARK UNBOUND:                -0.427
REMARK SMILES CCCCCCC=CC(=O)[O-]
REMARK SMILES IDX 5 1 6 2 7 3 8 4 9 5 10 6 11 7 4 8 3 9 2 10 1 11
REMARK H PARENT
REMARK Flexibility Score: inf
ROOT
ATOM      1  C   UNL     1    -101.998 -28.067 -16.476  1.00  0.00     0.004 C 
ENDROOT
BRANCH   1   2
ATOM      2  C   UNL     1    -101.588 -28.701 -15.133  1.00  0.00     0.027 C 
BRANCH   2   3
ATOM      3  C   UNL     1    -101.069 -27.687 -14.147  1.00  0.00    -0.025 C 
ATOM      4  C   UNL     1    -100.150 -27.909 -13.193  1.00  0.00     0.020 C 
BRANCH   4   5
ATOM      5  C   UNL     1     -99.415 -29.168 -12.953  1.00  0.00     0.064 C 
ATOM      6  O   UNL     1     -99.981 -30.088 -12.307  1.00  0.00    -0.545 OA
ATOM      7  O   UNL     1     -98.109 -29.358 -13.383  1.00  0.00    -0.545 OA
ENDBRANCH   4   5
ENDBRANCH   2   3
ENDBRANCH   1   2
BRANCH   1   8
ATOM      8  C   UNL     1    -103.426 -27.491 -16.494  1.00  0.00     0.000 C 
BRANCH   8   9
ATOM      9  C   UNL     1    -103.457 -25.986 -16.813  1.00  0.00    -0.000 C 
BRANCH   9  10
ATOM     10  C   UNL     1    -104.239 -25.179 -15.763  1.00  0.00    -0.003 C 
ATOM     11  C   UNL     1    -104.191 -25.812 -14.372  1.00  0.00     0.004 C 
ENDBRANCH   9  10
ENDBRANCH   8   9
ENDBRANCH   1   8
TORSDOF 6
ENDMDL
MODEL 4
REMARK VINA RESULT:    -3.197      4.206      5.502
REMARK INTER + INTRA:          -4.745
REMARK INTER:                  -4.283
REMARK INTRA:                  -0.462
REMARK UNBOUND:                -0.427
REMARK SMILES CCCCCCC=CC(=O)[O-]
REMARK SMILES IDX 5 1 6 2 7 3 8 4 9 5 10 6 11 7 4 8 3 9 2 10 1 11
REMARK H PARENT
REMARK Flexibility Score: inf
ROOT
ATOM      1  C   UNL     1    -103.206 -27.568 -16.664  1.00  0.00     0.004 C 
ENDROOT
BRANCH   1   2
ATOM      2  C   UNL     1    -103.493 -26.060 -16.531  1.00  0.00     0.027 C 
BRANCH   2   3
ATOM      3  C   UNL     1    -103.775 -25.646 -15.110  1.00  0.00    -0.025 C 
ATOM      4  C   UNL     1    -104.519 -24.596 -14.724  1.00  0.00     0.020 C 
BRANCH   4   5
ATOM      5  C   UNL     1    -105.263 -23.672 -15.605  1.00  0.00     0.064 C 
ATOM      6  O   UNL     1    -104.899 -22.469 -15.670  1.00  0.00    -0.545 OA
ATOM      7  O   UNL     1    -106.372 -24.076 -16.335  1.00  0.00    -0.545 OA
ENDBRANCH   4   5
ENDBRANCH   2   3
ENDBRANCH   1   2
BRANCH   1   8
ATOM      8  C   UNL     1    -101.781 -27.980 -16.251  1.00  0.00     0.000 C 
BRANCH   8   9
ATOM      9  C   UNL     1    -101.725 -28.607 -14.847  1.00  0.00    -0.000 C 
BRANCH   9  10
ATOM     10  C   UNL     1    -100.881 -27.777 -13.866  1.00  0.00    -0.003 C 
ATOM     11  C   UNL     1    -101.427 -27.811 -12.438  1.00  0.00     0.004 C 
ENDBRANCH   9  10
ENDBRANCH   8   9
ENDBRANCH   1   8
TORSDOF 6
ENDMDL
MODEL 5
REMARK VINA RESULT:    -3.156      1.977      2.232
REMARK INTER + INTRA:          -4.690
REMARK INTER:                  -4.442
REMARK INTRA:                  -0.248
REMARK UNBOUND:                -0.427
REMARK SMILES CCCCCCC=CC(=O)[O-]
REMARK SMILES IDX 5 1 6 2 7 3 8 4 9 5 10 6 11 7 4 8 3 9 2 10 1 11
REMARK H PARENT
REMARK Flexibility Score: inf
ROOT
ATOM      1  C   UNL     1    -100.423 -27.610 -13.456  1.00  0.00     0.004 C 
ENDROOT
BRANCH   1   2
ATOM      2  C   UNL     1    -101.759 -27.708 -14.216  1.00  0.00     0.027 C 
BRANCH   2   3
ATOM      3  C   UNL     1    -101.592 -28.229 -15.619  1.00  0.00    -0.025 C 
ATOM      4  C   UNL     1    -102.400 -27.971 -16.661  1.00  0.00     0.020 C 
BRANCH   4   5
ATOM      5  C   UNL     1    -103.575 -27.076 -16.664  1.00  0.00     0.064 C 
ATOM      6  O   UNL     1    -104.726 -27.584 -16.668  1.00  0.00    -0.545 OA
ATOM      7  O   UNL     1    -103.454 -25.694 -16.700  1.00  0.00    -0.545 OA
ENDBRANCH   4   5
ENDBRANCH   2   3
ENDBRANCH   1   2
BRANCH   1   8
ATOM      8  C   UNL     1    -100.005 -28.908 -12.740  1.00  0.00     0.000 C 
BRANCH   8   9
ATOM      9  C   UNL     1     -98.593 -29.377 -13.133  1.00  0.00    -0.000 C 
BRANCH   9  10
ATOM     10  C   UNL     1     -97.818 -29.967 -11.943  1.00  0.00    -0.003 C 
ATOM     11  C   UNL     1     -96.302 -29.907 -12.135  1.00  0.00     0.004 C 
ENDBRANCH   9  10
ENDBRANCH   8   9
ENDBRANCH   1   8
TORSDOF 6
ENDMDL
MODEL 6
REMARK VINA RESULT:    -3.152      2.142      4.483
REMARK INTER + INTRA:          -4.684
REMARK INTER:                  -3.903
REMARK INTRA:                  -0.781
REMARK UNBOUND:                -0.427
REMARK SMILES CCCCCCC=CC(=O)[O-]
REMARK SMILES IDX 5 1 6 2 7 3 8 4 9 5 10 6 11 7 4 8 3 9 2 10 1 11
REMARK H PARENT
REMARK Flexibility Score: inf
ROOT
ATOM      1  C   UNL     1    -102.534 -27.818 -13.948  1.00  0.00     0.004 C 
ENDROOT
BRANCH   1   2
ATOM      2  C   UNL     1    -101.464 -27.806 -12.839  1.00  0.00     0.027 C 
BRANCH   2   3
ATOM      3  C   UNL     1    -100.061 -27.839 -13.386  1.00  0.00    -0.025 C 
ATOM      4  C   UNL     1     -99.119 -28.752 -13.095  1.00  0.00     0.020 C 
BRANCH   4   5
ATOM      5  C   UNL     1     -99.282 -29.941 -12.233  1.00  0.00     0.064 C 
ATOM      6  O   UNL     1     -99.544 -31.049 -12.768  1.00  0.00    -0.545 OA
ATOM      7  O   UNL     1     -99.192 -29.871 -10.849  1.00  0.00    -0.545 OA
ENDBRANCH   4   5
ENDBRANCH   2   3
ENDBRANCH   1   2
BRANCH   1   8
ATOM      8  C   UNL     1    -102.097 -27.133 -15.256  1.00  0.00     0.000 C 
BRANCH   8   9
ATOM      9  C   UNL     1    -102.155 -28.076 -16.470  1.00  0.00    -0.000 C 
BRANCH   9  10
ATOM     10  C   UNL     1    -102.112 -29.558 -16.065  1.00  0.00    -0.003 C 
ATOM     11  C   UNL     1    -100.713 -30.165 -16.185  1.00  0.00     0.004 C 
ENDBRANCH   9  10
ENDBRANCH   8   9
ENDBRANCH   1   8
TORSDOF 6
ENDMDL
MODEL 7
REMARK VINA RESULT:    -3.149      2.319      2.854
REMARK INTER + INTRA:          -4.680
REMARK INTER:                  -4.047
REMARK INTRA:                  -0.632
REMARK UNBOUND:                -0.427
REMARK SMILES CCCCCCC=CC(=O)[O-]
REMARK SMILES IDX 5 1 6 2 7 3 8 4 9 5 10 6 11 7 4 8 3 9 2 10 1 11
REMARK H PARENT
REMARK Flexibility Score: inf
ROOT
ATOM      1  C   UNL     1    -101.215 -27.988 -12.882  1.00  0.00     0.004 C 
ENDROOT
BRANCH   1   2
ATOM      2  C   UNL     1    -102.276 -27.820 -13.986  1.00  0.00     0.027 C 
BRANCH   2   3
ATOM      3  C   UNL     1    -101.719 -28.054 -15.366  1.00  0.00    -0.025 C 
ATOM      4  C   UNL     1    -102.289 -27.680 -16.524  1.00  0.00     0.020 C 
BRANCH   4   5
ATOM      5  C   UNL     1    -103.539 -26.910 -16.682  1.00  0.00     0.064 C 
ATOM      6  O   UNL     1    -103.479 -25.654 -16.722  1.00  0.00    -0.545 OA
ATOM      7  O   UNL     1    -104.783 -27.522 -16.749  1.00  0.00    -0.545 OA
ENDBRANCH   4   5
ENDBRANCH   2   3
ENDBRANCH   1   2
BRANCH   1   8
ATOM      8  C   UNL     1     -99.761 -27.889 -13.381  1.00  0.00     0.000 C 
BRANCH   8   9
ATOM      9  C   UNL     1     -98.918 -29.121 -13.005  1.00  0.00    -0.000 C 
BRANCH   9  10
ATOM     10  C   UNL     1     -99.536 -30.433 -13.515  1.00  0.00    -0.003 C 
ATOM     11  C   UNL     1     -99.143 -30.752 -14.958  1.00  0.00     0.004 C 
ENDBRANCH   9  10
ENDBRANCH   8   9
ENDBRANCH   1   8
TORSDOF 6
ENDMDL
MODEL 8
REMARK VINA RESULT:    -3.086      2.868      5.597
REMARK INTER + INTRA:          -4.594
REMARK INTER:                  -4.240
REMARK INTRA:                  -0.355
REMARK UNBOUND:                -0.427
REMARK SMILES CCCCCCC=CC(=O)[O-]
REMARK SMILES IDX 5 1 6 2 7 3 8 4 9 5 10 6 11 7 4 8 3 9 2 10 1 11
REMARK H PARENT
REMARK Flexibility Score: inf
ROOT
ATOM      1  C   UNL     1    -101.129 -27.602 -13.941  1.00  0.00     0.004 C 
ENDROOT
BRANCH   1   2
ATOM      2  C   UNL     1     -99.845 -28.138 -13.282  1.00  0.00     0.027 C 
BRANCH   2   3
ATOM      3  C   UNL     1     -99.503 -29.536 -13.728  1.00  0.00    -0.025 C 
ATOM      4  C   UNL     1     -98.466 -30.274 -13.297  1.00  0.00     0.020 C 
BRANCH   4   5
ATOM      5  C   UNL     1     -97.489 -29.896 -12.256  1.00  0.00     0.064 C 
ATOM      6  O   UNL     1     -96.301 -29.655 -12.595  1.00  0.00    -0.545 OA
ATOM      7  O   UNL     1     -97.825 -29.834 -10.911  1.00  0.00    -0.545 OA
ENDBRANCH   4   5
ENDBRANCH   2   3
ENDBRANCH   1   2
BRANCH   1   8
ATOM      8  C   UNL     1    -101.793 -28.584 -14.925  1.00  0.00     0.000 C 
BRANCH   8   9
ATOM      9  C   UNL     1    -101.855 -28.037 -16.361  1.00  0.00    -0.000 C 
BRANCH   9  10
ATOM     10  C   UNL     1    -103.254 -27.522 -16.735  1.00  0.00    -0.003 C 
ATOM     11  C   UNL     1    -103.409 -26.015 -16.520  1.00  0.00     0.004 C 
ENDBRANCH   9  10
ENDBRANCH   8   9
ENDBRANCH   1   8
TORSDOF 6
ENDMDL
MODEL 9
REMARK VINA RESULT:    -3.063      1.586      4.584
REMARK INTER + INTRA:          -4.564
REMARK INTER:                  -3.986
REMARK INTRA:                  -0.578
REMARK UNBOUND:                -0.427
REMARK SMILES CCCCCCC=CC(=O)[O-]
REMARK SMILES IDX 5 1 6 2 7 3 8 4 9 5 10 6 11 7 4 8 3 9 2 10 1 11
REMARK H PARENT
REMARK Flexibility Score: inf
ROOT
ATOM      1  C   UNL     1    -101.318 -27.850 -12.795  1.00  0.00     0.004 C 
ENDROOT
BRANCH   1   2
ATOM      2  C   UNL     1     -99.886 -27.898 -13.361  1.00  0.00     0.027 C 
BRANCH   2   3
ATOM      3  C   UNL     1     -99.173 -29.182 -13.026  1.00  0.00    -0.025 C 
ATOM      4  C   UNL     1     -99.324 -30.359 -13.656  1.00  0.00     0.020 C 
BRANCH   4   5
ATOM      5  C   UNL     1    -100.167 -30.623 -14.840  1.00  0.00     0.064 C 
ATOM      6  O   UNL     1     -99.662 -30.494 -15.986  1.00  0.00    -0.545 OA
ATOM      7  O   UNL     1    -101.507 -30.970 -14.735  1.00  0.00    -0.545 OA
ENDBRANCH   4   5
ENDBRANCH   2   3
ENDBRANCH   1   2
BRANCH   1   8
ATOM      8  C   UNL     1    -102.416 -27.695 -13.864  1.00  0.00     0.000 C 
BRANCH   8   9
ATOM      9  C   UNL     1    -101.853 -27.325 -15.247  1.00  0.00    -0.000 C 
BRANCH   9  10
ATOM     10  C   UNL     1    -102.917 -27.406 -16.355  1.00  0.00    -0.003 C 
ATOM     11  C   UNL     1    -103.488 -26.037 -16.729  1.00  0.00     0.004 C 
ENDBRANCH   9  10
ENDBRANCH   8   9
ENDBRANCH   1   8
TORSDOF 6
ENDMDL
