MODEL 1
REMARK VINA RESULT:    -6.020      0.000      0.000
REMARK INTER + INTRA:          -8.464
REMARK INTER:                  -8.132
REMARK INTRA:                  -0.332
REMARK UNBOUND:                -0.332
REMARK SMILES CCCCCCCC(=O)[O-]
REMARK SMILES IDX 5 1 6 2 7 3 8 4 9 5 10 6 4 7 3 8 2 9 1 10
REMARK H PARENT
REMARK Flexibility Score: inf
ROOT
ATOM      1  C   UNL     1      -8.706  -4.957 -18.646  1.00  0.00     0.000 C 
ENDROOT
BRANCH   1   2
ATOM      2  C   UNL     1      -7.222  -4.550 -18.649  1.00  0.00     0.006 C 
BRANCH   2   3
ATOM      3  C   UNL     1      -7.019  -3.105 -19.125  1.00  0.00     0.053 C 
BRANCH   3   4
ATOM      4  C   UNL     1      -7.041  -3.006 -20.620  1.00  0.00     0.041 C 
ATOM      5  O   UNL     1      -7.532  -1.992 -21.180  1.00  0.00    -0.550 OA
ATOM      6  O   UNL     1      -6.488  -4.020 -21.393  1.00  0.00    -0.550 OA
ENDBRANCH   3   4
ENDBRANCH   2   3
ENDBRANCH   1   2
BRANCH   1   7
ATOM      7  C   UNL     1      -9.047  -5.968 -19.753  1.00  0.00     0.000 C 
BRANCH   7   8
ATOM      8  C   UNL     1      -7.979  -7.065 -19.899  1.00  0.00    -0.000 C 
BRANCH   8   9
ATOM      9  C   UNL     1      -8.508  -8.455 -19.511  1.00  0.00    -0.003 C 
ATOM     10  C   UNL     1      -8.023  -9.557 -20.453  1.00  0.00     0.004 C 
ENDBRANCH   8   9
ENDBRANCH   7   8
ENDBRANCH   1   7
TORSDOF 6
ENDMDL
MODEL 2
REMARK VINA RESULT:    -5.827      1.913      2.524
REMARK INTER + INTRA:          -8.204
REMARK INTER:                  -7.977
REMARK INTRA:                  -0.227
REMARK UNBOUND:                -0.332
REMARK SMILES CCCCCCCC(=O)[O-]
REMARK SMILES IDX 5 1 6 2 7 3 8 4 9 5 10 6 4 7 3 8 2 9 1 10
REMARK H PARENT
REMARK Flexibility Score: inf
ROOT
ATOM      1  C   UNL     1      -7.196  -3.671 -21.125  1.00  0.00     0.000 C 
ENDROOT
BRANCH   1   2
ATOM      2  C   UNL     1      -7.263  -2.143 -20.952  1.00  0.00     0.006 C 
BRANCH   2   3
ATOM      3  C   UNL     1      -7.145  -1.722 -19.480  1.00  0.00     0.053 C 
BRANCH   3   4
ATOM      4  C   UNL     1      -5.715  -1.555 -19.065  1.00  0.00     0.041 C 
ATOM      5  O   UNL     1      -5.179  -0.416 -19.085  1.00  0.00    -0.550 OA
ATOM      6  O   UNL     1      -4.985  -2.652 -18.624  1.00  0.00    -0.550 OA
ENDBRANCH   3   4
ENDBRANCH   2   3
ENDBRANCH   1   2
BRANCH   1   7
ATOM      7  C   UNL     1      -7.907  -4.429 -19.992  1.00  0.00     0.000 C 
BRANCH   7   8
ATOM      8  C   UNL     1      -7.500  -5.911 -19.928  1.00  0.00    -0.000 C 
BRANCH   8   9
ATOM      9  C   UNL     1      -8.708  -6.846 -19.759  1.00  0.00    -0.003 C 
ATOM     10  C   UNL     1      -8.329  -8.324 -19.847  1.00  0.00     0.004 C 
ENDBRANCH   8   9
ENDBRANCH   7   8
ENDBRANCH   1   7
TORSDOF 6
ENDMDL
MODEL 3
REMARK VINA RESULT:    -5.757      1.433      1.734
REMARK INTER + INTRA:          -8.108
REMARK INTER:                  -7.937
REMARK INTRA:                  -0.171
REMARK UNBOUND:                -0.332
REMARK SMILES CCCCCCCC(=O)[O-]
REMARK SMILES IDX 5 1 6 2 7 3 8 4 9 5 10 6 4 7 3 8 2 9 1 10
REMARK H PARENT
REMARK Flexibility Score: inf
ROOT
ATOM      1  C   UNL     1      -8.172  -4.867 -19.591  1.00  0.00     0.000 C 
ENDROOT
BRANCH   1   2
ATOM      2  C   UNL     1      -7.008  -4.681 -20.581  1.00  0.00     0.006 C 
BRANCH   2   3
ATOM      3  C   UNL     1      -6.998  -3.279 -21.206  1.00  0.00     0.053 C 
BRANCH   3   4
ATOM      4  C   UNL     1      -5.812  -2.481 -20.758  1.00  0.00     0.041 C 
ATOM      5  O   UNL     1      -4.756  -2.478 -21.443  1.00  0.00    -0.550 OA
ATOM      6  O   UNL     1      -5.885  -1.714 -19.601  1.00  0.00    -0.550 OA
ENDBRANCH   3   4
ENDBRANCH   2   3
ENDBRANCH   1   2
BRANCH   1   7
ATOM      7  C   UNL     1      -8.224  -6.284 -18.996  1.00  0.00     0.000 C 
BRANCH   7   8
ATOM      8  C   UNL     1      -8.607  -7.347 -20.038  1.00  0.00    -0.000 C 
BRANCH   8   9
ATOM      9  C   UNL     1      -8.477  -8.779 -19.493  1.00  0.00    -0.003 C 
ATOM     10  C   UNL     1      -7.933  -9.761 -20.531  1.00  0.00     0.004 C 
ENDBRANCH   8   9
ENDBRANCH   7   8
ENDBRANCH   1   7
TORSDOF 6
ENDMDL
MODEL 4
REMARK VINA RESULT:    -5.707      2.071      2.688
REMARK INTER + INTRA:          -8.041
REMARK INTER:                  -7.794
REMARK INTRA:                  -0.247
REMARK UNBOUND:                -0.332
REMARK SMILES CCCCCCCC(=O)[O-]
REMARK SMILES IDX 5 1 6 2 7 3 8 4 9 5 10 6 4 7 3 8 2 9 1 10
REMARK H PARENT
REMARK Flexibility Score: inf
ROOT
ATOM      1  C   UNL     1      -7.573  -3.069 -19.408  1.00  0.00     0.000 C 
ENDROOT
BRANCH   1   2
ATOM      2  C   UNL     1      -7.138  -1.663 -19.860  1.00  0.00     0.006 C 
BRANCH   2   3
ATOM      3  C   UNL     1      -5.828  -1.220 -19.192  1.00  0.00     0.053 C 
BRANCH   3   4
ATOM      4  C   UNL     1      -4.662  -2.034 -19.664  1.00  0.00     0.041 C 
ATOM      5  O   UNL     1      -3.885  -2.569 -18.832  1.00  0.00    -0.550 OA
ATOM      6  O   UNL     1      -4.455  -2.229 -21.025  1.00  0.00    -0.550 OA
ENDBRANCH   3   4
ENDBRANCH   2   3
ENDBRANCH   1   2
BRANCH   1   7
ATOM      7  C   UNL     1      -7.520  -4.101 -20.546  1.00  0.00     0.000 C 
BRANCH   7   8
ATOM      8  C   UNL     1      -7.249  -5.526 -20.038  1.00  0.00    -0.000 C 
BRANCH   8   9
ATOM      9  C   UNL     1      -8.539  -6.267 -19.648  1.00  0.00    -0.003 C 
ATOM     10  C   UNL     1      -8.415  -7.784 -19.785  1.00  0.00     0.004 C 
ENDBRANCH   8   9
ENDBRANCH   7   8
ENDBRANCH   1   7
TORSDOF 6
ENDMDL
MODEL 5
REMARK VINA RESULT:    -5.600      1.555      2.555
REMARK INTER + INTRA:          -7.897
REMARK INTER:                  -7.647
REMARK INTRA:                  -0.250
REMARK UNBOUND:                -0.332
REMARK SMILES CCCCCCCC(=O)[O-]
REMARK SMILES IDX 5 1 6 2 7 3 8 4 9 5 10 6 4 7 3 8 2 9 1 10
REMARK H PARENT
REMARK Flexibility Score: inf
ROOT
ATOM      1  C   UNL     1      -5.750  -3.976 -18.449  1.00  0.00     0.000 C 
ENDROOT
BRANCH   1   2
ATOM      2  C   UNL     1      -5.385  -2.896 -19.483  1.00  0.00     0.006 C 
BRANCH   2   3
ATOM      3  C   UNL     1      -5.863  -1.501 -19.056  1.00  0.00     0.053 C 
BRANCH   3   4
ATOM      4  C   UNL     1      -7.076  -1.072 -19.824  1.00  0.00     0.041 C 
ATOM      5  O   UNL     1      -7.472  -1.746 -20.810  1.00  0.00    -0.550 OA
ATOM      6  O   UNL     1      -7.787   0.054 -19.429  1.00  0.00    -0.550 OA
ENDBRANCH   3   4
ENDBRANCH   2   3
ENDBRANCH   1   2
BRANCH   1   7
ATOM      7  C   UNL     1      -7.185  -4.500 -18.620  1.00  0.00     0.000 C 
BRANCH   7   8
ATOM      8  C   UNL     1      -7.319  -5.482 -19.795  1.00  0.00    -0.000 C 
BRANCH   8   9
ATOM      9  C   UNL     1      -8.605  -6.321 -19.718  1.00  0.00    -0.003 C 
ATOM     10  C   UNL     1      -8.333  -7.825 -19.734  1.00  0.00     0.004 C 
ENDBRANCH   8   9
ENDBRANCH   7   8
ENDBRANCH   1   7
TORSDOF 6
ENDMDL
MODEL 6
REMARK VINA RESULT:    -5.468      2.946      5.500
REMARK INTER + INTRA:          -7.718
REMARK INTER:                  -7.527
REMARK INTRA:                  -0.192
REMARK UNBOUND:                -0.332
REMARK SMILES CCCCCCCC(=O)[O-]
REMARK SMILES IDX 5 1 6 2 7 3 8 4 9 5 10 6 4 7 3 8 2 9 1 10
REMARK H PARENT
REMARK Flexibility Score: inf
ROOT
ATOM      1  C   UNL     1      -7.371  -4.394 -19.847  1.00  0.00     0.000 C 
ENDROOT
BRANCH   1   2
ATOM      2  C   UNL     1      -7.239  -5.922 -19.972  1.00  0.00     0.006 C 
BRANCH   2   3
ATOM      3  C   UNL     1      -8.601  -6.628 -19.908  1.00  0.00     0.053 C 
BRANCH   3   4
ATOM      4  C   UNL     1      -8.451  -8.117 -19.842  1.00  0.00     0.041 C 
ATOM      5  O   UNL     1      -8.481  -8.708 -18.732  1.00  0.00    -0.550 OA
ATOM      6  O   UNL     1      -8.314  -8.855 -21.012  1.00  0.00    -0.550 OA
ENDBRANCH   3   4
ENDBRANCH   2   3
ENDBRANCH   1   2
BRANCH   1   7
ATOM      7  C   UNL     1      -7.307  -3.679 -21.206  1.00  0.00     0.000 C 
BRANCH   7   8
ATOM      8  C   UNL     1      -7.206  -2.151 -21.066  1.00  0.00    -0.000 C 
BRANCH   8   9
ATOM      9  C   UNL     1      -7.160  -1.698 -19.598  1.00  0.00    -0.003 C 
ATOM     10  C   UNL     1      -7.558  -0.233 -19.418  1.00  0.00     0.004 C 
ENDBRANCH   8   9
ENDBRANCH   7   8
ENDBRANCH   1   7
TORSDOF 6
ENDMDL
MODEL 7
REMARK VINA RESULT:    -5.451      2.697      3.256
REMARK INTER + INTRA:          -7.695
REMARK INTER:                  -7.466
REMARK INTRA:                  -0.229
REMARK UNBOUND:                -0.332
REMARK SMILES CCCCCCCC(=O)[O-]
REMARK SMILES IDX 5 1 6 2 7 3 8 4 9 5 10 6 4 7 3 8 2 9 1 10
REMARK H PARENT
REMARK Flexibility Score: inf
ROOT
ATOM      1  C   UNL     1      -7.055  -3.041 -19.445  1.00  0.00     0.000 C 
ENDROOT
BRANCH   1   2
ATOM      2  C   UNL     1      -5.607  -3.263 -18.973  1.00  0.00     0.006 C 
BRANCH   2   3
ATOM      3  C   UNL     1      -4.604  -2.403 -19.755  1.00  0.00     0.053 C 
BRANCH   3   4
ATOM      4  C   UNL     1      -4.035  -1.307 -18.907  1.00  0.00     0.041 C 
ATOM      5  O   UNL     1      -2.963  -1.489 -18.273  1.00  0.00    -0.550 OA
ATOM      6  O   UNL     1      -4.671  -0.073 -18.845  1.00  0.00    -0.550 OA
ENDBRANCH   3   4
ENDBRANCH   2   3
ENDBRANCH   1   2
BRANCH   1   7
ATOM      7  C   UNL     1      -7.514  -4.092 -20.468  1.00  0.00     0.000 C 
BRANCH   7   8
ATOM      8  C   UNL     1      -7.113  -5.521 -20.066  1.00  0.00    -0.000 C 
BRANCH   8   9
ATOM      9  C   UNL     1      -8.263  -6.287 -19.392  1.00  0.00    -0.003 C 
ATOM     10  C   UNL     1      -8.282  -7.771 -19.758  1.00  0.00     0.004 C 
ENDBRANCH   8   9
ENDBRANCH   7   8
ENDBRANCH   1   7
TORSDOF 6
ENDMDL
MODEL 8
REMARK VINA RESULT:    -5.231      2.928      5.801
REMARK INTER + INTRA:          -7.398
REMARK INTER:                  -7.243
REMARK INTRA:                  -0.155
REMARK UNBOUND:                -0.332
REMARK SMILES CCCCCCCC(=O)[O-]
REMARK SMILES IDX 5 1 6 2 7 3 8 4 9 5 10 6 4 7 3 8 2 9 1 10
REMARK H PARENT
REMARK Flexibility Score: inf
ROOT
ATOM      1  C   UNL     1      -5.216  -3.374 -18.385  1.00  0.00     0.000 C 
ENDROOT
BRANCH   1   2
ATOM      2  C   UNL     1      -6.221  -4.213 -19.195  1.00  0.00     0.006 C 
BRANCH   2   3
ATOM      3  C   UNL     1      -7.518  -3.444 -19.481  1.00  0.00     0.053 C 
BRANCH   3   4
ATOM      4  C   UNL     1      -7.414  -2.628 -20.733  1.00  0.00     0.041 C 
ATOM      5  O   UNL     1      -7.546  -1.378 -20.687  1.00  0.00    -0.550 OA
ATOM      6  O   UNL     1      -7.137  -3.247 -21.946  1.00  0.00    -0.550 OA
ENDBRANCH   3   4
ENDBRANCH   2   3
ENDBRANCH   1   2
BRANCH   1   7
ATOM      7  C   UNL     1      -4.297  -2.525 -19.278  1.00  0.00     0.000 C 
BRANCH   7   8
ATOM      8  C   UNL     1      -3.484  -1.494 -18.477  1.00  0.00    -0.000 C 
BRANCH   8   9
ATOM      9  C   UNL     1      -4.152  -0.110 -18.451  1.00  0.00    -0.003 C 
ATOM     10  C   UNL     1      -3.140   1.036 -18.459  1.00  0.00     0.004 C 
ENDBRANCH   8   9
ENDBRANCH   7   8
ENDBRANCH   1   7
TORSDOF 6
ENDMDL
MODEL 9
REMARK VINA RESULT:    -5.130      2.968      5.775
REMARK INTER + INTRA:          -7.263
REMARK INTER:                  -7.080
REMARK INTRA:                  -0.183
REMARK UNBOUND:                -0.332
REMARK SMILES CCCCCCCC(=O)[O-]
REMARK SMILES IDX 5 1 6 2 7 3 8 4 9 5 10 6 4 7 3 8 2 9 1 10
REMARK H PARENT
REMARK Flexibility Score: inf
ROOT
ATOM      1  C   UNL     1      -6.232  -2.912 -19.179  1.00  0.00     0.000 C 
ENDROOT
BRANCH   1   2
ATOM      2  C   UNL     1      -7.268  -4.032 -18.980  1.00  0.00     0.006 C 
BRANCH   2   3
ATOM      3  C   UNL     1      -7.028  -5.219 -19.924  1.00  0.00     0.053 C 
BRANCH   3   4
ATOM      4  C   UNL     1      -8.143  -6.216 -19.856  1.00  0.00     0.041 C 
ATOM      5  O   UNL     1      -9.339  -5.828 -19.821  1.00  0.00    -0.550 OA
ATOM      6  O   UNL     1      -7.861  -7.577 -19.865  1.00  0.00    -0.550 OA
ENDBRANCH   3   4
ENDBRANCH   2   3
ENDBRANCH   1   2
BRANCH   1   7
ATOM      7  C   UNL     1      -4.894  -3.210 -18.483  1.00  0.00     0.000 C 
BRANCH   7   8
ATOM      8  C   UNL     1      -3.827  -2.142 -18.773  1.00  0.00    -0.000 C 
BRANCH   8   9
ATOM      9  C   UNL     1      -4.433  -0.742 -18.961  1.00  0.00    -0.003 C 
ATOM     10  C   UNL     1      -3.483   0.377 -18.534  1.00  0.00     0.004 C 
ENDBRANCH   8   9
ENDBRANCH   7   8
ENDBRANCH   1   7
TORSDOF 6
ENDMDL
