MODEL 1
REMARK VINA RESULT:    -5.687      0.000      0.000
REMARK INTER + INTRA:         -10.365
REMARK INTER:                  -8.679
REMARK INTRA:                  -1.686
REMARK UNBOUND:                -1.686
REMARK SMILES OC[C@@H]1O[C@@H](O[C@@]2(CO)O[C@H](CO)[C@H](O)[C@@H]2O)[C@@H](O)[C@H](O)[C@H]1O
REMARK SMILES IDX 6 1 5 2 3 3 22 4 4 5 20 6 18 7 2 8 1 9 23 11 21 13 19 15
REMARK SMILES IDX 7 17 16 18 10 19 14 20 11 21 8 22 9 23 17 25 15 27 12 29
REMARK SMILES IDX 13 30
REMARK H PARENT 1 10 23 12 21 14 19 16 9 24 17 26 15 28 13 31
REMARK Flexibility Score: inf
ROOT
ATOM      1  O   UNL     1      -9.318  25.567  23.634  1.00  0.00    -0.313 OA
ENDROOT
BRANCH   1   2
ATOM      2  C   UNL     1     -10.025  26.796  23.840  1.00  0.00     0.285 C 
ATOM      3  C   UNL     1     -10.045  29.152  23.519  1.00  0.00     0.178 C 
ATOM      4  C   UNL     1     -10.717  29.361  24.910  1.00  0.00     0.177 C 
ATOM      5  O   UNL     1      -9.290  27.948  23.441  1.00  0.00    -0.341 OA
ATOM      6  C   UNL     1     -10.242  28.287  25.899  1.00  0.00     0.179 C 
ATOM      7  C   UNL     1     -10.515  26.889  25.315  1.00  0.00     0.202 C 
BRANCH   3   8
ATOM      8  C   UNL     1     -11.040  29.269  22.344  1.00  0.00     0.191 C 
BRANCH   8   9
ATOM      9  O   UNL     1     -10.370  29.183  21.115  1.00  0.00    -0.394 OA
ATOM     10  H   UNL     1      -9.880  28.320  21.113  1.00  0.00     0.210 HD
ENDBRANCH   8   9
ENDBRANCH   3   8
BRANCH   4  11
ATOM     11  O   UNL     1     -10.392  30.629  25.422  1.00  0.00    -0.387 OA
ATOM     12  H   UNL     1     -11.239  31.039  25.739  1.00  0.00     0.211 HD
ENDBRANCH   4  11
BRANCH   6  13
ATOM     13  O   UNL     1     -10.858  28.441  27.156  1.00  0.00    -0.387 OA
ATOM     14  H   UNL     1     -11.800  28.716  27.009  1.00  0.00     0.211 HD
ENDBRANCH   6  13
BRANCH   7  15
ATOM     15  O   UNL     1      -9.897  25.910  26.113  1.00  0.00    -0.385 OA
ATOM     16  H   UNL     1     -10.526  25.702  26.855  1.00  0.00     0.211 HD
ENDBRANCH   7  15
ENDBRANCH   1   2
BRANCH   1  17
ATOM     17  C   UNL     1      -9.247  25.031  22.310  1.00  0.00     0.224 C 
ATOM     18  C   UNL     1     -10.334  25.649  21.376  1.00  0.00     0.208 C 
ATOM     19  O   UNL     1      -9.537  23.647  22.427  1.00  0.00    -0.337 OA
ATOM     20  C   UNL     1     -11.125  24.456  20.878  1.00  0.00     0.180 C 
ATOM     21  C   UNL     1     -10.848  23.430  21.968  1.00  0.00     0.179 C 
BRANCH  17  22
ATOM     22  C   UNL     1      -7.809  25.109  21.731  1.00  0.00     0.225 C 
BRANCH  22  23
ATOM     23  O   UNL     1      -7.745  24.422  20.511  1.00  0.00    -0.391 OA
ATOM     24  H   UNL     1      -7.561  25.107  19.815  1.00  0.00     0.210 HD
ENDBRANCH  22  23
ENDBRANCH  17  22
BRANCH  18  25
ATOM     25  O   UNL     1      -9.786  26.391  20.313  1.00  0.00    -0.385 OA
ATOM     26  H   UNL     1      -9.186  25.773  19.817  1.00  0.00     0.211 HD
ENDBRANCH  18  25
BRANCH  20  27
ATOM     27  O   UNL     1     -10.699  24.023  19.605  1.00  0.00    -0.387 OA
ATOM     28  H   UNL     1     -11.008  23.090  19.471  1.00  0.00     0.211 HD
ENDBRANCH  20  27
BRANCH  21  29
ATOM     29  C   UNL     1     -11.014  21.974  21.517  1.00  0.00     0.191 C 
BRANCH  29  30
ATOM     30  O   UNL     1      -9.840  21.527  20.896  1.00  0.00    -0.394 OA
ATOM     31  H   UNL     1      -9.096  22.025  21.324  1.00  0.00     0.210 HD
ENDBRANCH  29  30
ENDBRANCH  21  29
ENDBRANCH   1  17
TORSDOF 13
ENDMDL
MODEL 2
REMARK VINA RESULT:    -5.596      1.517      6.137
REMARK INTER + INTRA:         -10.225
REMARK INTER:                  -8.819
REMARK INTRA:                  -1.406
REMARK UNBOUND:                -1.686
REMARK SMILES OC[C@@H]1O[C@@H](O[C@@]2(CO)O[C@H](CO)[C@H](O)[C@@H]2O)[C@@H](O)[C@H](O)[C@H]1O
REMARK SMILES IDX 6 1 5 2 3 3 22 4 4 5 20 6 18 7 2 8 1 9 23 11 21 13 19 15
REMARK SMILES IDX 7 17 16 18 10 19 14 20 11 21 8 22 9 23 17 25 15 27 12 29
REMARK SMILES IDX 13 30
REMARK H PARENT 1 10 23 12 21 14 19 16 9 24 17 26 15 28 13 31
REMARK Flexibility Score: inf
ROOT
ATOM      1  O   UNL     1      -9.023  27.234  22.246  1.00  0.00    -0.313 OA
ENDROOT
BRANCH   1   2
ATOM      2  C   UNL     1      -9.626  26.097  21.619  1.00  0.00     0.285 C 
ATOM      3  C   UNL     1      -9.440  23.782  21.105  1.00  0.00     0.178 C 
ATOM      4  C   UNL     1     -10.115  24.009  19.719  1.00  0.00     0.177 C 
ATOM      5  O   UNL     1      -8.789  24.945  21.605  1.00  0.00    -0.341 OA
ATOM      6  C   UNL     1      -9.750  25.396  19.168  1.00  0.00     0.179 C 
ATOM      7  C   UNL     1     -10.132  26.477  20.196  1.00  0.00     0.202 C 
BRANCH   3   8
ATOM      8  C   UNL     1     -10.401  23.182  22.154  1.00  0.00     0.191 C 
BRANCH   8   9
ATOM      9  O   UNL     1     -11.116  22.103  21.613  1.00  0.00    -0.394 OA
ATOM     10  H   UNL     1     -11.835  22.490  21.047  1.00  0.00     0.210 HD
ENDBRANCH   8   9
ENDBRANCH   3   8
BRANCH   4  11
ATOM     11  O   UNL     1      -9.692  23.030  18.804  1.00  0.00    -0.387 OA
ATOM     12  H   UNL     1      -9.227  22.326  19.328  1.00  0.00     0.211 HD
ENDBRANCH   4  11
BRANCH   6  13
ATOM     13  O   UNL     1     -10.373  25.633  17.927  1.00  0.00    -0.387 OA
ATOM     14  H   UNL     1      -9.945  26.427  17.512  1.00  0.00     0.211 HD
ENDBRANCH   6  13
BRANCH   7  15
ATOM     15  O   UNL     1      -9.614  27.721  19.794  1.00  0.00    -0.385 OA
ATOM     16  H   UNL     1      -9.876  28.382  20.488  1.00  0.00     0.211 HD
ENDBRANCH   7  15
ENDBRANCH   1   2
BRANCH   1  17
ATOM     17  C   UNL     1      -9.692  27.840  23.355  1.00  0.00     0.224 C 
ATOM     18  C   UNL     1      -8.699  28.208  24.501  1.00  0.00     0.208 C 
ATOM     19  O   UNL     1     -10.576  26.855  23.871  1.00  0.00    -0.337 OA
ATOM     20  C   UNL     1      -9.225  27.463  25.711  1.00  0.00     0.180 C 
ATOM     21  C   UNL     1     -10.020  26.342  25.056  1.00  0.00     0.179 C 
BRANCH  17  22
ATOM     22  C   UNL     1     -10.598  29.020  22.910  1.00  0.00     0.225 C 
BRANCH  22  23
ATOM     23  O   UNL     1      -9.995  29.714  21.852  1.00  0.00    -0.391 OA
ATOM     24  H   UNL     1      -9.223  30.202  22.243  1.00  0.00     0.210 HD
ENDBRANCH  22  23
ENDBRANCH  17  22
BRANCH  18  25
ATOM     25  O   UNL     1      -8.623  29.594  24.735  1.00  0.00    -0.385 OA
ATOM     26  H   UNL     1      -9.023  29.751  25.631  1.00  0.00     0.211 HD
ENDBRANCH  18  25
BRANCH  20  27
ATOM     27  O   UNL     1     -10.022  28.280  26.540  1.00  0.00    -0.387 OA
ATOM     28  H   UNL     1     -10.968  28.186  26.257  1.00  0.00     0.211 HD
ENDBRANCH  20  27
BRANCH  21  29
ATOM     29  C   UNL     1     -11.123  25.753  25.943  1.00  0.00     0.191 C 
BRANCH  29  30
ATOM     30  O   UNL     1     -10.642  25.562  27.245  1.00  0.00    -0.394 OA
ATOM     31  H   UNL     1      -9.834  26.130  27.325  1.00  0.00     0.210 HD
ENDBRANCH  29  30
ENDBRANCH  21  29
ENDBRANCH   1  17
TORSDOF 13
ENDMDL
MODEL 3
REMARK VINA RESULT:    -5.462      1.593      6.374
REMARK INTER + INTRA:         -10.021
REMARK INTER:                  -8.568
REMARK INTRA:                  -1.453
REMARK UNBOUND:                -1.686
REMARK SMILES OC[C@@H]1O[C@@H](O[C@@]2(CO)O[C@H](CO)[C@H](O)[C@@H]2O)[C@@H](O)[C@H](O)[C@H]1O
REMARK SMILES IDX 6 1 5 2 3 3 22 4 4 5 20 6 18 7 2 8 1 9 23 11 21 13 19 15
REMARK SMILES IDX 7 17 16 18 10 19 14 20 11 21 8 22 9 23 17 25 15 27 12 29
REMARK SMILES IDX 13 30
REMARK H PARENT 1 10 23 12 21 14 19 16 9 24 17 26 15 28 13 31
REMARK Flexibility Score: inf
ROOT
ATOM      1  O   UNL     1      -8.545  27.098  22.221  1.00  0.00    -0.313 OA
ENDROOT
BRANCH   1   2
ATOM      2  C   UNL     1      -9.182  26.000  21.559  1.00  0.00     0.285 C 
ATOM      3  C   UNL     1      -8.939  23.810  20.665  1.00  0.00     0.178 C 
ATOM      4  C   UNL     1      -9.909  24.152  19.494  1.00  0.00     0.177 C 
ATOM      5  O   UNL     1      -8.284  24.954  21.200  1.00  0.00    -0.341 OA
ATOM      6  C   UNL     1      -9.772  25.631  19.103  1.00  0.00     0.179 C 
ATOM      7  C   UNL     1     -10.005  26.516  20.341  1.00  0.00     0.202 C 
BRANCH   3   8
ATOM      8  C   UNL     1      -9.609  22.975  21.779  1.00  0.00     0.191 C 
BRANCH   8   9
ATOM      9  O   UNL     1      -8.808  21.878  22.129  1.00  0.00    -0.394 OA
ATOM     10  H   UNL     1      -8.538  21.437  21.281  1.00  0.00     0.210 HD
ENDBRANCH   8   9
ENDBRANCH   3   8
BRANCH   4  11
ATOM     11  O   UNL     1      -9.619  23.355  18.373  1.00  0.00    -0.387 OA
ATOM     12  H   UNL     1      -8.734  22.936  18.538  1.00  0.00     0.211 HD
ENDBRANCH   4  11
BRANCH   6  13
ATOM     13  O   UNL     1     -10.659  25.969  18.063  1.00  0.00    -0.387 OA
ATOM     14  H   UNL     1     -11.587  25.881  18.405  1.00  0.00     0.211 HD
ENDBRANCH   6  13
BRANCH   7  15
ATOM     15  O   UNL     1      -9.677  27.850  20.041  1.00  0.00    -0.385 OA
ATOM     16  H   UNL     1      -9.006  28.142  20.714  1.00  0.00     0.211 HD
ENDBRANCH   7  15
ENDBRANCH   1   2
BRANCH   1  17
ATOM     17  C   UNL     1      -8.885  27.367  23.584  1.00  0.00     0.224 C 
ATOM     18  C   UNL     1     -10.133  26.549  24.041  1.00  0.00     0.208 C 
ATOM     19  O   UNL     1      -9.243  28.739  23.640  1.00  0.00    -0.337 OA
ATOM     20  C   UNL     1     -11.125  27.599  24.499  1.00  0.00     0.180 C 
ATOM     21  C   UNL     1     -10.643  28.826  23.737  1.00  0.00     0.179 C 
BRANCH  17  22
ATOM     22  C   UNL     1      -7.660  27.216  24.526  1.00  0.00     0.225 C 
BRANCH  22  23
ATOM     23  O   UNL     1      -7.981  27.684  25.808  1.00  0.00    -0.391 OA
ATOM     24  H   UNL     1      -8.039  26.881  26.391  1.00  0.00     0.210 HD
ENDBRANCH  22  23
ENDBRANCH  17  22
BRANCH  18  25
ATOM     25  O   UNL     1      -9.840  25.629  25.065  1.00  0.00    -0.385 OA
ATOM     26  H   UNL     1      -9.796  24.734  24.636  1.00  0.00     0.211 HD
ENDBRANCH  18  25
BRANCH  20  27
ATOM     27  O   UNL     1     -11.103  27.786  25.897  1.00  0.00    -0.387 OA
ATOM     28  H   UNL     1     -11.576  27.025  26.322  1.00  0.00     0.211 HD
ENDBRANCH  20  27
BRANCH  21  29
ATOM     29  C   UNL     1     -11.045  30.161  24.376  1.00  0.00     0.191 C 
BRANCH  29  30
ATOM     30  O   UNL     1      -9.979  30.672  25.130  1.00  0.00    -0.394 OA
ATOM     31  H   UNL     1      -9.982  31.652  24.980  1.00  0.00     0.210 HD
ENDBRANCH  29  30
ENDBRANCH  21  29
ENDBRANCH   1  17
TORSDOF 13
ENDMDL
MODEL 4
REMARK VINA RESULT:    -5.440      1.070      2.238
REMARK INTER + INTRA:          -9.988
REMARK INTER:                  -8.891
REMARK INTRA:                  -1.097
REMARK UNBOUND:                -1.686
REMARK SMILES OC[C@@H]1O[C@@H](O[C@@]2(CO)O[C@H](CO)[C@H](O)[C@@H]2O)[C@@H](O)[C@H](O)[C@H]1O
REMARK SMILES IDX 6 1 5 2 3 3 22 4 4 5 20 6 18 7 2 8 1 9 23 11 21 13 19 15
REMARK SMILES IDX 7 17 16 18 10 19 14 20 11 21 8 22 9 23 17 25 15 27 12 29
REMARK SMILES IDX 13 30
REMARK H PARENT 1 10 23 12 21 14 19 16 9 24 17 26 15 28 13 31
REMARK Flexibility Score: inf
ROOT
ATOM      1  O   UNL     1      -9.027  25.404  23.676  1.00  0.00    -0.313 OA
ENDROOT
BRANCH   1   2
ATOM      2  C   UNL     1      -9.807  26.594  23.846  1.00  0.00     0.285 C 
ATOM      3  C   UNL     1      -9.972  28.932  23.446  1.00  0.00     0.178 C 
ATOM      4  C   UNL     1     -10.646  29.148  24.834  1.00  0.00     0.177 C 
ATOM      5  O   UNL     1      -9.145  27.774  23.402  1.00  0.00    -0.341 OA
ATOM      6  C   UNL     1     -10.100  28.139  25.856  1.00  0.00     0.179 C 
ATOM      7  C   UNL     1     -10.292  26.708  25.322  1.00  0.00     0.202 C 
BRANCH   3   8
ATOM      8  C   UNL     1     -10.980  28.948  22.276  1.00  0.00     0.191 C 
BRANCH   8   9
ATOM      9  O   UNL     1     -10.373  29.417  21.102  1.00  0.00    -0.394 OA
ATOM     10  H   UNL     1      -9.392  29.390  21.255  1.00  0.00     0.210 HD
ENDBRANCH   8   9
ENDBRANCH   3   8
BRANCH   4  11
ATOM     11  O   UNL     1     -10.395  30.450  25.300  1.00  0.00    -0.387 OA
ATOM     12  H   UNL     1     -10.120  30.369  26.251  1.00  0.00     0.211 HD
ENDBRANCH   4  11
BRANCH   6  13
ATOM     13  O   UNL     1     -10.716  28.299  27.112  1.00  0.00    -0.387 OA
ATOM     14  H   UNL     1     -10.970  27.400  27.450  1.00  0.00     0.211 HD
ENDBRANCH   6  13
BRANCH   7  15
ATOM     15  O   UNL     1      -9.610  25.796  26.147  1.00  0.00    -0.385 OA
ATOM     16  H   UNL     1      -8.778  26.247  26.452  1.00  0.00     0.211 HD
ENDBRANCH   7  15
ENDBRANCH   1   2
BRANCH   1  17
ATOM     17  C   UNL     1      -9.232  24.613  22.503  1.00  0.00     0.224 C 
ATOM     18  C   UNL     1      -7.989  24.643  21.559  1.00  0.00     0.208 C 
ATOM     19  O   UNL     1     -10.305  25.219  21.798  1.00  0.00    -0.337 OA
ATOM     20  C   UNL     1      -8.528  25.165  20.243  1.00  0.00     0.180 C 
ATOM     21  C   UNL     1      -9.772  25.915  20.698  1.00  0.00     0.179 C 
BRANCH  17  22
ATOM     22  C   UNL     1      -9.718  23.179  22.849  1.00  0.00     0.225 C 
BRANCH  22  23
ATOM     23  O   UNL     1      -9.984  22.466  21.672  1.00  0.00    -0.391 OA
ATOM     24  H   UNL     1      -9.168  21.933  21.479  1.00  0.00     0.210 HD
ENDBRANCH  22  23
ENDBRANCH  17  22
BRANCH  18  25
ATOM     25  O   UNL     1      -7.384  23.382  21.411  1.00  0.00    -0.385 OA
ATOM     26  H   UNL     1      -7.101  23.095  22.319  1.00  0.00     0.211 HD
ENDBRANCH  18  25
BRANCH  20  27
ATOM     27  O   UNL     1      -8.823  24.127  19.334  1.00  0.00    -0.387 OA
ATOM     28  H   UNL     1      -7.984  23.867  18.873  1.00  0.00     0.211 HD
ENDBRANCH  20  27
BRANCH  21  29
ATOM     29  C   UNL     1     -10.841  26.078  19.611  1.00  0.00     0.191 C 
BRANCH  29  30
ATOM     30  O   UNL     1     -10.233  26.216  18.356  1.00  0.00    -0.394 OA
ATOM     31  H   UNL     1      -9.258  26.129  18.512  1.00  0.00     0.210 HD
ENDBRANCH  29  30
ENDBRANCH  21  29
ENDBRANCH   1  17
TORSDOF 13
ENDMDL
MODEL 5
REMARK VINA RESULT:    -5.418      1.527      5.909
REMARK INTER + INTRA:          -9.954
REMARK INTER:                  -8.484
REMARK INTRA:                  -1.470
REMARK UNBOUND:                -1.686
REMARK SMILES OC[C@@H]1O[C@@H](O[C@@]2(CO)O[C@H](CO)[C@H](O)[C@@H]2O)[C@@H](O)[C@H](O)[C@H]1O
REMARK SMILES IDX 6 1 5 2 3 3 22 4 4 5 20 6 18 7 2 8 1 9 23 11 21 13 19 15
REMARK SMILES IDX 7 17 16 18 10 19 14 20 11 21 8 22 9 23 17 25 15 27 12 29
REMARK SMILES IDX 13 30
REMARK H PARENT 1 10 23 12 21 14 19 16 9 24 17 26 15 28 13 31
REMARK Flexibility Score: inf
ROOT
ATOM      1  O   UNL     1     -10.489  24.865  23.233  1.00  0.00    -0.313 OA
ENDROOT
BRANCH   1   2
ATOM      2  C   UNL     1     -10.078  24.728  21.868  1.00  0.00     0.285 C 
ATOM      3  C   UNL     1     -10.441  25.381  19.611  1.00  0.00     0.178 C 
ATOM      4  C   UNL     1     -10.096  23.945  19.112  1.00  0.00     0.177 C 
ATOM      5  O   UNL     1     -10.927  25.406  20.948  1.00  0.00    -0.341 OA
ATOM      6  C   UNL     1     -10.540  22.901  20.147  1.00  0.00     0.179 C 
ATOM      7  C   UNL     1      -9.903  23.222  21.512  1.00  0.00     0.202 C 
BRANCH   3   8
ATOM      8  C   UNL     1      -9.281  26.382  19.416  1.00  0.00     0.191 C 
BRANCH   8   9
ATOM      9  O   UNL     1      -9.562  27.600  20.053  1.00  0.00    -0.394 OA
ATOM     10  H   UNL     1      -9.589  27.415  21.028  1.00  0.00     0.210 HD
ENDBRANCH   8   9
ENDBRANCH   3   8
BRANCH   4  11
ATOM     11  O   UNL     1     -10.745  23.684  17.894  1.00  0.00    -0.387 OA
ATOM     12  H   UNL     1     -10.044  23.420  17.243  1.00  0.00     0.211 HD
ENDBRANCH   4  11
BRANCH   6  13
ATOM     13  O   UNL     1     -10.214  21.596  19.730  1.00  0.00    -0.387 OA
ATOM     14  H   UNL     1      -9.295  21.611  19.354  1.00  0.00     0.211 HD
ENDBRANCH   6  13
BRANCH   7  15
ATOM     15  O   UNL     1     -10.466  22.401  22.505  1.00  0.00    -0.385 OA
ATOM     16  H   UNL     1      -9.934  22.541  23.333  1.00  0.00     0.211 HD
ENDBRANCH   7  15
ENDBRANCH   1   2
BRANCH   1  17
ATOM     17  C   UNL     1      -9.901  25.900  24.025  1.00  0.00     0.224 C 
ATOM     18  C   UNL     1     -10.788  26.262  25.257  1.00  0.00     0.208 C 
ATOM     19  O   UNL     1      -9.849  27.052  23.196  1.00  0.00    -0.337 OA
ATOM     20  C   UNL     1     -11.068  27.743  25.098  1.00  0.00     0.180 C 
ATOM     21  C   UNL     1     -10.869  27.932  23.600  1.00  0.00     0.179 C 
BRANCH  17  22
ATOM     22  C   UNL     1      -8.426  25.582  24.390  1.00  0.00     0.225 C 
BRANCH  22  23
ATOM     23  O   UNL     1      -7.811  26.718  24.935  1.00  0.00    -0.391 OA
ATOM     24  H   UNL     1      -8.528  27.397  25.044  1.00  0.00     0.210 HD
ENDBRANCH  22  23
ENDBRANCH  17  22
BRANCH  18  25
ATOM     25  O   UNL     1     -10.161  25.980  26.485  1.00  0.00    -0.385 OA
ATOM     26  H   UNL     1     -10.878  25.683  27.106  1.00  0.00     0.211 HD
ENDBRANCH  18  25
BRANCH  20  27
ATOM     27  O   UNL     1     -10.194  28.540  25.866  1.00  0.00    -0.387 OA
ATOM     28  H   UNL     1      -9.317  28.080  25.922  1.00  0.00     0.211 HD
ENDBRANCH  20  27
BRANCH  21  29
ATOM     29  C   UNL     1     -10.519  29.367  23.189  1.00  0.00     0.191 C 
BRANCH  29  30
ATOM     30  O   UNL     1      -9.308  29.382  22.483  1.00  0.00    -0.394 OA
ATOM     31  H   UNL     1      -8.783  30.137  22.854  1.00  0.00     0.210 HD
ENDBRANCH  29  30
ENDBRANCH  21  29
ENDBRANCH   1  17
TORSDOF 13
ENDMDL
MODEL 6
REMARK VINA RESULT:    -5.410      1.458      2.748
REMARK INTER + INTRA:          -9.942
REMARK INTER:                  -8.785
REMARK INTRA:                  -1.157
REMARK UNBOUND:                -1.686
REMARK SMILES OC[C@@H]1O[C@@H](O[C@@]2(CO)O[C@H](CO)[C@H](O)[C@@H]2O)[C@@H](O)[C@H](O)[C@H]1O
REMARK SMILES IDX 6 1 5 2 3 3 22 4 4 5 20 6 18 7 2 8 1 9 23 11 21 13 19 15
REMARK SMILES IDX 7 17 16 18 10 19 14 20 11 21 8 22 9 23 17 25 15 27 12 29
REMARK SMILES IDX 13 30
REMARK H PARENT 1 10 23 12 21 14 19 16 9 24 17 26 15 28 13 31
REMARK Flexibility Score: inf
ROOT
ATOM      1  O   UNL     1     -10.613  26.090  21.387  1.00  0.00    -0.313 OA
ENDROOT
BRANCH   1   2
ATOM      2  C   UNL     1      -9.984  26.548  22.590  1.00  0.00     0.285 C 
ATOM      3  C   UNL     1      -9.796  26.306  24.948  1.00  0.00     0.178 C 
ATOM      4  C   UNL     1      -9.626  27.845  25.119  1.00  0.00     0.177 C 
ATOM      5  O   UNL     1     -10.512  25.951  23.770  1.00  0.00    -0.341 OA
ATOM      6  C   UNL     1     -10.434  28.594  24.049  1.00  0.00     0.179 C 
ATOM      7  C   UNL     1     -10.016  28.104  22.650  1.00  0.00     0.202 C 
BRANCH   3   8
ATOM      8  C   UNL     1      -8.461  25.536  25.047  1.00  0.00     0.191 C 
BRANCH   8   9
ATOM      9  O   UNL     1      -7.379  26.375  24.742  1.00  0.00    -0.394 OA
ATOM     10  H   UNL     1      -7.165  26.231  23.783  1.00  0.00     0.210 HD
ENDBRANCH   8   9
ENDBRANCH   3   8
BRANCH   4  11
ATOM     11  O   UNL     1     -10.071  28.246  26.390  1.00  0.00    -0.387 OA
ATOM     12  H   UNL     1     -10.346  27.424  26.874  1.00  0.00     0.211 HD
ENDBRANCH   4  11
BRANCH   6  13
ATOM     13  O   UNL     1     -10.273  29.988  24.168  1.00  0.00    -0.387 OA
ATOM     14  H   UNL     1      -9.853  30.324  23.333  1.00  0.00     0.211 HD
ENDBRANCH   6  13
BRANCH   7  15
ATOM     15  O   UNL     1     -10.892  28.627  21.681  1.00  0.00    -0.385 OA
ATOM     16  H   UNL     1     -11.806  28.318  21.921  1.00  0.00     0.211 HD
ENDBRANCH   7  15
ENDBRANCH   1   2
BRANCH   1  17
ATOM     17  C   UNL     1      -9.942  25.106  20.597  1.00  0.00     0.224 C 
ATOM     18  C   UNL     1     -10.559  24.991  19.168  1.00  0.00     0.208 C 
ATOM     19  O   UNL     1     -10.158  23.862  21.245  1.00  0.00    -0.337 OA
ATOM     20  C   UNL     1     -10.974  23.538  19.052  1.00  0.00     0.180 C 
ATOM     21  C   UNL     1     -11.125  23.147  20.515  1.00  0.00     0.179 C 
BRANCH  17  22
ATOM     22  C   UNL     1      -8.403  25.314  20.597  1.00  0.00     0.225 C 
BRANCH  22  23
ATOM     23  O   UNL     1      -7.756  24.108  20.898  1.00  0.00    -0.391 OA
ATOM     24  H   UNL     1      -8.423  23.388  20.743  1.00  0.00     0.210 HD
ENDBRANCH  22  23
ENDBRANCH  17  22
BRANCH  18  25
ATOM     25  O   UNL     1      -9.657  25.358  18.151  1.00  0.00    -0.385 OA
ATOM     26  H   UNL     1      -9.358  24.514  17.721  1.00  0.00     0.211 HD
ENDBRANCH  18  25
BRANCH  20  27
ATOM     27  O   UNL     1     -10.012  22.757  18.378  1.00  0.00    -0.387 OA
ATOM     28  H   UNL     1     -10.316  22.624  17.443  1.00  0.00     0.211 HD
ENDBRANCH  20  27
BRANCH  21  29
ATOM     29  C   UNL     1     -10.980  21.644  20.782  1.00  0.00     0.191 C 
BRANCH  29  30
ATOM     30  O   UNL     1      -9.634  21.323  21.003  1.00  0.00    -0.394 OA
ATOM     31  H   UNL     1      -9.381  21.769  21.852  1.00  0.00     0.210 HD
ENDBRANCH  29  30
ENDBRANCH  21  29
ENDBRANCH   1  17
TORSDOF 13
ENDMDL
MODEL 7
REMARK VINA RESULT:    -4.953      1.627      6.191
REMARK INTER + INTRA:          -9.245
REMARK INTER:                  -8.293
REMARK INTRA:                  -0.952
REMARK UNBOUND:                -1.686
REMARK SMILES OC[C@@H]1O[C@@H](O[C@@]2(CO)O[C@H](CO)[C@H](O)[C@@H]2O)[C@@H](O)[C@H](O)[C@H]1O
REMARK SMILES IDX 6 1 5 2 3 3 22 4 4 5 20 6 18 7 2 8 1 9 23 11 21 13 19 15
REMARK SMILES IDX 7 17 16 18 10 19 14 20 11 21 8 22 9 23 17 25 15 27 12 29
REMARK SMILES IDX 13 30
REMARK H PARENT 1 10 23 12 21 14 19 16 9 24 17 26 15 28 13 31
REMARK Flexibility Score: inf
ROOT
ATOM      1  O   UNL     1     -10.754  25.554  22.786  1.00  0.00    -0.313 OA
ENDROOT
BRANCH   1   2
ATOM      2  C   UNL     1     -10.335  24.794  21.646  1.00  0.00     0.285 C 
ATOM      3  C   UNL     1     -10.538  24.458  19.300  1.00  0.00     0.178 C 
ATOM      4  C   UNL     1     -10.405  22.917  19.483  1.00  0.00     0.177 C 
ATOM      5  O   UNL     1     -11.048  25.115  20.455  1.00  0.00    -0.341 OA
ATOM      6  C   UNL     1     -11.030  22.482  20.818  1.00  0.00     0.179 C 
ATOM      7  C   UNL     1     -10.384  23.272  21.972  1.00  0.00     0.202 C 
BRANCH   3   8
ATOM      8  C   UNL     1      -9.234  25.122  18.807  1.00  0.00     0.191 C 
BRANCH   8   9
ATOM      9  O   UNL     1      -8.111  24.443  19.304  1.00  0.00    -0.394 OA
ATOM     10  H   UNL     1      -8.222  23.487  19.062  1.00  0.00     0.210 HD
ENDBRANCH   8   9
ENDBRANCH   3   8
BRANCH   4  11
ATOM     11  O   UNL     1     -11.057  22.244  18.435  1.00  0.00    -0.387 OA
ATOM     12  H   UNL     1     -10.765  22.675  17.590  1.00  0.00     0.211 HD
ENDBRANCH   4  11
BRANCH   6  13
ATOM     13  O   UNL     1     -10.897  21.094  21.017  1.00  0.00    -0.387 OA
ATOM     14  H   UNL     1     -11.766  20.743  21.344  1.00  0.00     0.211 HD
ENDBRANCH   6  13
BRANCH   7  15
ATOM     15  O   UNL     1     -11.091  23.035  23.164  1.00  0.00    -0.385 OA
ATOM     16  H   UNL     1     -11.125  22.050  23.290  1.00  0.00     0.211 HD
ENDBRANCH   7  15
ENDBRANCH   1   2
BRANCH   1  17
ATOM     17  C   UNL     1      -9.868  26.545  23.311  1.00  0.00     0.224 C 
ATOM     18  C   UNL     1      -9.018  25.994  24.497  1.00  0.00     0.208 C 
ATOM     19  O   UNL     1     -10.692  27.577  23.832  1.00  0.00    -0.337 OA
ATOM     20  C   UNL     1      -9.337  26.921  25.653  1.00  0.00     0.180 C 
ATOM     21  C   UNL     1     -10.693  27.473  25.235  1.00  0.00     0.179 C 
BRANCH  17  22
ATOM     22  C   UNL     1      -9.021  27.213  22.193  1.00  0.00     0.225 C 
BRANCH  22  23
ATOM     23  O   UNL     1      -9.281  28.590  22.153  1.00  0.00    -0.391 OA
ATOM     24  H   UNL     1      -8.405  29.035  22.001  1.00  0.00     0.210 HD
ENDBRANCH  22  23
ENDBRANCH  17  22
BRANCH  18  25
ATOM     25  O   UNL     1      -7.639  25.967  24.217  1.00  0.00    -0.385 OA
ATOM     26  H   UNL     1      -7.551  25.957  23.228  1.00  0.00     0.211 HD
ENDBRANCH  18  25
BRANCH  20  27
ATOM     27  O   UNL     1      -8.367  27.931  25.815  1.00  0.00    -0.387 OA
ATOM     28  H   UNL     1      -8.817  28.813  25.745  1.00  0.00     0.211 HD
ENDBRANCH  20  27
BRANCH  21  29
ATOM     29  C   UNL     1     -11.041  28.828  25.863  1.00  0.00     0.191 C 
BRANCH  29  30
ATOM     30  O   UNL     1     -10.792  28.796  27.241  1.00  0.00    -0.394 OA
ATOM     31  H   UNL     1      -9.806  28.762  27.342  1.00  0.00     0.210 HD
ENDBRANCH  29  30
ENDBRANCH  21  29
ENDBRANCH   1  17
TORSDOF 13
ENDMDL
MODEL 8
REMARK VINA RESULT:    -4.889      1.609      2.024
REMARK INTER + INTRA:          -9.147
REMARK INTER:                  -8.350
REMARK INTRA:                  -0.797
REMARK UNBOUND:                -1.686
REMARK SMILES OC[C@@H]1O[C@@H](O[C@@]2(CO)O[C@H](CO)[C@H](O)[C@@H]2O)[C@@H](O)[C@H](O)[C@H]1O
REMARK SMILES IDX 6 1 5 2 3 3 22 4 4 5 20 6 18 7 2 8 1 9 23 11 21 13 19 15
REMARK SMILES IDX 7 17 16 18 10 19 14 20 11 21 8 22 9 23 17 25 15 27 12 29
REMARK SMILES IDX 13 30
REMARK H PARENT 1 10 23 12 21 14 19 16 9 24 17 26 15 28 13 31
REMARK Flexibility Score: inf
ROOT
ATOM      1  O   UNL     1      -8.213  26.243  21.025  1.00  0.00    -0.313 OA
ENDROOT
BRANCH   1   2
ATOM      2  C   UNL     1      -8.961  27.033  21.957  1.00  0.00     0.285 C 
ATOM      3  C   UNL     1      -9.644  29.215  22.610  1.00  0.00     0.178 C 
ATOM      4  C   UNL     1      -9.543  28.825  24.115  1.00  0.00     0.177 C 
ATOM      5  O   UNL     1      -8.796  28.436  21.773  1.00  0.00    -0.341 OA
ATOM      6  C   UNL     1      -8.414  27.805  24.327  1.00  0.00     0.179 C 
ATOM      7  C   UNL     1      -8.640  26.586  23.414  1.00  0.00     0.202 C 
BRANCH   3   8
ATOM      8  C   UNL     1     -11.096  29.225  22.085  1.00  0.00     0.191 C 
BRANCH   8   9
ATOM      9  O   UNL     1     -11.119  29.354  20.688  1.00  0.00    -0.394 OA
ATOM     10  H   UNL     1     -10.500  30.094  20.457  1.00  0.00     0.210 HD
ENDBRANCH   8   9
ENDBRANCH   3   8
BRANCH   4  11
ATOM     11  O   UNL     1      -9.282  29.963  24.897  1.00  0.00    -0.387 OA
ATOM     12  H   UNL     1     -10.129  30.199  25.357  1.00  0.00     0.211 HD
ENDBRANCH   4  11
BRANCH   6  13
ATOM     13  O   UNL     1      -8.322  27.417  25.678  1.00  0.00    -0.387 OA
ATOM     14  H   UNL     1      -8.416  28.229  26.242  1.00  0.00     0.211 HD
ENDBRANCH   6  13
BRANCH   7  15
ATOM     15  O   UNL     1      -7.510  25.750  23.447  1.00  0.00    -0.385 OA
ATOM     16  H   UNL     1      -7.009  25.973  24.276  1.00  0.00     0.211 HD
ENDBRANCH   7  15
ENDBRANCH   1   2
BRANCH   1  17
ATOM     17  C   UNL     1      -8.851  25.119  20.414  1.00  0.00     0.224 C 
ATOM     18  C   UNL     1     -10.394  25.132  20.643  1.00  0.00     0.208 C 
ATOM     19  O   UNL     1      -8.342  23.968  21.071  1.00  0.00    -0.337 OA
ATOM     20  C   UNL     1     -10.685  23.815  21.334  1.00  0.00     0.180 C 
ATOM     21  C   UNL     1      -9.331  23.489  21.950  1.00  0.00     0.179 C 
BRANCH  17  22
ATOM     22  C   UNL     1      -8.443  24.962  18.924  1.00  0.00     0.225 C 
BRANCH  22  23
ATOM     23  O   UNL     1      -8.872  23.720  18.437  1.00  0.00    -0.391 OA
ATOM     24  H   UNL     1      -8.274  23.498  17.675  1.00  0.00     0.210 HD
ENDBRANCH  22  23
ENDBRANCH  17  22
BRANCH  18  25
ATOM     25  O   UNL     1     -11.125  25.265  19.448  1.00  0.00    -0.385 OA
ATOM     26  H   UNL     1     -10.809  26.102  19.015  1.00  0.00     0.211 HD
ENDBRANCH  18  25
BRANCH  20  27
ATOM     27  O   UNL     1     -11.125  22.822  20.435  1.00  0.00    -0.387 OA
ATOM     28  H   UNL     1     -11.336  23.256  19.568  1.00  0.00     0.211 HD
ENDBRANCH  20  27
BRANCH  21  29
ATOM     29  C   UNL     1      -9.110  21.997  22.228  1.00  0.00     0.191 C 
BRANCH  29  30
ATOM     30  O   UNL     1      -9.551  21.235  21.138  1.00  0.00    -0.394 OA
ATOM     31  H   UNL     1      -8.738  20.843  20.729  1.00  0.00     0.210 HD
ENDBRANCH  29  30
ENDBRANCH  21  29
ENDBRANCH   1  17
TORSDOF 13
ENDMDL
MODEL 9
REMARK VINA RESULT:    -4.749      1.700      3.459
REMARK INTER + INTRA:          -8.934
REMARK INTER:                  -8.116
REMARK INTRA:                  -0.817
REMARK UNBOUND:                -1.686
REMARK SMILES OC[C@@H]1O[C@@H](O[C@@]2(CO)O[C@H](CO)[C@H](O)[C@@H]2O)[C@@H](O)[C@H](O)[C@H]1O
REMARK SMILES IDX 6 1 5 2 3 3 22 4 4 5 20 6 18 7 2 8 1 9 23 11 21 13 19 15
REMARK SMILES IDX 7 17 16 18 10 19 14 20 11 21 8 22 9 23 17 25 15 27 12 29
REMARK SMILES IDX 13 30
REMARK H PARENT 1 10 23 12 21 14 19 16 9 24 17 26 15 28 13 31
REMARK Flexibility Score: inf
ROOT
ATOM      1  O   UNL     1     -10.848  25.308  22.076  1.00  0.00    -0.313 OA
ENDROOT
BRANCH   1   2
ATOM      2  C   UNL     1     -10.047  26.300  22.728  1.00  0.00     0.285 C 
ATOM      3  C   UNL     1      -9.486  27.364  24.780  1.00  0.00     0.178 C 
ATOM      4  C   UNL     1      -9.319  28.733  24.054  1.00  0.00     0.177 C 
ATOM      5  O   UNL     1     -10.372  26.478  24.104  1.00  0.00    -0.341 OA
ATOM      6  C   UNL     1     -10.300  28.835  22.876  1.00  0.00     0.179 C 
ATOM      7  C   UNL     1     -10.098  27.636  21.930  1.00  0.00     0.202 C 
BRANCH   3   8
ATOM      8  C   UNL     1      -8.138  26.679  25.094  1.00  0.00     0.191 C 
BRANCH   8   9
ATOM      9  O   UNL     1      -8.204  25.305  24.822  1.00  0.00    -0.394 OA
ATOM     10  H   UNL     1      -7.608  25.136  24.045  1.00  0.00     0.210 HD
ENDBRANCH   8   9
ENDBRANCH   3   8
BRANCH   4  11
ATOM     11  O   UNL     1      -9.567  29.791  24.946  1.00  0.00    -0.387 OA
ATOM     12  H   UNL     1     -10.331  29.515  25.517  1.00  0.00     0.211 HD
ENDBRANCH   4  11
BRANCH   6  13
ATOM     13  O   UNL     1     -10.147  30.055  22.188  1.00  0.00    -0.387 OA
ATOM     14  H   UNL     1      -9.177  30.219  22.058  1.00  0.00     0.211 HD
ENDBRANCH   6  13
BRANCH   7  15
ATOM     15  O   UNL     1     -11.125  27.610  20.970  1.00  0.00    -0.385 OA
ATOM     16  H   UNL     1     -11.858  28.187  21.313  1.00  0.00     0.211 HD
ENDBRANCH   7  15
ENDBRANCH   1   2
BRANCH   1  17
ATOM     17  C   UNL     1     -10.223  24.437  21.129  1.00  0.00     0.224 C 
ATOM     18  C   UNL     1      -8.752  24.863  20.833  1.00  0.00     0.208 C 
ATOM     19  O   UNL     1     -10.950  24.581  19.918  1.00  0.00    -0.337 OA
ATOM     20  C   UNL     1      -8.718  25.089  19.335  1.00  0.00     0.180 C 
ATOM     21  C   UNL     1     -10.185  25.365  19.036  1.00  0.00     0.179 C 
BRANCH  17  22
ATOM     22  C   UNL     1     -10.373  22.944  21.530  1.00  0.00     0.225 C 
BRANCH  22  23
ATOM     23  O   UNL     1      -9.806  22.125  20.544  1.00  0.00    -0.391 OA
ATOM     24  H   UNL     1      -9.649  22.707  19.754  1.00  0.00     0.210 HD
ENDBRANCH  22  23
ENDBRANCH  17  22
BRANCH  18  25
ATOM     25  O   UNL     1      -7.810  23.897  21.235  1.00  0.00    -0.385 OA
ATOM     26  H   UNL     1      -6.914  24.283  21.052  1.00  0.00     0.211 HD
ENDBRANCH  18  25
BRANCH  20  27
ATOM     27  O   UNL     1      -8.223  23.970  18.634  1.00  0.00    -0.387 OA
ATOM     28  H   UNL     1      -7.658  23.438  19.252  1.00  0.00     0.211 HD
ENDBRANCH  20  27
BRANCH  21  29
ATOM     29  C   UNL     1     -10.596  25.078  17.587  1.00  0.00     0.191 C 
BRANCH  29  30
ATOM     30  O   UNL     1     -11.044  23.755  17.468  1.00  0.00    -0.394 OA
ATOM     31  H   UNL     1     -11.787  23.657  18.118  1.00  0.00     0.210 HD
ENDBRANCH  29  30
ENDBRANCH  21  29
ENDBRANCH   1  17
TORSDOF 13
ENDMDL
