MODEL 1
REMARK VINA RESULT:    24.805      0.000      0.000
REMARK INTER + INTRA:          33.451
REMARK INTER:                  33.506
REMARK INTRA:                  -0.055
REMARK UNBOUND:                -0.055
REMARK SMILES O=c1c(-c2ccc(O)cc2)coc2c([C@H]3O[C@@H](CO)[C@H](O)[C@H](O)[C@H]3O)c(O)ccc12
REMARK SMILES IDX 3 1 11 2 12 3 13 4 30 5 2 6 1 7 29 8 28 9 26 10 14 11 4 12
REMARK SMILES IDX 5 13 6 14 7 15 10 16 9 17 8 18 15 20 24 21 16 22 22 23 17 24
REMARK SMILES IDX 20 25 25 26 23 28 18 30 19 31 21 33 27 35
REMARK H PARENT 8 19 25 27 23 29 19 32 21 34 27 36
REMARK Flexibility Score: inf
ROOT
ATOM      1  C   UNL     1      36.593   1.928  20.259  1.00  0.00     0.065 A 
ATOM      2  C   UNL     1      36.083   1.577  21.516  1.00  0.00     0.208 A 
ATOM      3  O   UNL     1      35.918   0.304  21.852  1.00  0.00    -0.463 OA
ATOM      4  C   UNL     1      36.213  -0.708  21.041  1.00  0.00     0.147 A 
ATOM      5  C   UNL     1      36.722  -0.445  19.748  1.00  0.00     0.066 A 
ATOM      6  C   UNL     1      36.911   0.894  19.359  1.00  0.00     0.200 A 
ATOM      7  O   UNL     1      37.337   1.168  18.203  1.00  0.00    -0.288 OA
ATOM      8  C   UNL     1      36.999  -1.513  18.881  1.00  0.00     0.020 A 
ATOM      9  C   UNL     1      36.769  -2.825  19.289  1.00  0.00     0.047 A 
ATOM     10  C   UNL     1      36.269  -3.099  20.568  1.00  0.00     0.125 A 
ATOM     11  C   UNL     1      36.004  -2.043  21.468  1.00  0.00     0.069 A 
ENDROOT
BRANCH   1  12
ATOM     12  C   UNL     1      36.761   3.359  19.903  1.00  0.00    -0.011 A 
ATOM     13  C   UNL     1      37.972   3.830  19.363  1.00  0.00     0.013 A 
ATOM     14  C   UNL     1      38.125   5.183  19.045  1.00  0.00     0.047 A 
ATOM     15  C   UNL     1      37.076   6.081  19.261  1.00  0.00     0.115 A 
ATOM     16  C   UNL     1      35.710   4.268  20.122  1.00  0.00     0.013 A 
ATOM     17  C   UNL     1      35.866   5.619  19.799  1.00  0.00     0.047 A 
BRANCH  15  18
ATOM     18  O   UNL     1      37.242   7.426  18.941  1.00  0.00    -0.508 OA
ATOM     19  H   UNL     1      37.827   7.709  18.160  1.00  0.00     0.293 HD
ENDBRANCH  15  18
ENDBRANCH   1  12
BRANCH  11  20
ATOM     20  C   UNL     1      35.439  -2.336  22.853  1.00  0.00     0.188 C 
ATOM     21  C   UNL     1      33.897  -2.115  22.928  1.00  0.00     0.179 C 
ATOM     22  O   UNL     1      36.108  -1.543  23.819  1.00  0.00    -0.362 OA
ATOM     23  C   UNL     1      33.495  -1.564  24.309  1.00  0.00     0.177 C 
ATOM     24  C   UNL     1      35.857  -2.021  25.135  1.00  0.00     0.176 C 
ATOM     25  C   UNL     1      34.332  -2.222  25.419  1.00  0.00     0.177 C 
BRANCH  21  26
ATOM     26  O   UNL     1      33.445  -1.216  21.943  1.00  0.00    -0.387 OA
ATOM     27  H   UNL     1      34.043  -1.316  21.156  1.00  0.00     0.211 HD
ENDBRANCH  21  26
BRANCH  23  28
ATOM     28  O   UNL     1      32.126  -1.797  24.529  1.00  0.00    -0.387 OA
ATOM     29  H   UNL     1      31.713  -1.960  23.639  1.00  0.00     0.211 HD
ENDBRANCH  23  28
BRANCH  24  30
ATOM     30  C   UNL     1      36.478  -1.026  26.125  1.00  0.00     0.191 C 
BRANCH  30  31
ATOM     31  O   UNL     1      37.861  -0.918  25.907  1.00  0.00    -0.394 OA
ATOM     32  H   UNL     1      38.245  -1.830  25.980  1.00  0.00     0.210 HD
ENDBRANCH  30  31
ENDBRANCH  24  30
BRANCH  25  33
ATOM     33  O   UNL     1      34.028  -3.594  25.477  1.00  0.00    -0.388 OA
ATOM     34  H   UNL     1      33.945  -3.909  24.539  1.00  0.00     0.211 HD
ENDBRANCH  25  33
ENDBRANCH  11  20
BRANCH  10  35
ATOM     35  O   UNL     1      36.031  -4.421  20.941  1.00  0.00    -0.507 OA
ATOM     36  H   UNL     1      35.120  -4.728  21.264  1.00  0.00     0.293 HD
ENDBRANCH  10  35
TORSDOF 9
ENDMDL
MODEL 2
REMARK VINA RESULT:    25.101      1.219      1.658
REMARK INTER + INTRA:          33.850
REMARK INTER:                  28.997
REMARK INTRA:                   4.853
REMARK UNBOUND:                -0.055
REMARK SMILES O=c1c(-c2ccc(O)cc2)coc2c([C@H]3O[C@@H](CO)[C@H](O)[C@H](O)[C@H]3O)c(O)ccc12
REMARK SMILES IDX 3 1 11 2 12 3 13 4 30 5 2 6 1 7 29 8 28 9 26 10 14 11 4 12
REMARK SMILES IDX 5 13 6 14 7 15 10 16 9 17 8 18 15 20 24 21 16 22 22 23 17 24
REMARK SMILES IDX 20 25 25 26 23 28 18 30 19 31 21 33 27 35
REMARK H PARENT 8 19 25 27 23 29 19 32 21 34 27 36
REMARK Flexibility Score: inf
ROOT
ATOM      1  C   UNL     1      36.366   1.987  20.568  1.00  0.00     0.065 A 
ATOM      2  C   UNL     1      35.583   1.737  21.704  1.00  0.00     0.208 A 
ATOM      3  O   UNL     1      35.372   0.497  22.126  1.00  0.00    -0.463 OA
ATOM      4  C   UNL     1      35.871  -0.575  21.516  1.00  0.00     0.147 A 
ATOM      5  C   UNL     1      36.662  -0.416  20.355  1.00  0.00     0.066 A 
ATOM      6  C   UNL     1      36.908   0.885  19.881  1.00  0.00     0.200 A 
ATOM      7  O   UNL     1      37.587   1.064  18.832  1.00  0.00    -0.288 OA
ATOM      8  C   UNL     1      37.158  -1.550  19.693  1.00  0.00     0.020 A 
ATOM      9  C   UNL     1      36.868  -2.825  20.174  1.00  0.00     0.047 A 
ATOM     10  C   UNL     1      36.089  -2.995  21.325  1.00  0.00     0.125 A 
ATOM     11  C   UNL     1      35.598  -1.870  22.022  1.00  0.00     0.069 A 
ENDROOT
BRANCH   1  12
ATOM     12  C   UNL     1      36.580   3.382  20.111  1.00  0.00    -0.011 A 
ATOM     13  C   UNL     1      37.845   3.807  19.664  1.00  0.00     0.013 A 
ATOM     14  C   UNL     1      38.041   5.128  19.250  1.00  0.00     0.047 A 
ATOM     15  C   UNL     1      36.982   6.039  19.275  1.00  0.00     0.115 A 
ATOM     16  C   UNL     1      35.520   4.305  20.138  1.00  0.00     0.013 A 
ATOM     17  C   UNL     1      35.718   5.623  19.720  1.00  0.00     0.047 A 
BRANCH  15  18
ATOM     18  O   UNL     1      37.191   7.352  18.861  1.00  0.00    -0.508 OA
ATOM     19  H   UNL     1      38.024   7.609  18.341  1.00  0.00     0.293 HD
ENDBRANCH  15  18
ENDBRANCH   1  12
BRANCH  11  20
ATOM     20  C   UNL     1      34.729  -2.052  23.263  1.00  0.00     0.188 C 
ATOM     21  C   UNL     1      34.447  -0.705  23.997  1.00  0.00     0.179 C 
ATOM     22  O   UNL     1      35.341  -2.984  24.139  1.00  0.00    -0.362 OA
ATOM     23  C   UNL     1      34.390  -0.922  25.521  1.00  0.00     0.177 C 
ATOM     24  C   UNL     1      34.422  -3.434  25.127  1.00  0.00     0.176 C 
ATOM     25  C   UNL     1      33.697  -2.253  25.854  1.00  0.00     0.177 C 
BRANCH  21  26
ATOM     26  O   UNL     1      35.432   0.262  23.722  1.00  0.00    -0.387 OA
ATOM     27  H   UNL     1      36.270  -0.037  24.162  1.00  0.00     0.211 HD
ENDBRANCH  21  26
BRANCH  23  28
ATOM     28  O   UNL     1      33.704   0.148  26.123  1.00  0.00    -0.387 OA
ATOM     29  H   UNL     1      34.384   0.839  26.347  1.00  0.00     0.211 HD
ENDBRANCH  23  28
BRANCH  24  30
ATOM     30  C   UNL     1      35.193  -4.309  26.125  1.00  0.00     0.191 C 
BRANCH  30  31
ATOM     31  O   UNL     1      35.546  -5.532  25.531  1.00  0.00    -0.394 OA
ATOM     32  H   UNL     1      36.046  -5.325  24.700  1.00  0.00     0.210 HD
ENDBRANCH  30  31
ENDBRANCH  24  30
BRANCH  25  33
ATOM     33  O   UNL     1      32.352  -2.190  25.450  1.00  0.00    -0.388 OA
ATOM     34  H   UNL     1      32.318  -1.590  24.659  1.00  0.00     0.211 HD
ENDBRANCH  25  33
ENDBRANCH  11  20
BRANCH  10  35
ATOM     35  O   UNL     1      35.799  -4.284  21.771  1.00  0.00    -0.507 OA
ATOM     36  H   UNL     1      36.525  -4.977  21.907  1.00  0.00     0.293 HD
ENDBRANCH  10  35
TORSDOF 9
ENDMDL
MODEL 3
REMARK VINA RESULT:    27.789      1.302      2.685
REMARK INTER + INTRA:          37.482
REMARK INTER:                  35.029
REMARK INTRA:                   2.453
REMARK UNBOUND:                -0.055
REMARK SMILES O=c1c(-c2ccc(O)cc2)coc2c([C@H]3O[C@@H](CO)[C@H](O)[C@H](O)[C@H]3O)c(O)ccc12
REMARK SMILES IDX 3 1 11 2 12 3 13 4 30 5 2 6 1 7 29 8 28 9 26 10 14 11 4 12
REMARK SMILES IDX 5 13 6 14 7 15 10 16 9 17 8 18 15 20 24 21 16 22 22 23 17 24
REMARK SMILES IDX 20 25 25 26 23 28 18 30 19 31 21 33 27 35
REMARK H PARENT 8 19 25 27 23 29 19 32 21 34 27 36
REMARK Flexibility Score: inf
ROOT
ATOM      1  C   UNL     1      36.348   2.560  20.469  1.00  0.00     0.065 A 
ATOM      2  C   UNL     1      35.453   2.357  21.529  1.00  0.00     0.208 A 
ATOM      3  O   UNL     1      35.209   1.136  21.988  1.00  0.00    -0.463 OA
ATOM      4  C   UNL     1      35.778   0.042  21.489  1.00  0.00     0.147 A 
ATOM      5  C   UNL     1      36.684   0.153  20.410  1.00  0.00     0.066 A 
ATOM      6  C   UNL     1      36.968   1.433  19.899  1.00  0.00     0.200 A 
ATOM      7  O   UNL     1      37.751   1.569  18.918  1.00  0.00    -0.288 OA
ATOM      8  C   UNL     1      37.256  -1.005  19.861  1.00  0.00     0.020 A 
ATOM      9  C   UNL     1      36.927  -2.259  20.374  1.00  0.00     0.047 A 
ATOM     10  C   UNL     1      36.034  -2.382  21.444  1.00  0.00     0.125 A 
ATOM     11  C   UNL     1      35.463  -1.229  22.029  1.00  0.00     0.069 A 
ENDROOT
BRANCH   1  12
ATOM     12  C   UNL     1      36.598   3.934  19.967  1.00  0.00    -0.011 A 
ATOM     13  C   UNL     1      35.552   4.872  19.885  1.00  0.00     0.013 A 
ATOM     14  C   UNL     1      35.794   6.159  19.395  1.00  0.00     0.047 A 
ATOM     15  C   UNL     1      37.078   6.526  18.982  1.00  0.00     0.115 A 
ATOM     16  C   UNL     1      37.886   4.308  19.545  1.00  0.00     0.013 A 
ATOM     17  C   UNL     1      38.125   5.597  19.060  1.00  0.00     0.047 A 
BRANCH  15  18
ATOM     18  O   UNL     1      37.304   7.811  18.495  1.00  0.00    -0.508 OA
ATOM     19  H   UNL     1      36.581   8.522  18.540  1.00  0.00     0.293 HD
ENDBRANCH  15  18
ENDBRANCH   1  12
BRANCH  11  20
ATOM     20  C   UNL     1      34.472  -1.361  23.181  1.00  0.00     0.188 C 
ATOM     21  C   UNL     1      34.955  -2.363  24.273  1.00  0.00     0.179 C 
ATOM     22  O   UNL     1      33.203  -1.742  22.675  1.00  0.00    -0.362 OA
ATOM     23  C   UNL     1      33.760  -3.125  24.876  1.00  0.00     0.177 C 
ATOM     24  C   UNL     1      32.186  -1.548  23.650  1.00  0.00     0.176 C 
ATOM     25  C   UNL     1      32.546  -2.195  25.029  1.00  0.00     0.177 C 
BRANCH  21  26
ATOM     26  O   UNL     1      35.869  -3.304  23.759  1.00  0.00    -0.387 OA
ATOM     27  H   UNL     1      35.707  -3.368  22.781  1.00  0.00     0.211 HD
ENDBRANCH  21  26
BRANCH  23  28
ATOM     28  O   UNL     1      34.124  -3.660  26.124  1.00  0.00    -0.387 OA
ATOM     29  H   UNL     1      34.123  -2.907  26.774  1.00  0.00     0.211 HD
ENDBRANCH  23  28
BRANCH  24  30
ATOM     30  C   UNL     1      30.879  -2.126  23.092  1.00  0.00     0.191 C 
BRANCH  30  31
ATOM     31  O   UNL     1      30.832  -1.969  21.697  1.00  0.00    -0.394 OA
ATOM     32  H   UNL     1      31.753  -2.097  21.353  1.00  0.00     0.210 HD
ENDBRANCH  30  31
ENDBRANCH  24  30
BRANCH  25  33
ATOM     33  O   UNL     1      32.844  -1.193  25.970  1.00  0.00    -0.388 OA
ATOM     34  H   UNL     1      33.219  -0.426  25.462  1.00  0.00     0.211 HD
ENDBRANCH  25  33
ENDBRANCH  11  20
BRANCH  10  35
ATOM     35  O   UNL     1      35.708  -3.651  21.923  1.00  0.00    -0.507 OA
ATOM     36  H   UNL     1      35.708  -4.464  21.318  1.00  0.00     0.293 HD
ENDBRANCH  10  35
TORSDOF 9
ENDMDL
