MODEL 1
REMARK VINA RESULT:    -6.374      0.000      0.000
REMARK INTER + INTRA:          -7.922
REMARK INTER:                  -7.492
REMARK INTRA:                  -0.431
REMARK UNBOUND:                -0.431
REMARK SMILES C=C(C)[C@H]1CC[C@]2(CO)CC[C@@]3(C)[C@H](CC[C@@H]4[C@@]5(C)CC[C@@H](O)C(C)(C)[C@@H]5CC[C@]43C)[C@H]12
REMARK SMILES IDX 4 1 5 2 6 3 7 4 32 5 14 6 15 7 16 8 17 9 18 10 20 11 21 12
REMARK SMILES IDX 22 13 24 14 27 15 28 16 29 17 30 18 12 19 11 20 10 21 13 22
REMARK SMILES IDX 31 23 25 24 26 25 19 26 2 27 3 28 1 29 8 30 9 31 23 33
REMARK H PARENT 9 32 23 34
REMARK Flexibility Score: inf
ROOT
ATOM      1  C   UNL     1     -11.235 -25.675 -44.299  1.00  0.00     0.018 C 
ATOM      2  C   UNL     1     -11.538 -24.312 -44.902  1.00  0.00     0.009 C 
ATOM      3  C   UNL     1     -11.987 -23.484 -43.711  1.00  0.00     0.010 C 
ATOM      4  C   UNL     1     -12.810 -24.441 -42.812  1.00  0.00    -0.003 C 
ATOM      5  C   UNL     1     -12.264 -25.872 -43.149  1.00  0.00     0.008 C 
ATOM      6  C   UNL     1     -11.744 -26.730 -41.923  1.00  0.00    -0.000 C 
ATOM      7  C   UNL     1     -10.267 -26.433 -41.523  1.00  0.00     0.005 C 
ATOM      8  C   UNL     1      -9.784 -27.159 -40.270  1.00  0.00     0.005 C 
ATOM      9  C   UNL     1     -10.738 -26.941 -39.074  1.00  0.00     0.002 C 
ATOM     10  C   UNL     1     -10.123 -27.328 -37.651  1.00  0.00    -0.026 C 
ATOM     11  C   UNL     1      -8.894 -26.398 -37.361  1.00  0.00     0.010 C 
ATOM     12  C   UNL     1      -8.395 -26.440 -35.907  1.00  0.00     0.033 C 
ATOM     13  C   UNL     1      -9.504 -26.110 -34.898  1.00  0.00     0.120 C 
ATOM     14  C   UNL     1     -10.755 -27.030 -35.058  1.00  0.00    -0.006 C 
ATOM     15  C   UNL     1     -11.225 -27.010 -36.568  1.00  0.00     0.003 C 
ATOM     16  C   UNL     1     -12.529 -27.789 -36.853  1.00  0.00     0.005 C 
ATOM     17  C   UNL     1     -13.142 -27.349 -38.186  1.00  0.00     0.008 C 
ATOM     18  C   UNL     1     -12.183 -27.499 -39.423  1.00  0.00    -0.024 C 
ATOM     19  C   UNL     1     -12.759 -26.687 -40.705  1.00  0.00    -0.024 C 
ATOM     20  C   UNL     1     -13.109 -25.180 -40.346  1.00  0.00     0.008 C 
ATOM     21  C   UNL     1     -12.612 -24.090 -41.319  1.00  0.00     0.010 C 
ATOM     22  C   UNL     1     -14.085 -27.374 -41.178  1.00  0.00     0.012 C 
ATOM     23  C   UNL     1     -12.129 -29.034 -39.738  1.00  0.00     0.012 C 
ATOM     24  C   UNL     1     -10.445 -28.455 -34.533  1.00  0.00     0.014 C 
ATOM     25  C   UNL     1     -11.872 -26.459 -34.138  1.00  0.00     0.014 C 
ATOM     26  C   UNL     1      -9.625 -28.813 -37.615  1.00  0.00     0.012 C 
ENDROOT
BRANCH   1  27
ATOM     27  C   UNL     1     -11.220 -26.807 -45.320  1.00  0.00    -0.077 C 
ATOM     28  C   UNL     1     -11.850 -26.603 -46.674  1.00  0.00     0.039 C 
ATOM     29  C   UNL     1     -10.645 -27.992 -45.053  1.00  0.00     0.008 C 
ENDBRANCH   1  27
BRANCH   4  30
ATOM     30  C   UNL     1     -14.324 -24.250 -43.165  1.00  0.00     0.163 C 
BRANCH  30  31
ATOM     31  O   UNL     1     -14.582 -22.984 -43.716  1.00  0.00    -0.396 OA
ATOM     32  H   UNL     1     -15.088 -22.465 -43.038  1.00  0.00     0.210 HD
ENDBRANCH  30  31
ENDBRANCH   4  30
BRANCH  13  33
ATOM     33  O   UNL     1      -9.872 -24.759 -35.051  1.00  0.00    -0.393 OA
ATOM     34  H   UNL     1      -9.066 -24.213 -34.852  1.00  0.00     0.210 HD
ENDBRANCH  13  33
TORSDOF 4
ENDMDL
MODEL 2
REMARK VINA RESULT:    -6.062      4.795     10.919
REMARK INTER + INTRA:          -7.555
REMARK INTER:                  -6.904
REMARK INTRA:                  -0.652
REMARK UNBOUND:                -0.431
REMARK SMILES C=C(C)[C@H]1CC[C@]2(CO)CC[C@@]3(C)[C@H](CC[C@@H]4[C@@]5(C)CC[C@@H](O)C(C)(C)[C@@H]5CC[C@]43C)[C@H]12
REMARK SMILES IDX 4 1 5 2 6 3 7 4 32 5 14 6 15 7 16 8 17 9 18 10 20 11 21 12
REMARK SMILES IDX 22 13 24 14 27 15 28 16 29 17 30 18 12 19 11 20 10 21 13 22
REMARK SMILES IDX 31 23 25 24 26 25 19 26 2 27 3 28 1 29 8 30 9 31 23 33
REMARK H PARENT 9 32 23 34
REMARK Flexibility Score: inf
ROOT
ATOM      1  C   UNL     1     -14.187 -24.798 -43.397  1.00  0.00     0.018 C 
ATOM      2  C   UNL     1     -13.138 -23.956 -42.686  1.00  0.00     0.009 C 
ATOM      3  C   UNL     1     -11.998 -23.882 -43.686  1.00  0.00     0.010 C 
ATOM      4  C   UNL     1     -11.941 -25.270 -44.372  1.00  0.00    -0.003 C 
ATOM      5  C   UNL     1     -13.398 -25.838 -44.243  1.00  0.00     0.008 C 
ATOM      6  C   UNL     1     -14.100 -26.277 -45.593  1.00  0.00    -0.000 C 
ATOM      7  C   UNL     1     -14.794 -25.107 -46.356  1.00  0.00     0.005 C 
ATOM      8  C   UNL     1     -15.372 -25.483 -47.717  1.00  0.00     0.005 C 
ATOM      9  C   UNL     1     -14.328 -26.188 -48.612  1.00  0.00     0.002 C 
ATOM     10  C   UNL     1     -14.718 -26.262 -50.160  1.00  0.00    -0.026 C 
ATOM     11  C   UNL     1     -14.817 -24.804 -50.727  1.00  0.00     0.010 C 
ATOM     12  C   UNL     1     -14.876 -24.723 -52.262  1.00  0.00     0.033 C 
ATOM     13  C   UNL     1     -13.687 -25.426 -52.931  1.00  0.00     0.120 C 
ATOM     14  C   UNL     1     -13.539 -26.914 -52.483  1.00  0.00    -0.006 C 
ATOM     15  C   UNL     1     -13.526 -26.981 -50.903  1.00  0.00     0.003 C 
ATOM     16  C   UNL     1     -13.269 -28.387 -50.315  1.00  0.00     0.005 C 
ATOM     17  C   UNL     1     -12.824 -28.289 -48.852  1.00  0.00     0.008 C 
ATOM     18  C   UNL     1     -13.831 -27.526 -47.916  1.00  0.00    -0.024 C 
ATOM     19  C   UNL     1     -13.136 -27.150 -46.499  1.00  0.00    -0.024 C 
ATOM     20  C   UNL     1     -11.752 -26.396 -46.698  1.00  0.00     0.008 C 
ATOM     21  C   UNL     1     -11.511 -25.129 -45.850  1.00  0.00     0.010 C 
ATOM     22  C   UNL     1     -12.837 -28.476 -45.721  1.00  0.00     0.012 C 
ATOM     23  C   UNL     1     -15.029 -28.512 -47.683  1.00  0.00     0.012 C 
ATOM     24  C   UNL     1     -14.653 -27.782 -53.123  1.00  0.00     0.014 C 
ATOM     25  C   UNL     1     -12.192 -27.440 -53.056  1.00  0.00     0.014 C 
ATOM     26  C   UNL     1     -16.102 -26.961 -50.379  1.00  0.00     0.012 C 
ENDROOT
BRANCH   1  27
ATOM     27  C   UNL     1     -15.217 -25.414 -42.457  1.00  0.00    -0.077 C 
ATOM     28  C   UNL     1     -16.681 -25.113 -42.649  1.00  0.00     0.039 C 
ATOM     29  C   UNL     1     -14.858 -26.239 -41.459  1.00  0.00     0.008 C 
ENDBRANCH   1  27
BRANCH   4  30
ATOM     30  C   UNL     1     -10.866 -26.131 -43.627  1.00  0.00     0.163 C 
BRANCH  30  31
ATOM     31  O   UNL     1     -11.451 -27.086 -42.778  1.00  0.00    -0.396 OA
ATOM     32  H   UNL     1     -12.074 -26.603 -42.176  1.00  0.00     0.210 HD
ENDBRANCH  30  31
ENDBRANCH   4  30
BRANCH  13  33
ATOM     33  O   UNL     1     -12.510 -24.711 -52.638  1.00  0.00    -0.393 OA
ATOM     34  H   UNL     1     -11.769 -25.153 -53.130  1.00  0.00     0.210 HD
ENDBRANCH  13  33
TORSDOF 4
ENDMDL
MODEL 3
REMARK VINA RESULT:    -5.880      1.517      2.062
REMARK INTER + INTRA:          -7.342
REMARK INTER:                  -6.755
REMARK INTRA:                  -0.587
REMARK UNBOUND:                -0.431
REMARK SMILES C=C(C)[C@H]1CC[C@]2(CO)CC[C@@]3(C)[C@H](CC[C@@H]4[C@@]5(C)CC[C@@H](O)C(C)(C)[C@@H]5CC[C@]43C)[C@H]12
REMARK SMILES IDX 4 1 5 2 6 3 7 4 32 5 14 6 15 7 16 8 17 9 18 10 20 11 21 12
REMARK SMILES IDX 22 13 24 14 27 15 28 16 29 17 30 18 12 19 11 20 10 21 13 22
REMARK SMILES IDX 31 23 25 24 26 25 19 26 2 27 3 28 1 29 8 30 9 31 23 33
REMARK H PARENT 9 32 23 34
REMARK Flexibility Score: inf
ROOT
ATOM      1  C   UNL     1     -13.876 -24.404 -43.854  1.00  0.00     0.018 C 
ATOM      2  C   UNL     1     -14.685 -23.117 -43.901  1.00  0.00     0.009 C 
ATOM      3  C   UNL     1     -14.873 -22.756 -42.438  1.00  0.00     0.010 C 
ATOM      4  C   UNL     1     -15.077 -24.098 -41.691  1.00  0.00    -0.003 C 
ATOM      5  C   UNL     1     -14.361 -25.167 -42.588  1.00  0.00     0.008 C 
ATOM      6  C   UNL     1     -13.258 -26.053 -41.876  1.00  0.00    -0.000 C 
ATOM      7  C   UNL     1     -11.849 -25.388 -41.819  1.00  0.00     0.005 C 
ATOM      8  C   UNL     1     -10.802 -26.169 -41.031  1.00  0.00     0.005 C 
ATOM      9  C   UNL     1     -11.301 -26.536 -39.615  1.00  0.00     0.002 C 
ATOM     10  C   UNL     1     -10.154 -27.000 -38.603  1.00  0.00    -0.026 C 
ATOM     11  C   UNL     1      -9.160 -25.808 -38.385  1.00  0.00     0.010 C 
ATOM     12  C   UNL     1      -8.190 -25.999 -37.206  1.00  0.00     0.033 C 
ATOM     13  C   UNL     1      -8.921 -26.272 -35.885  1.00  0.00     0.120 C 
ATOM     14  C   UNL     1      -9.893 -27.490 -35.976  1.00  0.00    -0.006 C 
ATOM     15  C   UNL     1     -10.851 -27.298 -37.220  1.00  0.00     0.003 C 
ATOM     16  C   UNL     1     -11.947 -28.377 -37.367  1.00  0.00     0.005 C 
ATOM     17  C   UNL     1     -13.073 -27.883 -38.281  1.00  0.00     0.008 C 
ATOM     18  C   UNL     1     -12.600 -27.443 -39.715  1.00  0.00    -0.024 C 
ATOM     19  C   UNL     1     -13.762 -26.606 -40.478  1.00  0.00    -0.024 C 
ATOM     20  C   UNL     1     -14.312 -25.408 -39.590  1.00  0.00     0.008 C 
ATOM     21  C   UNL     1     -14.461 -24.033 -40.275  1.00  0.00     0.010 C 
ATOM     22  C   UNL     1     -14.967 -27.566 -40.762  1.00  0.00     0.012 C 
ATOM     23  C   UNL     1     -12.297 -28.772 -40.491  1.00  0.00     0.012 C 
ATOM     24  C   UNL     1      -9.090 -28.815 -36.021  1.00  0.00     0.014 C 
ATOM     25  C   UNL     1     -10.719 -27.524 -34.659  1.00  0.00     0.014 C 
ATOM     26  C   UNL     1      -9.338 -28.214 -39.164  1.00  0.00     0.012 C 
ENDROOT
BRANCH   1  27
ATOM     27  C   UNL     1     -13.951 -25.221 -45.139  1.00  0.00    -0.077 C 
ATOM     28  C   UNL     1     -15.214 -25.211 -45.961  1.00  0.00     0.039 C 
ATOM     29  C   UNL     1     -12.909 -25.950 -45.574  1.00  0.00     0.008 C 
ENDBRANCH   1  27
BRANCH   4  30
ATOM     30  C   UNL     1     -16.618 -24.338 -41.545  1.00  0.00     0.163 C 
BRANCH  30  31
ATOM     31  O   UNL     1     -17.125 -25.157 -42.568  1.00  0.00    -0.396 OA
ATOM     32  H   UNL     1     -16.469 -25.887 -42.712  1.00  0.00     0.210 HD
ENDBRANCH  30  31
ENDBRANCH   4  30
BRANCH  13  33
ATOM     33  O   UNL     1      -9.628 -25.113 -35.508  1.00  0.00    -0.393 OA
ATOM     34  H   UNL     1     -10.514 -25.153 -35.956  1.00  0.00     0.210 HD
ENDBRANCH  13  33
TORSDOF 4
ENDMDL
MODEL 4
REMARK VINA RESULT:    -5.784      3.472      6.366
REMARK INTER + INTRA:          -7.229
REMARK INTER:                  -6.716
REMARK INTRA:                  -0.514
REMARK UNBOUND:                -0.431
REMARK SMILES C=C(C)[C@H]1CC[C@]2(CO)CC[C@@]3(C)[C@H](CC[C@@H]4[C@@]5(C)CC[C@@H](O)C(C)(C)[C@@H]5CC[C@]43C)[C@H]12
REMARK SMILES IDX 4 1 5 2 6 3 7 4 32 5 14 6 15 7 16 8 17 9 18 10 20 11 21 12
REMARK SMILES IDX 22 13 24 14 27 15 28 16 29 17 30 18 12 19 11 20 10 21 13 22
REMARK SMILES IDX 31 23 25 24 26 25 19 26 2 27 3 28 1 29 8 30 9 31 23 33
REMARK H PARENT 9 32 23 34
REMARK Flexibility Score: inf
ROOT
ATOM      1  C   UNL     1     -14.070 -25.600 -50.016  1.00  0.00     0.018 C 
ATOM      2  C   UNL     1     -15.287 -24.766 -50.386  1.00  0.00     0.009 C 
ATOM      3  C   UNL     1     -16.009 -24.576 -49.064  1.00  0.00     0.010 C 
ATOM      4  C   UNL     1     -15.845 -25.910 -48.293  1.00  0.00    -0.003 C 
ATOM      5  C   UNL     1     -14.533 -26.545 -48.871  1.00  0.00     0.008 C 
ATOM      6  C   UNL     1     -13.413 -26.919 -47.815  1.00  0.00    -0.000 C 
ATOM      7  C   UNL     1     -12.480 -25.729 -47.432  1.00  0.00     0.005 C 
ATOM      8  C   UNL     1     -11.472 -26.034 -46.328  1.00  0.00     0.005 C 
ATOM      9  C   UNL     1     -12.152 -26.632 -45.076  1.00  0.00     0.002 C 
ATOM     10  C   UNL     1     -11.251 -26.616 -43.756  1.00  0.00    -0.026 C 
ATOM     11  C   UNL     1     -10.940 -25.128 -43.375  1.00  0.00     0.010 C 
ATOM     12  C   UNL     1     -10.351 -24.944 -41.965  1.00  0.00     0.033 C 
ATOM     13  C   UNL     1     -11.245 -25.549 -40.874  1.00  0.00     0.120 C 
ATOM     14  C   UNL     1     -11.562 -27.057 -41.126  1.00  0.00    -0.006 C 
ATOM     15  C   UNL     1     -12.122 -27.232 -42.594  1.00  0.00     0.003 C 
ATOM     16  C   UNL     1     -12.589 -28.663 -42.944  1.00  0.00     0.005 C 
ATOM     17  C   UNL     1     -13.511 -28.647 -44.167  1.00  0.00     0.008 C 
ATOM     18  C   UNL     1     -12.879 -27.993 -45.450  1.00  0.00    -0.024 C 
ATOM     19  C   UNL     1     -14.016 -27.687 -46.566  1.00  0.00    -0.024 C 
ATOM     20  C   UNL     1     -15.234 -26.864 -45.963  1.00  0.00     0.008 C 
ATOM     21  C   UNL     1     -15.735 -25.650 -46.773  1.00  0.00     0.010 C 
ATOM     22  C   UNL     1     -14.587 -29.049 -47.087  1.00  0.00     0.012 C 
ATOM     23  C   UNL     1     -11.852 -29.042 -46.002  1.00  0.00     0.012 C 
ATOM     24  C   UNL     1     -10.308 -27.924 -40.841  1.00  0.00     0.014 C 
ATOM     25  C   UNL     1     -12.635 -27.485 -40.084  1.00  0.00     0.014 C 
ATOM     26  C   UNL     1      -9.887 -27.355 -43.972  1.00  0.00     0.012 C 
ENDROOT
BRANCH   1  27
ATOM     27  C   UNL     1     -13.439 -26.322 -51.201  1.00  0.00    -0.077 C 
ATOM     28  C   UNL     1     -13.025 -25.540 -52.421  1.00  0.00     0.039 C 
ATOM     29  C   UNL     1     -13.224 -27.649 -51.186  1.00  0.00     0.008 C 
ENDBRANCH   1  27
BRANCH   4  30
ATOM     30  C   UNL     1     -17.125 -26.775 -48.552  1.00  0.00     0.163 C 
BRANCH  30  31
ATOM     31  O   UNL     1     -16.900 -27.777 -49.511  1.00  0.00    -0.396 OA
ATOM     32  H   UNL     1     -17.756 -28.261 -49.638  1.00  0.00     0.210 HD
ENDBRANCH  30  31
ENDBRANCH   4  30
BRANCH  13  33
ATOM     33  O   UNL     1     -12.440 -24.807 -40.800  1.00  0.00    -0.393 OA
ATOM     34  H   UNL     1     -12.745 -24.839 -39.855  1.00  0.00     0.210 HD
ENDBRANCH  13  33
TORSDOF 4
ENDMDL
MODEL 5
REMARK VINA RESULT:    -5.761      5.533      8.631
REMARK INTER + INTRA:          -7.203
REMARK INTER:                  -6.557
REMARK INTRA:                  -0.646
REMARK UNBOUND:                -0.431
REMARK SMILES C=C(C)[C@H]1CC[C@]2(CO)CC[C@@]3(C)[C@H](CC[C@@H]4[C@@]5(C)CC[C@@H](O)C(C)(C)[C@@H]5CC[C@]43C)[C@H]12
REMARK SMILES IDX 4 1 5 2 6 3 7 4 32 5 14 6 15 7 16 8 17 9 18 10 20 11 21 12
REMARK SMILES IDX 22 13 24 14 27 15 28 16 29 17 30 18 12 19 11 20 10 21 13 22
REMARK SMILES IDX 31 23 25 24 26 25 19 26 2 27 3 28 1 29 8 30 9 31 23 33
REMARK H PARENT 9 32 23 34
REMARK Flexibility Score: inf
ROOT
ATOM      1  C   UNL     1     -13.422 -26.783 -51.608  1.00  0.00     0.018 C 
ATOM      2  C   UNL     1     -13.512 -25.777 -52.746  1.00  0.00     0.009 C 
ATOM      3  C   UNL     1     -14.291 -24.621 -52.143  1.00  0.00     0.010 C 
ATOM      4  C   UNL     1     -15.359 -25.263 -51.222  1.00  0.00    -0.003 C 
ATOM      5  C   UNL     1     -14.754 -26.652 -50.816  1.00  0.00     0.008 C 
ATOM      6  C   UNL     1     -14.641 -26.939 -49.262  1.00  0.00    -0.000 C 
ATOM      7  C   UNL     1     -13.352 -26.362 -48.602  1.00  0.00     0.005 C 
ATOM      8  C   UNL     1     -13.282 -26.521 -47.086  1.00  0.00     0.005 C 
ATOM      9  C   UNL     1     -14.551 -25.982 -46.390  1.00  0.00     0.002 C 
ATOM     10  C   UNL     1     -14.402 -25.752 -44.816  1.00  0.00    -0.026 C 
ATOM     11  C   UNL     1     -13.308 -24.656 -44.566  1.00  0.00     0.010 C 
ATOM     12  C   UNL     1     -13.276 -24.108 -43.129  1.00  0.00     0.033 C 
ATOM     13  C   UNL     1     -14.634 -23.550 -42.685  1.00  0.00     0.120 C 
ATOM     14  C   UNL     1     -15.788 -24.591 -42.831  1.00  0.00    -0.006 C 
ATOM     15  C   UNL     1     -15.777 -25.176 -44.300  1.00  0.00     0.003 C 
ATOM     16  C   UNL     1     -16.942 -26.139 -44.624  1.00  0.00     0.005 C 
ATOM     17  C   UNL     1     -17.116 -26.287 -46.139  1.00  0.00     0.008 C 
ATOM     18  C   UNL     1     -15.828 -26.778 -46.896  1.00  0.00    -0.024 C 
ATOM     19  C   UNL     1     -15.977 -26.560 -48.497  1.00  0.00    -0.024 C 
ATOM     20  C   UNL     1     -16.402 -25.072 -48.857  1.00  0.00     0.008 C 
ATOM     21  C   UNL     1     -15.621 -24.369 -49.987  1.00  0.00     0.010 C 
ATOM     22  C   UNL     1     -17.105 -27.508 -49.029  1.00  0.00     0.012 C 
ATOM     23  C   UNL     1     -15.698 -28.307 -46.571  1.00  0.00     0.012 C 
ATOM     24  C   UNL     1     -15.669 -25.682 -41.736  1.00  0.00     0.014 C 
ATOM     25  C   UNL     1     -17.125 -23.843 -42.559  1.00  0.00     0.014 C 
ATOM     26  C   UNL     1     -13.955 -27.058 -44.075  1.00  0.00     0.012 C 
ENDROOT
BRANCH   1  27
ATOM     27  C   UNL     1     -13.111 -28.202 -52.070  1.00  0.00    -0.077 C 
ATOM     28  C   UNL     1     -14.203 -29.052 -52.667  1.00  0.00     0.039 C 
ATOM     29  C   UNL     1     -11.875 -28.722 -51.972  1.00  0.00     0.008 C 
ENDBRANCH   1  27
BRANCH   4  30
ATOM     30  C   UNL     1     -16.692 -25.376 -52.036  1.00  0.00     0.163 C 
BRANCH  30  31
ATOM     31  O   UNL     1     -16.960 -26.699 -52.429  1.00  0.00    -0.396 OA
ATOM     32  H   UNL     1     -16.145 -27.044 -52.876  1.00  0.00     0.210 HD
ENDBRANCH  30  31
ENDBRANCH   4  30
BRANCH  13  33
ATOM     33  O   UNL     1     -14.922 -22.396 -43.440  1.00  0.00    -0.393 OA
ATOM     34  H   UNL     1     -15.519 -22.676 -44.184  1.00  0.00     0.210 HD
ENDBRANCH  13  33
TORSDOF 4
ENDMDL
MODEL 6
REMARK VINA RESULT:    -5.447      3.341      6.365
REMARK INTER + INTRA:          -6.832
REMARK INTER:                  -6.183
REMARK INTRA:                  -0.649
REMARK UNBOUND:                -0.431
REMARK SMILES C=C(C)[C@H]1CC[C@]2(CO)CC[C@@]3(C)[C@H](CC[C@@H]4[C@@]5(C)CC[C@@H](O)C(C)(C)[C@@H]5CC[C@]43C)[C@H]12
REMARK SMILES IDX 4 1 5 2 6 3 7 4 32 5 14 6 15 7 16 8 17 9 18 10 20 11 21 12
REMARK SMILES IDX 22 13 24 14 27 15 28 16 29 17 30 18 12 19 11 20 10 21 13 22
REMARK SMILES IDX 31 23 25 24 26 25 19 26 2 27 3 28 1 29 8 30 9 31 23 33
REMARK H PARENT 9 32 23 34
REMARK Flexibility Score: inf
ROOT
ATOM      1  C   UNL     1     -16.157 -26.115 -48.033  1.00  0.00     0.018 C 
ATOM      2  C   UNL     1     -16.896 -27.288 -48.660  1.00  0.00     0.009 C 
ATOM      3  C   UNL     1     -16.311 -28.500 -47.956  1.00  0.00     0.010 C 
ATOM      4  C   UNL     1     -14.806 -28.192 -47.758  1.00  0.00    -0.003 C 
ATOM      5  C   UNL     1     -14.718 -26.626 -47.739  1.00  0.00     0.008 C 
ATOM      6  C   UNL     1     -14.023 -25.980 -46.470  1.00  0.00    -0.000 C 
ATOM      7  C   UNL     1     -14.979 -25.784 -45.255  1.00  0.00     0.005 C 
ATOM      8  C   UNL     1     -14.304 -25.276 -43.983  1.00  0.00     0.005 C 
ATOM      9  C   UNL     1     -13.082 -26.138 -43.596  1.00  0.00     0.002 C 
ATOM     10  C   UNL     1     -12.563 -25.925 -42.100  1.00  0.00    -0.026 C 
ATOM     11  C   UNL     1     -13.694 -26.358 -41.105  1.00  0.00     0.010 C 
ATOM     12  C   UNL     1     -13.234 -26.503 -39.644  1.00  0.00     0.033 C 
ATOM     13  C   UNL     1     -12.056 -27.476 -39.496  1.00  0.00     0.120 C 
ATOM     14  C   UNL     1     -10.843 -27.094 -40.401  1.00  0.00    -0.006 C 
ATOM     15  C   UNL     1     -11.344 -26.904 -41.889  1.00  0.00     0.003 C 
ATOM     16  C   UNL     1     -10.226 -26.634 -42.921  1.00  0.00     0.005 C 
ATOM     17  C   UNL     1     -10.722 -26.918 -44.342  1.00  0.00     0.008 C 
ATOM     18  C   UNL     1     -12.002 -26.103 -44.758  1.00  0.00    -0.024 C 
ATOM     19  C   UNL     1     -12.666 -26.715 -46.106  1.00  0.00    -0.024 C 
ATOM     20  C   UNL     1     -12.915 -28.280 -45.989  1.00  0.00     0.008 C 
ATOM     21  C   UNL     1     -14.292 -28.811 -46.438  1.00  0.00     0.010 C 
ATOM     22  C   UNL     1     -11.677 -26.489 -47.300  1.00  0.00     0.012 C 
ATOM     23  C   UNL     1     -11.508 -24.637 -45.019  1.00  0.00     0.012 C 
ATOM     24  C   UNL     1     -10.123 -25.844 -39.833  1.00  0.00     0.014 C 
ATOM     25  C   UNL     1      -9.819 -28.262 -40.321  1.00  0.00     0.014 C 
ATOM     26  C   UNL     1     -12.214 -24.425 -41.812  1.00  0.00     0.012 C 
ENDROOT
BRANCH   1  27
ATOM     27  C   UNL     1     -16.206 -24.843 -48.871  1.00  0.00    -0.077 C 
ATOM     28  C   UNL     1     -15.244 -24.663 -50.018  1.00  0.00     0.039 C 
ATOM     29  C   UNL     1     -17.099 -23.869 -48.625  1.00  0.00     0.008 C 
ENDBRANCH   1  27
BRANCH   4  30
ATOM     30  C   UNL     1     -14.021 -28.847 -48.945  1.00  0.00     0.163 C 
BRANCH  30  31
ATOM     31  O   UNL     1     -13.607 -27.896 -49.893  1.00  0.00    -0.396 OA
ATOM     32  H   UNL     1     -13.539 -28.361 -50.767  1.00  0.00     0.210 HD
ENDBRANCH  30  31
ENDBRANCH   4  30
BRANCH  13  33
ATOM     33  O   UNL     1     -12.500 -28.778 -39.802  1.00  0.00    -0.393 OA
ATOM     34  H   UNL     1     -13.397 -28.690 -40.221  1.00  0.00     0.210 HD
ENDBRANCH  13  33
TORSDOF 4
ENDMDL
MODEL 7
REMARK VINA RESULT:    -5.428      4.032     10.033
REMARK INTER + INTRA:          -6.810
REMARK INTER:                  -6.170
REMARK INTRA:                  -0.640
REMARK UNBOUND:                -0.431
REMARK SMILES C=C(C)[C@H]1CC[C@]2(CO)CC[C@@]3(C)[C@H](CC[C@@H]4[C@@]5(C)CC[C@@H](O)C(C)(C)[C@@H]5CC[C@]43C)[C@H]12
REMARK SMILES IDX 4 1 5 2 6 3 7 4 32 5 14 6 15 7 16 8 17 9 18 10 20 11 21 12
REMARK SMILES IDX 22 13 24 14 27 15 28 16 29 17 30 18 12 19 11 20 10 21 13 22
REMARK SMILES IDX 31 23 25 24 26 25 19 26 2 27 3 28 1 29 8 30 9 31 23 33
REMARK H PARENT 9 32 23 34
REMARK Flexibility Score: inf
ROOT
ATOM      1  C   UNL     1     -12.602 -24.734 -42.172  1.00  0.00     0.018 C 
ATOM      2  C   UNL     1     -11.123 -24.642 -41.831  1.00  0.00     0.009 C 
ATOM      3  C   UNL     1     -10.440 -25.326 -43.002  1.00  0.00     0.010 C 
ATOM      4  C   UNL     1     -11.354 -26.513 -43.395  1.00  0.00    -0.003 C 
ATOM      5  C   UNL     1     -12.786 -26.090 -42.912  1.00  0.00     0.008 C 
ATOM      6  C   UNL     1     -13.928 -26.108 -44.009  1.00  0.00    -0.000 C 
ATOM      7  C   UNL     1     -14.005 -24.806 -44.864  1.00  0.00     0.005 C 
ATOM      8  C   UNL     1     -15.016 -24.848 -46.006  1.00  0.00     0.005 C 
ATOM      9  C   UNL     1     -14.823 -26.092 -46.902  1.00  0.00     0.002 C 
ATOM     10  C   UNL     1     -15.564 -26.016 -48.316  1.00  0.00    -0.026 C 
ATOM     11  C   UNL     1     -14.961 -24.827 -49.140  1.00  0.00     0.010 C 
ATOM     12  C   UNL     1     -15.352 -24.823 -50.628  1.00  0.00     0.033 C 
ATOM     13  C   UNL     1     -14.987 -26.138 -51.332  1.00  0.00     0.120 C 
ATOM     14  C   UNL     1     -15.598 -27.388 -50.624  1.00  0.00    -0.006 C 
ATOM     15  C   UNL     1     -15.224 -27.349 -49.088  1.00  0.00     0.003 C 
ATOM     16  C   UNL     1     -15.668 -28.590 -48.281  1.00  0.00     0.005 C 
ATOM     17  C   UNL     1     -14.892 -28.685 -46.964  1.00  0.00     0.008 C 
ATOM     18  C   UNL     1     -15.013 -27.414 -46.045  1.00  0.00    -0.024 C 
ATOM     19  C   UNL     1     -13.895 -27.439 -44.870  1.00  0.00    -0.024 C 
ATOM     20  C   UNL     1     -12.433 -27.674 -45.445  1.00  0.00     0.008 C 
ATOM     21  C   UNL     1     -11.312 -26.751 -44.921  1.00  0.00     0.010 C 
ATOM     22  C   UNL     1     -14.212 -28.629 -43.902  1.00  0.00     0.012 C 
ATOM     23  C   UNL     1     -16.451 -27.474 -45.421  1.00  0.00     0.012 C 
ATOM     24  C   UNL     1     -17.125 -27.458 -50.882  1.00  0.00     0.014 C 
ATOM     25  C   UNL     1     -14.983 -28.648 -51.297  1.00  0.00     0.014 C 
ATOM     26  C   UNL     1     -17.102 -25.763 -48.156  1.00  0.00     0.012 C 
ENDROOT
BRANCH   1  27
ATOM     27  C   UNL     1     -13.521 -24.553 -40.969  1.00  0.00    -0.077 C 
ATOM     28  C   UNL     1     -14.112 -23.199 -40.675  1.00  0.00     0.039 C 
ATOM     29  C   UNL     1     -13.834 -25.580 -40.159  1.00  0.00     0.008 C 
ENDBRANCH   1  27
BRANCH   4  30
ATOM     30  C   UNL     1     -10.809 -27.797 -42.683  1.00  0.00     0.163 C 
BRANCH  30  31
ATOM     31  O   UNL     1     -11.591 -28.158 -41.572  1.00  0.00    -0.396 OA
ATOM     32  H   UNL     1     -11.666 -27.356 -40.992  1.00  0.00     0.210 HD
ENDBRANCH  30  31
ENDBRANCH   4  30
BRANCH  13  33
ATOM     33  O   UNL     1     -13.584 -26.249 -51.389  1.00  0.00    -0.393 OA
ATOM     34  H   UNL     1     -13.370 -26.862 -52.142  1.00  0.00     0.210 HD
ENDBRANCH  13  33
TORSDOF 4
ENDMDL
MODEL 8
REMARK VINA RESULT:    -5.329      3.429      9.909
REMARK INTER + INTRA:          -6.694
REMARK INTER:                  -6.063
REMARK INTRA:                  -0.632
REMARK UNBOUND:                -0.431
REMARK SMILES C=C(C)[C@H]1CC[C@]2(CO)CC[C@@]3(C)[C@H](CC[C@@H]4[C@@]5(C)CC[C@@H](O)C(C)(C)[C@@H]5CC[C@]43C)[C@H]12
REMARK SMILES IDX 4 1 5 2 6 3 7 4 32 5 14 6 15 7 16 8 17 9 18 10 20 11 21 12
REMARK SMILES IDX 22 13 24 14 27 15 28 16 29 17 30 18 12 19 11 20 10 21 13 22
REMARK SMILES IDX 31 23 25 24 26 25 19 26 2 27 3 28 1 29 8 30 9 31 23 33
REMARK H PARENT 9 32 23 34
REMARK Flexibility Score: inf
ROOT
ATOM      1  C   UNL     1     -13.629 -26.099 -41.452  1.00  0.00     0.018 C 
ATOM      2  C   UNL     1     -13.220 -24.843 -40.698  1.00  0.00     0.009 C 
ATOM      3  C   UNL     1     -12.823 -23.875 -41.798  1.00  0.00     0.010 C 
ATOM      4  C   UNL     1     -12.113 -24.728 -42.880  1.00  0.00    -0.003 C 
ATOM      5  C   UNL     1     -12.697 -26.172 -42.695  1.00  0.00     0.008 C 
ATOM      6  C   UNL     1     -13.344 -26.835 -43.981  1.00  0.00    -0.000 C 
ATOM      7  C   UNL     1     -14.832 -26.435 -44.220  1.00  0.00     0.005 C 
ATOM      8  C   UNL     1     -15.437 -26.964 -45.516  1.00  0.00     0.005 C 
ATOM      9  C   UNL     1     -14.565 -26.618 -46.744  1.00  0.00     0.002 C 
ATOM     10  C   UNL     1     -15.300 -26.784 -48.153  1.00  0.00    -0.026 C 
ATOM     11  C   UNL     1     -16.503 -25.781 -48.217  1.00  0.00     0.010 C 
ATOM     12  C   UNL     1     -17.109 -25.605 -49.620  1.00  0.00     0.033 C 
ATOM     13  C   UNL     1     -16.064 -25.179 -50.659  1.00  0.00     0.120 C 
ATOM     14  C   UNL     1     -14.847 -26.155 -50.724  1.00  0.00    -0.006 C 
ATOM     15  C   UNL     1     -14.267 -26.358 -49.266  1.00  0.00     0.003 C 
ATOM     16  C   UNL     1     -12.983 -27.215 -49.193  1.00  0.00     0.005 C 
ATOM     17  C   UNL     1     -12.254 -26.984 -47.866  1.00  0.00     0.008 C 
ATOM     18  C   UNL     1     -13.125 -27.268 -46.587  1.00  0.00    -0.024 C 
ATOM     19  C   UNL     1     -12.421 -26.661 -45.258  1.00  0.00    -0.024 C 
ATOM     20  C   UNL     1     -12.030 -25.132 -45.438  1.00  0.00     0.008 C 
ATOM     21  C   UNL     1     -12.404 -24.169 -44.291  1.00  0.00     0.010 C 
ATOM     22  C   UNL     1     -11.096 -27.451 -44.988  1.00  0.00     0.012 C 
ATOM     23  C   UNL     1     -13.226 -28.829 -46.478  1.00  0.00     0.012 C 
ATOM     24  C   UNL     1     -15.260 -27.483 -51.410  1.00  0.00     0.014 C 
ATOM     25  C   UNL     1     -13.776 -25.502 -51.644  1.00  0.00     0.014 C 
ATOM     26  C   UNL     1     -15.867 -28.231 -48.348  1.00  0.00     0.012 C 
ENDROOT
BRANCH   1  27
ATOM     27  C   UNL     1     -13.620 -27.359 -40.594  1.00  0.00    -0.077 C 
ATOM     28  C   UNL     1     -12.507 -27.582 -39.602  1.00  0.00     0.039 C 
ATOM     29  C   UNL     1     -14.591 -28.283 -40.686  1.00  0.00     0.008 C 
ENDBRANCH   1  27
BRANCH   4  30
ATOM     30  C   UNL     1     -10.570 -24.641 -42.625  1.00  0.00     0.163 C 
BRANCH  30  31
ATOM     31  O   UNL     1     -10.067 -25.808 -42.025  1.00  0.00    -0.396 OA
ATOM     32  H   UNL     1     -10.615 -26.567 -42.354  1.00  0.00     0.210 HD
ENDBRANCH  30  31
ENDBRANCH   4  30
BRANCH  13  33
ATOM     33  O   UNL     1     -15.625 -23.875 -50.356  1.00  0.00    -0.393 OA
ATOM     34  H   UNL     1     -14.765 -23.737 -50.835  1.00  0.00     0.210 HD
ENDBRANCH  13  33
TORSDOF 4
ENDMDL
MODEL 9
REMARK VINA RESULT:    -5.277      2.570      8.351
REMARK INTER + INTRA:          -6.633
REMARK INTER:                  -6.136
REMARK INTRA:                  -0.497
REMARK UNBOUND:                -0.431
REMARK SMILES C=C(C)[C@H]1CC[C@]2(CO)CC[C@@]3(C)[C@H](CC[C@@H]4[C@@]5(C)CC[C@@H](O)C(C)(C)[C@@H]5CC[C@]43C)[C@H]12
REMARK SMILES IDX 4 1 5 2 6 3 7 4 32 5 14 6 15 7 16 8 17 9 18 10 20 11 21 12
REMARK SMILES IDX 22 13 24 14 27 15 28 16 29 17 30 18 12 19 11 20 10 21 13 22
REMARK SMILES IDX 31 23 25 24 26 25 19 26 2 27 3 28 1 29 8 30 9 31 23 33
REMARK H PARENT 9 32 23 34
REMARK Flexibility Score: inf
ROOT
ATOM      1  C   UNL     1     -10.430 -27.341 -39.630  1.00  0.00     0.018 C 
ATOM      2  C   UNL     1     -10.880 -28.212 -38.467  1.00  0.00     0.009 C 
ATOM      3  C   UNL     1     -12.332 -28.519 -38.787  1.00  0.00     0.010 C 
ATOM      4  C   UNL     1     -12.911 -27.227 -39.417  1.00  0.00    -0.003 C 
ATOM      5  C   UNL     1     -11.670 -26.491 -40.031  1.00  0.00     0.008 C 
ATOM      6  C   UNL     1     -11.764 -26.126 -41.570  1.00  0.00    -0.000 C 
ATOM      7  C   UNL     1     -11.349 -27.287 -42.523  1.00  0.00     0.005 C 
ATOM      8  C   UNL     1     -11.547 -26.998 -44.009  1.00  0.00     0.005 C 
ATOM      9  C   UNL     1     -12.981 -26.513 -44.315  1.00  0.00     0.002 C 
ATOM     10  C   UNL     1     -13.387 -26.563 -45.860  1.00  0.00    -0.026 C 
ATOM     11  C   UNL     1     -13.353 -28.054 -46.344  1.00  0.00     0.010 C 
ATOM     12  C   UNL     1     -14.016 -28.292 -47.712  1.00  0.00     0.033 C 
ATOM     13  C   UNL     1     -15.469 -27.800 -47.751  1.00  0.00     0.120 C 
ATOM     14  C   UNL     1     -15.606 -26.298 -47.348  1.00  0.00    -0.006 C 
ATOM     15  C   UNL     1     -14.879 -26.063 -45.963  1.00  0.00     0.003 C 
ATOM     16  C   UNL     1     -15.033 -24.639 -45.383  1.00  0.00     0.005 C 
ATOM     17  C   UNL     1     -14.713 -24.628 -43.885  1.00  0.00     0.008 C 
ATOM     18  C   UNL     1     -13.282 -25.171 -43.522  1.00  0.00    -0.024 C 
ATOM     19  C   UNL     1     -13.160 -25.467 -41.932  1.00  0.00    -0.024 C 
ATOM     20  C   UNL     1     -14.343 -26.385 -41.405  1.00  0.00     0.008 C 
ATOM     21  C   UNL     1     -13.964 -27.572 -40.495  1.00  0.00     0.010 C 
ATOM     22  C   UNL     1     -13.248 -24.106 -41.161  1.00  0.00     0.012 C 
ATOM     23  C   UNL     1     -12.279 -24.039 -43.938  1.00  0.00     0.012 C 
ATOM     24  C   UNL     1     -15.071 -25.387 -48.483  1.00  0.00     0.014 C 
ATOM     25  C   UNL     1     -17.125 -25.989 -47.220  1.00  0.00     0.014 C 
ATOM     26  C   UNL     1     -12.392 -25.743 -46.751  1.00  0.00     0.012 C 
ENDROOT
BRANCH   1  27
ATOM     27  C   UNL     1      -9.182 -26.518 -39.332  1.00  0.00    -0.077 C 
ATOM     28  C   UNL     1      -8.262 -26.117 -40.457  1.00  0.00     0.039 C 
ATOM     29  C   UNL     1      -8.879 -26.121 -38.084  1.00  0.00     0.008 C 
ENDBRANCH   1  27
BRANCH   4  30
ATOM     30  C   UNL     1     -13.620 -26.414 -38.281  1.00  0.00     0.163 C 
BRANCH  30  31
ATOM     31  O   UNL     1     -14.749 -27.084 -37.777  1.00  0.00    -0.396 OA
ATOM     32  H   UNL     1     -15.315 -26.407 -37.325  1.00  0.00     0.210 HD
ENDBRANCH  30  31
ENDBRANCH   4  30
BRANCH  13  33
ATOM     33  O   UNL     1     -16.246 -28.605 -46.895  1.00  0.00    -0.393 OA
ATOM     34  H   UNL     1     -15.975 -29.548 -47.055  1.00  0.00     0.210 HD
ENDBRANCH  13  33
TORSDOF 4
ENDMDL
