MODEL 1
REMARK VINA RESULT:    -3.914      0.000      0.000
REMARK INTER + INTRA:          -6.136
REMARK INTER:                  -5.516
REMARK INTRA:                  -0.619
REMARK UNBOUND:                -0.619
REMARK SMILES CCCCCCCCC(=O)[O-]
REMARK SMILES IDX 6 1 7 2 8 3 9 4 10 5 11 6 5 7 4 8 3 9 2 10 1 11
REMARK H PARENT
REMARK Flexibility Score: inf
ROOT
ATOM      1  C   UNL     1       2.594  -2.796  -6.644  1.00  0.00     0.000 C 
ENDROOT
BRANCH   1   2
ATOM      2  C   UNL     1       2.153  -4.154  -6.073  1.00  0.00     0.006 C 
BRANCH   2   3
ATOM      3  C   UNL     1       0.822  -4.629  -6.673  1.00  0.00     0.053 C 
BRANCH   3   4
ATOM      4  C   UNL     1       0.989  -5.127  -8.076  1.00  0.00     0.041 C 
ATOM      5  O   UNL     1       0.032  -5.056  -8.891  1.00  0.00    -0.550 OA
ATOM      6  O   UNL     1       2.193  -5.694  -8.476  1.00  0.00    -0.550 OA
ENDBRANCH   3   4
ENDBRANCH   2   3
ENDBRANCH   1   2
BRANCH   1   7
ATOM      7  C   UNL     1       1.856  -1.615  -5.994  1.00  0.00     0.000 C 
BRANCH   7   8
ATOM      8  C   UNL     1       0.797  -0.993  -6.920  1.00  0.00    -0.000 C 
BRANCH   8   9
ATOM      9  C   UNL     1       1.079  -1.348  -8.388  1.00  0.00    -0.000 C 
BRANCH   9  10
ATOM     10  C   UNL     1      -0.207  -1.567  -9.200  1.00  0.00    -0.003 C 
ATOM     11  C   UNL     1      -1.304  -0.562  -8.852  1.00  0.00     0.004 C 
ENDBRANCH   9  10
ENDBRANCH   8   9
ENDBRANCH   7   8
ENDBRANCH   1   7
TORSDOF 7
ENDMDL
MODEL 2
REMARK VINA RESULT:    -3.834      2.536      4.264
REMARK INTER + INTRA:          -6.022
REMARK INTER:                  -5.609
REMARK INTRA:                  -0.413
REMARK UNBOUND:                -0.619
REMARK SMILES CCCCCCCCC(=O)[O-]
REMARK SMILES IDX 6 1 7 2 8 3 9 4 10 5 11 6 5 7 4 8 3 9 2 10 1 11
REMARK H PARENT
REMARK Flexibility Score: inf
ROOT
ATOM      1  C   UNL     1       1.506  -4.752  -6.263  1.00  0.00     0.000 C 
ENDROOT
BRANCH   1   2
ATOM      2  C   UNL     1       1.160  -3.310  -5.852  1.00  0.00     0.006 C 
BRANCH   2   3
ATOM      3  C   UNL     1       2.244  -2.311  -6.280  1.00  0.00     0.053 C 
BRANCH   3   4
ATOM      4  C   UNL     1       1.685  -1.214  -7.134  1.00  0.00     0.041 C 
ATOM      5  O   UNL     1       0.800  -0.445  -6.678  1.00  0.00    -0.550 OA
ATOM      6  O   UNL     1       2.122  -1.060  -8.445  1.00  0.00    -0.550 OA
ENDBRANCH   3   4
ENDBRANCH   2   3
ENDBRANCH   1   2
BRANCH   1   7
ATOM      7  C   UNL     1       2.542  -4.809  -7.396  1.00  0.00     0.000 C 
BRANCH   7   8
ATOM      8  C   UNL     1       1.912  -5.125  -8.762  1.00  0.00    -0.000 C 
BRANCH   8   9
ATOM      9  C   UNL     1       0.402  -5.369  -8.625  1.00  0.00    -0.000 C 
BRANCH   9  10
ATOM     10  C   UNL     1      -0.047  -6.683  -9.282  1.00  0.00    -0.003 C 
ATOM     11  C   UNL     1      -1.418  -7.149  -8.794  1.00  0.00     0.004 C 
ENDBRANCH   9  10
ENDBRANCH   8   9
ENDBRANCH   7   8
ENDBRANCH   1   7
TORSDOF 7
ENDMDL
MODEL 3
REMARK VINA RESULT:    -3.734      1.447      2.301
REMARK INTER + INTRA:          -5.881
REMARK INTER:                  -5.017
REMARK INTRA:                  -0.865
REMARK UNBOUND:                -0.619
REMARK SMILES CCCCCCCCC(=O)[O-]
REMARK SMILES IDX 6 1 7 2 8 3 9 4 10 5 11 6 5 7 4 8 3 9 2 10 1 11
REMARK H PARENT
REMARK Flexibility Score: inf
ROOT
ATOM      1  C   UNL     1       1.497  -1.119  -6.276  1.00  0.00     0.000 C 
ENDROOT
BRANCH   1   2
ATOM      2  C   UNL     1       2.135  -2.492  -6.004  1.00  0.00     0.006 C 
BRANCH   2   3
ATOM      3  C   UNL     1       1.102  -3.628  -6.042  1.00  0.00     0.053 C 
BRANCH   3   4
ATOM      4  C   UNL     1       1.483  -4.695  -7.022  1.00  0.00     0.041 C 
ATOM      5  O   UNL     1       0.638  -5.127  -7.849  1.00  0.00    -0.550 OA
ATOM      6  O   UNL     1       2.764  -5.234  -7.003  1.00  0.00    -0.550 OA
ENDBRANCH   3   4
ENDBRANCH   2   3
ENDBRANCH   1   2
BRANCH   1   7
ATOM      7  C   UNL     1       0.426  -1.174  -7.377  1.00  0.00     0.000 C 
BRANCH   7   8
ATOM      8  C   UNL     1       0.971  -0.770  -8.756  1.00  0.00    -0.000 C 
BRANCH   8   9
ATOM      9  C   UNL     1       1.198  -2.006  -9.638  1.00  0.00    -0.000 C 
BRANCH   9  10
ATOM     10  C   UNL     1       2.666  -2.460  -9.653  1.00  0.00    -0.003 C 
ATOM     11  C   UNL     1       3.640  -1.319  -9.361  1.00  0.00     0.004 C 
ENDBRANCH   9  10
ENDBRANCH   8   9
ENDBRANCH   7   8
ENDBRANCH   1   7
TORSDOF 7
ENDMDL
MODEL 4
REMARK VINA RESULT:    -3.653      1.694      3.066
REMARK INTER + INTRA:          -5.767
REMARK INTER:                  -4.945
REMARK INTRA:                  -0.821
REMARK UNBOUND:                -0.619
REMARK SMILES CCCCCCCCC(=O)[O-]
REMARK SMILES IDX 6 1 7 2 8 3 9 4 10 5 11 6 5 7 4 8 3 9 2 10 1 11
REMARK H PARENT
REMARK Flexibility Score: inf
ROOT
ATOM      1  C   UNL     1       0.404  -1.340  -7.396  1.00  0.00     0.000 C 
ENDROOT
BRANCH   1   2
ATOM      2  C   UNL     1       1.515  -1.727  -6.404  1.00  0.00     0.006 C 
BRANCH   2   3
ATOM      3  C   UNL     1       1.348  -3.160  -5.880  1.00  0.00     0.053 C 
BRANCH   3   4
ATOM      4  C   UNL     1       2.380  -4.086  -6.450  1.00  0.00     0.041 C 
ATOM      5  O   UNL     1       2.973  -3.790  -7.520  1.00  0.00    -0.550 OA
ATOM      6  O   UNL     1       2.664  -5.289  -5.815  1.00  0.00    -0.550 OA
ENDBRANCH   3   4
ENDBRANCH   2   3
ENDBRANCH   1   2
BRANCH   1   7
ATOM      7  C   UNL     1       0.953  -0.972  -8.783  1.00  0.00     0.000 C 
BRANCH   7   8
ATOM      8  C   UNL     1       0.798  -2.110  -9.805  1.00  0.00    -0.000 C 
BRANCH   8   9
ATOM      9  C   UNL     1      -0.193  -3.168  -9.299  1.00  0.00    -0.000 C 
BRANCH   9  10
ATOM     10  C   UNL     1       0.195  -4.593  -9.722  1.00  0.00    -0.003 C 
ATOM     11  C   UNL     1      -0.006  -5.616  -8.604  1.00  0.00     0.004 C 
ENDBRANCH   9  10
ENDBRANCH   8   9
ENDBRANCH   7   8
ENDBRANCH   1   7
TORSDOF 7
ENDMDL
MODEL 5
REMARK VINA RESULT:    -3.601      2.023      4.210
REMARK INTER + INTRA:          -5.694
REMARK INTER:                  -5.101
REMARK INTRA:                  -0.593
REMARK UNBOUND:                -0.619
REMARK SMILES CCCCCCCCC(=O)[O-]
REMARK SMILES IDX 6 1 7 2 8 3 9 4 10 5 11 6 5 7 4 8 3 9 2 10 1 11
REMARK H PARENT
REMARK Flexibility Score: inf
ROOT
ATOM      1  C   UNL     1       0.626  -0.887  -6.877  1.00  0.00     0.000 C 
ENDROOT
BRANCH   1   2
ATOM      2  C   UNL     1       0.819  -1.156  -8.379  1.00  0.00     0.006 C 
BRANCH   2   3
ATOM      3  C   UNL     1      -0.133  -0.317  -9.243  1.00  0.00     0.053 C 
BRANCH   3   4
ATOM      4  C   UNL     1      -1.522  -0.880  -9.251  1.00  0.00     0.041 C 
ATOM      5  O   UNL     1      -2.488  -0.186  -8.839  1.00  0.00    -0.550 OA
ATOM      6  O   UNL     1      -1.744  -2.181  -9.685  1.00  0.00    -0.550 OA
ENDBRANCH   3   4
ENDBRANCH   2   3
ENDBRANCH   1   2
BRANCH   1   7
ATOM      7  C   UNL     1       1.687  -1.587  -6.012  1.00  0.00     0.000 C 
BRANCH   7   8
ATOM      8  C   UNL     1       2.644  -2.462  -6.838  1.00  0.00    -0.000 C 
BRANCH   8   9
ATOM      9  C   UNL     1       2.553  -3.933  -6.404  1.00  0.00    -0.000 C 
BRANCH   9  10
ATOM     10  C   UNL     1       1.113  -4.468  -6.427  1.00  0.00    -0.003 C 
ATOM     11  C   UNL     1       0.669  -4.908  -7.821  1.00  0.00     0.004 C 
ENDBRANCH   9  10
ENDBRANCH   8   9
ENDBRANCH   7   8
ENDBRANCH   1   7
TORSDOF 7
ENDMDL
MODEL 6
REMARK VINA RESULT:    -3.517      1.344      2.345
REMARK INTER + INTRA:          -5.575
REMARK INTER:                  -5.202
REMARK INTRA:                  -0.373
REMARK UNBOUND:                -0.619
REMARK SMILES CCCCCCCCC(=O)[O-]
REMARK SMILES IDX 6 1 7 2 8 3 9 4 10 5 11 6 5 7 4 8 3 9 2 10 1 11
REMARK H PARENT
REMARK Flexibility Score: inf
ROOT
ATOM      1  C   UNL     1       1.786  -1.522  -7.548  1.00  0.00     0.000 C 
ENDROOT
BRANCH   1   2
ATOM      2  C   UNL     1       2.056  -2.131  -6.161  1.00  0.00     0.006 C 
BRANCH   2   3
ATOM      3  C   UNL     1       1.195  -3.375  -5.898  1.00  0.00     0.053 C 
BRANCH   3   4
ATOM      4  C   UNL     1       1.619  -4.535  -6.746  1.00  0.00     0.041 C 
ATOM      5  O   UNL     1       2.744  -5.070  -6.571  1.00  0.00    -0.550 OA
ATOM      6  O   UNL     1       0.781  -5.008  -7.750  1.00  0.00    -0.550 OA
ENDBRANCH   3   4
ENDBRANCH   2   3
ENDBRANCH   1   2
BRANCH   1   7
ATOM      7  C   UNL     1       0.365  -0.950  -7.674  1.00  0.00     0.000 C 
BRANCH   7   8
ATOM      8  C   UNL     1      -0.397  -1.512  -8.884  1.00  0.00    -0.000 C 
BRANCH   8   9
ATOM      9  C   UNL     1      -1.268  -0.428  -9.536  1.00  0.00    -0.000 C 
BRANCH   9  10
ATOM     10  C   UNL     1      -2.727  -0.475  -9.058  1.00  0.00    -0.003 C 
ATOM     11  C   UNL     1      -3.368   0.910  -8.977  1.00  0.00     0.004 C 
ENDBRANCH   9  10
ENDBRANCH   8   9
ENDBRANCH   7   8
ENDBRANCH   1   7
TORSDOF 7
ENDMDL
MODEL 7
REMARK VINA RESULT:    -3.514     15.600     17.067
REMARK INTER + INTRA:          -5.571
REMARK INTER:                  -5.244
REMARK INTRA:                  -0.327
REMARK UNBOUND:                -0.619
REMARK SMILES CCCCCCCCC(=O)[O-]
REMARK SMILES IDX 6 1 7 2 8 3 9 4 10 5 11 6 5 7 4 8 3 9 2 10 1 11
REMARK H PARENT
REMARK Flexibility Score: inf
ROOT
ATOM      1  C   UNL     1       8.992   5.781   4.424  1.00  0.00     0.000 C 
ENDROOT
BRANCH   1   2
ATOM      2  C   UNL     1       9.670   4.444   4.080  1.00  0.00     0.006 C 
BRANCH   2   3
ATOM      3  C   UNL     1       8.671   3.278   4.058  1.00  0.00     0.053 C 
BRANCH   3   4
ATOM      4  C   UNL     1       7.961   3.128   5.368  1.00  0.00     0.041 C 
ATOM      5  O   UNL     1       6.703   3.119   5.409  1.00  0.00    -0.550 OA
ATOM      6  O   UNL     1       8.688   3.025   6.548  1.00  0.00    -0.550 OA
ENDBRANCH   3   4
ENDBRANCH   2   3
ENDBRANCH   1   2
BRANCH   1   7
ATOM      7  C   UNL     1      10.005   6.913   4.662  1.00  0.00     0.000 C 
BRANCH   7   8
ATOM      8  C   UNL     1       9.533   8.262   4.096  1.00  0.00    -0.000 C 
BRANCH   8   9
ATOM      9  C   UNL     1       8.166   8.650   4.677  1.00  0.00    -0.000 C 
BRANCH   9  10
ATOM     10  C   UNL     1       7.480   9.769   3.877  1.00  0.00    -0.003 C 
ATOM     11  C   UNL     1       7.966   9.844   2.430  1.00  0.00     0.004 C 
ENDBRANCH   9  10
ENDBRANCH   8   9
ENDBRANCH   7   8
ENDBRANCH   1   7
TORSDOF 7
ENDMDL
MODEL 8
REMARK VINA RESULT:    -3.500      1.725      2.961
REMARK INTER + INTRA:          -5.551
REMARK INTER:                  -5.020
REMARK INTRA:                  -0.531
REMARK UNBOUND:                -0.619
REMARK SMILES CCCCCCCCC(=O)[O-]
REMARK SMILES IDX 6 1 7 2 8 3 9 4 10 5 11 6 5 7 4 8 3 9 2 10 1 11
REMARK H PARENT
REMARK Flexibility Score: inf
ROOT
ATOM      1  C   UNL     1       1.885  -5.040  -7.959  1.00  0.00     0.000 C 
ENDROOT
BRANCH   1   2
ATOM      2  C   UNL     1       0.349  -5.099  -8.031  1.00  0.00     0.006 C 
BRANCH   2   3
ATOM      3  C   UNL     1      -0.146  -5.645  -9.378  1.00  0.00     0.053 C 
BRANCH   3   4
ATOM      4  C   UNL     1      -0.751  -7.009  -9.238  1.00  0.00     0.041 C 
ATOM      5  O   UNL     1      -0.106  -8.027  -9.602  1.00  0.00    -0.550 OA
ATOM      6  O   UNL     1      -2.038  -7.153  -8.734  1.00  0.00    -0.550 OA
ENDBRANCH   3   4
ENDBRANCH   2   3
ENDBRANCH   1   2
BRANCH   1   7
ATOM      7  C   UNL     1       2.391  -4.447  -6.635  1.00  0.00     0.000 C 
BRANCH   7   8
ATOM      8  C   UNL     1       1.396  -3.456  -6.009  1.00  0.00    -0.000 C 
BRANCH   8   9
ATOM      9  C   UNL     1       1.928  -2.018  -6.097  1.00  0.00    -0.000 C 
BRANCH   9  10
ATOM     10  C   UNL     1       0.913  -1.049  -6.723  1.00  0.00    -0.003 C 
ATOM     11  C   UNL     1       0.445  -1.496  -8.108  1.00  0.00     0.004 C 
ENDBRANCH   9  10
ENDBRANCH   8   9
ENDBRANCH   7   8
ENDBRANCH   1   7
TORSDOF 7
ENDMDL
MODEL 9
REMARK VINA RESULT:    -3.412      3.031      5.341
REMARK INTER + INTRA:          -5.427
REMARK INTER:                  -5.124
REMARK INTRA:                  -0.303
REMARK UNBOUND:                -0.619
REMARK SMILES CCCCCCCCC(=O)[O-]
REMARK SMILES IDX 6 1 7 2 8 3 9 4 10 5 11 6 5 7 4 8 3 9 2 10 1 11
REMARK H PARENT
REMARK Flexibility Score: inf
ROOT
ATOM      1  C   UNL     1       0.331  -0.797  -8.618  1.00  0.00     0.000 C 
ENDROOT
BRANCH   1   2
ATOM      2  C   UNL     1      -1.102  -1.066  -9.109  1.00  0.00     0.006 C 
BRANCH   2   3
ATOM      3  C   UNL     1      -1.856   0.232  -9.431  1.00  0.00     0.053 C 
BRANCH   3   4
ATOM      4  C   UNL     1      -3.276   0.184  -8.957  1.00  0.00     0.041 C 
ATOM      5  O   UNL     1      -3.887  -0.915  -8.897  1.00  0.00    -0.550 OA
ATOM      6  O   UNL     1      -3.935   1.357  -8.608  1.00  0.00    -0.550 OA
ENDBRANCH   3   4
ENDBRANCH   2   3
ENDBRANCH   1   2
BRANCH   1   7
ATOM      7  C   UNL     1       0.437  -0.783  -7.085  1.00  0.00     0.000 C 
BRANCH   7   8
ATOM      8  C   UNL     1       1.568  -1.682  -6.559  1.00  0.00    -0.000 C 
BRANCH   8   9
ATOM      9  C   UNL     1       1.639  -2.993  -7.355  1.00  0.00    -0.000 C 
BRANCH   9  10
ATOM     10  C   UNL     1       1.153  -4.205  -6.545  1.00  0.00    -0.003 C 
ATOM     11  C   UNL     1       2.272  -4.869  -5.745  1.00  0.00     0.004 C 
ENDBRANCH   9  10
ENDBRANCH   8   9
ENDBRANCH   7   8
ENDBRANCH   1   7
TORSDOF 7
ENDMDL
