MODEL 1
REMARK VINA RESULT:    -0.055      0.000      0.000
REMARK INTER + INTRA:          -0.362
REMARK INTER:                  -0.064
REMARK INTRA:                  -0.298
REMARK UNBOUND:                -0.298
REMARK SMILES O=c1c(O)c(-c2ccc(O)cc2)oc2cc(O)cc(O)c12
REMARK SMILES IDX 5 1 3 2 2 3 1 4 21 5 19 6 18 7 16 8 15 9 14 10 13 11 6 12
REMARK SMILES IDX 7 13 8 14 9 15 12 16 11 17 10 18 4 20 20 22 17 24
REMARK H PARENT 10 19 4 21 20 23 17 25
REMARK Flexibility Score: inf
ROOT
ATOM      1  C   UNL     1     190.945 195.350 187.306  1.00  0.00     0.180 A 
ATOM      2  C   UNL     1     190.540 196.614 186.837  1.00  0.00     0.208 A 
ATOM      3  C   UNL     1     189.672 196.682 185.735  1.00  0.00     0.238 A 
ATOM      4  O   UNL     1     189.311 197.809 185.298  1.00  0.00    -0.285 OA
ATOM      5  C   UNL     1     189.209 195.491 185.138  1.00  0.00     0.111 A 
ATOM      6  C   UNL     1     188.330 195.473 184.027  1.00  0.00     0.134 A 
ATOM      7  C   UNL     1     187.908 194.245 183.495  1.00  0.00     0.093 A 
ATOM      8  C   UNL     1     188.345 193.041 184.049  1.00  0.00     0.123 A 
ATOM      9  C   UNL     1     189.214 193.052 185.145  1.00  0.00     0.094 A 
ATOM     10  C   UNL     1     189.647 194.264 185.690  1.00  0.00     0.146 A 
ATOM     11  O   UNL     1     190.476 194.248 186.726  1.00  0.00    -0.452 OA
ENDROOT
BRANCH   1  12
ATOM     12  C   UNL     1     191.872 195.196 188.450  1.00  0.00     0.021 A 
ATOM     13  C   UNL     1     191.352 195.026 189.745  1.00  0.00     0.016 A 
ATOM     14  C   UNL     1     192.208 194.856 190.836  1.00  0.00     0.047 A 
ATOM     15  C   UNL     1     193.597 194.838 190.645  1.00  0.00     0.115 A 
ATOM     16  C   UNL     1     193.266 195.156 188.265  1.00  0.00     0.016 A 
ATOM     17  C   UNL     1     194.120 194.985 189.358  1.00  0.00     0.047 A 
BRANCH  15  18
ATOM     18  O   UNL     1     194.460 194.671 191.724  1.00  0.00    -0.508 OA
ATOM     19  H   UNL     1     195.273 195.264 191.850  1.00  0.00     0.293 HD
ENDBRANCH  15  18
ENDBRANCH   1  12
BRANCH   2  20
ATOM     20  O   UNL     1     190.972 197.777 187.478  1.00  0.00    -0.502 OA
ATOM     21  H   UNL     1     190.372 198.310 188.096  1.00  0.00     0.293 HD
ENDBRANCH   2  20
BRANCH   6  22
ATOM     22  O   UNL     1     187.875 196.660 183.452  1.00  0.00    -0.507 OA
ATOM     23  H   UNL     1     187.887 196.805 182.449  1.00  0.00     0.293 HD
ENDBRANCH   6  22
BRANCH   8  24
ATOM     24  O   UNL     1     187.910 191.836 183.502  1.00  0.00    -0.508 OA
ATOM     25  H   UNL     1     186.937 191.682 183.264  1.00  0.00     0.293 HD
ENDBRANCH   8  24
TORSDOF 5
ENDMDL
MODEL 2
REMARK VINA RESULT:    -0.052     12.744     15.800
REMARK INTER + INTRA:          -0.360
REMARK INTER:                  -0.062
REMARK INTRA:                  -0.298
REMARK UNBOUND:                -0.298
REMARK SMILES O=c1c(O)c(-c2ccc(O)cc2)oc2cc(O)cc(O)c12
REMARK SMILES IDX 5 1 3 2 2 3 1 4 21 5 19 6 18 7 16 8 15 9 14 10 13 11 6 12
REMARK SMILES IDX 7 13 8 14 9 15 12 16 11 17 10 18 4 20 20 22 17 24
REMARK H PARENT 10 19 4 21 20 23 17 25
REMARK Flexibility Score: inf
ROOT
ATOM      1  C   UNL     1     203.940 199.424 185.925  1.00  0.00     0.180 A 
ATOM      2  C   UNL     1     204.467 198.215 185.430  1.00  0.00     0.208 A 
ATOM      3  C   UNL     1     205.655 198.250 184.682  1.00  0.00     0.238 A 
ATOM      4  O   UNL     1     206.131 197.175 184.224  1.00  0.00    -0.285 OA
ATOM      5  C   UNL     1     206.304 199.482 184.460  1.00  0.00     0.111 A 
ATOM      6  C   UNL     1     207.506 199.601 183.720  1.00  0.00     0.134 A 
ATOM      7  C   UNL     1     208.095 200.864 183.551  1.00  0.00     0.093 A 
ATOM      8  C   UNL     1     207.508 202.003 184.104  1.00  0.00     0.123 A 
ATOM      9  C   UNL     1     206.321 201.892 184.835  1.00  0.00     0.094 A 
ATOM     10  C   UNL     1     205.718 200.644 185.015  1.00  0.00     0.146 A 
ATOM     11  O   UNL     1     204.588 200.565 185.708  1.00  0.00    -0.452 OA
ENDROOT
BRANCH   1  12
ATOM     12  C   UNL     1     202.683 199.473 186.706  1.00  0.00     0.021 A 
ATOM     13  C   UNL     1     202.738 199.420 188.109  1.00  0.00     0.016 A 
ATOM     14  C   UNL     1     201.565 199.487 188.866  1.00  0.00     0.047 A 
ATOM     15  C   UNL     1     200.323 199.623 188.231  1.00  0.00     0.115 A 
ATOM     16  C   UNL     1     201.435 199.630 186.077  1.00  0.00     0.016 A 
ATOM     17  C   UNL     1     200.264 199.698 186.837  1.00  0.00     0.047 A 
BRANCH  15  18
ATOM     18  O   UNL     1     199.149 199.691 188.975  1.00  0.00    -0.508 OA
ATOM     19  H   UNL     1     198.762 200.579 189.276  1.00  0.00     0.293 HD
ENDBRANCH  15  18
ENDBRANCH   1  12
BRANCH   2  20
ATOM     20  O   UNL     1     203.833 197.002 185.708  1.00  0.00    -0.502 OA
ATOM     21  H   UNL     1     202.912 196.956 186.128  1.00  0.00     0.293 HD
ENDBRANCH   2  20
BRANCH   6  22
ATOM     22  O   UNL     1     208.116 198.481 183.156  1.00  0.00    -0.507 OA
ATOM     23  H   UNL     1     209.116 198.444 182.992  1.00  0.00     0.293 HD
ENDBRANCH   6  22
BRANCH   8  24
ATOM     24  O   UNL     1     208.114 203.245 183.922  1.00  0.00    -0.508 OA
ATOM     25  H   UNL     1     207.892 203.831 183.126  1.00  0.00     0.293 HD
ENDBRANCH   8  24
TORSDOF 5
ENDMDL
MODEL 3
REMARK VINA RESULT:    -0.050     13.048     15.674
REMARK INTER + INTRA:          -0.357
REMARK INTER:                  -0.059
REMARK INTRA:                  -0.298
REMARK UNBOUND:                -0.298
REMARK SMILES O=c1c(O)c(-c2ccc(O)cc2)oc2cc(O)cc(O)c12
REMARK SMILES IDX 5 1 3 2 2 3 1 4 21 5 19 6 18 7 16 8 15 9 14 10 13 11 6 12
REMARK SMILES IDX 7 13 8 14 9 15 12 16 11 17 10 18 4 20 20 22 17 24
REMARK H PARENT 10 19 4 21 20 23 17 25
REMARK Flexibility Score: inf
ROOT
ATOM      1  C   UNL     1     203.354 200.743 184.737  1.00  0.00     0.180 A 
ATOM      2  C   UNL     1     203.932 202.026 184.809  1.00  0.00     0.208 A 
ATOM      3  C   UNL     1     205.293 202.173 184.501  1.00  0.00     0.238 A 
ATOM      4  O   UNL     1     205.825 203.315 184.572  1.00  0.00    -0.285 OA
ATOM      5  C   UNL     1     206.045 201.047 184.108  1.00  0.00     0.111 A 
ATOM      6  C   UNL     1     207.421 201.113 183.778  1.00  0.00     0.134 A 
ATOM      7  C   UNL     1     208.098 199.947 183.387  1.00  0.00     0.093 A 
ATOM      8  C   UNL     1     207.430 198.723 183.321  1.00  0.00     0.123 A 
ATOM      9  C   UNL     1     206.071 198.652 183.647  1.00  0.00     0.094 A 
ATOM     10  C   UNL     1     205.379 199.802 184.039  1.00  0.00     0.146 A 
ATOM     11  O   UNL     1     204.092 199.707 184.349  1.00  0.00    -0.452 OA
ENDROOT
BRANCH   1  12
ATOM     12  C   UNL     1     201.930 200.503 185.065  1.00  0.00     0.021 A 
ATOM     13  C   UNL     1     200.971 200.523 184.038  1.00  0.00     0.016 A 
ATOM     14  C   UNL     1     199.625 200.276 184.321  1.00  0.00     0.047 A 
ATOM     15  C   UNL     1     199.222 199.991 185.633  1.00  0.00     0.115 A 
ATOM     16  C   UNL     1     201.520 200.195 186.375  1.00  0.00     0.016 A 
ATOM     17  C   UNL     1     200.173 199.948 186.655  1.00  0.00     0.047 A 
BRANCH  15  18
ATOM     18  O   UNL     1     197.884 199.744 185.927  1.00  0.00    -0.508 OA
ATOM     19  H   UNL     1     197.310 200.431 186.405  1.00  0.00     0.293 HD
ENDBRANCH  15  18
ENDBRANCH   1  12
BRANCH   2  20
ATOM     20  O   UNL     1     203.152 203.133 185.151  1.00  0.00    -0.502 OA
ATOM     21  H   UNL     1     202.490 203.114 185.918  1.00  0.00     0.293 HD
ENDBRANCH   2  20
BRANCH   6  22
ATOM     22  O   UNL     1     208.117 202.321 183.833  1.00  0.00    -0.507 OA
ATOM     23  H   UNL     1     207.846 203.118 183.271  1.00  0.00     0.293 HD
ENDBRANCH   6  22
BRANCH   8  24
ATOM     24  O   UNL     1     208.125 197.581 182.930  1.00  0.00    -0.508 OA
ATOM     25  H   UNL     1     207.647 196.778 182.538  1.00  0.00     0.293 HD
ENDBRANCH   8  24
TORSDOF 5
ENDMDL
MODEL 4
REMARK VINA RESULT:    -0.047     15.787     17.605
REMARK INTER + INTRA:          -0.353
REMARK INTER:                  -0.062
REMARK INTRA:                  -0.291
REMARK UNBOUND:                -0.298
REMARK SMILES O=c1c(O)c(-c2ccc(O)cc2)oc2cc(O)cc(O)c12
REMARK SMILES IDX 5 1 3 2 2 3 1 4 21 5 19 6 18 7 16 8 15 9 14 10 13 11 6 12
REMARK SMILES IDX 7 13 8 14 9 15 12 16 11 17 10 18 4 20 20 22 17 24
REMARK H PARENT 10 19 4 21 20 23 17 25
REMARK Flexibility Score: inf
ROOT
ATOM      1  C   UNL     1     206.894 199.338 187.517  1.00  0.00     0.180 A 
ATOM      2  C   UNL     1     207.413 198.673 186.389  1.00  0.00     0.208 A 
ATOM      3  C   UNL     1     207.658 199.413 185.221  1.00  0.00     0.238 A 
ATOM      4  O   UNL     1     208.113 198.826 184.200  1.00  0.00    -0.285 OA
ATOM      5  C   UNL     1     207.402 200.799 185.206  1.00  0.00     0.111 A 
ATOM      6  C   UNL     1     207.626 201.615 184.071  1.00  0.00     0.134 A 
ATOM      7  C   UNL     1     207.354 202.990 184.140  1.00  0.00     0.093 A 
ATOM      8  C   UNL     1     206.866 203.562 185.315  1.00  0.00     0.123 A 
ATOM      9  C   UNL     1     206.642 202.761 186.439  1.00  0.00     0.094 A 
ATOM     10  C   UNL     1     206.905 201.389 186.392  1.00  0.00     0.146 A 
ATOM     11  O   UNL     1     206.679 200.650 187.471  1.00  0.00    -0.452 OA
ENDROOT
BRANCH   1  12
ATOM     12  C   UNL     1     206.591 198.625 188.779  1.00  0.00     0.021 A 
ATOM     13  C   UNL     1     205.326 198.041 188.957  1.00  0.00     0.016 A 
ATOM     14  C   UNL     1     205.025 197.344 190.131  1.00  0.00     0.047 A 
ATOM     15  C   UNL     1     205.992 197.209 191.136  1.00  0.00     0.115 A 
ATOM     16  C   UNL     1     207.563 198.467 189.785  1.00  0.00     0.016 A 
ATOM     17  C   UNL     1     207.260 197.770 190.957  1.00  0.00     0.047 A 
BRANCH  15  18
ATOM     18  O   UNL     1     205.705 196.518 192.310  1.00  0.00    -0.508 OA
ATOM     19  H   UNL     1     204.971 196.825 192.940  1.00  0.00     0.293 HD
ENDBRANCH  15  18
ENDBRANCH   1  12
BRANCH   2  20
ATOM     20  O   UNL     1     207.705 197.309 186.446  1.00  0.00    -0.502 OA
ATOM     21  H   UNL     1     207.010 196.615 186.692  1.00  0.00     0.293 HD
ENDBRANCH   2  20
BRANCH   6  22
ATOM     22  O   UNL     1     208.115 201.074 182.882  1.00  0.00    -0.507 OA
ATOM     23  H   UNL     1     208.437 200.115 182.826  1.00  0.00     0.293 HD
ENDBRANCH   6  22
BRANCH   8  24
ATOM     24  O   UNL     1     206.605 204.930 185.357  1.00  0.00    -0.508 OA
ATOM     25  H   UNL     1     207.286 205.590 185.715  1.00  0.00     0.293 HD
ENDBRANCH   8  24
TORSDOF 5
ENDMDL
MODEL 5
REMARK VINA RESULT:    -0.046      1.543      2.937
REMARK INTER + INTRA:          -0.352
REMARK INTER:                  -0.061
REMARK INTRA:                  -0.291
REMARK UNBOUND:                -0.298
REMARK SMILES O=c1c(O)c(-c2ccc(O)cc2)oc2cc(O)cc(O)c12
REMARK SMILES IDX 5 1 3 2 2 3 1 4 21 5 19 6 18 7 16 8 15 9 14 10 13 11 6 12
REMARK SMILES IDX 7 13 8 14 9 15 12 16 11 17 10 18 4 20 20 22 17 24
REMARK H PARENT 10 19 4 21 20 23 17 25
REMARK Flexibility Score: inf
ROOT
ATOM      1  C   UNL     1     190.760 195.610 187.685  1.00  0.00     0.180 A 
ATOM      2  C   UNL     1     190.425 194.248 187.567  1.00  0.00     0.208 A 
ATOM      3  C   UNL     1     189.599 193.842 186.506  1.00  0.00     0.238 A 
ATOM      4  O   UNL     1     189.283 192.625 186.396  1.00  0.00    -0.285 OA
ATOM      5  C   UNL     1     189.142 194.796 185.574  1.00  0.00     0.111 A 
ATOM      6  C   UNL     1     188.310 194.468 184.476  1.00  0.00     0.134 A 
ATOM      7  C   UNL     1     187.905 195.475 183.587  1.00  0.00     0.093 A 
ATOM      8  C   UNL     1     188.312 196.797 183.773  1.00  0.00     0.123 A 
ATOM      9  C   UNL     1     189.133 197.127 184.856  1.00  0.00     0.094 A 
ATOM     10  C   UNL     1     189.547 196.139 185.754  1.00  0.00     0.146 A 
ATOM     11  O   UNL     1     190.321 196.479 186.778  1.00  0.00    -0.452 OA
ENDROOT
BRANCH   1  12
ATOM     12  C   UNL     1     191.609 196.119 188.786  1.00  0.00     0.021 A 
ATOM     13  C   UNL     1     191.013 196.506 189.998  1.00  0.00     0.016 A 
ATOM     14  C   UNL     1     191.798 196.968 191.058  1.00  0.00     0.047 A 
ATOM     15  C   UNL     1     193.191 197.035 190.925  1.00  0.00     0.115 A 
ATOM     16  C   UNL     1     193.010 196.170 188.668  1.00  0.00     0.016 A 
ATOM     17  C   UNL     1     193.793 196.632 189.730  1.00  0.00     0.047 A 
BRANCH  15  18
ATOM     18  O   UNL     1     193.983 197.494 191.974  1.00  0.00    -0.508 OA
ATOM     19  H   UNL     1     193.597 197.656 192.898  1.00  0.00     0.293 HD
ENDBRANCH  15  18
ENDBRANCH   1  12
BRANCH   2  20
ATOM     20  O   UNL     1     190.932 193.315 188.474  1.00  0.00    -0.502 OA
ATOM     21  H   UNL     1     191.539 192.555 188.189  1.00  0.00     0.293 HD
ENDBRANCH   2  20
BRANCH   6  22
ATOM     22  O   UNL     1     187.887 193.156 184.261  1.00  0.00    -0.507 OA
ATOM     23  H   UNL     1     187.379 192.890 183.426  1.00  0.00     0.293 HD
ENDBRANCH   6  22
BRANCH   8  24
ATOM     24  O   UNL     1     187.896 197.778 182.875  1.00  0.00    -0.508 OA
ATOM     25  H   UNL     1     188.450 198.608 182.702  1.00  0.00     0.293 HD
ENDBRANCH   8  24
TORSDOF 5
ENDMDL
MODEL 6
REMARK VINA RESULT:    -0.042     12.951     15.992
REMARK INTER + INTRA:          -0.347
REMARK INTER:                  -0.049
REMARK INTRA:                  -0.298
REMARK UNBOUND:                -0.298
REMARK SMILES O=c1c(O)c(-c2ccc(O)cc2)oc2cc(O)cc(O)c12
REMARK SMILES IDX 5 1 3 2 2 3 1 4 21 5 19 6 18 7 16 8 15 9 14 10 13 11 6 12
REMARK SMILES IDX 7 13 8 14 9 15 12 16 11 17 10 18 4 20 20 22 17 24
REMARK H PARENT 10 19 4 21 20 23 17 25
REMARK Flexibility Score: inf
ROOT
ATOM      1  C   UNL     1     205.768 197.690 185.834  1.00  0.00     0.180 A 
ATOM      2  C   UNL     1     206.058 196.361 185.466  1.00  0.00     0.208 A 
ATOM      3  C   UNL     1     205.467 195.314 186.191  1.00  0.00     0.238 A 
ATOM      4  O   UNL     1     205.728 194.119 185.879  1.00  0.00    -0.285 OA
ATOM      5  C   UNL     1     204.586 195.609 187.252  1.00  0.00     0.111 A 
ATOM      6  C   UNL     1     203.948 194.612 188.028  1.00  0.00     0.134 A 
ATOM      7  C   UNL     1     203.077 194.988 189.062  1.00  0.00     0.093 A 
ATOM      8  C   UNL     1     202.832 196.335 189.333  1.00  0.00     0.123 A 
ATOM      9  C   UNL     1     203.460 197.325 188.570  1.00  0.00     0.094 A 
ATOM     10  C   UNL     1     204.332 196.972 187.536  1.00  0.00     0.146 A 
ATOM     11  O   UNL     1     204.920 197.930 186.830  1.00  0.00    -0.452 OA
ENDROOT
BRANCH   1  12
ATOM     12  C   UNL     1     206.365 198.848 185.131  1.00  0.00     0.021 A 
ATOM     13  C   UNL     1     205.667 199.448 184.070  1.00  0.00     0.016 A 
ATOM     14  C   UNL     1     206.201 200.557 183.407  1.00  0.00     0.047 A 
ATOM     15  C   UNL     1     207.434 201.089 183.806  1.00  0.00     0.115 A 
ATOM     16  C   UNL     1     207.592 199.401 185.539  1.00  0.00     0.016 A 
ATOM     17  C   UNL     1     208.124 200.510 184.875  1.00  0.00     0.047 A 
BRANCH  15  18
ATOM     18  O   UNL     1     207.977 202.192 183.153  1.00  0.00    -0.508 OA
ATOM     19  H   UNL     1     208.239 203.032 183.659  1.00  0.00     0.293 HD
ENDBRANCH  15  18
ENDBRANCH   1  12
BRANCH   2  20
ATOM     20  O   UNL     1     206.894 196.096 184.380  1.00  0.00    -0.502 OA
ATOM     21  H   UNL     1     207.351 195.200 184.254  1.00  0.00     0.293 HD
ENDBRANCH   2  20
BRANCH   6  22
ATOM     22  O   UNL     1     204.171 193.257 187.782  1.00  0.00    -0.507 OA
ATOM     23  H   UNL     1     205.014 192.930 187.324  1.00  0.00     0.293 HD
ENDBRANCH   6  22
BRANCH   8  24
ATOM     24  O   UNL     1     201.962 196.682 190.365  1.00  0.00    -0.508 OA
ATOM     25  H   UNL     1     202.293 196.823 191.312  1.00  0.00     0.293 HD
ENDBRANCH   8  24
TORSDOF 5
ENDMDL
MODEL 7
REMARK VINA RESULT:    -0.037     12.512     15.451
REMARK INTER + INTRA:          -0.341
REMARK INTER:                  -0.043
REMARK INTRA:                  -0.298
REMARK UNBOUND:                -0.298
REMARK SMILES O=c1c(O)c(-c2ccc(O)cc2)oc2cc(O)cc(O)c12
REMARK SMILES IDX 5 1 3 2 2 3 1 4 21 5 19 6 18 7 16 8 15 9 14 10 13 11 6 12
REMARK SMILES IDX 7 13 8 14 9 15 12 16 11 17 10 18 4 20 20 22 17 24
REMARK H PARENT 10 19 4 21 20 23 17 25
REMARK Flexibility Score: inf
ROOT
ATOM      1  C   UNL     1     205.150 199.440 185.843  1.00  0.00     0.180 A 
ATOM      2  C   UNL     1     205.192 199.358 187.249  1.00  0.00     0.208 A 
ATOM      3  C   UNL     1     204.418 198.380 187.894  1.00  0.00     0.238 A 
ATOM      4  O   UNL     1     204.439 198.306 189.154  1.00  0.00    -0.285 OA
ATOM      5  C   UNL     1     203.637 197.491 187.128  1.00  0.00     0.111 A 
ATOM      6  C   UNL     1     202.833 196.476 187.702  1.00  0.00     0.134 A 
ATOM      7  C   UNL     1     202.091 195.625 186.870  1.00  0.00     0.093 A 
ATOM      8  C   UNL     1     202.136 195.768 185.482  1.00  0.00     0.123 A 
ATOM      9  C   UNL     1     202.927 196.769 184.910  1.00  0.00     0.094 A 
ATOM     10  C   UNL     1     203.674 197.628 185.721  1.00  0.00     0.146 A 
ATOM     11  O   UNL     1     204.412 198.574 185.153  1.00  0.00    -0.452 OA
ENDROOT
BRANCH   1  12
ATOM     12  C   UNL     1     205.921 200.455 185.091  1.00  0.00     0.021 A 
ATOM     13  C   UNL     1     207.199 200.131 184.604  1.00  0.00     0.016 A 
ATOM     14  C   UNL     1     207.936 201.067 183.872  1.00  0.00     0.047 A 
ATOM     15  C   UNL     1     207.398 202.332 183.603  1.00  0.00     0.115 A 
ATOM     16  C   UNL     1     205.380 201.720 184.799  1.00  0.00     0.016 A 
ATOM     17  C   UNL     1     206.119 202.653 184.066  1.00  0.00     0.047 A 
BRANCH  15  18
ATOM     18  O   UNL     1     208.123 203.272 182.875  1.00  0.00    -0.508 OA
ATOM     19  H   UNL     1     208.863 203.818 183.303  1.00  0.00     0.293 HD
ENDBRANCH  15  18
ENDBRANCH   1  12
BRANCH   2  20
ATOM     20  O   UNL     1     206.013 200.218 187.981  1.00  0.00    -0.502 OA
ATOM     21  H   UNL     1     206.605 199.891 188.735  1.00  0.00     0.293 HD
ENDBRANCH   2  20
BRANCH   6  22
ATOM     22  O   UNL     1     202.768 196.307 189.086  1.00  0.00    -0.507 OA
ATOM     23  H   UNL     1     203.055 195.444 189.531  1.00  0.00     0.293 HD
ENDBRANCH   6  22
BRANCH   8  24
ATOM     24  O   UNL     1     201.389 194.908 184.679  1.00  0.00    -0.508 OA
ATOM     25  H   UNL     1     201.809 194.100 184.233  1.00  0.00     0.293 HD
ENDBRANCH   8  24
TORSDOF 5
ENDMDL
MODEL 8
REMARK VINA RESULT:    -0.036     13.325     16.210
REMARK INTER + INTRA:          -0.340
REMARK INTER:                  -0.042
REMARK INTRA:                  -0.298
REMARK UNBOUND:                -0.298
REMARK SMILES O=c1c(O)c(-c2ccc(O)cc2)oc2cc(O)cc(O)c12
REMARK SMILES IDX 5 1 3 2 2 3 1 4 21 5 19 6 18 7 16 8 15 9 14 10 13 11 6 12
REMARK SMILES IDX 7 13 8 14 9 15 12 16 11 17 10 18 4 20 20 22 17 24
REMARK H PARENT 10 19 4 21 20 23 17 25
REMARK Flexibility Score: inf
ROOT
ATOM      1  C   UNL     1     205.787 198.032 187.344  1.00  0.00     0.180 A 
ATOM      2  C   UNL     1     206.182 196.736 187.727  1.00  0.00     0.208 A 
ATOM      3  C   UNL     1     205.550 196.133 188.827  1.00  0.00     0.238 A 
ATOM      4  O   UNL     1     205.902 194.976 189.187  1.00  0.00    -0.285 OA
ATOM      5  C   UNL     1     204.526 196.823 189.508  1.00  0.00     0.111 A 
ATOM      6  C   UNL     1     203.838 196.283 190.622  1.00  0.00     0.134 A 
ATOM      7  C   UNL     1     202.824 197.031 191.240  1.00  0.00     0.093 A 
ATOM      8  C   UNL     1     202.486 198.300 190.769  1.00  0.00     0.123 A 
ATOM      9  C   UNL     1     203.162 198.838 189.669  1.00  0.00     0.094 A 
ATOM     10  C   UNL     1     204.176 198.111 189.040  1.00  0.00     0.146 A 
ATOM     11  O   UNL     1     204.807 198.646 188.001  1.00  0.00    -0.452 OA
ENDROOT
BRANCH   1  12
ATOM     12  C   UNL     1     206.418 198.742 186.208  1.00  0.00     0.021 A 
ATOM     13  C   UNL     1     205.837 198.659 184.932  1.00  0.00     0.016 A 
ATOM     14  C   UNL     1     206.402 199.339 183.850  1.00  0.00     0.047 A 
ATOM     15  C   UNL     1     207.548 200.125 184.033  1.00  0.00     0.115 A 
ATOM     16  C   UNL     1     207.556 199.550 186.388  1.00  0.00     0.016 A 
ATOM     17  C   UNL     1     208.119 200.230 185.304  1.00  0.00     0.047 A 
BRANCH  15  18
ATOM     18  O   UNL     1     208.120 200.807 182.963  1.00  0.00    -0.508 OA
ATOM     19  H   UNL     1     208.526 200.313 182.175  1.00  0.00     0.293 HD
ENDBRANCH  15  18
ENDBRANCH   1  12
BRANCH   2  20
ATOM     20  O   UNL     1     207.163 196.054 187.005  1.00  0.00    -0.502 OA
ATOM     21  H   UNL     1     207.975 196.521 186.618  1.00  0.00     0.293 HD
ENDBRANCH   2  20
BRANCH   6  22
ATOM     22  O   UNL     1     204.152 195.017 191.117  1.00  0.00    -0.507 OA
ATOM     23  H   UNL     1     203.715 194.179 190.751  1.00  0.00     0.293 HD
ENDBRANCH   6  22
BRANCH   8  24
ATOM     24  O   UNL     1     201.474 199.021 191.400  1.00  0.00    -0.508 OA
ATOM     25  H   UNL     1     201.666 199.616 192.198  1.00  0.00     0.293 HD
ENDBRANCH   8  24
TORSDOF 5
ENDMDL
MODEL 9
REMARK VINA RESULT:    -0.031     14.129     16.076
REMARK INTER + INTRA:          -0.334
REMARK INTER:                  -0.036
REMARK INTRA:                  -0.298
REMARK UNBOUND:                -0.298
REMARK SMILES O=c1c(O)c(-c2ccc(O)cc2)oc2cc(O)cc(O)c12
REMARK SMILES IDX 5 1 3 2 2 3 1 4 21 5 19 6 18 7 16 8 15 9 14 10 13 11 6 12
REMARK SMILES IDX 7 13 8 14 9 15 12 16 11 17 10 18 4 20 20 22 17 24
REMARK H PARENT 10 19 4 21 20 23 17 25
REMARK Flexibility Score: inf
ROOT
ATOM      1  C   UNL     1     204.760 200.710 187.561  1.00  0.00     0.180 A 
ATOM      2  C   UNL     1     204.657 199.678 188.514  1.00  0.00     0.208 A 
ATOM      3  C   UNL     1     203.802 199.854 189.614  1.00  0.00     0.238 A 
ATOM      4  O   UNL     1     203.711 198.941 190.480  1.00  0.00    -0.285 OA
ATOM      5  C   UNL     1     203.052 201.042 189.731  1.00  0.00     0.111 A 
ATOM      6  C   UNL     1     202.166 201.295 190.807  1.00  0.00     0.134 A 
ATOM      7  C   UNL     1     201.448 202.500 190.847  1.00  0.00     0.093 A 
ATOM      8  C   UNL     1     201.598 203.453 189.837  1.00  0.00     0.123 A 
ATOM      9  C   UNL     1     202.472 203.209 188.773  1.00  0.00     0.094 A 
ATOM     10  C   UNL     1     203.198 202.016 188.715  1.00  0.00     0.146 A 
ATOM     11  O   UNL     1     204.025 201.811 187.697  1.00  0.00    -0.452 OA
ENDROOT
BRANCH   1  12
ATOM     12  C   UNL     1     205.653 200.609 186.384  1.00  0.00     0.021 A 
ATOM     13  C   UNL     1     205.143 200.119 185.170  1.00  0.00     0.016 A 
ATOM     14  C   UNL     1     205.963 200.036 184.040  1.00  0.00     0.047 A 
ATOM     15  C   UNL     1     207.298 200.455 184.107  1.00  0.00     0.115 A 
ATOM     16  C   UNL     1     206.989 201.047 186.437  1.00  0.00     0.016 A 
ATOM     17  C   UNL     1     207.805 200.962 185.306  1.00  0.00     0.047 A 
BRANCH  15  18
ATOM     18  O   UNL     1     208.124 200.376 182.989  1.00  0.00    -0.508 OA
ATOM     19  H   UNL     1     207.809 200.681 182.074  1.00  0.00     0.293 HD
ENDBRANCH  15  18
ENDBRANCH   1  12
BRANCH   2  20
ATOM     20  O   UNL     1     205.373 198.490 188.348  1.00  0.00    -0.502 OA
ATOM     21  H   UNL     1     205.011 197.710 187.813  1.00  0.00     0.293 HD
ENDBRANCH   2  20
BRANCH   6  22
ATOM     22  O   UNL     1     201.994 200.362 191.830  1.00  0.00    -0.507 OA
ATOM     23  H   UNL     1     201.609 200.624 192.730  1.00  0.00     0.293 HD
ENDBRANCH   6  22
BRANCH   8  24
ATOM     24  O   UNL     1     200.872 204.640 189.901  1.00  0.00    -0.508 OA
ATOM     25  H   UNL     1     200.720 205.122 190.780  1.00  0.00     0.293 HD
ENDBRANCH   8  24
TORSDOF 5
ENDMDL
