MODEL 1
REMARK VINA RESULT:    -4.926      0.000      0.000
REMARK INTER + INTRA:          -5.557
REMARK INTER:                  -5.502
REMARK INTRA:                  -0.055
REMARK UNBOUND:                -0.055
REMARK SMILES O=C([O-])c1ccccc1C(=O)[O-]
REMARK SMILES IDX 4 1 9 2 5 3 8 4 6 5 7 6 2 7 1 8 3 9 10 10 11 11 12 12
REMARK H PARENT
REMARK Flexibility Score: inf
ROOT
ATOM      1  C   UNL     1      35.267  18.986  11.579  1.00  0.00     0.006 A 
ATOM      2  C   UNL     1      35.783  18.822  10.263  1.00  0.00     0.006 A 
ATOM      3  C   UNL     1      34.237  19.919  11.798  1.00  0.00     0.010 A 
ATOM      4  C   UNL     1      35.296  19.644   9.230  1.00  0.00     0.010 A 
ATOM      5  C   UNL     1      33.752  20.708  10.754  1.00  0.00     0.001 A 
ATOM      6  C   UNL     1      34.289  20.579   9.475  1.00  0.00     0.001 A 
ENDROOT
BRANCH   1   7
ATOM      7  C   UNL     1      35.810  18.267  12.754  1.00  0.00     0.072 C 
ATOM      8  O   UNL     1      35.234  17.242  13.205  1.00  0.00    -0.545 OA
ATOM      9  O   UNL     1      37.004  18.679  13.334  1.00  0.00    -0.545 OA
ENDBRANCH   1   7
BRANCH   2  10
ATOM     10  C   UNL     1      36.769  17.775   9.906  1.00  0.00     0.072 C 
ATOM     11  O   UNL     1      36.543  16.563  10.161  1.00  0.00    -0.545 OA
ATOM     12  O   UNL     1      37.930  18.116   9.222  1.00  0.00    -0.545 OA
ENDBRANCH   2  10
TORSDOF 2
ENDMDL
MODEL 2
REMARK VINA RESULT:    -4.909      1.460      2.416
REMARK INTER + INTRA:          -5.538
REMARK INTER:                  -5.365
REMARK INTRA:                  -0.173
REMARK UNBOUND:                -0.055
REMARK SMILES O=C([O-])c1ccccc1C(=O)[O-]
REMARK SMILES IDX 4 1 9 2 5 3 8 4 6 5 7 6 2 7 1 8 3 9 10 10 11 11 12 12
REMARK H PARENT
REMARK Flexibility Score: inf
ROOT
ATOM      1  C   UNL     1      35.704  18.763  10.409  1.00  0.00     0.006 A 
ATOM      2  C   UNL     1      35.234  19.497   9.283  1.00  0.00     0.006 A 
ATOM      3  C   UNL     1      35.166  19.040  11.679  1.00  0.00     0.010 A 
ATOM      4  C   UNL     1      34.294  20.525   9.482  1.00  0.00     0.010 A 
ATOM      5  C   UNL     1      34.217  20.048  11.849  1.00  0.00     0.001 A 
ATOM      6  C   UNL     1      33.791  20.798  10.755  1.00  0.00     0.001 A 
ENDROOT
BRANCH   1   7
ATOM      7  C   UNL     1      36.788  17.758  10.321  1.00  0.00     0.072 C 
ATOM      8  O   UNL     1      36.525  16.535  10.178  1.00  0.00    -0.545 OA
ATOM      9  O   UNL     1      38.118  18.165  10.328  1.00  0.00    -0.545 OA
ENDBRANCH   1   7
BRANCH   2  10
ATOM     10  C   UNL     1      35.637  19.189   7.891  1.00  0.00     0.072 C 
ATOM     11  O   UNL     1      34.820  18.674   7.083  1.00  0.00    -0.545 OA
ATOM     12  O   UNL     1      36.908  19.528   7.443  1.00  0.00    -0.545 OA
ENDBRANCH   2  10
TORSDOF 2
ENDMDL
MODEL 3
REMARK VINA RESULT:    -4.909      1.697      3.204
REMARK INTER + INTRA:          -5.537
REMARK INTER:                  -5.355
REMARK INTRA:                  -0.183
REMARK UNBOUND:                -0.055
REMARK SMILES O=C([O-])c1ccccc1C(=O)[O-]
REMARK SMILES IDX 4 1 9 2 5 3 8 4 6 5 7 6 2 7 1 8 3 9 10 10 11 11 12 12
REMARK H PARENT
REMARK Flexibility Score: inf
ROOT
ATOM      1  C   UNL     1      37.081  18.152  10.505  1.00  0.00     0.006 A 
ATOM      2  C   UNL     1      35.786  18.730  10.383  1.00  0.00     0.006 A 
ATOM      3  C   UNL     1      37.943  18.168   9.393  1.00  0.00     0.010 A 
ATOM      4  C   UNL     1      35.379  19.241   9.136  1.00  0.00     0.010 A 
ATOM      5  C   UNL     1      37.528  18.701   8.172  1.00  0.00     0.001 A 
ATOM      6  C   UNL     1      36.244  19.225   8.041  1.00  0.00     0.001 A 
ENDROOT
BRANCH   1   7
ATOM      7  C   UNL     1      37.548  17.470  11.733  1.00  0.00     0.072 C 
ATOM      8  O   UNL     1      37.225  16.276  11.970  1.00  0.00    -0.545 OA
ATOM      9  O   UNL     1      38.408  18.122  12.609  1.00  0.00    -0.545 OA
ENDBRANCH   1   7
BRANCH   2  10
ATOM     10  C   UNL     1      34.859  18.885  11.528  1.00  0.00     0.072 C 
ATOM     11  O   UNL     1      34.664  20.012  12.052  1.00  0.00    -0.545 OA
ATOM     12  O   UNL     1      34.140  17.790  11.995  1.00  0.00    -0.545 OA
ENDBRANCH   2  10
TORSDOF 2
ENDMDL
MODEL 4
REMARK VINA RESULT:    -4.905      1.691      2.833
REMARK INTER + INTRA:          -5.533
REMARK INTER:                  -5.353
REMARK INTRA:                  -0.180
REMARK UNBOUND:                -0.055
REMARK SMILES O=C([O-])c1ccccc1C(=O)[O-]
REMARK SMILES IDX 4 1 9 2 5 3 8 4 6 5 7 6 2 7 1 8 3 9 10 10 11 11 12 12
REMARK H PARENT
REMARK Flexibility Score: inf
ROOT
ATOM      1  C   UNL     1      35.782  18.725  10.369  1.00  0.00     0.006 A 
ATOM      2  C   UNL     1      37.077  18.150  10.498  1.00  0.00     0.006 A 
ATOM      3  C   UNL     1      35.384  19.242   9.123  1.00  0.00     0.010 A 
ATOM      4  C   UNL     1      37.948  18.173   9.393  1.00  0.00     0.010 A 
ATOM      5  C   UNL     1      36.256  19.233   8.033  1.00  0.00     0.001 A 
ATOM      6  C   UNL     1      37.540  18.711   8.172  1.00  0.00     0.001 A 
ENDROOT
BRANCH   1   7
ATOM      7  C   UNL     1      34.847  18.871  11.508  1.00  0.00     0.072 C 
ATOM      8  O   UNL     1      34.631  19.998  12.026  1.00  0.00    -0.545 OA
ATOM      9  O   UNL     1      34.141  17.768  11.976  1.00  0.00    -0.545 OA
ENDBRANCH   1   7
BRANCH   2  10
ATOM     10  C   UNL     1      37.537  17.461  11.726  1.00  0.00     0.072 C 
ATOM     11  O   UNL     1      37.241  16.256  11.938  1.00  0.00    -0.545 OA
ATOM     12  O   UNL     1      38.361  18.122  12.629  1.00  0.00    -0.545 OA
ENDBRANCH   2  10
TORSDOF 2
ENDMDL
MODEL 5
REMARK VINA RESULT:    -4.901      0.121      2.904
REMARK INTER + INTRA:          -5.528
REMARK INTER:                  -5.470
REMARK INTRA:                  -0.058
REMARK UNBOUND:                -0.055
REMARK SMILES O=C([O-])c1ccccc1C(=O)[O-]
REMARK SMILES IDX 4 1 9 2 5 3 8 4 6 5 7 6 2 7 1 8 3 9 10 10 11 11 12 12
REMARK H PARENT
REMARK Flexibility Score: inf
ROOT
ATOM      1  C   UNL     1      35.747  18.876  10.174  1.00  0.00     0.006 A 
ATOM      2  C   UNL     1      35.223  18.991  11.492  1.00  0.00     0.006 A 
ATOM      3  C   UNL     1      35.253  19.723   9.166  1.00  0.00     0.010 A 
ATOM      4  C   UNL     1      34.180  19.902  11.736  1.00  0.00     0.010 A 
ATOM      5  C   UNL     1      34.233  20.636   9.435  1.00  0.00     0.001 A 
ATOM      6  C   UNL     1      33.689  20.717  10.715  1.00  0.00     0.001 A 
ENDROOT
BRANCH   1   7
ATOM      7  C   UNL     1      36.748  17.854   9.789  1.00  0.00     0.072 C 
ATOM      8  O   UNL     1      36.535  16.631   9.999  1.00  0.00    -0.545 OA
ATOM      9  O   UNL     1      37.910  18.232   9.126  1.00  0.00    -0.545 OA
ENDBRANCH   1   7
BRANCH   2  10
ATOM     10  C   UNL     1      35.771  18.242  12.647  1.00  0.00     0.072 C 
ATOM     11  O   UNL     1      35.206  17.197  13.064  1.00  0.00    -0.545 OA
ATOM     12  O   UNL     1      36.959  18.651  13.243  1.00  0.00    -0.545 OA
ENDBRANCH   2  10
TORSDOF 2
ENDMDL
MODEL 6
REMARK VINA RESULT:    -4.885      1.494      3.245
REMARK INTER + INTRA:          -5.511
REMARK INTER:                  -5.351
REMARK INTRA:                  -0.160
REMARK UNBOUND:                -0.055
REMARK SMILES O=C([O-])c1ccccc1C(=O)[O-]
REMARK SMILES IDX 4 1 9 2 5 3 8 4 6 5 7 6 2 7 1 8 3 9 10 10 11 11 12 12
REMARK H PARENT
REMARK Flexibility Score: inf
ROOT
ATOM      1  C   UNL     1      35.221  19.534   9.265  1.00  0.00     0.006 A 
ATOM      2  C   UNL     1      35.747  18.804  10.368  1.00  0.00     0.006 A 
ATOM      3  C   UNL     1      34.248  20.523   9.502  1.00  0.00     0.010 A 
ATOM      4  C   UNL     1      35.231  19.043  11.655  1.00  0.00     0.010 A 
ATOM      5  C   UNL     1      33.768  20.760  10.790  1.00  0.00     0.001 A 
ATOM      6  C   UNL     1      34.250  20.013  11.863  1.00  0.00     0.001 A 
ENDROOT
BRANCH   1   7
ATOM      7  C   UNL     1      35.600  19.260   7.860  1.00  0.00     0.072 C 
ATOM      8  O   UNL     1      34.772  18.758   7.055  1.00  0.00    -0.545 OA
ATOM      9  O   UNL     1      36.860  19.618   7.395  1.00  0.00    -0.545 OA
ENDBRANCH   1   7
BRANCH   2  10
ATOM     10  C   UNL     1      36.866  17.842  10.240  1.00  0.00     0.072 C 
ATOM     11  O   UNL     1      36.646  16.614  10.074  1.00  0.00    -0.545 OA
ATOM     12  O   UNL     1      38.179  18.299  10.234  1.00  0.00    -0.545 OA
ENDBRANCH   2  10
TORSDOF 2
ENDMDL
MODEL 7
REMARK VINA RESULT:    -4.880      1.442      1.900
REMARK INTER + INTRA:          -5.505
REMARK INTER:                  -5.276
REMARK INTRA:                  -0.229
REMARK UNBOUND:                -0.055
REMARK SMILES O=C([O-])c1ccccc1C(=O)[O-]
REMARK SMILES IDX 4 1 9 2 5 3 8 4 6 5 7 6 2 7 1 8 3 9 10 10 11 11 12 12
REMARK H PARENT
REMARK Flexibility Score: inf
ROOT
ATOM      1  C   UNL     1      36.495  18.307  10.863  1.00  0.00     0.006 A 
ATOM      2  C   UNL     1      37.005  18.744   9.607  1.00  0.00     0.006 A 
ATOM      3  C   UNL     1      35.185  18.663  11.230  1.00  0.00     0.010 A 
ATOM      4  C   UNL     1      36.209  19.574   8.798  1.00  0.00     0.010 A 
ATOM      5  C   UNL     1      34.404  19.470  10.400  1.00  0.00     0.001 A 
ATOM      6  C   UNL     1      34.919  19.934   9.192  1.00  0.00     0.001 A 
ENDROOT
BRANCH   1   7
ATOM      7  C   UNL     1      37.304  17.546  11.842  1.00  0.00     0.072 C 
ATOM      8  O   UNL     1      37.211  16.293  11.921  1.00  0.00    -0.545 OA
ATOM      9  O   UNL     1      38.231  18.204  12.642  1.00  0.00    -0.545 OA
ENDBRANCH   1   7
BRANCH   2  10
ATOM     10  C   UNL     1      38.317  18.310   9.073  1.00  0.00     0.072 C 
ATOM     11  O   UNL     1      39.356  18.986   9.289  1.00  0.00    -0.545 OA
ATOM     12  O   UNL     1      38.424  17.109   8.380  1.00  0.00    -0.545 OA
ENDBRANCH   2  10
TORSDOF 2
ENDMDL
MODEL 8
REMARK VINA RESULT:    -4.796      7.024      8.419
REMARK INTER + INTRA:          -5.412
REMARK INTER:                  -5.193
REMARK INTRA:                  -0.219
REMARK UNBOUND:                -0.055
REMARK SMILES O=C([O-])c1ccccc1C(=O)[O-]
REMARK SMILES IDX 4 1 9 2 5 3 8 4 6 5 7 6 2 7 1 8 3 9 10 10 11 11 12 12
REMARK H PARENT
REMARK Flexibility Score: inf
ROOT
ATOM      1  C   UNL     1      31.215  14.664  14.755  1.00  0.00     0.006 A 
ATOM      2  C   UNL     1      31.487  13.275  14.907  1.00  0.00     0.006 A 
ATOM      3  C   UNL     1      32.281  15.580  14.818  1.00  0.00     0.010 A 
ATOM      4  C   UNL     1      32.804  12.863  15.183  1.00  0.00     0.010 A 
ATOM      5  C   UNL     1      33.583  15.147  15.069  1.00  0.00     0.001 A 
ATOM      6  C   UNL     1      33.842  13.792  15.263  1.00  0.00     0.001 A 
ENDROOT
BRANCH   1   7
ATOM      7  C   UNL     1      29.846  15.206  14.599  1.00  0.00     0.072 C 
ATOM      8  O   UNL     1      29.396  15.505  13.462  1.00  0.00    -0.545 OA
ATOM      9  O   UNL     1      29.014  15.328  15.706  1.00  0.00    -0.545 OA
ENDBRANCH   1   7
BRANCH   2  10
ATOM     10  C   UNL     1      30.458  12.225  14.723  1.00  0.00     0.072 C 
ATOM     11  O   UNL     1      30.169  11.802  13.573  1.00  0.00    -0.545 OA
ATOM     12  O   UNL     1      29.847  11.647  15.829  1.00  0.00    -0.545 OA
ENDBRANCH   2  10
TORSDOF 2
ENDMDL
MODEL 9
REMARK VINA RESULT:    -4.777      6.961      8.421
REMARK INTER + INTRA:          -5.390
REMARK INTER:                  -5.175
REMARK INTRA:                  -0.215
REMARK UNBOUND:                -0.055
REMARK SMILES O=C([O-])c1ccccc1C(=O)[O-]
REMARK SMILES IDX 4 1 9 2 5 3 8 4 6 5 7 6 2 7 1 8 3 9 10 10 11 11 12 12
REMARK H PARENT
REMARK Flexibility Score: inf
ROOT
ATOM      1  C   UNL     1      31.583  13.344  14.944  1.00  0.00     0.006 A 
ATOM      2  C   UNL     1      31.286  14.726  14.771  1.00  0.00     0.006 A 
ATOM      3  C   UNL     1      32.906  12.960  15.227  1.00  0.00     0.010 A 
ATOM      4  C   UNL     1      32.334  15.662  14.822  1.00  0.00     0.010 A 
ATOM      5  C   UNL     1      33.928  13.909  15.296  1.00  0.00     0.001 A 
ATOM      6  C   UNL     1      33.644  15.256  15.081  1.00  0.00     0.001 A 
ENDROOT
BRANCH   1   7
ATOM      7  C   UNL     1      30.574  12.274  14.774  1.00  0.00     0.072 C 
ATOM      8  O   UNL     1      30.259  11.860  13.627  1.00  0.00    -0.545 OA
ATOM      9  O   UNL     1      30.010  11.664  15.889  1.00  0.00    -0.545 OA
ENDBRANCH   1   7
BRANCH   2  10
ATOM     10  C   UNL     1      29.906  15.240  14.606  1.00  0.00     0.072 C 
ATOM     11  O   UNL     1      29.450  15.506  13.463  1.00  0.00    -0.545 OA
ATOM     12  O   UNL     1      29.075  15.373  15.712  1.00  0.00    -0.545 OA
ENDBRANCH   2  10
TORSDOF 2
ENDMDL
