MODEL 1
REMARK VINA RESULT:    -6.077      0.000      0.000
REMARK INTER + INTRA:         -10.843
REMARK INTER:                  -8.920
REMARK INTRA:                  -1.923
REMARK UNBOUND:                -1.923
REMARK SMILES O=c1c(O[C@@H]2O[C@H](CO)[C@@H](O)[C@H](O)[C@H]2O)c(-c2ccc(O)c(O)c2)oc2cc(O)cc(O)c12
REMARK SMILES IDX 4 1 3 2 16 3 25 4 2 5 26 6 1 7 33 8 27 9 31 10 28 11 30 12
REMARK SMILES IDX 17 13 18 14 19 15 20 16 24 17 22 18 21 19 23 21 32 23 29 25
REMARK SMILES IDX 5 27 14 28 6 29 12 30 7 31 10 32 15 33 13 35 8 37 9 38 11 40
REMARK H PARENT 21 20 23 22 32 24 29 26 15 34 13 36 9 39 11 41
REMARK Flexibility Score: inf
ROOT
ATOM      1  O   UNL     1      16.522  -6.982 -13.829  1.00  0.00    -0.454 OA
ENDROOT
BRANCH   1   2
ATOM      2  C   UNL     1      15.414  -6.882 -12.973  1.00  0.00     0.214 A 
ATOM      3  C   UNL     1      15.159  -5.659 -12.330  1.00  0.00     0.180 A 
ATOM      4  O   UNL     1      14.068  -5.505 -11.588  1.00  0.00    -0.452 OA
ATOM      5  C   UNL     1      14.530  -7.954 -12.754  1.00  0.00     0.239 A 
ATOM      6  C   UNL     1      13.192  -6.481 -11.376  1.00  0.00     0.146 A 
ATOM      7  O   UNL     1      14.766  -9.079 -13.269  1.00  0.00    -0.285 OA
ATOM      8  C   UNL     1      13.391  -7.763 -11.943  1.00  0.00     0.111 A 
ATOM      9  C   UNL     1      12.069  -6.227 -10.580  1.00  0.00     0.094 A 
ATOM     10  C   UNL     1      12.446  -8.785 -11.679  1.00  0.00     0.134 A 
ATOM     11  C   UNL     1      11.131  -7.237 -10.335  1.00  0.00     0.123 A 
ATOM     12  C   UNL     1      11.326  -8.510 -10.878  1.00  0.00     0.093 A 
BRANCH   3  13
ATOM     13  C   UNL     1      16.071  -4.510 -12.489  1.00  0.00     0.025 A 
ATOM     14  C   UNL     1      15.750  -3.479 -13.385  1.00  0.00     0.016 A 
ATOM     15  C   UNL     1      16.620  -2.398 -13.551  1.00  0.00     0.051 A 
ATOM     16  C   UNL     1      17.811  -2.319 -12.815  1.00  0.00     0.157 A 
ATOM     17  C   UNL     1      17.252  -4.426 -11.734  1.00  0.00     0.062 A 
ATOM     18  C   UNL     1      18.127  -3.344 -11.887  1.00  0.00     0.158 A 
BRANCH  16  19
ATOM     19  O   UNL     1      18.641  -1.217 -13.034  1.00  0.00    -0.504 OA
ATOM     20  H   UNL     1      18.945  -0.591 -12.309  1.00  0.00     0.293 HD
ENDBRANCH  16  19
BRANCH  18  21
ATOM     21  O   UNL     1      19.285  -3.327 -11.101  1.00  0.00    -0.504 OA
ATOM     22  H   UNL     1      19.519  -2.584 -10.457  1.00  0.00     0.293 HD
ENDBRANCH  18  21
ENDBRANCH   3  13
BRANCH  10  23
ATOM     23  O   UNL     1      12.610 -10.067 -12.206  1.00  0.00    -0.507 OA
ATOM     24  H   UNL     1      12.579 -10.241 -13.204  1.00  0.00     0.293 HD
ENDBRANCH  10  23
BRANCH  11  25
ATOM     25  O   UNL     1      10.001  -6.987  -9.554  1.00  0.00    -0.508 OA
ATOM     26  H   UNL     1       9.980  -6.228  -8.885  1.00  0.00     0.293 HD
ENDBRANCH  11  25
ENDBRANCH   1   2
BRANCH   1  27
ATOM     27  C   UNL     1      16.453  -6.911 -15.255  1.00  0.00     0.339 C 
ATOM     28  C   UNL     1      17.349  -5.780 -15.784  1.00  0.00     0.214 C 
ATOM     29  O   UNL     1      16.741  -8.161 -15.860  1.00  0.00    -0.332 OA
ATOM     30  C   UNL     1      18.828  -6.110 -15.560  1.00  0.00     0.180 C 
ATOM     31  C   UNL     1      18.094  -8.587 -15.728  1.00  0.00     0.179 C 
ATOM     32  C   UNL     1      19.159  -7.516 -16.105  1.00  0.00     0.177 C 
BRANCH  28  33
ATOM     33  O   UNL     1      17.121  -5.584 -17.157  1.00  0.00    -0.384 OA
ATOM     34  H   UNL     1      16.169  -5.314 -17.258  1.00  0.00     0.211 HD
ENDBRANCH  28  33
BRANCH  30  35
ATOM     35  O   UNL     1      19.153  -6.026 -14.197  1.00  0.00    -0.387 OA
ATOM     36  H   UNL     1      20.131  -5.860 -14.138  1.00  0.00     0.211 HD
ENDBRANCH  30  35
BRANCH  31  37
ATOM     37  C   UNL     1      18.349  -9.358 -14.412  1.00  0.00     0.191 C 
BRANCH  37  38
ATOM     38  O   UNL     1      17.225 -10.072 -13.977  1.00  0.00    -0.394 OA
ATOM     39  H   UNL     1      17.557 -10.897 -13.528  1.00  0.00     0.210 HD
ENDBRANCH  37  38
ENDBRANCH  31  37
BRANCH  32  40
ATOM     40  O   UNL     1      19.255  -7.456 -17.507  1.00  0.00    -0.387 OA
ATOM     41  H   UNL     1      20.026  -8.024 -17.773  1.00  0.00     0.211 HD
ENDBRANCH  32  40
ENDBRANCH   1  27
TORSDOF 12
ENDMDL
MODEL 2
REMARK VINA RESULT:    -6.067      2.967      8.267
REMARK INTER + INTRA:         -10.828
REMARK INTER:                  -9.078
REMARK INTRA:                  -1.749
REMARK UNBOUND:                -1.923
REMARK SMILES O=c1c(O[C@@H]2O[C@H](CO)[C@@H](O)[C@H](O)[C@H]2O)c(-c2ccc(O)c(O)c2)oc2cc(O)cc(O)c12
REMARK SMILES IDX 4 1 3 2 16 3 25 4 2 5 26 6 1 7 33 8 27 9 31 10 28 11 30 12
REMARK SMILES IDX 17 13 18 14 19 15 20 16 24 17 22 18 21 19 23 21 32 23 29 25
REMARK SMILES IDX 5 27 14 28 6 29 12 30 7 31 10 32 15 33 13 35 8 37 9 38 11 40
REMARK H PARENT 21 20 23 22 32 24 29 26 15 34 13 36 9 39 11 41
REMARK Flexibility Score: inf
ROOT
ATOM      1  O   UNL     1      17.250  -3.505 -13.844  1.00  0.00    -0.454 OA
ENDROOT
BRANCH   1   2
ATOM      2  C   UNL     1      17.761  -3.161 -15.106  1.00  0.00     0.214 A 
ATOM      3  C   UNL     1      17.885  -4.162 -16.085  1.00  0.00     0.180 A 
ATOM      4  O   UNL     1      18.277  -3.852 -17.316  1.00  0.00    -0.452 OA
ATOM      5  C   UNL     1      18.129  -1.845 -15.438  1.00  0.00     0.239 A 
ATOM      6  C   UNL     1      18.608  -2.618 -17.682  1.00  0.00     0.146 A 
ATOM      7  O   UNL     1      18.085  -0.940 -14.564  1.00  0.00    -0.285 OA
ATOM      8  C   UNL     1      18.562  -1.554 -16.750  1.00  0.00     0.111 A 
ATOM      9  C   UNL     1      19.009  -2.384 -19.003  1.00  0.00     0.094 A 
ATOM     10  C   UNL     1      18.942  -0.255 -17.171  1.00  0.00     0.134 A 
ATOM     11  C   UNL     1      19.368  -1.096 -19.416  1.00  0.00     0.123 A 
ATOM     12  C   UNL     1      19.340  -0.041 -18.500  1.00  0.00     0.093 A 
BRANCH   3  13
ATOM     13  C   UNL     1      17.552  -5.567 -15.785  1.00  0.00     0.025 A 
ATOM     14  C   UNL     1      18.558  -6.457 -15.383  1.00  0.00     0.016 A 
ATOM     15  C   UNL     1      18.248  -7.793 -15.115  1.00  0.00     0.051 A 
ATOM     16  C   UNL     1      16.929  -8.257 -15.227  1.00  0.00     0.157 A 
ATOM     17  C   UNL     1      16.226  -6.021 -15.878  1.00  0.00     0.062 A 
ATOM     18  C   UNL     1      15.902  -7.356 -15.605  1.00  0.00     0.158 A 
BRANCH  16  19
ATOM     19  O   UNL     1      16.687  -9.606 -14.953  1.00  0.00    -0.504 OA
ATOM     20  H   UNL     1      15.963 -10.146 -15.393  1.00  0.00     0.293 HD
ENDBRANCH  16  19
BRANCH  18  21
ATOM     21  O   UNL     1      14.560  -7.737 -15.720  1.00  0.00    -0.504 OA
ATOM     22  H   UNL     1      14.096  -8.363 -15.077  1.00  0.00     0.293 HD
ENDBRANCH  18  21
ENDBRANCH   3  13
BRANCH  10  23
ATOM     23  O   UNL     1      18.923   0.821 -16.282  1.00  0.00    -0.507 OA
ATOM     24  H   UNL     1      18.603   1.740 -16.564  1.00  0.00     0.293 HD
ENDBRANCH  10  23
BRANCH  11  25
ATOM     25  O   UNL     1      19.754  -0.852 -20.736  1.00  0.00    -0.508 OA
ATOM     26  H   UNL     1      19.110  -0.458 -21.409  1.00  0.00     0.293 HD
ENDBRANCH  11  25
ENDBRANCH   1   2
BRANCH   1  27
ATOM     27  C   UNL     1      18.049  -3.912 -12.732  1.00  0.00     0.339 C 
ATOM     28  C   UNL     1      18.105  -2.800 -11.671  1.00  0.00     0.214 C 
ATOM     29  O   UNL     1      17.617  -5.152 -12.197  1.00  0.00    -0.332 OA
ATOM     30  C   UNL     1      16.733  -2.606 -11.016  1.00  0.00     0.180 C 
ATOM     31  C   UNL     1      16.348  -5.110 -11.551  1.00  0.00     0.179 C 
ATOM     32  C   UNL     1      16.174  -3.957 -10.519  1.00  0.00     0.177 C 
BRANCH  28  33
ATOM     33  O   UNL     1      19.050  -3.122 -10.682  1.00  0.00    -0.384 OA
ATOM     34  H   UNL     1      19.720  -3.723 -11.104  1.00  0.00     0.211 HD
ENDBRANCH  28  33
BRANCH  30  35
ATOM     35  O   UNL     1      15.837  -2.007 -11.914  1.00  0.00    -0.387 OA
ATOM     36  H   UNL     1      16.050  -2.358 -12.820  1.00  0.00     0.211 HD
ENDBRANCH  30  35
BRANCH  31  37
ATOM     37  C   UNL     1      15.173  -5.319 -12.534  1.00  0.00     0.191 C 
BRANCH  37  38
ATOM     38  O   UNL     1      14.421  -4.154 -12.734  1.00  0.00    -0.394 OA
ATOM     39  H   UNL     1      14.806  -3.689 -13.527  1.00  0.00     0.210 HD
ENDBRANCH  37  38
ENDBRANCH  31  37
BRANCH  32  40
ATOM     40  O   UNL     1      16.831  -4.319  -9.330  1.00  0.00    -0.387 OA
ATOM     41  H   UNL     1      17.106  -3.478  -8.877  1.00  0.00     0.211 HD
ENDBRANCH  32  40
ENDBRANCH   1  27
TORSDOF 12
ENDMDL
MODEL 3
REMARK VINA RESULT:    -6.023      1.654      5.018
REMARK INTER + INTRA:         -10.763
REMARK INTER:                  -9.117
REMARK INTRA:                  -1.645
REMARK UNBOUND:                -1.923
REMARK SMILES O=c1c(O[C@@H]2O[C@H](CO)[C@@H](O)[C@H](O)[C@H]2O)c(-c2ccc(O)c(O)c2)oc2cc(O)cc(O)c12
REMARK SMILES IDX 4 1 3 2 16 3 25 4 2 5 26 6 1 7 33 8 27 9 31 10 28 11 30 12
REMARK SMILES IDX 17 13 18 14 19 15 20 16 24 17 22 18 21 19 23 21 32 23 29 25
REMARK SMILES IDX 5 27 14 28 6 29 12 30 7 31 10 32 15 33 13 35 8 37 9 38 11 40
REMARK H PARENT 21 20 23 22 32 24 29 26 15 34 13 36 9 39 11 41
REMARK Flexibility Score: inf
ROOT
ATOM      1  O   UNL     1      15.760  -5.323 -12.762  1.00  0.00    -0.454 OA
ENDROOT
BRANCH   1   2
ATOM      2  C   UNL     1      14.752  -6.240 -12.425  1.00  0.00     0.214 A 
ATOM      3  C   UNL     1      14.676  -7.455 -13.128  1.00  0.00     0.180 A 
ATOM      4  O   UNL     1      13.793  -8.382 -12.772  1.00  0.00    -0.452 OA
ATOM      5  C   UNL     1      13.829  -6.002 -11.391  1.00  0.00     0.239 A 
ATOM      6  C   UNL     1      12.921  -8.212 -11.784  1.00  0.00     0.146 A 
ATOM      7  O   UNL     1      13.835  -4.898 -10.784  1.00  0.00    -0.285 OA
ATOM      8  C   UNL     1      12.890  -7.000 -11.052  1.00  0.00     0.111 A 
ATOM      9  C   UNL     1      12.028  -9.245 -11.478  1.00  0.00     0.094 A 
ATOM     10  C   UNL     1      11.933  -6.846 -10.018  1.00  0.00     0.134 A 
ATOM     11  C   UNL     1      11.095  -9.092 -10.446  1.00  0.00     0.123 A 
ATOM     12  C   UNL     1      11.046  -7.895  -9.726  1.00  0.00     0.093 A 
BRANCH   3  13
ATOM     13  C   UNL     1      15.591  -7.746 -14.247  1.00  0.00     0.025 A 
ATOM     14  C   UNL     1      16.771  -8.469 -14.019  1.00  0.00     0.016 A 
ATOM     15  C   UNL     1      17.648  -8.732 -15.075  1.00  0.00     0.051 A 
ATOM     16  C   UNL     1      17.354  -8.294 -16.375  1.00  0.00     0.157 A 
ATOM     17  C   UNL     1      15.280  -7.325 -15.551  1.00  0.00     0.062 A 
ATOM     18  C   UNL     1      16.148  -7.588 -16.617  1.00  0.00     0.158 A 
BRANCH  16  19
ATOM     19  O   UNL     1      18.276  -8.582 -17.384  1.00  0.00    -0.504 OA
ATOM     20  H   UNL     1      18.061  -8.556 -18.365  1.00  0.00     0.293 HD
ENDBRANCH  16  19
BRANCH  18  21
ATOM     21  O   UNL     1      15.774  -7.136 -17.888  1.00  0.00    -0.504 OA
ATOM     22  H   UNL     1      16.045  -6.241 -18.270  1.00  0.00     0.293 HD
ENDBRANCH  18  21
ENDBRANCH   3  13
BRANCH  10  23
ATOM     23  O   UNL     1      11.859  -5.664  -9.280  1.00  0.00    -0.507 OA
ATOM     24  H   UNL     1      12.318  -5.567  -8.383  1.00  0.00     0.293 HD
ENDBRANCH  10  23
BRANCH  11  25
ATOM     25  O   UNL     1      10.211 -10.125 -10.125  1.00  0.00    -0.508 OA
ATOM     26  H   UNL     1       9.978 -10.846 -10.796  1.00  0.00     0.293 HD
ENDBRANCH  11  25
ENDBRANCH   1   2
BRANCH   1  27
ATOM     27  C   UNL     1      17.051  -5.279 -12.151  1.00  0.00     0.339 C 
ATOM     28  C   UNL     1      18.146  -5.094 -13.213  1.00  0.00     0.214 C 
ATOM     29  O   UNL     1      17.117  -4.299 -11.127  1.00  0.00    -0.332 OA
ATOM     30  C   UNL     1      18.054  -3.703 -13.850  1.00  0.00     0.180 C 
ATOM     31  C   UNL     1      17.047  -2.954 -11.587  1.00  0.00     0.179 C 
ATOM     32  C   UNL     1      18.009  -2.610 -12.762  1.00  0.00     0.177 C 
BRANCH  28  33
ATOM     33  O   UNL     1      19.416  -5.255 -12.634  1.00  0.00    -0.384 OA
ATOM     34  H   UNL     1      19.956  -4.461 -12.892  1.00  0.00     0.211 HD
ENDBRANCH  28  33
BRANCH  30  35
ATOM     35  O   UNL     1      16.927  -3.613 -14.681  1.00  0.00    -0.387 OA
ATOM     36  H   UNL     1      17.238  -3.276 -15.563  1.00  0.00     0.211 HD
ENDBRANCH  30  35
BRANCH  31  37
ATOM     37  C   UNL     1      15.592  -2.452 -11.737  1.00  0.00     0.191 C 
BRANCH  37  38
ATOM     38  O   UNL     1      15.051  -2.732 -12.999  1.00  0.00    -0.394 OA
ATOM     39  H   UNL     1      14.787  -1.861 -13.405  1.00  0.00     0.210 HD
ENDBRANCH  37  38
ENDBRANCH  31  37
BRANCH  32  40
ATOM     40  O   UNL     1      19.301  -2.424 -12.240  1.00  0.00    -0.387 OA
ATOM     41  H   UNL     1      19.934  -2.892 -12.846  1.00  0.00     0.211 HD
ENDBRANCH  32  40
ENDBRANCH   1  27
TORSDOF 12
ENDMDL
MODEL 4
REMARK VINA RESULT:    -5.924      1.655      4.735
REMARK INTER + INTRA:         -10.618
REMARK INTER:                  -8.857
REMARK INTRA:                  -1.760
REMARK UNBOUND:                -1.923
REMARK SMILES O=c1c(O[C@@H]2O[C@H](CO)[C@@H](O)[C@H](O)[C@H]2O)c(-c2ccc(O)c(O)c2)oc2cc(O)cc(O)c12
REMARK SMILES IDX 4 1 3 2 16 3 25 4 2 5 26 6 1 7 33 8 27 9 31 10 28 11 30 12
REMARK SMILES IDX 17 13 18 14 19 15 20 16 24 17 22 18 21 19 23 21 32 23 29 25
REMARK SMILES IDX 5 27 14 28 6 29 12 30 7 31 10 32 15 33 13 35 8 37 9 38 11 40
REMARK H PARENT 21 20 23 22 32 24 29 26 15 34 13 36 9 39 11 41
REMARK Flexibility Score: inf
ROOT
ATOM      1  O   UNL     1      15.670  -5.568 -12.582  1.00  0.00    -0.454 OA
ENDROOT
BRANCH   1   2
ATOM      2  C   UNL     1      14.597  -6.425 -12.291  1.00  0.00     0.214 A 
ATOM      3  C   UNL     1      14.420  -7.582 -13.070  1.00  0.00     0.180 A 
ATOM      4  O   UNL     1      13.471  -8.459 -12.763  1.00  0.00    -0.452 OA
ATOM      5  C   UNL     1      13.704  -6.185 -11.231  1.00  0.00     0.239 A 
ATOM      6  C   UNL     1      12.624  -8.288 -11.754  1.00  0.00     0.146 A 
ATOM      7  O   UNL     1      13.802  -5.128 -10.554  1.00  0.00    -0.285 OA
ATOM      8  C   UNL     1      12.694  -7.128 -10.944  1.00  0.00     0.111 A 
ATOM      9  C   UNL     1      11.655  -9.267 -11.503  1.00  0.00     0.094 A 
ATOM     10  C   UNL     1      11.761  -6.970  -9.889  1.00  0.00     0.134 A 
ATOM     11  C   UNL     1      10.747  -9.111 -10.450  1.00  0.00     0.123 A 
ATOM     12  C   UNL     1      10.798  -7.964  -9.654  1.00  0.00     0.093 A 
BRANCH   3  13
ATOM     13  C   UNL     1      15.299  -7.868 -14.220  1.00  0.00     0.025 A 
ATOM     14  C   UNL     1      16.427  -8.684 -14.053  1.00  0.00     0.016 A 
ATOM     15  C   UNL     1      17.272  -8.944 -15.137  1.00  0.00     0.051 A 
ATOM     16  C   UNL     1      16.995  -8.409 -16.403  1.00  0.00     0.157 A 
ATOM     17  C   UNL     1      15.005  -7.348 -15.491  1.00  0.00     0.062 A 
ATOM     18  C   UNL     1      15.840  -7.607 -16.584  1.00  0.00     0.158 A 
BRANCH  16  19
ATOM     19  O   UNL     1      17.883  -8.699 -17.441  1.00  0.00    -0.504 OA
ATOM     20  H   UNL     1      17.640  -8.659 -18.416  1.00  0.00     0.293 HD
ENDBRANCH  16  19
BRANCH  18  21
ATOM     21  O   UNL     1      15.484  -7.054 -17.820  1.00  0.00    -0.504 OA
ATOM     22  H   UNL     1      15.985  -6.296 -18.263  1.00  0.00     0.293 HD
ENDBRANCH  18  21
ENDBRANCH   3  13
BRANCH  10  23
ATOM     23  O   UNL     1      11.786  -5.837  -9.075  1.00  0.00    -0.507 OA
ATOM     24  H   UNL     1      12.460  -5.734  -8.326  1.00  0.00     0.293 HD
ENDBRANCH  10  23
BRANCH  11  25
ATOM     25  O   UNL     1       9.788 -10.092 -10.185  1.00  0.00    -0.508 OA
ATOM     26  H   UNL     1       8.812  -9.854 -10.059  1.00  0.00     0.293 HD
ENDBRANCH  11  25
ENDBRANCH   1   2
BRANCH   1  27
ATOM     27  C   UNL     1      15.552  -4.339 -13.301  1.00  0.00     0.339 C 
ATOM     28  C   UNL     1      15.736  -3.140 -12.357  1.00  0.00     0.214 C 
ATOM     29  O   UNL     1      16.429  -4.294 -14.415  1.00  0.00    -0.332 OA
ATOM     30  C   UNL     1      17.180  -3.067 -11.849  1.00  0.00     0.180 C 
ATOM     31  C   UNL     1      17.811  -4.218 -14.080  1.00  0.00     0.179 C 
ATOM     32  C   UNL     1      18.174  -3.129 -13.028  1.00  0.00     0.177 C 
BRANCH  28  33
ATOM     33  O   UNL     1      15.418  -1.945 -13.024  1.00  0.00    -0.384 OA
ATOM     34  H   UNL     1      15.741  -2.040 -13.960  1.00  0.00     0.211 HD
ENDBRANCH  28  33
BRANCH  30  35
ATOM     35  O   UNL     1      17.437  -4.104 -10.938  1.00  0.00    -0.387 OA
ATOM     36  H   UNL     1      16.601  -4.634 -10.854  1.00  0.00     0.211 HD
ENDBRANCH  30  35
BRANCH  31  37
ATOM     37  C   UNL     1      18.445  -5.611 -13.855  1.00  0.00     0.191 C 
BRANCH  37  38
ATOM     38  O   UNL     1      18.574  -5.934 -12.498  1.00  0.00    -0.394 OA
ATOM     39  H   UNL     1      18.810  -5.093 -12.017  1.00  0.00     0.210 HD
ENDBRANCH  37  38
ENDBRANCH  31  37
BRANCH  32  40
ATOM     40  O   UNL     1      18.204  -1.879 -13.672  1.00  0.00    -0.387 OA
ATOM     41  H   UNL     1      19.072  -1.816 -14.152  1.00  0.00     0.211 HD
ENDBRANCH  32  40
ENDBRANCH   1  27
TORSDOF 12
ENDMDL
MODEL 5
REMARK VINA RESULT:    -5.781      2.925      8.308
REMARK INTER + INTRA:         -10.408
REMARK INTER:                  -8.623
REMARK INTRA:                  -1.785
REMARK UNBOUND:                -1.923
REMARK SMILES O=c1c(O[C@@H]2O[C@H](CO)[C@@H](O)[C@H](O)[C@H]2O)c(-c2ccc(O)c(O)c2)oc2cc(O)cc(O)c12
REMARK SMILES IDX 4 1 3 2 16 3 25 4 2 5 26 6 1 7 33 8 27 9 31 10 28 11 30 12
REMARK SMILES IDX 17 13 18 14 19 15 20 16 24 17 22 18 21 19 23 21 32 23 29 25
REMARK SMILES IDX 5 27 14 28 6 29 12 30 7 31 10 32 15 33 13 35 8 37 9 38 11 40
REMARK H PARENT 21 20 23 22 32 24 29 26 15 34 13 36 9 39 11 41
REMARK Flexibility Score: inf
ROOT
ATOM      1  O   UNL     1      17.418  -3.655 -13.864  1.00  0.00    -0.454 OA
ENDROOT
BRANCH   1   2
ATOM      2  C   UNL     1      17.867  -3.253 -15.133  1.00  0.00     0.214 A 
ATOM      3  C   UNL     1      17.991  -4.217 -16.148  1.00  0.00     0.180 A 
ATOM      4  O   UNL     1      18.324  -3.854 -17.381  1.00  0.00    -0.452 OA
ATOM      5  C   UNL     1      18.173  -1.914 -15.436  1.00  0.00     0.239 A 
ATOM      6  C   UNL     1      18.594  -2.598 -17.720  1.00  0.00     0.146 A 
ATOM      7  O   UNL     1      18.129  -1.038 -14.531  1.00  0.00    -0.285 OA
ATOM      8  C   UNL     1      18.544  -1.565 -16.752  1.00  0.00     0.111 A 
ATOM      9  C   UNL     1      18.935  -2.307 -19.046  1.00  0.00     0.094 A 
ATOM     10  C   UNL     1      18.859  -0.240 -17.145  1.00  0.00     0.134 A 
ATOM     11  C   UNL     1      19.230  -0.994 -19.430  1.00  0.00     0.123 A 
ATOM     12  C   UNL     1      19.198   0.030 -18.480  1.00  0.00     0.093 A 
BRANCH   3  13
ATOM     13  C   UNL     1      17.722  -5.643 -15.881  1.00  0.00     0.025 A 
ATOM     14  C   UNL     1      18.685  -6.430 -15.233  1.00  0.00     0.016 A 
ATOM     15  C   UNL     1      18.439  -7.785 -14.995  1.00  0.00     0.051 A 
ATOM     16  C   UNL     1      17.225  -8.370 -15.383  1.00  0.00     0.157 A 
ATOM     17  C   UNL     1      16.496  -6.219 -16.252  1.00  0.00     0.062 A 
ATOM     18  C   UNL     1      16.236  -7.573 -16.013  1.00  0.00     0.158 A 
BRANCH  16  19
ATOM     19  O   UNL     1      17.046  -9.731 -15.124  1.00  0.00    -0.504 OA
ATOM     20  H   UNL     1      17.187 -10.154 -14.223  1.00  0.00     0.293 HD
ENDBRANCH  16  19
BRANCH  18  21
ATOM     21  O   UNL     1      14.993  -8.078 -16.411  1.00  0.00    -0.504 OA
ATOM     22  H   UNL     1      14.579  -8.918 -16.032  1.00  0.00     0.293 HD
ENDBRANCH  18  21
ENDBRANCH   3  13
BRANCH  10  23
ATOM     23  O   UNL     1      18.834   0.806 -16.221  1.00  0.00    -0.507 OA
ATOM     24  H   UNL     1      19.319   1.679 -16.392  1.00  0.00     0.293 HD
ENDBRANCH  10  23
BRANCH  11  25
ATOM     25  O   UNL     1      19.556  -0.695 -20.755  1.00  0.00    -0.508 OA
ATOM     26  H   UNL     1      19.774  -1.425 -21.422  1.00  0.00     0.293 HD
ENDBRANCH  11  25
ENDBRANCH   1   2
BRANCH   1  27
ATOM     27  C   UNL     1      16.083  -3.485 -13.388  1.00  0.00     0.339 C 
ATOM     28  C   UNL     1      15.519  -4.818 -12.870  1.00  0.00     0.214 C 
ATOM     29  O   UNL     1      15.994  -2.448 -12.425  1.00  0.00    -0.332 OA
ATOM     30  C   UNL     1      16.252  -5.259 -11.598  1.00  0.00     0.180 C 
ATOM     31  C   UNL     1      16.634  -2.732 -11.185  1.00  0.00     0.179 C 
ATOM     32  C   UNL     1      16.277  -4.114 -10.562  1.00  0.00     0.177 C 
BRANCH  28  33
ATOM     33  O   UNL     1      14.148  -4.691 -12.594  1.00  0.00    -0.384 OA
ATOM     34  H   UNL     1      13.800  -3.966 -13.181  1.00  0.00     0.211 HD
ENDBRANCH  28  33
BRANCH  30  35
ATOM     35  O   UNL     1      17.558  -5.675 -11.897  1.00  0.00    -0.387 OA
ATOM     36  H   UNL     1      17.588  -5.868 -12.872  1.00  0.00     0.211 HD
ENDBRANCH  30  35
BRANCH  31  37
ATOM     37  C   UNL     1      18.136  -2.363 -11.193  1.00  0.00     0.191 C 
BRANCH  37  38
ATOM     38  O   UNL     1      18.969  -3.490 -11.182  1.00  0.00    -0.394 OA
ATOM     39  H   UNL     1      18.399  -4.279 -11.394  1.00  0.00     0.210 HD
ENDBRANCH  37  38
ENDBRANCH  31  37
BRANCH  32  40
ATOM     40  O   UNL     1      15.014  -4.015  -9.952  1.00  0.00    -0.387 OA
ATOM     41  H   UNL     1      14.875  -3.060  -9.716  1.00  0.00     0.211 HD
ENDBRANCH  32  40
ENDBRANCH   1  27
TORSDOF 12
ENDMDL
MODEL 6
REMARK VINA RESULT:    -5.763      5.363     10.308
REMARK INTER + INTRA:         -10.381
REMARK INTER:                  -8.588
REMARK INTRA:                  -1.792
REMARK UNBOUND:                -1.923
REMARK SMILES O=c1c(O[C@@H]2O[C@H](CO)[C@@H](O)[C@H](O)[C@H]2O)c(-c2ccc(O)c(O)c2)oc2cc(O)cc(O)c12
REMARK SMILES IDX 4 1 3 2 16 3 25 4 2 5 26 6 1 7 33 8 27 9 31 10 28 11 30 12
REMARK SMILES IDX 17 13 18 14 19 15 20 16 24 17 22 18 21 19 23 21 32 23 29 25
REMARK SMILES IDX 5 27 14 28 6 29 12 30 7 31 10 32 15 33 13 35 8 37 9 38 11 40
REMARK H PARENT 21 20 23 22 32 24 29 26 15 34 13 36 9 39 11 41
REMARK Flexibility Score: inf
ROOT
ATOM      1  O   UNL     1      19.018   1.092 -13.798  1.00  0.00    -0.454 OA
ENDROOT
BRANCH   1   2
ATOM      2  C   UNL     1      19.073   0.612 -15.116  1.00  0.00     0.214 A 
ATOM      3  C   UNL     1      18.022  -0.193 -15.590  1.00  0.00     0.180 A 
ATOM      4  O   UNL     1      17.998  -0.586 -16.859  1.00  0.00    -0.452 OA
ATOM      5  C   UNL     1      20.128   0.926 -15.991  1.00  0.00     0.239 A 
ATOM      6  C   UNL     1      18.958  -0.290 -17.728  1.00  0.00     0.146 A 
ATOM      7  O   UNL     1      21.111   1.594 -15.576  1.00  0.00    -0.285 OA
ATOM      8  C   UNL     1      20.081   0.474 -17.328  1.00  0.00     0.111 A 
ATOM      9  C   UNL     1      18.848  -0.747 -19.047  1.00  0.00     0.094 A 
ATOM     10  C   UNL     1      21.096   0.754 -18.277  1.00  0.00     0.134 A 
ATOM     11  C   UNL     1      19.847  -0.454 -19.983  1.00  0.00     0.123 A 
ATOM     12  C   UNL     1      20.966   0.287 -19.595  1.00  0.00     0.093 A 
BRANCH   3  13
ATOM     13  C   UNL     1      16.908  -0.588 -14.709  1.00  0.00     0.025 A 
ATOM     14  C   UNL     1      15.834   0.289 -14.497  1.00  0.00     0.016 A 
ATOM     15  C   UNL     1      14.785  -0.076 -13.649  1.00  0.00     0.051 A 
ATOM     16  C   UNL     1      14.782  -1.326 -13.014  1.00  0.00     0.157 A 
ATOM     17  C   UNL     1      16.899  -1.851 -14.092  1.00  0.00     0.062 A 
ATOM     18  C   UNL     1      15.850  -2.229 -13.246  1.00  0.00     0.158 A 
BRANCH  16  19
ATOM     19  O   UNL     1      13.708  -1.626 -12.172  1.00  0.00    -0.504 OA
ATOM     20  H   UNL     1      13.374  -1.014 -11.449  1.00  0.00     0.293 HD
ENDBRANCH  16  19
BRANCH  18  21
ATOM     21  O   UNL     1      15.909  -3.502 -12.666  1.00  0.00    -0.504 OA
ATOM     22  H   UNL     1      16.450  -4.268 -13.042  1.00  0.00     0.293 HD
ENDBRANCH  18  21
ENDBRANCH   3  13
BRANCH  10  23
ATOM     23  O   UNL     1      22.226   1.492 -17.922  1.00  0.00    -0.507 OA
ATOM     24  H   UNL     1      23.142   1.275 -18.294  1.00  0.00     0.293 HD
ENDBRANCH  10  23
BRANCH  11  25
ATOM     25  O   UNL     1      19.736  -0.894 -21.304  1.00  0.00    -0.508 OA
ATOM     26  H   UNL     1      20.500  -1.368 -21.767  1.00  0.00     0.293 HD
ENDBRANCH  11  25
ENDBRANCH   1   2
BRANCH   1  27
ATOM     27  C   UNL     1      19.404   0.340 -12.646  1.00  0.00     0.339 C 
ATOM     28  C   UNL     1      20.901   0.531 -12.351  1.00  0.00     0.214 C 
ATOM     29  O   UNL     1      18.588   0.637 -11.525  1.00  0.00    -0.332 OA
ATOM     30  C   UNL     1      21.185   1.967 -11.897  1.00  0.00     0.180 C 
ATOM     31  C   UNL     1      18.758   1.948 -10.996  1.00  0.00     0.179 C 
ATOM     32  C   UNL     1      20.237   2.370 -10.748  1.00  0.00     0.177 C 
BRANCH  28  33
ATOM     33  O   UNL     1      21.315  -0.363 -11.350  1.00  0.00    -0.384 OA
ATOM     34  H   UNL     1      22.183  -0.748 -11.645  1.00  0.00     0.211 HD
ENDBRANCH  28  33
BRANCH  30  35
ATOM     35  O   UNL     1      21.058   2.860 -12.971  1.00  0.00    -0.387 OA
ATOM     36  H   UNL     1      20.269   3.435 -12.783  1.00  0.00     0.211 HD
ENDBRANCH  30  35
BRANCH  31  37
ATOM     37  C   UNL     1      17.868   2.995 -11.706  1.00  0.00     0.191 C 
BRANCH  37  38
ATOM     38  O   UNL     1      18.600   3.853 -12.538  1.00  0.00    -0.394 OA
ATOM     39  H   UNL     1      19.551   3.556 -12.501  1.00  0.00     0.210 HD
ENDBRANCH  37  38
ENDBRANCH  31  37
BRANCH  32  40
ATOM     40  O   UNL     1      20.676   1.770  -9.554  1.00  0.00    -0.387 OA
ATOM     41  H   UNL     1      21.639   1.553  -9.671  1.00  0.00     0.211 HD
ENDBRANCH  32  40
ENDBRANCH   1  27
TORSDOF 12
ENDMDL
MODEL 7
REMARK VINA RESULT:    -5.728      1.630      2.626
REMARK INTER + INTRA:         -10.331
REMARK INTER:                  -8.841
REMARK INTRA:                  -1.490
REMARK UNBOUND:                -1.923
REMARK SMILES O=c1c(O[C@@H]2O[C@H](CO)[C@@H](O)[C@H](O)[C@H]2O)c(-c2ccc(O)c(O)c2)oc2cc(O)cc(O)c12
REMARK SMILES IDX 4 1 3 2 16 3 25 4 2 5 26 6 1 7 33 8 27 9 31 10 28 11 30 12
REMARK SMILES IDX 17 13 18 14 19 15 20 16 24 17 22 18 21 19 23 21 32 23 29 25
REMARK SMILES IDX 5 27 14 28 6 29 12 30 7 31 10 32 15 33 13 35 8 37 9 38 11 40
REMARK H PARENT 21 20 23 22 32 24 29 26 15 34 13 36 9 39 11 41
REMARK Flexibility Score: inf
ROOT
ATOM      1  O   UNL     1      15.955  -5.750 -12.943  1.00  0.00    -0.454 OA
ENDROOT
BRANCH   1   2
ATOM      2  C   UNL     1      14.894  -5.974 -12.051  1.00  0.00     0.214 A 
ATOM      3  C   UNL     1      14.676  -5.056 -11.009  1.00  0.00     0.180 A 
ATOM      4  O   UNL     1      13.627  -5.189 -10.206  1.00  0.00    -0.452 OA
ATOM      5  C   UNL     1      14.022  -7.071 -12.174  1.00  0.00     0.239 A 
ATOM      6  C   UNL     1      12.762  -6.192 -10.303  1.00  0.00     0.146 A 
ATOM      7  O   UNL     1      14.229  -7.942 -13.060  1.00  0.00    -0.285 OA
ATOM      8  C   UNL     1      12.929  -7.194 -11.290  1.00  0.00     0.111 A 
ATOM      9  C   UNL     1      11.684  -6.251  -9.412  1.00  0.00     0.094 A 
ATOM     10  C   UNL     1      11.998  -8.261 -11.350  1.00  0.00     0.134 A 
ATOM     11  C   UNL     1      10.760  -7.300  -9.487  1.00  0.00     0.123 A 
ATOM     12  C   UNL     1      10.923  -8.301 -10.448  1.00  0.00     0.093 A 
BRANCH   3  13
ATOM     13  C   UNL     1      15.579  -3.907 -10.805  1.00  0.00     0.025 A 
ATOM     14  C   UNL     1      15.384  -2.723 -11.531  1.00  0.00     0.016 A 
ATOM     15  C   UNL     1      16.248  -1.639 -11.352  1.00  0.00     0.051 A 
ATOM     16  C   UNL     1      17.307  -1.713 -10.436  1.00  0.00     0.157 A 
ATOM     17  C   UNL     1      16.625  -3.979  -9.870  1.00  0.00     0.062 A 
ATOM     18  C   UNL     1      17.492  -2.897  -9.678  1.00  0.00     0.158 A 
BRANCH  16  19
ATOM     19  O   UNL     1      18.139  -0.598 -10.311  1.00  0.00    -0.504 OA
ATOM     20  H   UNL     1      18.804  -0.475  -9.568  1.00  0.00     0.293 HD
ENDBRANCH  16  19
BRANCH  18  21
ATOM     21  O   UNL     1      18.512  -3.041  -8.730  1.00  0.00    -0.504 OA
ATOM     22  H   UNL     1      19.497  -2.998  -8.951  1.00  0.00     0.293 HD
ENDBRANCH  18  21
ENDBRANCH   3  13
BRANCH  10  23
ATOM     23  O   UNL     1      12.132  -9.276 -12.299  1.00  0.00    -0.507 OA
ATOM     24  H   UNL     1      12.529 -10.177 -12.063  1.00  0.00     0.293 HD
ENDBRANCH  10  23
BRANCH  11  25
ATOM     25  O   UNL     1       9.673  -7.356  -8.611  1.00  0.00    -0.508 OA
ATOM     26  H   UNL     1       9.775  -7.705  -7.667  1.00  0.00     0.293 HD
ENDBRANCH  11  25
ENDBRANCH   1   2
BRANCH   1  27
ATOM     27  C   UNL     1      17.338  -5.835 -12.594  1.00  0.00     0.339 C 
ATOM     28  C   UNL     1      17.853  -7.273 -12.769  1.00  0.00     0.214 C 
ATOM     29  O   UNL     1      18.120  -4.888 -13.302  1.00  0.00    -0.332 OA
ATOM     30  C   UNL     1      17.881  -7.661 -14.251  1.00  0.00     0.180 C 
ATOM     31  C   UNL     1      18.232  -5.136 -14.700  1.00  0.00     0.179 C 
ATOM     32  C   UNL     1      18.629  -6.594 -15.078  1.00  0.00     0.177 C 
BRANCH  28  33
ATOM     33  O   UNL     1      19.146  -7.393 -12.234  1.00  0.00    -0.384 OA
ATOM     34  H   UNL     1      19.434  -8.334 -12.377  1.00  0.00     0.211 HD
ENDBRANCH  28  33
BRANCH  30  35
ATOM     35  O   UNL     1      16.577  -7.835 -14.742  1.00  0.00    -0.387 OA
ATOM     36  H   UNL     1      16.419  -7.120 -15.415  1.00  0.00     0.211 HD
ENDBRANCH  30  35
BRANCH  31  37
ATOM     37  C   UNL     1      17.066  -4.523 -15.508  1.00  0.00     0.191 C 
BRANCH  37  38
ATOM     38  O   UNL     1      16.557  -5.400 -16.475  1.00  0.00    -0.394 OA
ATOM     39  H   UNL     1      17.338  -5.829 -16.922  1.00  0.00     0.210 HD
ENDBRANCH  37  38
ENDBRANCH  31  37
BRANCH  32  40
ATOM     40  O   UNL     1      20.013  -6.745 -14.883  1.00  0.00    -0.387 OA
ATOM     41  H   UNL     1      20.460  -5.994 -15.356  1.00  0.00     0.211 HD
ENDBRANCH  32  40
ENDBRANCH   1  27
TORSDOF 12
ENDMDL
MODEL 8
REMARK VINA RESULT:    -5.566      3.846      8.519
REMARK INTER + INTRA:         -10.093
REMARK INTER:                  -8.256
REMARK INTRA:                  -1.837
REMARK UNBOUND:                -1.923
REMARK SMILES O=c1c(O[C@@H]2O[C@H](CO)[C@@H](O)[C@H](O)[C@H]2O)c(-c2ccc(O)c(O)c2)oc2cc(O)cc(O)c12
REMARK SMILES IDX 4 1 3 2 16 3 25 4 2 5 26 6 1 7 33 8 27 9 31 10 28 11 30 12
REMARK SMILES IDX 17 13 18 14 19 15 20 16 24 17 22 18 21 19 23 21 32 23 29 25
REMARK SMILES IDX 5 27 14 28 6 29 12 30 7 31 10 32 15 33 13 35 8 37 9 38 11 40
REMARK H PARENT 21 20 23 22 32 24 29 26 15 34 13 36 9 39 11 41
REMARK Flexibility Score: inf
ROOT
ATOM      1  O   UNL     1      16.044  -1.080 -10.956  1.00  0.00    -0.454 OA
ENDROOT
BRANCH   1   2
ATOM      2  C   UNL     1      16.963  -1.493  -9.978  1.00  0.00     0.214 A 
ATOM      3  C   UNL     1      17.221  -2.866  -9.823  1.00  0.00     0.180 A 
ATOM      4  O   UNL     1      18.152  -3.282  -8.971  1.00  0.00    -0.452 OA
ATOM      5  C   UNL     1      17.658  -0.582  -9.162  1.00  0.00     0.239 A 
ATOM      6  C   UNL     1      18.852  -2.456  -8.201  1.00  0.00     0.146 A 
ATOM      7  O   UNL     1      17.404   0.650  -9.237  1.00  0.00    -0.285 OA
ATOM      8  C   UNL     1      18.626  -1.059  -8.253  1.00  0.00     0.111 A 
ATOM      9  C   UNL     1      19.815  -2.984  -7.333  1.00  0.00     0.094 A 
ATOM     10  C   UNL     1      19.377  -0.210  -7.402  1.00  0.00     0.134 A 
ATOM     11  C   UNL     1      20.564  -2.138  -6.507  1.00  0.00     0.123 A 
ATOM     12  C   UNL     1      20.339  -0.760  -6.539  1.00  0.00     0.093 A 
BRANCH   3  13
ATOM     13  C   UNL     1      16.497  -3.872 -10.621  1.00  0.00     0.025 A 
ATOM     14  C   UNL     1      17.120  -4.475 -11.723  1.00  0.00     0.016 A 
ATOM     15  C   UNL     1      16.430  -5.417 -12.492  1.00  0.00     0.051 A 
ATOM     16  C   UNL     1      15.117  -5.783 -12.164  1.00  0.00     0.157 A 
ATOM     17  C   UNL     1      15.189  -4.251 -10.275  1.00  0.00     0.062 A 
ATOM     18  C   UNL     1      14.491  -5.198 -11.034  1.00  0.00     0.158 A 
BRANCH  16  19
ATOM     19  O   UNL     1      14.480  -6.723 -12.978  1.00  0.00    -0.504 OA
ATOM     20  H   UNL     1      14.202  -6.546 -13.928  1.00  0.00     0.293 HD
ENDBRANCH  16  19
BRANCH  18  21
ATOM     21  O   UNL     1      13.192  -5.526 -10.631  1.00  0.00    -0.504 OA
ATOM     22  H   UNL     1      12.972  -6.282  -9.997  1.00  0.00     0.293 HD
ENDBRANCH  18  21
ENDBRANCH   3  13
BRANCH  10  23
ATOM     23  O   UNL     1      19.178   1.172  -7.411  1.00  0.00    -0.507 OA
ATOM     24  H   UNL     1      19.254   1.726  -6.567  1.00  0.00     0.293 HD
ENDBRANCH  10  23
BRANCH  11  25
ATOM     25  O   UNL     1      21.537  -2.658  -5.650  1.00  0.00    -0.508 OA
ATOM     26  H   UNL     1      22.438  -2.961  -5.998  1.00  0.00     0.293 HD
ENDBRANCH  11  25
ENDBRANCH   1   2
BRANCH   1  27
ATOM     27  C   UNL     1      16.404  -0.604 -12.254  1.00  0.00     0.339 C 
ATOM     28  C   UNL     1      15.685  -1.414 -13.346  1.00  0.00     0.214 C 
ATOM     29  O   UNL     1      16.188   0.792 -12.382  1.00  0.00    -0.332 OA
ATOM     30  C   UNL     1      14.177  -1.140 -13.319  1.00  0.00     0.180 C 
ATOM     31  C   UNL     1      14.819   1.184 -12.377  1.00  0.00     0.179 C 
ATOM     32  C   UNL     1      13.901   0.378 -13.343  1.00  0.00     0.177 C 
BRANCH  28  33
ATOM     33  O   UNL     1      16.194  -1.079 -14.611  1.00  0.00    -0.384 OA
ATOM     34  H   UNL     1      16.227  -1.919 -15.143  1.00  0.00     0.211 HD
ENDBRANCH  28  33
BRANCH  30  35
ATOM     35  O   UNL     1      13.588  -1.727 -12.188  1.00  0.00    -0.387 OA
ATOM     36  H   UNL     1      13.279  -2.633 -12.454  1.00  0.00     0.211 HD
ENDBRANCH  30  35
BRANCH  31  37
ATOM     37  C   UNL     1      14.269   1.403 -10.948  1.00  0.00     0.191 C 
BRANCH  37  38
ATOM     38  O   UNL     1      13.345   0.421 -10.568  1.00  0.00    -0.394 OA
ATOM     39  H   UNL     1      12.953   0.047 -11.404  1.00  0.00     0.210 HD
ENDBRANCH  37  38
ENDBRANCH  31  37
BRANCH  32  40
ATOM     40  O   UNL     1      14.093   0.862 -14.649  1.00  0.00    -0.387 OA
ATOM     41  H   UNL     1      14.198   1.848 -14.585  1.00  0.00     0.211 HD
ENDBRANCH  32  40
ENDBRANCH   1  27
TORSDOF 12
ENDMDL
MODEL 9
REMARK VINA RESULT:    -5.544      3.726      7.952
REMARK INTER + INTRA:         -10.061
REMARK INTER:                  -8.133
REMARK INTRA:                  -1.928
REMARK UNBOUND:                -1.923
REMARK SMILES O=c1c(O[C@@H]2O[C@H](CO)[C@@H](O)[C@H](O)[C@H]2O)c(-c2ccc(O)c(O)c2)oc2cc(O)cc(O)c12
REMARK SMILES IDX 4 1 3 2 16 3 25 4 2 5 26 6 1 7 33 8 27 9 31 10 28 11 30 12
REMARK SMILES IDX 17 13 18 14 19 15 20 16 24 17 22 18 21 19 23 21 32 23 29 25
REMARK SMILES IDX 5 27 14 28 6 29 12 30 7 31 10 32 15 33 13 35 8 37 9 38 11 40
REMARK H PARENT 21 20 23 22 32 24 29 26 15 34 13 36 9 39 11 41
REMARK Flexibility Score: inf
ROOT
ATOM      1  O   UNL     1      17.195  -2.609 -13.558  1.00  0.00    -0.454 OA
ENDROOT
BRANCH   1   2
ATOM      2  C   UNL     1      17.627  -2.081 -14.786  1.00  0.00     0.214 A 
ATOM      3  C   UNL     1      17.740  -0.687 -14.925  1.00  0.00     0.180 A 
ATOM      4  O   UNL     1      18.233  -0.162 -16.041  1.00  0.00    -0.452 OA
ATOM      5  C   UNL     1      17.978  -2.897 -15.876  1.00  0.00     0.239 A 
ATOM      6  C   UNL     1      18.604  -0.895 -17.086  1.00  0.00     0.146 A 
ATOM      7  O   UNL     1      17.830  -4.146 -15.801  1.00  0.00    -0.285 OA
ATOM      8  C   UNL     1      18.480  -2.305 -17.055  1.00  0.00     0.111 A 
ATOM      9  C   UNL     1      19.115  -0.255 -18.221  1.00  0.00     0.094 A 
ATOM     10  C   UNL     1      18.866  -3.053 -18.195  1.00  0.00     0.134 A 
ATOM     11  C   UNL     1      19.508  -1.001 -19.337  1.00  0.00     0.123 A 
ATOM     12  C   UNL     1      19.376  -2.392 -19.324  1.00  0.00     0.093 A 
BRANCH   3  13
ATOM     13  C   UNL     1      17.350   0.222 -13.831  1.00  0.00     0.025 A 
ATOM     14  C   UNL     1      18.308   0.653 -12.902  1.00  0.00     0.016 A 
ATOM     15  C   UNL     1      17.939   1.501 -11.854  1.00  0.00     0.051 A 
ATOM     16  C   UNL     1      16.615   1.945 -11.727  1.00  0.00     0.157 A 
ATOM     17  C   UNL     1      16.027   0.681 -13.721  1.00  0.00     0.062 A 
ATOM     18  C   UNL     1      15.647   1.536 -12.680  1.00  0.00     0.158 A 
BRANCH  16  19
ATOM     19  O   UNL     1      16.309   2.784 -10.653  1.00  0.00    -0.504 OA
ATOM     20  H   UNL     1      16.386   3.785 -10.683  1.00  0.00     0.293 HD
ENDBRANCH  16  19
BRANCH  18  21
ATOM     21  O   UNL     1      14.312   1.952 -12.633  1.00  0.00    -0.504 OA
ATOM     22  H   UNL     1      13.944   2.589 -11.941  1.00  0.00     0.293 HD
ENDBRANCH  18  21
ENDBRANCH   3  13
BRANCH  10  23
ATOM     23  O   UNL     1      18.748  -4.444 -18.214  1.00  0.00    -0.507 OA
ATOM     24  H   UNL     1      18.196  -4.923 -18.915  1.00  0.00     0.293 HD
ENDBRANCH  10  23
BRANCH  11  25
ATOM     25  O   UNL     1      20.033  -0.370 -20.467  1.00  0.00    -0.508 OA
ATOM     26  H   UNL     1      20.826   0.255 -20.401  1.00  0.00     0.293 HD
ENDBRANCH  11  25
ENDBRANCH   1   2
BRANCH   1  27
ATOM     27  C   UNL     1      18.042  -3.276 -12.621  1.00  0.00     0.339 C 
ATOM     28  C   UNL     1      18.124  -2.484 -11.306  1.00  0.00     0.214 C 
ATOM     29  O   UNL     1      17.647  -4.623 -12.420  1.00  0.00    -0.332 OA
ATOM     30  C   UNL     1      16.776  -2.502 -10.577  1.00  0.00     0.180 C 
ATOM     31  C   UNL     1      16.404  -4.783 -11.743  1.00  0.00     0.179 C 
ATOM     32  C   UNL     1      16.255  -3.948 -10.437  1.00  0.00     0.177 C 
BRANCH  28  33
ATOM     33  O   UNL     1      19.110  -3.033 -10.470  1.00  0.00    -0.384 OA
ATOM     34  H   UNL     1      19.152  -4.006 -10.671  1.00  0.00     0.211 HD
ENDBRANCH  28  33
BRANCH  30  35
ATOM     35  O   UNL     1      15.837  -1.707 -11.253  1.00  0.00    -0.387 OA
ATOM     36  H   UNL     1      15.106  -1.507 -10.611  1.00  0.00     0.211 HD
ENDBRANCH  30  35
BRANCH  31  37
ATOM     37  C   UNL     1      15.195  -4.752 -12.706  1.00  0.00     0.191 C 
BRANCH  37  38
ATOM     38  O   UNL     1      15.547  -5.057 -14.027  1.00  0.00    -0.394 OA
ATOM     39  H   UNL     1      15.495  -6.048 -14.124  1.00  0.00     0.210 HD
ENDBRANCH  37  38
ENDBRANCH  31  37
BRANCH  32  40
ATOM     40  O   UNL     1      16.962  -4.596  -9.409  1.00  0.00    -0.387 OA
ATOM     41  H   UNL     1      17.403  -3.892  -8.865  1.00  0.00     0.211 HD
ENDBRANCH  32  40
ENDBRANCH   1  27
TORSDOF 12
ENDMDL
