MODEL 1
REMARK VINA RESULT:    -5.009      0.000      0.000
REMARK INTER + INTRA:          -6.660
REMARK INTER:                  -6.473
REMARK INTRA:                  -0.188
REMARK UNBOUND:                -0.188
REMARK SMILES CCO[C@H]1O[C@H](CO)[C@@H](O)[C@@H](O)[C@@H]1O
REMARK SMILES IDX 4 1 13 2 11 3 9 4 6 5 5 6 3 7 2 8 1 9 14 10 12 12 7 14 8 15
REMARK SMILES IDX 10 17
REMARK H PARENT 14 11 12 13 8 16 10 18
REMARK Flexibility Score: inf
ROOT
ATOM      1  C   UNL     1     147.624 155.432 129.276  1.00  0.00     0.281 C 
ATOM      2  C   UNL     1     147.292 155.104 130.750  1.00  0.00     0.202 C 
ATOM      3  C   UNL     1     146.061 154.179 130.810  1.00  0.00     0.179 C 
ATOM      4  C   UNL     1     146.276 152.949 129.906  1.00  0.00     0.177 C 
ATOM      5  C   UNL     1     146.718 153.381 128.486  1.00  0.00     0.178 C 
ATOM      6  O   UNL     1     147.844 154.253 128.504  1.00  0.00    -0.341 OA
ENDROOT
BRANCH   1   7
ATOM      7  O   UNL     1     148.733 156.321 129.206  1.00  0.00    -0.350 OA
BRANCH   7   8
ATOM      8  C   UNL     1     149.599 156.029 128.125  1.00  0.00     0.160 C 
ATOM      9  C   UNL     1     149.523 157.158 127.108  1.00  0.00     0.035 C 
ENDBRANCH   7   8
ENDBRANCH   1   7
BRANCH   2  10
ATOM     10  O   UNL     1     147.069 156.280 131.489  1.00  0.00    -0.385 OA
ATOM     11  H   UNL     1     146.920 156.021 132.436  1.00  0.00     0.211 HD
ENDBRANCH   2  10
BRANCH   3  12
ATOM     12  O   UNL     1     145.766 153.795 132.132  1.00  0.00    -0.387 OA
ATOM     13  H   UNL     1     145.090 153.069 132.101  1.00  0.00     0.211 HD
ENDBRANCH   3  12
BRANCH   5  14
ATOM     14  C   UNL     1     145.560 153.919 127.621  1.00  0.00     0.191 C 
BRANCH  14  15
ATOM     15  O   UNL     1     146.024 154.191 126.327  1.00  0.00    -0.394 OA
ATOM     16  H   UNL     1     146.985 154.422 126.421  1.00  0.00     0.210 HD
ENDBRANCH  14  15
ENDBRANCH   5  14
BRANCH   4  17
ATOM     17  O   UNL     1     147.268 152.113 130.448  1.00  0.00    -0.387 OA
ATOM     18  H   UNL     1     147.720 152.623 131.171  1.00  0.00     0.211 HD
ENDBRANCH   4  17
TORSDOF 7
ENDMDL
MODEL 2
REMARK VINA RESULT:    -4.998      1.568      2.990
REMARK INTER + INTRA:          -6.647
REMARK INTER:                  -6.493
REMARK INTRA:                  -0.154
REMARK UNBOUND:                -0.188
REMARK SMILES CCO[C@H]1O[C@H](CO)[C@@H](O)[C@@H](O)[C@@H]1O
REMARK SMILES IDX 4 1 13 2 11 3 9 4 6 5 5 6 3 7 2 8 1 9 14 10 12 12 7 14 8 15
REMARK SMILES IDX 10 17
REMARK H PARENT 14 11 12 13 8 16 10 18
REMARK Flexibility Score: inf
ROOT
ATOM      1  C   UNL     1     147.605 154.650 128.182  1.00  0.00     0.281 C 
ATOM      2  C   UNL     1     146.140 155.002 128.530  1.00  0.00     0.202 C 
ATOM      3  C   UNL     1     145.697 154.210 129.774  1.00  0.00     0.179 C 
ATOM      4  C   UNL     1     146.703 154.419 130.923  1.00  0.00     0.177 C 
ATOM      5  C   UNL     1     148.151 154.152 130.442  1.00  0.00     0.178 C 
ATOM      6  O   UNL     1     148.487 154.897 129.276  1.00  0.00    -0.341 OA
ENDROOT
BRANCH   1   7
ATOM      7  O   UNL     1     148.015 155.341 127.009  1.00  0.00    -0.350 OA
BRANCH   7   8
ATOM      8  C   UNL     1     149.383 155.705 127.040  1.00  0.00     0.160 C 
ATOM      9  C   UNL     1     149.495 157.220 126.955  1.00  0.00     0.035 C 
ENDBRANCH   7   8
ENDBRANCH   1   7
BRANCH   2  10
ATOM     10  O   UNL     1     145.289 154.740 127.441  1.00  0.00    -0.385 OA
ATOM     11  H   UNL     1     145.345 155.512 126.819  1.00  0.00     0.211 HD
ENDBRANCH   2  10
BRANCH   3  12
ATOM     12  O   UNL     1     144.391 154.555 130.170  1.00  0.00    -0.387 OA
ATOM     13  H   UNL     1     143.998 153.782 130.652  1.00  0.00     0.211 HD
ENDBRANCH   3  12
BRANCH   5  14
ATOM     14  C   UNL     1     148.487 152.653 130.309  1.00  0.00     0.191 C 
BRANCH  14  15
ATOM     15  O   UNL     1     149.801 152.423 130.735  1.00  0.00    -0.394 OA
ATOM     16  H   UNL     1     150.389 152.787 130.022  1.00  0.00     0.210 HD
ENDBRANCH  14  15
ENDBRANCH   5  14
BRANCH   4  17
ATOM     17  O   UNL     1     146.628 155.738 131.403  1.00  0.00    -0.387 OA
ATOM     18  H   UNL     1     145.850 156.168 130.961  1.00  0.00     0.211 HD
ENDBRANCH   4  17
TORSDOF 7
ENDMDL
MODEL 3
REMARK VINA RESULT:    -4.927      2.141      4.929
REMARK INTER + INTRA:          -6.555
REMARK INTER:                  -6.402
REMARK INTRA:                  -0.152
REMARK UNBOUND:                -0.188
REMARK SMILES CCO[C@H]1O[C@H](CO)[C@@H](O)[C@@H](O)[C@@H]1O
REMARK SMILES IDX 4 1 13 2 11 3 9 4 6 5 5 6 3 7 2 8 1 9 14 10 12 12 7 14 8 15
REMARK SMILES IDX 10 17
REMARK H PARENT 14 11 12 13 8 16 10 18
REMARK Flexibility Score: inf
ROOT
ATOM      1  C   UNL     1     148.014 152.987 128.234  1.00  0.00     0.281 C 
ATOM      2  C   UNL     1     148.590 153.762 127.026  1.00  0.00     0.202 C 
ATOM      3  C   UNL     1     148.329 155.270 127.206  1.00  0.00     0.179 C 
ATOM      4  C   UNL     1     148.844 155.739 128.581  1.00  0.00     0.177 C 
ATOM      5  C   UNL     1     148.302 154.828 129.710  1.00  0.00     0.178 C 
ATOM      6  O   UNL     1     148.556 153.447 129.471  1.00  0.00    -0.341 OA
ENDROOT
BRANCH   1   7
ATOM      7  O   UNL     1     148.209 151.588 128.062  1.00  0.00    -0.350 OA
BRANCH   7   8
ATOM      8  C   UNL     1     148.558 150.934 129.267  1.00  0.00     0.160 C 
ATOM      9  C   UNL     1     147.885 149.570 129.305  1.00  0.00     0.035 C 
ENDBRANCH   7   8
ENDBRANCH   1   7
BRANCH   2  10
ATOM     10  O   UNL     1     148.034 153.299 125.820  1.00  0.00    -0.385 OA
ATOM     11  H   UNL     1     148.777 152.961 125.253  1.00  0.00     0.211 HD
ENDBRANCH   2  10
BRANCH   3  12
ATOM     12  O   UNL     1     148.902 156.023 126.163  1.00  0.00    -0.387 OA
ATOM     13  H   UNL     1     149.878 155.843 126.150  1.00  0.00     0.211 HD
ENDBRANCH   3  12
BRANCH   5  14
ATOM     14  C   UNL     1     146.830 155.109 130.073  1.00  0.00     0.191 C 
BRANCH  14  15
ATOM     15  O   UNL     1     146.762 155.726 131.328  1.00  0.00    -0.394 OA
ATOM     16  H   UNL     1     147.556 156.319 131.388  1.00  0.00     0.210 HD
ENDBRANCH  14  15
ENDBRANCH   5  14
BRANCH   4  17
ATOM     17  O   UNL     1     150.249 155.703 128.614  1.00  0.00    -0.387 OA
ATOM     18  H   UNL     1     150.511 154.871 129.089  1.00  0.00     0.211 HD
ENDBRANCH   4  17
TORSDOF 7
ENDMDL
MODEL 4
REMARK VINA RESULT:    -4.875      2.080      3.923
REMARK INTER + INTRA:          -6.487
REMARK INTER:                  -6.281
REMARK INTRA:                  -0.207
REMARK UNBOUND:                -0.188
REMARK SMILES CCO[C@H]1O[C@H](CO)[C@@H](O)[C@@H](O)[C@@H]1O
REMARK SMILES IDX 4 1 13 2 11 3 9 4 6 5 5 6 3 7 2 8 1 9 14 10 12 12 7 14 8 15
REMARK SMILES IDX 10 17
REMARK H PARENT 14 11 12 13 8 16 10 18
REMARK Flexibility Score: inf
ROOT
ATOM      1  C   UNL     1     148.661 152.789 128.998  1.00  0.00     0.281 C 
ATOM      2  C   UNL     1     149.227 154.136 129.506  1.00  0.00     0.202 C 
ATOM      3  C   UNL     1     148.679 155.288 128.643  1.00  0.00     0.179 C 
ATOM      4  C   UNL     1     147.141 155.216 128.575  1.00  0.00     0.177 C 
ATOM      5  C   UNL     1     146.673 153.797 128.169  1.00  0.00     0.178 C 
ATOM      6  O   UNL     1     147.235 152.778 128.992  1.00  0.00    -0.341 OA
ENDROOT
BRANCH   1   7
ATOM      7  O   UNL     1     149.192 151.711 129.759  1.00  0.00    -0.350 OA
BRANCH   7   8
ATOM      8  C   UNL     1     148.545 151.554 131.008  1.00  0.00     0.160 C 
ATOM      9  C   UNL     1     149.548 151.027 132.024  1.00  0.00     0.035 C 
ENDBRANCH   7   8
ENDBRANCH   1   7
BRANCH   2  10
ATOM     10  O   UNL     1     150.634 154.127 129.494  1.00  0.00    -0.385 OA
ATOM     11  H   UNL     1     150.937 154.900 128.949  1.00  0.00     0.211 HD
ENDBRANCH   2  10
BRANCH   3  12
ATOM     12  O   UNL     1     149.111 156.541 129.117  1.00  0.00    -0.387 OA
ATOM     13  H   UNL     1     148.902 157.223 128.426  1.00  0.00     0.211 HD
ENDBRANCH   3  12
BRANCH   5  14
ATOM     14  C   UNL     1     146.836 153.504 126.664  1.00  0.00     0.191 C 
BRANCH  14  15
ATOM     15  O   UNL     1     145.755 154.045 125.957  1.00  0.00    -0.394 OA
ATOM     16  H   UNL     1     145.260 154.614 126.603  1.00  0.00     0.210 HD
ENDBRANCH  14  15
ENDBRANCH   5  14
BRANCH   4  17
ATOM     17  O   UNL     1     146.582 155.529 129.827  1.00  0.00    -0.387 OA
ATOM     18  H   UNL     1     145.944 154.803 130.054  1.00  0.00     0.211 HD
ENDBRANCH   4  17
TORSDOF 7
ENDMDL
MODEL 5
REMARK VINA RESULT:    -4.821      1.937      2.770
REMARK INTER + INTRA:          -6.418
REMARK INTER:                  -6.278
REMARK INTRA:                  -0.140
REMARK UNBOUND:                -0.188
REMARK SMILES CCO[C@H]1O[C@H](CO)[C@@H](O)[C@@H](O)[C@@H]1O
REMARK SMILES IDX 4 1 13 2 11 3 9 4 6 5 5 6 3 7 2 8 1 9 14 10 12 12 7 14 8 15
REMARK SMILES IDX 10 17
REMARK H PARENT 14 11 12 13 8 16 10 18
REMARK Flexibility Score: inf
ROOT
ATOM      1  C   UNL     1     147.706 153.921 128.461  1.00  0.00     0.281 C 
ATOM      2  C   UNL     1     148.421 154.662 129.615  1.00  0.00     0.202 C 
ATOM      3  C   UNL     1     147.428 155.606 130.319  1.00  0.00     0.179 C 
ATOM      4  C   UNL     1     146.161 154.832 130.733  1.00  0.00     0.177 C 
ATOM      5  C   UNL     1     145.589 154.033 129.536  1.00  0.00     0.178 C 
ATOM      6  O   UNL     1     146.564 153.199 128.917  1.00  0.00    -0.341 OA
ENDROOT
BRANCH   1   7
ATOM      7  O   UNL     1     148.622 153.078 127.773  1.00  0.00    -0.350 OA
BRANCH   7   8
ATOM      8  C   UNL     1     148.861 153.501 126.444  1.00  0.00     0.160 C 
ATOM      9  C   UNL     1     150.267 153.087 126.036  1.00  0.00     0.035 C 
ENDBRANCH   7   8
ENDBRANCH   1   7
BRANCH   2  10
ATOM     10  O   UNL     1     149.537 155.375 129.139  1.00  0.00    -0.385 OA
ATOM     11  H   UNL     1     149.270 155.831 128.298  1.00  0.00     0.211 HD
ENDBRANCH   2  10
BRANCH   3  12
ATOM     12  O   UNL     1     148.018 156.248 131.424  1.00  0.00    -0.387 OA
ATOM     13  H   UNL     1     148.444 155.556 131.994  1.00  0.00     0.211 HD
ENDBRANCH   3  12
BRANCH   5  14
ATOM     14  C   UNL     1     144.824 154.909 128.524  1.00  0.00     0.191 C 
BRANCH  14  15
ATOM     15  O   UNL     1     144.105 155.900 129.204  1.00  0.00    -0.394 OA
ATOM     16  H   UNL     1     143.957 155.552 130.122  1.00  0.00     0.210 HD
ENDBRANCH  14  15
ENDBRANCH   5  14
BRANCH   4  17
ATOM     17  O   UNL     1     146.458 153.931 131.771  1.00  0.00    -0.387 OA
ATOM     18  H   UNL     1     146.698 153.065 131.349  1.00  0.00     0.211 HD
ENDBRANCH   4  17
TORSDOF 7
ENDMDL
MODEL 6
REMARK VINA RESULT:    -4.815      2.105      2.895
REMARK INTER + INTRA:          -6.410
REMARK INTER:                  -6.136
REMARK INTRA:                  -0.274
REMARK UNBOUND:                -0.188
REMARK SMILES CCO[C@H]1O[C@H](CO)[C@@H](O)[C@@H](O)[C@@H]1O
REMARK SMILES IDX 4 1 13 2 11 3 9 4 6 5 5 6 3 7 2 8 1 9 14 10 12 12 7 14 8 15
REMARK SMILES IDX 10 17
REMARK H PARENT 14 11 12 13 8 16 10 18
REMARK Flexibility Score: inf
ROOT
ATOM      1  C   UNL     1     146.888 153.490 129.854  1.00  0.00     0.281 C 
ATOM      2  C   UNL     1     145.840 154.525 130.323  1.00  0.00     0.202 C 
ATOM      3  C   UNL     1     145.110 155.115 129.101  1.00  0.00     0.179 C 
ATOM      4  C   UNL     1     144.552 153.982 128.217  1.00  0.00     0.177 C 
ATOM      5  C   UNL     1     145.651 152.939 127.900  1.00  0.00     0.178 C 
ATOM      6  O   UNL     1     146.300 152.453 129.071  1.00  0.00    -0.341 OA
ENDROOT
BRANCH   1   7
ATOM      7  O   UNL     1     147.600 152.968 130.969  1.00  0.00    -0.350 OA
BRANCH   7   8
ATOM      8  C   UNL     1     148.907 152.541 130.631  1.00  0.00     0.160 C 
ATOM      9  C   UNL     1     149.588 153.629 129.814  1.00  0.00     0.035 C 
ENDBRANCH   7   8
ENDBRANCH   1   7
BRANCH   2  10
ATOM     10  O   UNL     1     146.444 155.543 131.084  1.00  0.00    -0.385 OA
ATOM     11  H   UNL     1     147.409 155.562 130.852  1.00  0.00     0.211 HD
ENDBRANCH   2  10
BRANCH   3  12
ATOM     12  O   UNL     1     144.095 156.011 129.486  1.00  0.00    -0.387 OA
ATOM     13  H   UNL     1     143.701 156.405 128.665  1.00  0.00     0.211 HD
ENDBRANCH   3  12
BRANCH   5  14
ATOM     14  C   UNL     1     146.645 153.405 126.817  1.00  0.00     0.191 C 
BRANCH  14  15
ATOM     15  O   UNL     1     145.943 153.947 125.733  1.00  0.00    -0.394 OA
ATOM     16  H   UNL     1     145.388 154.682 126.104  1.00  0.00     0.210 HD
ENDBRANCH  14  15
ENDBRANCH   5  14
BRANCH   4  17
ATOM     17  O   UNL     1     143.493 153.330 128.874  1.00  0.00    -0.387 OA
ATOM     18  H   UNL     1     143.025 154.011 129.426  1.00  0.00     0.211 HD
ENDBRANCH   4  17
TORSDOF 7
ENDMDL
MODEL 7
REMARK VINA RESULT:    -4.740      1.704      4.683
REMARK INTER + INTRA:          -6.314
REMARK INTER:                  -6.089
REMARK INTRA:                  -0.225
REMARK UNBOUND:                -0.188
REMARK SMILES CCO[C@H]1O[C@H](CO)[C@@H](O)[C@@H](O)[C@@H]1O
REMARK SMILES IDX 4 1 13 2 11 3 9 4 6 5 5 6 3 7 2 8 1 9 14 10 12 12 7 14 8 15
REMARK SMILES IDX 10 17
REMARK H PARENT 14 11 12 13 8 16 10 18
REMARK Flexibility Score: inf
ROOT
ATOM      1  C   UNL     1     146.669 153.586 128.510  1.00  0.00     0.281 C 
ATOM      2  C   UNL     1     147.348 153.962 127.173  1.00  0.00     0.202 C 
ATOM      3  C   UNL     1     148.198 155.233 127.362  1.00  0.00     0.179 C 
ATOM      4  C   UNL     1     149.162 155.056 128.551  1.00  0.00     0.177 C 
ATOM      5  C   UNL     1     148.401 154.568 129.809  1.00  0.00     0.178 C 
ATOM      6  O   UNL     1     147.618 153.404 129.559  1.00  0.00    -0.341 OA
ENDROOT
BRANCH   1   7
ATOM      7  O   UNL     1     145.845 152.439 128.341  1.00  0.00    -0.350 OA
BRANCH   7   8
ATOM      8  C   UNL     1     144.699 152.463 129.170  1.00  0.00     0.160 C 
ATOM      9  C   UNL     1     144.109 153.865 129.162  1.00  0.00     0.035 C 
ENDBRANCH   7   8
ENDBRANCH   1   7
BRANCH   2  10
ATOM     10  O   UNL     1     146.392 154.147 126.157  1.00  0.00    -0.385 OA
ATOM     11  H   UNL     1     146.763 153.766 125.318  1.00  0.00     0.211 HD
ENDBRANCH   2  10
BRANCH   3  12
ATOM     12  O   UNL     1     148.894 155.571 126.186  1.00  0.00    -0.387 OA
ATOM     13  H   UNL     1     149.857 155.664 126.411  1.00  0.00     0.211 HD
ENDBRANCH   3  12
BRANCH   5  14
ATOM     14  C   UNL     1     147.604 155.683 130.515  1.00  0.00     0.191 C 
BRANCH  14  15
ATOM     15  O   UNL     1     146.676 155.115 131.397  1.00  0.00    -0.394 OA
ATOM     16  H   UNL     1     145.805 155.549 131.198  1.00  0.00     0.210 HD
ENDBRANCH  14  15
ENDBRANCH   5  14
BRANCH   4  17
ATOM     17  O   UNL     1     150.156 154.112 128.236  1.00  0.00    -0.387 OA
ATOM     18  H   UNL     1     151.028 154.589 128.246  1.00  0.00     0.211 HD
ENDBRANCH   4  17
TORSDOF 7
ENDMDL
MODEL 8
REMARK VINA RESULT:    -4.719      2.403      3.948
REMARK INTER + INTRA:          -6.286
REMARK INTER:                  -6.053
REMARK INTRA:                  -0.234
REMARK UNBOUND:                -0.188
REMARK SMILES CCO[C@H]1O[C@H](CO)[C@@H](O)[C@@H](O)[C@@H]1O
REMARK SMILES IDX 4 1 13 2 11 3 9 4 6 5 5 6 3 7 2 8 1 9 14 10 12 12 7 14 8 15
REMARK SMILES IDX 10 17
REMARK H PARENT 14 11 12 13 8 16 10 18
REMARK Flexibility Score: inf
ROOT
ATOM      1  C   UNL     1     149.185 153.910 127.770  1.00  0.00     0.281 C 
ATOM      2  C   UNL     1     147.956 154.848 127.732  1.00  0.00     0.202 C 
ATOM      3  C   UNL     1     147.059 154.578 128.955  1.00  0.00     0.179 C 
ATOM      4  C   UNL     1     147.890 154.651 130.251  1.00  0.00     0.177 C 
ATOM      5  C   UNL     1     149.157 153.767 130.143  1.00  0.00     0.178 C 
ATOM      6  O   UNL     1     149.927 154.053 128.980  1.00  0.00    -0.341 OA
ENDROOT
BRANCH   1   7
ATOM      7  O   UNL     1     150.002 154.118 126.624  1.00  0.00    -0.350 OA
BRANCH   7   8
ATOM      8  C   UNL     1     150.420 152.906 126.025  1.00  0.00     0.160 C 
ATOM      9  C   UNL     1     149.470 151.793 126.441  1.00  0.00     0.035 C 
ENDBRANCH   7   8
ENDBRANCH   1   7
BRANCH   2  10
ATOM     10  O   UNL     1     147.235 154.683 126.535  1.00  0.00    -0.385 OA
ATOM     11  H   UNL     1     146.756 153.814 126.587  1.00  0.00     0.211 HD
ENDBRANCH   2  10
BRANCH   3  12
ATOM     12  O   UNL     1     145.964 155.461 128.999  1.00  0.00    -0.387 OA
ATOM     13  H   UNL     1     145.692 155.571 129.947  1.00  0.00     0.211 HD
ENDBRANCH   3  12
BRANCH   5  14
ATOM     14  C   UNL     1     148.870 152.262 130.314  1.00  0.00     0.191 C 
BRANCH  14  15
ATOM     15  O   UNL     1     149.855 151.682 131.124  1.00  0.00    -0.394 OA
ATOM     16  H   UNL     1     150.608 152.328 131.147  1.00  0.00     0.210 HD
ENDBRANCH  14  15
ENDBRANCH   5  14
BRANCH   4  17
ATOM     17  O   UNL     1     148.290 155.977 130.498  1.00  0.00    -0.387 OA
ATOM     18  H   UNL     1     149.227 155.945 130.826  1.00  0.00     0.211 HD
ENDBRANCH   4  17
TORSDOF 7
ENDMDL
MODEL 9
REMARK VINA RESULT:    -4.701      2.151      4.288
REMARK INTER + INTRA:          -6.263
REMARK INTER:                  -6.014
REMARK INTRA:                  -0.249
REMARK UNBOUND:                -0.188
REMARK SMILES CCO[C@H]1O[C@H](CO)[C@@H](O)[C@@H](O)[C@@H]1O
REMARK SMILES IDX 4 1 13 2 11 3 9 4 6 5 5 6 3 7 2 8 1 9 14 10 12 12 7 14 8 15
REMARK SMILES IDX 10 17
REMARK H PARENT 14 11 12 13 8 16 10 18
REMARK Flexibility Score: inf
ROOT
ATOM      1  C   UNL     1     147.518 153.809 127.510  1.00  0.00     0.281 C 
ATOM      2  C   UNL     1     148.974 154.307 127.357  1.00  0.00     0.202 C 
ATOM      3  C   UNL     1     149.351 155.187 128.564  1.00  0.00     0.179 C 
ATOM      4  C   UNL     1     149.057 154.439 129.879  1.00  0.00     0.177 C 
ATOM      5  C   UNL     1     147.612 153.881 129.884  1.00  0.00     0.178 C 
ATOM      6  O   UNL     1     147.323 153.098 128.730  1.00  0.00    -0.341 OA
ENDROOT
BRANCH   1   7
ATOM      7  O   UNL     1     147.141 153.031 126.381  1.00  0.00    -0.350 OA
BRANCH   7   8
ATOM      8  C   UNL     1     147.722 151.740 126.389  1.00  0.00     0.160 C 
ATOM      9  C   UNL     1     148.315 151.454 125.018  1.00  0.00     0.035 C 
ENDBRANCH   7   8
ENDBRANCH   1   7
BRANCH   2  10
ATOM     10  O   UNL     1     149.140 155.015 126.152  1.00  0.00    -0.385 OA
ATOM     11  H   UNL     1     148.981 155.977 126.341  1.00  0.00     0.211 HD
ENDBRANCH   2  10
BRANCH   3  12
ATOM     12  O   UNL     1     150.694 155.603 128.503  1.00  0.00    -0.387 OA
ATOM     13  H   UNL     1     150.779 156.274 127.776  1.00  0.00     0.211 HD
ENDBRANCH   3  12
BRANCH   5  14
ATOM     14  C   UNL     1     146.541 154.956 130.159  1.00  0.00     0.191 C 
BRANCH  14  15
ATOM     15  O   UNL     1     146.823 155.607 131.367  1.00  0.00    -0.394 OA
ATOM     16  H   UNL     1     146.220 155.204 132.044  1.00  0.00     0.210 HD
ENDBRANCH  14  15
ENDBRANCH   5  14
BRANCH   4  17
ATOM     17  O   UNL     1     149.951 153.365 130.039  1.00  0.00    -0.387 OA
ATOM     18  H   UNL     1     150.404 153.487 130.915  1.00  0.00     0.211 HD
ENDBRANCH   4  17
TORSDOF 7
ENDMDL
