MODEL 1
REMARK VINA RESULT:    -3.775      0.000      0.000
REMARK INTER + INTRA:          -4.275
REMARK INTER:                  -4.106
REMARK INTRA:                  -0.169
REMARK UNBOUND:                -0.169
REMARK SMILES C=C(C)[C@@H]1CC[C@@H](C)C[C@H]1O
REMARK SMILES IDX 8 1 7 2 6 3 5 4 4 5 10 6 9 7 11 8 2 10 1 11 3 12
REMARK H PARENT 11 9
REMARK Flexibility Score: inf
ROOT
ATOM      1  C   UNL     1      -3.130   3.404  -7.663  1.00  0.00     0.008 C 
ATOM      2  C   UNL     1      -1.791   3.534  -6.930  1.00  0.00    -0.012 C 
ATOM      3  C   UNL     1      -0.734   2.614  -7.569  1.00  0.00     0.004 C 
ATOM      4  C   UNL     1       0.606   2.726  -6.833  1.00  0.00     0.011 C 
ATOM      5  C   UNL     1       0.445   2.402  -5.333  1.00  0.00     0.043 C 
ATOM      6  C   UNL     1      -0.623   3.316  -4.682  1.00  0.00     0.121 C 
ATOM      7  C   UNL     1      -1.959   3.202  -5.434  1.00  0.00     0.035 C 
ENDROOT
BRANCH   6   8
ATOM      8  O   UNL     1      -0.830   2.939  -3.345  1.00  0.00    -0.392 OA
ATOM      9  H   UNL     1      -1.044   1.970  -3.345  1.00  0.00     0.210 HD
ENDBRANCH   6   8
BRANCH   5  10
ATOM     10  C   UNL     1       1.785   2.491  -4.613  1.00  0.00    -0.075 C 
ATOM     11  C   UNL     1       2.600   3.545  -4.782  1.00  0.00     0.008 C 
ATOM     12  C   UNL     1       2.218   1.385  -3.684  1.00  0.00     0.039 C 
ENDBRANCH   5  10
TORSDOF 2
ENDMDL
MODEL 2
REMARK VINA RESULT:    -3.695      1.606      4.405
REMARK INTER + INTRA:          -4.188
REMARK INTER:                  -4.113
REMARK INTRA:                  -0.075
REMARK UNBOUND:                -0.169
REMARK SMILES C=C(C)[C@@H]1CC[C@@H](C)C[C@H]1O
REMARK SMILES IDX 8 1 7 2 6 3 5 4 4 5 10 6 9 7 11 8 2 10 1 11 3 12
REMARK H PARENT 11 9
REMARK Flexibility Score: inf
ROOT
ATOM      1  C   UNL     1       3.065   2.968  -4.533  1.00  0.00     0.008 C 
ATOM      2  C   UNL     1       1.641   3.289  -5.000  1.00  0.00    -0.012 C 
ATOM      3  C   UNL     1       1.188   4.655  -4.452  1.00  0.00     0.004 C 
ATOM      4  C   UNL     1      -0.242   4.978  -4.902  1.00  0.00     0.011 C 
ATOM      5  C   UNL     1      -1.224   3.870  -4.470  1.00  0.00     0.043 C 
ATOM      6  C   UNL     1      -0.773   2.490  -5.009  1.00  0.00     0.121 C 
ATOM      7  C   UNL     1       0.664   2.181  -4.559  1.00  0.00     0.035 C 
ENDROOT
BRANCH   6   8
ATOM      8  O   UNL     1      -1.620   1.481  -4.522  1.00  0.00    -0.392 OA
ATOM      9  H   UNL     1      -2.550   1.756  -4.732  1.00  0.00     0.210 HD
ENDBRANCH   6   8
BRANCH   5  10
ATOM     10  C   UNL     1      -2.646   4.211  -4.898  1.00  0.00    -0.075 C 
ATOM     11  C   UNL     1      -3.475   4.894  -4.090  1.00  0.00     0.008 C 
ATOM     12  C   UNL     1      -3.150   3.786  -6.254  1.00  0.00     0.039 C 
ENDBRANCH   5  10
TORSDOF 2
ENDMDL
MODEL 3
REMARK VINA RESULT:    -3.554      1.761      4.482
REMARK INTER + INTRA:          -4.035
REMARK INTER:                  -3.846
REMARK INTRA:                  -0.189
REMARK UNBOUND:                -0.169
REMARK SMILES C=C(C)[C@@H]1CC[C@@H](C)C[C@H]1O
REMARK SMILES IDX 8 1 7 2 6 3 5 4 4 5 10 6 9 7 11 8 2 10 1 11 3 12
REMARK H PARENT 11 9
REMARK Flexibility Score: inf
ROOT
ATOM      1  C   UNL     1       3.712   2.525  -4.583  1.00  0.00     0.008 C 
ATOM      2  C   UNL     1       2.241   2.952  -4.526  1.00  0.00    -0.012 C 
ATOM      3  C   UNL     1       1.356   1.780  -4.061  1.00  0.00     0.004 C 
ATOM      4  C   UNL     1      -0.120   2.194  -4.014  1.00  0.00     0.011 C 
ATOM      5  C   UNL     1      -0.593   2.719  -5.386  1.00  0.00     0.043 C 
ATOM      6  C   UNL     1       0.296   3.893  -5.866  1.00  0.00     0.121 C 
ATOM      7  C   UNL     1       1.773   3.468  -5.900  1.00  0.00     0.035 C 
ENDROOT
BRANCH   6   8
ATOM      8  O   UNL     1      -0.085   4.289  -7.159  1.00  0.00    -0.392 OA
ATOM      9  H   UNL     1      -0.323   3.464  -7.657  1.00  0.00     0.210 HD
ENDBRANCH   6   8
BRANCH   5  10
ATOM     10  C   UNL     1      -2.067   3.104  -5.338  1.00  0.00    -0.075 C 
ATOM     11  C   UNL     1      -2.969   2.518  -6.144  1.00  0.00     0.008 C 
ATOM     12  C   UNL     1      -2.542   4.158  -4.370  1.00  0.00     0.039 C 
ENDBRANCH   5  10
TORSDOF 2
ENDMDL
MODEL 4
REMARK VINA RESULT:    -3.546      9.477     11.646
REMARK INTER + INTRA:          -4.025
REMARK INTER:                  -3.857
REMARK INTRA:                  -0.168
REMARK UNBOUND:                -0.169
REMARK SMILES C=C(C)[C@@H]1CC[C@@H](C)C[C@H]1O
REMARK SMILES IDX 8 1 7 2 6 3 5 4 4 5 10 6 9 7 11 8 2 10 1 11 3 12
REMARK H PARENT 11 9
REMARK Flexibility Score: inf
ROOT
ATOM      1  C   UNL     1       5.645  -7.344  -1.136  1.00  0.00     0.008 C 
ATOM      2  C   UNL     1       4.296  -6.629  -0.999  1.00  0.00    -0.012 C 
ATOM      3  C   UNL     1       4.139  -6.038   0.414  1.00  0.00     0.004 C 
ATOM      4  C   UNL     1       2.785  -5.333   0.564  1.00  0.00     0.011 C 
ATOM      5  C   UNL     1       1.620  -6.293   0.248  1.00  0.00     0.043 C 
ATOM      6  C   UNL     1       1.774  -6.901  -1.169  1.00  0.00     0.121 C 
ATOM      7  C   UNL     1       3.137  -7.597  -1.310  1.00  0.00     0.035 C 
ENDROOT
BRANCH   6   8
ATOM      8  O   UNL     1       0.762  -7.848  -1.399  1.00  0.00    -0.392 OA
ATOM      9  H   UNL     1      -0.071  -7.344  -1.588  1.00  0.00     0.210 HD
ENDBRANCH   6   8
BRANCH   5  10
ATOM     10  C   UNL     1       0.279  -5.593   0.424  1.00  0.00    -0.075 C 
ATOM     11  C   UNL     1      -0.682  -6.110   1.210  1.00  0.00     0.008 C 
ATOM     12  C   UNL     1       0.007  -4.290  -0.285  1.00  0.00     0.039 C 
ENDBRANCH   5  10
TORSDOF 2
ENDMDL
MODEL 5
REMARK VINA RESULT:    -3.500      2.311      3.250
REMARK INTER + INTRA:          -3.975
REMARK INTER:                  -3.787
REMARK INTRA:                  -0.188
REMARK UNBOUND:                -0.169
REMARK SMILES C=C(C)[C@@H]1CC[C@@H](C)C[C@H]1O
REMARK SMILES IDX 8 1 7 2 6 3 5 4 4 5 10 6 9 7 11 8 2 10 1 11 3 12
REMARK H PARENT 11 9
REMARK Flexibility Score: inf
ROOT
ATOM      1  C   UNL     1      -3.537   7.075  -4.299  1.00  0.00     0.008 C 
ATOM      2  C   UNL     1      -2.544   6.005  -4.767  1.00  0.00    -0.012 C 
ATOM      3  C   UNL     1      -3.061   4.598  -4.416  1.00  0.00     0.004 C 
ATOM      4  C   UNL     1      -2.067   3.521  -4.868  1.00  0.00     0.011 C 
ATOM      5  C   UNL     1      -0.674   3.756  -4.248  1.00  0.00     0.043 C 
ATOM      6  C   UNL     1      -0.149   5.173  -4.589  1.00  0.00     0.121 C 
ATOM      7  C   UNL     1      -1.157   6.242  -4.139  1.00  0.00     0.035 C 
ENDROOT
BRANCH   6   8
ATOM      8  O   UNL     1       1.072   5.405  -3.933  1.00  0.00    -0.392 OA
ATOM      9  H   UNL     1       1.704   5.758  -4.611  1.00  0.00     0.210 HD
ENDBRANCH   6   8
BRANCH   5  10
ATOM     10  C   UNL     1       0.301   2.668  -4.682  1.00  0.00    -0.075 C 
ATOM     11  C   UNL     1       0.718   1.721  -3.824  1.00  0.00     0.008 C 
ATOM     12  C   UNL     1       0.815   2.635  -6.099  1.00  0.00     0.039 C 
ENDBRANCH   5  10
TORSDOF 2
ENDMDL
MODEL 6
REMARK VINA RESULT:    -3.378      1.031      4.286
REMARK INTER + INTRA:          -3.843
REMARK INTER:                  -3.690
REMARK INTRA:                  -0.153
REMARK UNBOUND:                -0.169
REMARK SMILES C=C(C)[C@@H]1CC[C@@H](C)C[C@H]1O
REMARK SMILES IDX 8 1 7 2 6 3 5 4 4 5 10 6 9 7 11 8 2 10 1 11 3 12
REMARK H PARENT 11 9
REMARK Flexibility Score: inf
ROOT
ATOM      1  C   UNL     1       2.274   2.227  -4.219  1.00  0.00     0.008 C 
ATOM      2  C   UNL     1       0.918   2.209  -4.933  1.00  0.00    -0.012 C 
ATOM      3  C   UNL     1       1.037   2.835  -6.335  1.00  0.00     0.004 C 
ATOM      4  C   UNL     1      -0.319   2.834  -7.051  1.00  0.00     0.011 C 
ATOM      5  C   UNL     1      -1.388   3.572  -6.218  1.00  0.00     0.043 C 
ATOM      6  C   UNL     1      -1.509   2.955  -4.802  1.00  0.00     0.121 C 
ATOM      7  C   UNL     1      -0.143   2.953  -4.098  1.00  0.00     0.035 C 
ENDROOT
BRANCH   6   8
ATOM      8  O   UNL     1      -2.411   3.702  -4.026  1.00  0.00    -0.392 OA
ATOM      9  H   UNL     1      -2.707   4.469  -4.582  1.00  0.00     0.210 HD
ENDBRANCH   6   8
BRANCH   5  10
ATOM     10  C   UNL     1      -2.726   3.589  -6.947  1.00  0.00    -0.075 C 
ATOM     11  C   UNL     1      -3.216   2.483  -7.533  1.00  0.00     0.008 C 
ATOM     12  C   UNL     1      -3.532   4.861  -7.020  1.00  0.00     0.039 C 
ENDBRANCH   5  10
TORSDOF 2
ENDMDL
MODEL 7
REMARK VINA RESULT:    -3.326      2.222      3.033
REMARK INTER + INTRA:          -3.787
REMARK INTER:                  -3.602
REMARK INTRA:                  -0.185
REMARK UNBOUND:                -0.169
REMARK SMILES C=C(C)[C@@H]1CC[C@@H](C)C[C@H]1O
REMARK SMILES IDX 8 1 7 2 6 3 5 4 4 5 10 6 9 7 11 8 2 10 1 11 3 12
REMARK H PARENT 11 9
REMARK Flexibility Score: inf
ROOT
ATOM      1  C   UNL     1      -4.230   6.472  -4.373  1.00  0.00     0.008 C 
ATOM      2  C   UNL     1      -3.117   5.426  -4.246  1.00  0.00    -0.012 C 
ATOM      3  C   UNL     1      -1.738   6.075  -4.472  1.00  0.00     0.004 C 
ATOM      4  C   UNL     1      -0.618   5.033  -4.361  1.00  0.00     0.011 C 
ATOM      5  C   UNL     1      -0.840   3.872  -5.353  1.00  0.00     0.043 C 
ATOM      6  C   UNL     1      -2.227   3.219  -5.139  1.00  0.00     0.121 C 
ATOM      7  C   UNL     1      -3.340   4.274  -5.244  1.00  0.00     0.035 C 
ENDROOT
BRANCH   6   8
ATOM      8  O   UNL     1      -2.452   2.234  -6.116  1.00  0.00    -0.392 OA
ATOM      9  H   UNL     1      -2.432   2.689  -6.998  1.00  0.00     0.210 HD
ENDBRANCH   6   8
BRANCH   5  10
ATOM     10  C   UNL     1       0.290   2.854  -5.255  1.00  0.00    -0.075 C 
ATOM     11  C   UNL     1       1.225   2.753  -6.215  1.00  0.00     0.008 C 
ATOM     12  C   UNL     1       0.380   1.937  -4.062  1.00  0.00     0.039 C 
ENDBRANCH   5  10
TORSDOF 2
ENDMDL
MODEL 8
REMARK VINA RESULT:    -3.305      4.866      7.881
REMARK INTER + INTRA:          -3.764
REMARK INTER:                  -3.601
REMARK INTRA:                  -0.162
REMARK UNBOUND:                -0.169
REMARK SMILES C=C(C)[C@@H]1CC[C@@H](C)C[C@H]1O
REMARK SMILES IDX 8 1 7 2 6 3 5 4 4 5 10 6 9 7 11 8 2 10 1 11 3 12
REMARK H PARENT 11 9
REMARK Flexibility Score: inf
ROOT
ATOM      1  C   UNL     1       7.172  -3.432  -1.575  1.00  0.00     0.008 C 
ATOM      2  C   UNL     1       6.044  -2.521  -2.071  1.00  0.00    -0.012 C 
ATOM      3  C   UNL     1       6.449  -1.823  -3.382  1.00  0.00     0.004 C 
ATOM      4  C   UNL     1       5.331  -0.898  -3.878  1.00  0.00     0.011 C 
ATOM      5  C   UNL     1       4.955   0.144  -2.804  1.00  0.00     0.043 C 
ATOM      6  C   UNL     1       4.554  -0.548  -1.478  1.00  0.00     0.121 C 
ATOM      7  C   UNL     1       5.678  -1.479  -0.996  1.00  0.00     0.035 C 
ENDROOT
BRANCH   6   8
ATOM      8  O   UNL     1       4.315   0.415  -0.484  1.00  0.00    -0.392 OA
ATOM      9  H   UNL     1       3.492   0.905  -0.746  1.00  0.00     0.210 HD
ENDBRANCH   6   8
BRANCH   5  10
ATOM     10  C   UNL     1       3.862   1.075  -3.314  1.00  0.00    -0.075 C 
ATOM     11  C   UNL     1       4.146   2.315  -3.748  1.00  0.00     0.008 C 
ATOM     12  C   UNL     1       2.428   0.612  -3.343  1.00  0.00     0.039 C 
ENDBRANCH   5  10
TORSDOF 2
ENDMDL
MODEL 9
REMARK VINA RESULT:    -3.223      3.029      4.848
REMARK INTER + INTRA:          -3.674
REMARK INTER:                  -3.488
REMARK INTRA:                  -0.186
REMARK UNBOUND:                -0.169
REMARK SMILES C=C(C)[C@@H]1CC[C@@H](C)C[C@H]1O
REMARK SMILES IDX 8 1 7 2 6 3 5 4 4 5 10 6 9 7 11 8 2 10 1 11 3 12
REMARK H PARENT 11 9
REMARK Flexibility Score: inf
ROOT
ATOM      1  C   UNL     1       0.920   3.661  -5.202  1.00  0.00     0.008 C 
ATOM      2  C   UNL     1       1.906   2.534  -4.877  1.00  0.00    -0.012 C 
ATOM      3  C   UNL     1       1.357   1.645  -3.746  1.00  0.00     0.004 C 
ATOM      4  C   UNL     1       2.344   0.523  -3.404  1.00  0.00     0.011 C 
ATOM      5  C   UNL     1       3.724   1.095  -3.019  1.00  0.00     0.043 C 
ATOM      6  C   UNL     1       4.282   1.999  -4.147  1.00  0.00     0.121 C 
ATOM      7  C   UNL     1       3.280   3.114  -4.487  1.00  0.00     0.035 C 
ENDROOT
BRANCH   6   8
ATOM      8  O   UNL     1       5.488   2.591  -3.738  1.00  0.00    -0.392 OA
ATOM      9  H   UNL     1       5.340   2.952  -2.825  1.00  0.00     0.210 HD
ENDBRANCH   6   8
BRANCH   5  10
ATOM     10  C   UNL     1       4.692  -0.025  -2.656  1.00  0.00    -0.075 C 
ATOM     11  C   UNL     1       5.061  -0.243  -1.383  1.00  0.00     0.008 C 
ATOM     12  C   UNL     1       5.252  -0.918  -3.733  1.00  0.00     0.039 C 
ENDBRANCH   5  10
TORSDOF 2
ENDMDL
