MODEL 1
REMARK VINA RESULT:    -4.298      0.000      0.000
REMARK INTER + INTRA:          -6.079
REMARK INTER:                  -5.806
REMARK INTRA:                  -0.273
REMARK UNBOUND:                -0.273
REMARK SMILES CCCCCCC=CC(=O)[O-]
REMARK SMILES IDX 5 1 6 2 7 3 8 4 9 5 10 6 11 7 4 8 3 9 2 10 1 11
REMARK H PARENT
REMARK Flexibility Score: inf
ROOT
ATOM      1  C   UNL     1      31.386   8.618  48.664  1.00  0.00     0.004 C 
ENDROOT
BRANCH   1   2
ATOM      2  C   UNL     1      32.656   7.772  48.816  1.00  0.00     0.027 C 
BRANCH   2   3
ATOM      3  C   UNL     1      33.406   7.662  47.517  1.00  0.00    -0.025 C 
ATOM      4  C   UNL     1      33.327   6.566  46.753  1.00  0.00     0.020 C 
BRANCH   4   5
ATOM      5  C   UNL     1      34.081   6.426  45.498  1.00  0.00     0.064 C 
ATOM      6  O   UNL     1      34.027   7.313  44.603  1.00  0.00    -0.545 OA
ATOM      7  O   UNL     1      34.865   5.299  45.294  1.00  0.00    -0.545 OA
ENDBRANCH   4   5
ENDBRANCH   2   3
ENDBRANCH   1   2
BRANCH   1   8
ATOM      8  C   UNL     1      30.114   7.814  48.971  1.00  0.00     0.000 C 
BRANCH   8   9
ATOM      9  C   UNL     1      30.054   6.535  48.126  1.00  0.00    -0.000 C 
BRANCH   9  10
ATOM     10  C   UNL     1      28.902   5.632  48.579  1.00  0.00    -0.003 C 
ATOM     11  C   UNL     1      27.840   5.505  47.490  1.00  0.00     0.004 C 
ENDBRANCH   9  10
ENDBRANCH   8   9
ENDBRANCH   1   8
TORSDOF 6
ENDMDL
MODEL 2
REMARK VINA RESULT:    -4.221      1.353      3.135
REMARK INTER + INTRA:          -5.975
REMARK INTER:                  -5.294
REMARK INTRA:                  -0.681
REMARK UNBOUND:                -0.273
REMARK SMILES CCCCCCC=CC(=O)[O-]
REMARK SMILES IDX 5 1 6 2 7 3 8 4 9 5 10 6 11 7 4 8 3 9 2 10 1 11
REMARK H PARENT
REMARK Flexibility Score: inf
ROOT
ATOM      1  C   UNL     1      30.598   6.810  48.097  1.00  0.00     0.004 C 
ENDROOT
BRANCH   1   2
ATOM      2  C   UNL     1      31.870   6.133  48.623  1.00  0.00     0.027 C 
BRANCH   2   3
ATOM      3  C   UNL     1      32.860   5.885  47.519  1.00  0.00    -0.025 C 
ATOM      4  C   UNL     1      33.103   6.803  46.576  1.00  0.00     0.020 C 
BRANCH   4   5
ATOM      5  C   UNL     1      34.042   6.565  45.469  1.00  0.00     0.064 C 
ATOM      6  O   UNL     1      34.719   5.503  45.405  1.00  0.00    -0.545 OA
ATOM      7  O   UNL     1      34.186   7.525  44.477  1.00  0.00    -0.545 OA
ENDBRANCH   4   5
ENDBRANCH   2   3
ENDBRANCH   1   2
BRANCH   1   8
ATOM      8  C   UNL     1      30.200   8.031  48.940  1.00  0.00     0.000 C 
BRANCH   8   9
ATOM      9  C   UNL     1      31.439   8.800  49.415  1.00  0.00    -0.000 C 
BRANCH   9  10
ATOM     10  C   UNL     1      31.741   9.982  48.488  1.00  0.00    -0.003 C 
ATOM     11  C   UNL     1      33.236  10.094  48.205  1.00  0.00     0.004 C 
ENDBRANCH   9  10
ENDBRANCH   8   9
ENDBRANCH   1   8
TORSDOF 6
ENDMDL
MODEL 3
REMARK VINA RESULT:    -4.202      3.410      5.835
REMARK INTER + INTRA:          -5.949
REMARK INTER:                  -5.717
REMARK INTRA:                  -0.232
REMARK UNBOUND:                -0.273
REMARK SMILES CCCCCCC=CC(=O)[O-]
REMARK SMILES IDX 5 1 6 2 7 3 8 4 9 5 10 6 11 7 4 8 3 9 2 10 1 11
REMARK H PARENT
REMARK Flexibility Score: inf
ROOT
ATOM      1  C   UNL     1      33.914   6.998  45.099  1.00  0.00     0.004 C 
ENDROOT
BRANCH   1   2
ATOM      2  C   UNL     1      33.783   6.279  46.448  1.00  0.00     0.027 C 
BRANCH   2   3
ATOM      3  C   UNL     1      32.661   6.850  47.270  1.00  0.00    -0.025 C 
ATOM      4  C   UNL     1      31.470   6.244  47.349  1.00  0.00     0.020 C 
BRANCH   4   5
ATOM      5  C   UNL     1      30.351   6.805  48.120  1.00  0.00     0.064 C 
ATOM      6  O   UNL     1      29.253   6.193  48.217  1.00  0.00    -0.545 OA
ATOM      7  O   UNL     1      30.505   8.031  48.753  1.00  0.00    -0.545 OA
ENDBRANCH   4   5
ENDBRANCH   2   3
ENDBRANCH   1   2
BRANCH   1   8
ATOM      8  C   UNL     1      34.209   8.497  45.267  1.00  0.00     0.000 C 
BRANCH   8   9
ATOM      9  C   UNL     1      34.642   9.124  43.937  1.00  0.00    -0.000 C 
BRANCH   9  10
ATOM     10  C   UNL     1      34.324  10.623  43.907  1.00  0.00    -0.003 C 
ATOM     11  C   UNL     1      34.913  11.336  45.120  1.00  0.00     0.004 C 
ENDBRANCH   9  10
ENDBRANCH   8   9
ENDBRANCH   1   8
TORSDOF 6
ENDMDL
MODEL 4
REMARK VINA RESULT:    -4.092     16.809     18.228
REMARK INTER + INTRA:          -5.801
REMARK INTER:                  -5.303
REMARK INTRA:                  -0.498
REMARK UNBOUND:                -0.273
REMARK SMILES CCCCCCC=CC(=O)[O-]
REMARK SMILES IDX 5 1 6 2 7 3 8 4 9 5 10 6 11 7 4 8 3 9 2 10 1 11
REMARK H PARENT
REMARK Flexibility Score: inf
ROOT
ATOM      1  C   UNL     1      20.911  12.794  35.866  1.00  0.00     0.004 C 
ENDROOT
BRANCH   1   2
ATOM      2  C   UNL     1      20.018  13.700  35.009  1.00  0.00     0.027 C 
BRANCH   2   3
ATOM      3  C   UNL     1      20.822  14.475  34.002  1.00  0.00    -0.025 C 
ATOM      4  C   UNL     1      21.085  13.983  32.786  1.00  0.00     0.020 C 
BRANCH   4   5
ATOM      5  C   UNL     1      21.900  14.712  31.801  1.00  0.00     0.064 C 
ATOM      6  O   UNL     1      22.617  14.098  30.966  1.00  0.00    -0.545 OA
ATOM      7  O   UNL     1      21.879  16.099  31.791  1.00  0.00    -0.545 OA
ENDBRANCH   4   5
ENDBRANCH   2   3
ENDBRANCH   1   2
BRANCH   1   8
ATOM      8  C   UNL     1      20.461  11.326  35.822  1.00  0.00     0.000 C 
BRANCH   8   9
ATOM      9  C   UNL     1      21.644  10.397  35.523  1.00  0.00    -0.000 C 
BRANCH   9  10
ATOM     10  C   UNL     1      22.835  11.185  34.969  1.00  0.00    -0.003 C 
ATOM     11  C   UNL     1      24.119  10.845  35.721  1.00  0.00     0.004 C 
ENDBRANCH   9  10
ENDBRANCH   8   9
ENDBRANCH   1   8
TORSDOF 6
ENDMDL
MODEL 5
REMARK VINA RESULT:    -3.879      2.826      4.681
REMARK INTER + INTRA:          -5.513
REMARK INTER:                  -4.978
REMARK INTRA:                  -0.536
REMARK UNBOUND:                -0.273
REMARK SMILES CCCCCCC=CC(=O)[O-]
REMARK SMILES IDX 5 1 6 2 7 3 8 4 9 5 10 6 11 7 4 8 3 9 2 10 1 11
REMARK H PARENT
REMARK Flexibility Score: inf
ROOT
ATOM      1  C   UNL     1      31.053   6.623  47.575  1.00  0.00     0.004 C 
ENDROOT
BRANCH   1   2
ATOM      2  C   UNL     1      30.393   7.474  48.666  1.00  0.00     0.027 C 
BRANCH   2   3
ATOM      3  C   UNL     1      31.327   8.533  49.181  1.00  0.00    -0.025 C 
ATOM      4  C   UNL     1      31.729   9.550  48.408  1.00  0.00     0.020 C 
BRANCH   4   5
ATOM      5  C   UNL     1      32.670  10.576  48.884  1.00  0.00     0.064 C 
ATOM      6  O   UNL     1      32.431  11.249  49.922  1.00  0.00    -0.545 OA
ATOM      7  O   UNL     1      33.842  10.807  48.177  1.00  0.00    -0.545 OA
ENDBRANCH   4   5
ENDBRANCH   2   3
ENDBRANCH   1   2
BRANCH   1   8
ATOM      8  C   UNL     1      32.030   5.590  48.157  1.00  0.00     0.000 C 
BRANCH   8   9
ATOM      9  C   UNL     1      33.427   5.747  47.543  1.00  0.00    -0.000 C 
BRANCH   9  10
ATOM     10  C   UNL     1      33.485   6.965  46.614  1.00  0.00    -0.003 C 
ATOM     11  C   UNL     1      33.939   6.567  45.213  1.00  0.00     0.004 C 
ENDBRANCH   9  10
ENDBRANCH   8   9
ENDBRANCH   1   8
TORSDOF 6
ENDMDL
MODEL 6
REMARK VINA RESULT:    -3.876      3.200      4.759
REMARK INTER + INTRA:          -5.509
REMARK INTER:                  -4.807
REMARK INTRA:                  -0.702
REMARK UNBOUND:                -0.273
REMARK SMILES CCCCCCC=CC(=O)[O-]
REMARK SMILES IDX 5 1 6 2 7 3 8 4 9 5 10 6 11 7 4 8 3 9 2 10 1 11
REMARK H PARENT
REMARK Flexibility Score: inf
ROOT
ATOM      1  C   UNL     1      33.457   7.426  47.041  1.00  0.00     0.004 C 
ENDROOT
BRANCH   1   2
ATOM      2  C   UNL     1      33.161   5.994  47.505  1.00  0.00     0.027 C 
BRANCH   2   3
ATOM      3  C   UNL     1      31.884   5.923  48.295  1.00  0.00    -0.025 C 
ATOM      4  C   UNL     1      30.695   6.165  47.730  1.00  0.00     0.020 C 
BRANCH   4   5
ATOM      5  C   UNL     1      29.439   6.135  48.495  1.00  0.00     0.064 C 
ATOM      6  O   UNL     1      28.361   5.751  47.965  1.00  0.00    -0.545 OA
ATOM      7  O   UNL     1      29.439   6.535  49.824  1.00  0.00    -0.545 OA
ENDBRANCH   4   5
ENDBRANCH   2   3
ENDBRANCH   1   2
BRANCH   1   8
ATOM      8  C   UNL     1      33.603   8.399  48.221  1.00  0.00     0.000 C 
BRANCH   8   9
ATOM      9  C   UNL     1      32.910   9.734  47.921  1.00  0.00    -0.000 C 
BRANCH   9  10
ATOM     10  C   UNL     1      31.714   9.953  48.853  1.00  0.00    -0.003 C 
ATOM     11  C   UNL     1      31.824   9.088  50.105  1.00  0.00     0.004 C 
ENDBRANCH   9  10
ENDBRANCH   8   9
ENDBRANCH   1   8
TORSDOF 6
ENDMDL
MODEL 7
REMARK VINA RESULT:    -3.807      2.313      2.977
REMARK INTER + INTRA:          -5.416
REMARK INTER:                  -5.023
REMARK INTRA:                  -0.393
REMARK UNBOUND:                -0.273
REMARK SMILES CCCCCCC=CC(=O)[O-]
REMARK SMILES IDX 5 1 6 2 7 3 8 4 9 5 10 6 11 7 4 8 3 9 2 10 1 11
REMARK H PARENT
REMARK Flexibility Score: inf
ROOT
ATOM      1  C   UNL     1      33.004   7.950  48.867  1.00  0.00     0.004 C 
ENDROOT
BRANCH   1   2
ATOM      2  C   UNL     1      33.428   9.345  48.395  1.00  0.00     0.027 C 
BRANCH   2   3
ATOM      3  C   UNL     1      33.619   9.389  46.904  1.00  0.00    -0.025 C 
ATOM      4  C   UNL     1      34.446  10.270  46.328  1.00  0.00     0.020 C 
BRANCH   4   5
ATOM      5  C   UNL     1      34.618  10.351  44.870  1.00  0.00     0.064 C 
ATOM      6  O   UNL     1      34.495  11.447  44.258  1.00  0.00    -0.545 OA
ATOM      7  O   UNL     1      34.923   9.202  44.154  1.00  0.00    -0.545 OA
ENDBRANCH   4   5
ENDBRANCH   2   3
ENDBRANCH   1   2
BRANCH   1   8
ATOM      8  C   UNL     1      33.010   6.923  47.724  1.00  0.00     0.000 C 
BRANCH   8   9
ATOM      9  C   UNL     1      31.846   5.935  47.866  1.00  0.00    -0.000 C 
BRANCH   9  10
ATOM     10  C   UNL     1      30.501   6.670  47.888  1.00  0.00    -0.003 C 
ATOM     11  C   UNL     1      29.446   5.867  48.644  1.00  0.00     0.004 C 
ENDBRANCH   9  10
ENDBRANCH   8   9
ENDBRANCH   1   8
TORSDOF 6
ENDMDL
MODEL 8
REMARK VINA RESULT:    -3.792      3.267      4.965
REMARK INTER + INTRA:          -5.396
REMARK INTER:                  -4.860
REMARK INTRA:                  -0.536
REMARK UNBOUND:                -0.273
REMARK SMILES CCCCCCC=CC(=O)[O-]
REMARK SMILES IDX 5 1 6 2 7 3 8 4 9 5 10 6 11 7 4 8 3 9 2 10 1 11
REMARK H PARENT
REMARK Flexibility Score: inf
ROOT
ATOM      1  C   UNL     1      32.872   8.153  48.013  1.00  0.00     0.004 C 
ENDROOT
BRANCH   1   2
ATOM      2  C   UNL     1      31.608   8.903  48.451  1.00  0.00     0.027 C 
BRANCH   2   3
ATOM      3  C   UNL     1      30.559   7.961  48.971  1.00  0.00    -0.025 C 
ATOM      4  C   UNL     1      30.207   6.861  48.295  1.00  0.00     0.020 C 
BRANCH   4   5
ATOM      5  C   UNL     1      29.157   5.947  48.772  1.00  0.00     0.064 C 
ATOM      6  O   UNL     1      28.270   5.509  47.991  1.00  0.00    -0.545 OA
ATOM      7  O   UNL     1      29.144   5.558  50.104  1.00  0.00    -0.545 OA
ENDBRANCH   4   5
ENDBRANCH   2   3
ENDBRANCH   1   2
BRANCH   1   8
ATOM      8  C   UNL     1      33.719   7.694  49.211  1.00  0.00     0.000 C 
BRANCH   8   9
ATOM      9  C   UNL     1      34.294   6.293  48.973  1.00  0.00    -0.000 C 
BRANCH   9  10
ATOM     10  C   UNL     1      33.692   5.658  47.715  1.00  0.00    -0.003 C 
ATOM     11  C   UNL     1      34.777   5.052  46.829  1.00  0.00     0.004 C 
ENDBRANCH   9  10
ENDBRANCH   8   9
ENDBRANCH   1   8
TORSDOF 6
ENDMDL
MODEL 9
REMARK VINA RESULT:    -3.738     16.996     18.323
REMARK INTER + INTRA:          -5.322
REMARK INTER:                  -4.997
REMARK INTRA:                  -0.325
REMARK UNBOUND:                -0.273
REMARK SMILES CCCCCCC=CC(=O)[O-]
REMARK SMILES IDX 5 1 6 2 7 3 8 4 9 5 10 6 11 7 4 8 3 9 2 10 1 11
REMARK H PARENT
REMARK Flexibility Score: inf
ROOT
ATOM      1  C   UNL     1      19.704  11.880  36.099  1.00  0.00     0.004 C 
ENDROOT
BRANCH   1   2
ATOM      2  C   UNL     1      19.848  13.395  35.917  1.00  0.00     0.027 C 
BRANCH   2   3
ATOM      3  C   UNL     1      19.814  13.784  34.465  1.00  0.00    -0.025 C 
ATOM      4  C   UNL     1      20.800  14.494  33.905  1.00  0.00     0.020 C 
BRANCH   4   5
ATOM      5  C   UNL     1      20.766  14.913  32.496  1.00  0.00     0.064 C 
ATOM      6  O   UNL     1      19.833  14.551  31.730  1.00  0.00    -0.545 OA
ATOM      7  O   UNL     1      21.780  15.720  31.999  1.00  0.00    -0.545 OA
ENDBRANCH   4   5
ENDBRANCH   2   3
ENDBRANCH   1   2
BRANCH   1   8
ATOM      8  C   UNL     1      21.007  11.131  35.780  1.00  0.00     0.000 C 
BRANCH   8   9
ATOM      9  C   UNL     1      20.809   9.613  35.883  1.00  0.00    -0.000 C 
BRANCH   9  10
ATOM     10  C   UNL     1      19.349   9.270  36.199  1.00  0.00    -0.003 C 
ATOM     11  C   UNL     1      19.250   8.334  37.400  1.00  0.00     0.004 C 
ENDBRANCH   9  10
ENDBRANCH   8   9
ENDBRANCH   1   8
TORSDOF 6
ENDMDL
