MODEL 1
REMARK VINA RESULT:    -7.397      0.000      0.000
REMARK INTER + INTRA:         -13.317
REMARK INTER:                 -11.073
REMARK INTRA:                  -2.243
REMARK UNBOUND:                -2.243
REMARK SMILES C=C(CC[C@H](C(=O)[O-])[C@H]1[C@H](O)C[C@@]2(C)C3=C(CC[C@@]12C)[C@@]1(C)CC[C@@H](OC(C)=O)C(C)(C)[C@H]1CC3)C(C)C
REMARK SMILES IDX 4 1 5 2 6 3 7 4 8 5 9 6 10 7 19 8 12 9 13 10 18 11 20 12
REMARK SMILES IDX 14 13 15 14 17 15 16 16 35 17 21 18 34 19 33 20 23 21 22 22
REMARK SMILES IDX 30 23 24 24 25 25 31 26 32 27 11 28 26 30 27 31 29 32 28 33
REMARK SMILES IDX 3 34 2 35 1 36 36 37 37 38 38 39
REMARK H PARENT 11 29
REMARK Flexibility Score: inf
ROOT
ATOM      1  C   UNL     1      15.193 -33.295  20.774  1.00  0.00     0.014 C 
ENDROOT
BRANCH   1   2
ATOM      2  C   UNL     1      16.743 -33.374  20.638  1.00  0.00     0.042 C 
BRANCH   2   3
ATOM      3  C   UNL     1      17.185 -34.341  19.563  1.00  0.00     0.045 C 
ATOM      4  O   UNL     1      18.197 -34.055  18.863  1.00  0.00    -0.550 OA
ATOM      5  O   UNL     1      16.492 -35.526  19.311  1.00  0.00    -0.550 OA
ENDBRANCH   2   3
BRANCH   2   6
ATOM      6  C   UNL     1      17.456 -33.476  22.026  1.00  0.00     0.033 C 
ATOM      7  C   UNL     1      18.292 -34.735  22.309  1.00  0.00     0.119 C 
ATOM      8  C   UNL     1      18.305 -32.283  22.552  1.00  0.00    -0.017 C 
ATOM      9  C   UNL     1      19.216 -34.350  23.481  1.00  0.00     0.043 C 
ATOM     10  C   UNL     1      18.868 -32.888  23.893  1.00  0.00    -0.003 C 
ATOM     11  C   UNL     1      19.506 -31.941  21.615  1.00  0.00     0.012 C 
ATOM     12  C   UNL     1      17.435 -31.000  22.737  1.00  0.00     0.013 C 
ATOM     13  C   UNL     1      17.760 -32.913  25.029  1.00  0.00     0.017 C 
ATOM     14  C   UNL     1      20.165 -32.225  24.423  1.00  0.00    -0.064 C 
ATOM     15  C   UNL     1      20.471 -30.981  22.286  1.00  0.00     0.032 C 
ATOM     16  C   UNL     1      20.996 -31.500  23.613  1.00  0.00    -0.064 C 
ATOM     17  C   UNL     1      20.601 -32.596  25.834  1.00  0.00     0.032 C 
ATOM     18  C   UNL     1      22.509 -31.297  23.920  1.00  0.00    -0.008 C 
ATOM     19  C   UNL     1      22.093 -32.741  25.987  1.00  0.00     0.009 C 
ATOM     20  C   UNL     1      22.847 -31.523  25.432  1.00  0.00     0.009 C 
ATOM     21  C   UNL     1      22.988 -29.860  23.467  1.00  0.00     0.015 C 
ATOM     22  C   UNL     1      23.270 -32.343  23.077  1.00  0.00     0.016 C 
ATOM     23  C   UNL     1      22.817 -30.202  26.298  1.00  0.00     0.005 C 
ATOM     24  C   UNL     1      24.202 -29.324  24.248  1.00  0.00     0.047 C 
ATOM     25  C   UNL     1      24.008 -29.317  25.784  1.00  0.00     0.182 C 
ATOM     26  C   UNL     1      23.092 -30.516  27.796  1.00  0.00     0.015 C 
ATOM     27  C   UNL     1      21.460 -29.421  26.217  1.00  0.00     0.015 C 
BRANCH   7  28
ATOM     28  O   UNL     1      17.468 -35.815  22.668  1.00  0.00    -0.393 OA
ATOM     29  H   UNL     1      17.455 -35.811  23.658  1.00  0.00     0.210 HD
ENDBRANCH   7  28
BRANCH  25  30
ATOM     30  O   UNL     1      23.884 -27.986  26.296  1.00  0.00    -0.462 OA
BRANCH  30  31
ATOM     31  C   UNL     1      24.891 -27.314  26.996  1.00  0.00     0.302 C 
ATOM     32  O   UNL     1      24.921 -26.052  27.024  1.00  0.00    -0.253 OA
ATOM     33  C   UNL     1      25.937 -28.099  27.719  1.00  0.00     0.139 C 
ENDBRANCH  30  31
ENDBRANCH  25  30
ENDBRANCH   2   6
ENDBRANCH   1   2
BRANCH   1  34
ATOM     34  C   UNL     1      14.675 -33.321  22.232  1.00  0.00     0.031 C 
BRANCH  34  35
ATOM     35  C   UNL     1      13.995 -32.018  22.619  1.00  0.00    -0.075 C 
ATOM     36  C   UNL     1      13.875 -31.708  23.931  1.00  0.00     0.008 C 
BRANCH  35  37
ATOM     37  C   UNL     1      13.452 -31.093  21.540  1.00  0.00     0.008 C 
ATOM     38  C   UNL     1      14.363 -29.867  21.372  1.00  0.00     0.012 C 
ATOM     39  C   UNL     1      11.997 -30.672  21.801  1.00  0.00     0.012 C 
ENDBRANCH  35  37
ENDBRANCH  34  35
ENDBRANCH   1  34
TORSDOF 9
ENDMDL
MODEL 2
REMARK VINA RESULT:    -7.024      3.093      8.564
REMARK INTER + INTRA:         -12.758
REMARK INTER:                 -10.253
REMARK INTRA:                  -2.505
REMARK UNBOUND:                -2.243
REMARK SMILES C=C(CC[C@H](C(=O)[O-])[C@H]1[C@H](O)C[C@@]2(C)C3=C(CC[C@@]12C)[C@@]1(C)CC[C@@H](OC(C)=O)C(C)(C)[C@H]1CC3)C(C)C
REMARK SMILES IDX 4 1 5 2 6 3 7 4 8 5 9 6 10 7 19 8 12 9 13 10 18 11 20 12
REMARK SMILES IDX 14 13 15 14 17 15 16 16 35 17 21 18 34 19 33 20 23 21 22 22
REMARK SMILES IDX 30 23 24 24 25 25 31 26 32 27 11 28 26 30 27 31 29 32 28 33
REMARK SMILES IDX 3 34 2 35 1 36 36 37 37 38 38 39
REMARK H PARENT 11 29
REMARK Flexibility Score: inf
ROOT
ATOM      1  C   UNL     1      23.574 -34.153  26.252  1.00  0.00     0.014 C 
ENDROOT
BRANCH   1   2
ATOM      2  C   UNL     1      22.195 -34.729  25.810  1.00  0.00     0.042 C 
BRANCH   2   3
ATOM      3  C   UNL     1      22.205 -36.236  25.684  1.00  0.00     0.045 C 
ATOM      4  O   UNL     1      21.169 -36.883  26.004  1.00  0.00    -0.550 OA
ATOM      5  O   UNL     1      23.335 -36.928  25.245  1.00  0.00    -0.550 OA
ENDBRANCH   2   3
BRANCH   2   6
ATOM      6  C   UNL     1      21.564 -33.919  24.632  1.00  0.00     0.033 C 
ATOM      7  C   UNL     1      21.426 -34.625  23.273  1.00  0.00     0.119 C 
ATOM      8  C   UNL     1      20.225 -33.155  24.845  1.00  0.00    -0.017 C 
ATOM      9  C   UNL     1      20.384 -33.797  22.494  1.00  0.00     0.043 C 
ATOM     10  C   UNL     1      19.969 -32.596  23.395  1.00  0.00    -0.003 C 
ATOM     11  C   UNL     1      19.047 -34.103  25.230  1.00  0.00     0.012 C 
ATOM     12  C   UNL     1      20.363 -32.056  25.946  1.00  0.00     0.013 C 
ATOM     13  C   UNL     1      20.905 -31.355  23.077  1.00  0.00     0.017 C 
ATOM     14  C   UNL     1      18.493 -32.250  23.071  1.00  0.00    -0.064 C 
ATOM     15  C   UNL     1      17.713 -33.383  25.148  1.00  0.00     0.032 C 
ATOM     16  C   UNL     1      17.449 -32.779  23.781  1.00  0.00    -0.064 C 
ATOM     17  C   UNL     1      18.232 -31.473  21.789  1.00  0.00     0.032 C 
ATOM     18  C   UNL     1      16.013 -32.921  23.193  1.00  0.00    -0.008 C 
ATOM     19  C   UNL     1      16.989 -31.911  21.058  1.00  0.00     0.009 C 
ATOM     20  C   UNL     1      15.765 -31.955  21.985  1.00  0.00     0.009 C 
ATOM     21  C   UNL     1      14.921 -32.680  24.311  1.00  0.00     0.015 C 
ATOM     22  C   UNL     1      15.884 -34.378  22.702  1.00  0.00     0.016 C 
ATOM     23  C   UNL     1      15.121 -30.572  22.395  1.00  0.00     0.005 C 
ATOM     24  C   UNL     1      13.569 -32.177  23.774  1.00  0.00     0.047 C 
ATOM     25  C   UNL     1      13.674 -30.899  22.906  1.00  0.00     0.182 C 
ATOM     26  C   UNL     1      14.971 -29.644  21.156  1.00  0.00     0.015 C 
ATOM     27  C   UNL     1      15.938 -29.788  23.479  1.00  0.00     0.015 C 
BRANCH   7  28
ATOM     28  O   UNL     1      22.652 -34.639  22.588  1.00  0.00    -0.393 OA
ATOM     29  H   UNL     1      22.426 -34.901  21.660  1.00  0.00     0.210 HD
ENDBRANCH   7  28
BRANCH  25  30
ATOM     30  O   UNL     1      13.121 -29.759  23.573  1.00  0.00    -0.462 OA
BRANCH  30  31
ATOM     31  C   UNL     1      11.996 -29.057  23.131  1.00  0.00     0.302 C 
ATOM     32  O   UNL     1      11.222 -29.560  22.269  1.00  0.00    -0.253 OA
ATOM     33  C   UNL     1      11.708 -27.700  23.687  1.00  0.00     0.139 C 
ENDBRANCH  30  31
ENDBRANCH  25  30
ENDBRANCH   2   6
ENDBRANCH   1   2
BRANCH   1  34
ATOM     34  C   UNL     1      24.125 -33.035  25.336  1.00  0.00     0.031 C 
BRANCH  34  35
ATOM     35  C   UNL     1      24.091 -31.675  26.013  1.00  0.00    -0.075 C 
ATOM     36  C   UNL     1      23.864 -31.614  27.346  1.00  0.00     0.008 C 
BRANCH  35  37
ATOM     37  C   UNL     1      24.296 -30.410  25.192  1.00  0.00     0.008 C 
ATOM     38  C   UNL     1      23.114 -29.446  25.384  1.00  0.00     0.012 C 
ATOM     39  C   UNL     1      24.536 -30.705  23.703  1.00  0.00     0.012 C 
ENDBRANCH  35  37
ENDBRANCH  34  35
ENDBRANCH   1  34
TORSDOF 9
ENDMDL
MODEL 3
REMARK VINA RESULT:    -6.943      3.168      8.718
REMARK INTER + INTRA:         -12.637
REMARK INTER:                 -10.331
REMARK INTRA:                  -2.307
REMARK UNBOUND:                -2.243
REMARK SMILES C=C(CC[C@H](C(=O)[O-])[C@H]1[C@H](O)C[C@@]2(C)C3=C(CC[C@@]12C)[C@@]1(C)CC[C@@H](OC(C)=O)C(C)(C)[C@H]1CC3)C(C)C
REMARK SMILES IDX 4 1 5 2 6 3 7 4 8 5 9 6 10 7 19 8 12 9 13 10 18 11 20 12
REMARK SMILES IDX 14 13 15 14 17 15 16 16 35 17 21 18 34 19 33 20 23 21 22 22
REMARK SMILES IDX 30 23 24 24 25 25 31 26 32 27 11 28 26 30 27 31 29 32 28 33
REMARK SMILES IDX 3 34 2 35 1 36 36 37 37 38 38 39
REMARK H PARENT 11 29
REMARK Flexibility Score: inf
ROOT
ATOM      1  C   UNL     1      24.391 -34.130  25.905  1.00  0.00     0.014 C 
ENDROOT
BRANCH   1   2
ATOM      2  C   UNL     1      22.965 -34.700  25.639  1.00  0.00     0.042 C 
BRANCH   2   3
ATOM      3  C   UNL     1      22.940 -36.211  25.594  1.00  0.00     0.045 C 
ATOM      4  O   UNL     1      23.936 -36.825  25.119  1.00  0.00    -0.550 OA
ATOM      5  O   UNL     1      21.838 -36.941  26.042  1.00  0.00    -0.550 OA
ENDBRANCH   2   3
BRANCH   2   6
ATOM      6  C   UNL     1      22.227 -33.940  24.489  1.00  0.00     0.033 C 
ATOM      7  C   UNL     1      22.056 -34.669  23.146  1.00  0.00     0.119 C 
ATOM      8  C   UNL     1      20.861 -33.249  24.767  1.00  0.00    -0.017 C 
ATOM      9  C   UNL     1      20.929 -33.910  22.417  1.00  0.00     0.043 C 
ATOM     10  C   UNL     1      20.497 -32.722  23.328  1.00  0.00    -0.003 C 
ATOM     11  C   UNL     1      19.760 -34.255  25.224  1.00  0.00     0.012 C 
ATOM     12  C   UNL     1      20.996 -32.131  25.849  1.00  0.00     0.013 C 
ATOM     13  C   UNL     1      21.344 -31.436  22.948  1.00  0.00     0.017 C 
ATOM     14  C   UNL     1      18.988 -32.463  23.081  1.00  0.00    -0.064 C 
ATOM     15  C   UNL     1      18.385 -33.612  25.209  1.00  0.00     0.032 C 
ATOM     16  C   UNL     1      18.015 -33.039  23.852  1.00  0.00    -0.064 C 
ATOM     17  C   UNL     1      18.616 -31.717  21.808  1.00  0.00     0.032 C 
ATOM     18  C   UNL     1      16.560 -33.267  23.344  1.00  0.00    -0.008 C 
ATOM     19  C   UNL     1      17.362 -32.232  21.150  1.00  0.00     0.009 C 
ATOM     20  C   UNL     1      16.194 -32.332  22.143  1.00  0.00     0.009 C 
ATOM     21  C   UNL     1      15.518 -33.074  24.517  1.00  0.00     0.015 C 
ATOM     22  C   UNL     1      16.486 -34.736  22.875  1.00  0.00     0.016 C 
ATOM     23  C   UNL     1      15.497 -30.982  22.574  1.00  0.00     0.005 C 
ATOM     24  C   UNL     1      14.112 -32.653  24.050  1.00  0.00     0.047 C 
ATOM     25  C   UNL     1      14.099 -31.382  23.166  1.00  0.00     0.182 C 
ATOM     26  C   UNL     1      15.229 -30.078  21.336  1.00  0.00     0.015 C 
ATOM     27  C   UNL     1      16.326 -30.141  23.605  1.00  0.00     0.015 C 
BRANCH   7  28
ATOM     28  O   UNL     1      23.243 -34.624  22.396  1.00  0.00    -0.393 OA
ATOM     29  H   UNL     1      22.962 -34.783  21.460  1.00  0.00     0.210 HD
ENDBRANCH   7  28
BRANCH  25  30
ATOM     30  O   UNL     1      13.521 -30.266  23.851  1.00  0.00    -0.462 OA
BRANCH  30  31
ATOM     31  C   UNL     1      12.424 -29.536  23.382  1.00  0.00     0.302 C 
ATOM     32  O   UNL     1      11.775 -29.930  22.374  1.00  0.00    -0.253 OA
ATOM     33  C   UNL     1      12.020 -28.281  24.085  1.00  0.00     0.139 C 
ENDBRANCH  30  31
ENDBRANCH  25  30
ENDBRANCH   2   6
ENDBRANCH   1   2
BRANCH   1  34
ATOM     34  C   UNL     1      24.789 -32.947  24.990  1.00  0.00     0.031 C 
BRANCH  34  35
ATOM     35  C   UNL     1      24.641 -31.608  25.692  1.00  0.00    -0.075 C 
ATOM     36  C   UNL     1      24.492 -30.490  24.944  1.00  0.00     0.008 C 
BRANCH  35  37
ATOM     37  C   UNL     1      24.676 -31.538  27.212  1.00  0.00     0.008 C 
ATOM     38  C   UNL     1      23.762 -30.411  27.720  1.00  0.00     0.012 C 
ATOM     39  C   UNL     1      26.103 -31.388  27.764  1.00  0.00     0.012 C 
ENDBRANCH  35  37
ENDBRANCH  34  35
ENDBRANCH   1  34
TORSDOF 9
ENDMDL
MODEL 4
REMARK VINA RESULT:    -6.799      3.284      8.799
REMARK INTER + INTRA:         -12.422
REMARK INTER:                 -10.334
REMARK INTRA:                  -2.088
REMARK UNBOUND:                -2.243
REMARK SMILES C=C(CC[C@H](C(=O)[O-])[C@H]1[C@H](O)C[C@@]2(C)C3=C(CC[C@@]12C)[C@@]1(C)CC[C@@H](OC(C)=O)C(C)(C)[C@H]1CC3)C(C)C
REMARK SMILES IDX 4 1 5 2 6 3 7 4 8 5 9 6 10 7 19 8 12 9 13 10 18 11 20 12
REMARK SMILES IDX 14 13 15 14 17 15 16 16 35 17 21 18 34 19 33 20 23 21 22 22
REMARK SMILES IDX 30 23 24 24 25 25 31 26 32 27 11 28 26 30 27 31 29 32 28 33
REMARK SMILES IDX 3 34 2 35 1 36 36 37 37 38 38 39
REMARK H PARENT 11 29
REMARK Flexibility Score: inf
ROOT
ATOM      1  C   UNL     1      23.948 -34.069  26.230  1.00  0.00     0.014 C 
ENDROOT
BRANCH   1   2
ATOM      2  C   UNL     1      22.620 -34.728  25.749  1.00  0.00     0.042 C 
BRANCH   2   3
ATOM      3  C   UNL     1      22.745 -36.224  25.564  1.00  0.00     0.045 C 
ATOM      4  O   UNL     1      21.778 -36.964  25.900  1.00  0.00    -0.550 OA
ATOM      5  O   UNL     1      23.906 -36.806  25.054  1.00  0.00    -0.550 OA
ENDBRANCH   2   3
BRANCH   2   6
ATOM      6  C   UNL     1      21.941 -33.922  24.594  1.00  0.00     0.033 C 
ATOM      7  C   UNL     1      21.843 -34.593  23.216  1.00  0.00     0.119 C 
ATOM      8  C   UNL     1      20.561 -33.243  24.829  1.00  0.00    -0.017 C 
ATOM      9  C   UNL     1      20.754 -33.805  22.461  1.00  0.00     0.043 C 
ATOM     10  C   UNL     1      20.271 -32.657  23.396  1.00  0.00    -0.003 C 
ATOM     11  C   UNL     1      19.440 -34.268  25.186  1.00  0.00     0.012 C 
ATOM     12  C   UNL     1      20.636 -32.171  25.963  1.00  0.00     0.013 C 
ATOM     13  C   UNL     1      21.133 -31.355  23.116  1.00  0.00     0.017 C 
ATOM     14  C   UNL     1      18.777 -32.388  23.082  1.00  0.00    -0.064 C 
ATOM     15  C   UNL     1      18.066 -33.626  25.125  1.00  0.00     0.032 C 
ATOM     16  C   UNL     1      17.767 -32.997  23.776  1.00  0.00    -0.064 C 
ATOM     17  C   UNL     1      18.470 -31.590  21.823  1.00  0.00     0.032 C 
ATOM     18  C   UNL     1      16.341 -33.204  23.184  1.00  0.00    -0.008 C 
ATOM     19  C   UNL     1      17.254 -32.077  21.079  1.00  0.00     0.009 C 
ATOM     20  C   UNL     1      16.035 -32.220  22.005  1.00  0.00     0.009 C 
ATOM     21  C   UNL     1      15.238 -33.061  24.307  1.00  0.00     0.015 C 
ATOM     22  C   UNL     1      16.296 -34.652  22.650  1.00  0.00     0.016 C 
ATOM     23  C   UNL     1      15.313 -30.889  22.454  1.00  0.00     0.005 C 
ATOM     24  C   UNL     1      13.858 -32.621  23.785  1.00  0.00     0.047 C 
ATOM     25  C   UNL     1      13.887 -31.314  22.955  1.00  0.00     0.182 C 
ATOM     26  C   UNL     1      15.108 -29.934  21.243  1.00  0.00     0.015 C 
ATOM     27  C   UNL     1      16.084 -30.091  23.562  1.00  0.00     0.015 C 
BRANCH   7  28
ATOM     28  O   UNL     1      23.067 -34.517  22.531  1.00  0.00    -0.393 OA
ATOM     29  H   UNL     1      23.731 -34.254  23.217  1.00  0.00     0.210 HD
ENDBRANCH   7  28
BRANCH  25  30
ATOM     30  O   UNL     1      13.270 -30.228  23.655  1.00  0.00    -0.462 OA
BRANCH  30  31
ATOM     31  C   UNL     1      12.288 -29.396  23.110  1.00  0.00     0.302 C 
ATOM     32  O   UNL     1      12.228 -28.177  23.434  1.00  0.00    -0.253 OA
ATOM     33  C   UNL     1      11.305 -29.957  22.135  1.00  0.00     0.139 C 
ENDBRANCH  30  31
ENDBRANCH  25  30
ENDBRANCH   2   6
ENDBRANCH   1   2
BRANCH   1  34
ATOM     34  C   UNL     1      24.271 -32.713  25.558  1.00  0.00     0.031 C 
BRANCH  34  35
ATOM     35  C   UNL     1      25.364 -32.843  24.511  1.00  0.00    -0.075 C 
ATOM     36  C   UNL     1      26.084 -33.988  24.455  1.00  0.00     0.008 C 
BRANCH  35  37
ATOM     37  C   UNL     1      25.644 -31.691  23.556  1.00  0.00     0.008 C 
ATOM     38  C   UNL     1      27.141 -31.341  23.558  1.00  0.00     0.012 C 
ATOM     39  C   UNL     1      24.783 -30.453  23.855  1.00  0.00     0.012 C 
ENDBRANCH  35  37
ENDBRANCH  34  35
ENDBRANCH   1  34
TORSDOF 9
ENDMDL
MODEL 5
REMARK VINA RESULT:    -6.746      2.415      4.209
REMARK INTER + INTRA:         -12.342
REMARK INTER:                 -10.481
REMARK INTRA:                  -1.861
REMARK UNBOUND:                -2.243
REMARK SMILES C=C(CC[C@H](C(=O)[O-])[C@H]1[C@H](O)C[C@@]2(C)C3=C(CC[C@@]12C)[C@@]1(C)CC[C@@H](OC(C)=O)C(C)(C)[C@H]1CC3)C(C)C
REMARK SMILES IDX 4 1 5 2 6 3 7 4 8 5 9 6 10 7 19 8 12 9 13 10 18 11 20 12
REMARK SMILES IDX 14 13 15 14 17 15 16 16 35 17 21 18 34 19 33 20 23 21 22 22
REMARK SMILES IDX 30 23 24 24 25 25 31 26 32 27 11 28 26 30 27 31 29 32 28 33
REMARK SMILES IDX 3 34 2 35 1 36 36 37 37 38 38 39
REMARK H PARENT 11 29
REMARK Flexibility Score: inf
ROOT
ATOM      1  C   UNL     1      16.541 -33.758  23.357  1.00  0.00     0.014 C 
ENDROOT
BRANCH   1   2
ATOM      2  C   UNL     1      17.214 -32.360  23.503  1.00  0.00     0.042 C 
BRANCH   2   3
ATOM      3  C   UNL     1      16.414 -31.256  22.850  1.00  0.00     0.045 C 
ATOM      4  O   UNL     1      15.988 -31.425  21.673  1.00  0.00    -0.550 OA
ATOM      5  O   UNL     1      16.155 -30.051  23.504  1.00  0.00    -0.550 OA
ENDBRANCH   2   3
BRANCH   2   6
ATOM      6  C   UNL     1      18.747 -32.404  23.199  1.00  0.00     0.033 C 
ATOM      7  C   UNL     1      19.289 -31.457  22.117  1.00  0.00     0.119 C 
ATOM      8  C   UNL     1      19.773 -32.335  24.368  1.00  0.00    -0.017 C 
ATOM      9  C   UNL     1      20.808 -31.380  22.373  1.00  0.00     0.043 C 
ATOM     10  C   UNL     1      21.131 -32.323  23.570  1.00  0.00    -0.003 C 
ATOM     11  C   UNL     1      19.662 -31.012  25.187  1.00  0.00     0.012 C 
ATOM     12  C   UNL     1      19.608 -33.543  25.345  1.00  0.00     0.013 C 
ATOM     13  C   UNL     1      21.494 -33.765  23.018  1.00  0.00     0.017 C 
ATOM     14  C   UNL     1      22.339 -31.721  24.332  1.00  0.00    -0.064 C 
ATOM     15  C   UNL     1      20.845 -30.843  26.123  1.00  0.00     0.032 C 
ATOM     16  C   UNL     1      22.180 -30.882  25.402  1.00  0.00    -0.064 C 
ATOM     17  C   UNL     1      23.714 -31.919  23.711  1.00  0.00     0.032 C 
ATOM     18  C   UNL     1      23.264 -29.850  25.834  1.00  0.00    -0.008 C 
ATOM     19  C   UNL     1      24.619 -30.722  23.851  1.00  0.00     0.009 C 
ATOM     20  C   UNL     1      24.689 -30.223  25.302  1.00  0.00     0.009 C 
ATOM     21  C   UNL     1      23.298 -29.695  27.408  1.00  0.00     0.015 C 
ATOM     22  C   UNL     1      22.844 -28.494  25.228  1.00  0.00     0.016 C 
ATOM     23  C   UNL     1      25.547 -31.078  26.317  1.00  0.00     0.005 C 
ATOM     24  C   UNL     1      24.659 -29.241  27.968  1.00  0.00     0.047 C 
ATOM     25  C   UNL     1      25.846 -30.135  27.536  1.00  0.00     0.182 C 
ATOM     26  C   UNL     1      26.916 -31.468  25.692  1.00  0.00     0.015 C 
ATOM     27  C   UNL     1      24.845 -32.399  26.786  1.00  0.00     0.015 C 
BRANCH   7  28
ATOM     28  O   UNL     1      19.034 -31.964  20.832  1.00  0.00    -0.393 OA
ATOM     29  H   UNL     1      19.782 -31.638  20.272  1.00  0.00     0.210 HD
ENDBRANCH   7  28
BRANCH  25  30
ATOM     30  O   UNL     1      26.359 -30.901  28.632  1.00  0.00    -0.462 OA
BRANCH  30  31
ATOM     31  C   UNL     1      27.513 -30.574  29.350  1.00  0.00     0.302 C 
ATOM     32  O   UNL     1      27.989 -29.405  29.302  1.00  0.00    -0.253 OA
ATOM     33  C   UNL     1      28.184 -31.618  30.182  1.00  0.00     0.139 C 
ENDBRANCH  30  31
ENDBRANCH  25  30
ENDBRANCH   2   6
ENDBRANCH   1   2
BRANCH   1  34
ATOM     34  C   UNL     1      17.341 -34.768  22.499  1.00  0.00     0.031 C 
BRANCH  34  35
ATOM     35  C   UNL     1      16.709 -34.980  21.133  1.00  0.00    -0.075 C 
ATOM     36  C   UNL     1      15.380 -34.775  20.989  1.00  0.00     0.008 C 
BRANCH  35  37
ATOM     37  C   UNL     1      17.568 -35.429  19.959  1.00  0.00     0.008 C 
ATOM     38  C   UNL     1      17.599 -34.346  18.869  1.00  0.00     0.012 C 
ATOM     39  C   UNL     1      17.120 -36.783  19.385  1.00  0.00     0.012 C 
ENDBRANCH  35  37
ENDBRANCH  34  35
ENDBRANCH   1  34
TORSDOF 9
ENDMDL
MODEL 6
REMARK VINA RESULT:    -6.729      3.394      8.308
REMARK INTER + INTRA:         -12.316
REMARK INTER:                 -11.283
REMARK INTRA:                  -1.033
REMARK UNBOUND:                -2.243
REMARK SMILES C=C(CC[C@H](C(=O)[O-])[C@H]1[C@H](O)C[C@@]2(C)C3=C(CC[C@@]12C)[C@@]1(C)CC[C@@H](OC(C)=O)C(C)(C)[C@H]1CC3)C(C)C
REMARK SMILES IDX 4 1 5 2 6 3 7 4 8 5 9 6 10 7 19 8 12 9 13 10 18 11 20 12
REMARK SMILES IDX 14 13 15 14 17 15 16 16 35 17 21 18 34 19 33 20 23 21 22 22
REMARK SMILES IDX 30 23 24 24 25 25 31 26 32 27 11 28 26 30 27 31 29 32 28 33
REMARK SMILES IDX 3 34 2 35 1 36 36 37 37 38 38 39
REMARK H PARENT 11 29
REMARK Flexibility Score: inf
ROOT
ATOM      1  C   UNL     1      21.269 -36.330  24.443  1.00  0.00     0.014 C 
ENDROOT
BRANCH   1   2
ATOM      2  C   UNL     1      22.244 -35.147  24.726  1.00  0.00     0.042 C 
BRANCH   2   3
ATOM      3  C   UNL     1      22.857 -35.214  26.107  1.00  0.00     0.045 C 
ATOM      4  O   UNL     1      22.846 -34.179  26.830  1.00  0.00    -0.550 OA
ATOM      5  O   UNL     1      23.451 -36.380  26.590  1.00  0.00    -0.550 OA
ENDBRANCH   2   3
BRANCH   2   6
ATOM      6  C   UNL     1      21.655 -33.771  24.273  1.00  0.00     0.033 C 
ATOM      7  C   UNL     1      22.173 -33.170  22.957  1.00  0.00     0.119 C 
ATOM      8  C   UNL     1      20.114 -33.555  24.255  1.00  0.00    -0.017 C 
ATOM      9  C   UNL     1      21.117 -32.123  22.550  1.00  0.00     0.043 C 
ATOM     10  C   UNL     1      20.027 -32.098  23.662  1.00  0.00    -0.003 C 
ATOM     11  C   UNL     1      19.381 -34.534  23.286  1.00  0.00     0.012 C 
ATOM     12  C   UNL     1      19.498 -33.709  25.682  1.00  0.00     0.013 C 
ATOM     13  C   UNL     1      20.409 -31.005  24.747  1.00  0.00     0.017 C 
ATOM     14  C   UNL     1      18.677 -31.738  22.991  1.00  0.00    -0.064 C 
ATOM     15  C   UNL     1      17.938 -34.116  23.070  1.00  0.00     0.032 C 
ATOM     16  C   UNL     1      17.804 -32.696  22.551  1.00  0.00    -0.064 C 
ATOM     17  C   UNL     1      18.452 -30.275  22.637  1.00  0.00     0.032 C 
ATOM     18  C   UNL     1      16.759 -32.434  21.426  1.00  0.00    -0.008 C 
ATOM     19  C   UNL     1      17.734 -30.073  21.327  1.00  0.00     0.009 C 
ATOM     20  C   UNL     1      16.448 -30.909  21.245  1.00  0.00     0.009 C 
ATOM     21  C   UNL     1      15.421 -33.229  21.704  1.00  0.00     0.015 C 
ATOM     22  C   UNL     1      17.376 -32.976  20.120  1.00  0.00     0.016 C 
ATOM     23  C   UNL     1      15.207 -30.406  22.082  1.00  0.00     0.005 C 
ATOM     24  C   UNL     1      14.167 -32.595  21.074  1.00  0.00     0.047 C 
ATOM     25  C   UNL     1      13.948 -31.113  21.465  1.00  0.00     0.182 C 
ATOM     26  C   UNL     1      15.005 -28.874  21.905  1.00  0.00     0.015 C 
ATOM     27  C   UNL     1      15.318 -30.696  23.619  1.00  0.00     0.015 C 
BRANCH   7  28
ATOM     28  O   UNL     1      23.425 -32.559  23.142  1.00  0.00    -0.393 OA
ATOM     29  H   UNL     1      23.577 -32.030  22.320  1.00  0.00     0.210 HD
ENDBRANCH   7  28
BRANCH  25  30
ATOM     30  O   UNL     1      12.822 -30.955  22.335  1.00  0.00    -0.462 OA
BRANCH  30  31
ATOM     31  C   UNL     1      11.659 -30.257  21.999  1.00  0.00     0.302 C 
ATOM     32  O   UNL     1      10.940 -30.634  21.032  1.00  0.00    -0.253 OA
ATOM     33  C   UNL     1      11.264 -29.056  22.796  1.00  0.00     0.139 C 
ENDBRANCH  30  31
ENDBRANCH  25  30
ENDBRANCH   2   6
ENDBRANCH   1   2
BRANCH   1  34
ATOM     34  C   UNL     1      20.489 -36.828  25.683  1.00  0.00     0.031 C 
BRANCH  34  35
ATOM     35  C   UNL     1      19.195 -37.526  25.299  1.00  0.00    -0.075 C 
ATOM     36  C   UNL     1      19.109 -38.125  24.089  1.00  0.00     0.008 C 
BRANCH  35  37
ATOM     37  C   UNL     1      18.018 -37.532  26.264  1.00  0.00     0.008 C 
ATOM     38  C   UNL     1      17.008 -36.436  25.888  1.00  0.00     0.012 C 
ATOM     39  C   UNL     1      18.456 -37.404  27.731  1.00  0.00     0.012 C 
ENDBRANCH  35  37
ENDBRANCH  34  35
ENDBRANCH   1  34
TORSDOF 9
ENDMDL
MODEL 7
REMARK VINA RESULT:    -6.693      8.743     11.686
REMARK INTER + INTRA:         -12.262
REMARK INTER:                 -10.421
REMARK INTRA:                  -1.841
REMARK UNBOUND:                -2.243
REMARK SMILES C=C(CC[C@H](C(=O)[O-])[C@H]1[C@H](O)C[C@@]2(C)C3=C(CC[C@@]12C)[C@@]1(C)CC[C@@H](OC(C)=O)C(C)(C)[C@H]1CC3)C(C)C
REMARK SMILES IDX 4 1 5 2 6 3 7 4 8 5 9 6 10 7 19 8 12 9 13 10 18 11 20 12
REMARK SMILES IDX 14 13 15 14 17 15 16 16 35 17 21 18 34 19 33 20 23 21 22 22
REMARK SMILES IDX 30 23 24 24 25 25 31 26 32 27 11 28 26 30 27 31 29 32 28 33
REMARK SMILES IDX 3 34 2 35 1 36 36 37 37 38 38 39
REMARK H PARENT 11 29
REMARK Flexibility Score: inf
ROOT
ATOM      1  C   UNL     1      20.829 -23.788  22.541  1.00  0.00     0.014 C 
ENDROOT
BRANCH   1   2
ATOM      2  C   UNL     1      20.268 -22.942  23.724  1.00  0.00     0.042 C 
BRANCH   2   3
ATOM      3  C   UNL     1      19.303 -21.870  23.268  1.00  0.00     0.045 C 
ATOM      4  O   UNL     1      18.123 -21.880  23.717  1.00  0.00    -0.550 OA
ATOM      5  O   UNL     1      19.678 -20.887  22.351  1.00  0.00    -0.550 OA
ENDBRANCH   2   3
BRANCH   2   6
ATOM      6  C   UNL     1      21.385 -22.514  24.730  1.00  0.00     0.033 C 
ATOM      7  C   UNL     1      21.673 -21.012  24.883  1.00  0.00     0.119 C 
ATOM      8  C   UNL     1      21.390 -23.090  26.176  1.00  0.00    -0.017 C 
ATOM      9  C   UNL     1      22.428 -20.880  26.220  1.00  0.00     0.043 C 
ATOM     10  C   UNL     1      22.611 -22.315  26.800  1.00  0.00    -0.003 C 
ATOM     11  C   UNL     1      20.102 -22.720  26.974  1.00  0.00     0.012 C 
ATOM     12  C   UNL     1      21.546 -24.644  26.171  1.00  0.00     0.013 C 
ATOM     13  C   UNL     1      23.994 -22.910  26.301  1.00  0.00     0.017 C 
ATOM     14  C   UNL     1      22.602 -22.204  28.346  1.00  0.00    -0.064 C 
ATOM     15  C   UNL     1      20.257 -23.041  28.450  1.00  0.00     0.032 C 
ATOM     16  C   UNL     1      21.457 -22.358  29.080  1.00  0.00    -0.064 C 
ATOM     17  C   UNL     1      23.875 -21.696  29.008  1.00  0.00     0.032 C 
ATOM     18  C   UNL     1      21.272 -21.736  30.497  1.00  0.00    -0.008 C 
ATOM     19  C   UNL     1      23.624 -20.787  30.183  1.00  0.00     0.009 C 
ATOM     20  C   UNL     1      22.639 -21.406  31.187  1.00  0.00     0.009 C 
ATOM     21  C   UNL     1      20.416 -22.690  31.423  1.00  0.00     0.015 C 
ATOM     22  C   UNL     1      20.483 -20.425  30.299  1.00  0.00     0.016 C 
ATOM     23  C   UNL     1      23.185 -22.565  32.111  1.00  0.00     0.005 C 
ATOM     24  C   UNL     1      20.691 -22.522  32.928  1.00  0.00     0.047 C 
ATOM     25  C   UNL     1      22.183 -22.671  33.315  1.00  0.00     0.182 C 
ATOM     26  C   UNL     1      24.575 -22.192  32.702  1.00  0.00     0.015 C 
ATOM     27  C   UNL     1      23.334 -23.943  31.379  1.00  0.00     0.015 C 
BRANCH   7  28
ATOM     28  O   UNL     1      22.467 -20.542  23.823  1.00  0.00    -0.393 OA
ATOM     29  H   UNL     1      23.350 -20.351  24.227  1.00  0.00     0.210 HD
ENDBRANCH   7  28
BRANCH  25  30
ATOM     30  O   UNL     1      22.423 -23.879  34.045  1.00  0.00    -0.462 OA
BRANCH  30  31
ATOM     31  C   UNL     1      22.376 -23.979  35.439  1.00  0.00     0.302 C 
ATOM     32  O   UNL     1      21.293 -24.260  36.026  1.00  0.00    -0.253 OA
ATOM     33  C   UNL     1      23.619 -23.755  36.237  1.00  0.00     0.139 C 
ENDBRANCH  30  31
ENDBRANCH  25  30
ENDBRANCH   2   6
ENDBRANCH   1   2
BRANCH   1  34
ATOM     34  C   UNL     1      22.295 -24.249  22.721  1.00  0.00     0.031 C 
BRANCH  34  35
ATOM     35  C   UNL     1      23.157 -23.887  21.524  1.00  0.00    -0.075 C 
ATOM     36  C   UNL     1      24.016 -22.847  21.626  1.00  0.00     0.008 C 
BRANCH  35  37
ATOM     37  C   UNL     1      23.036 -24.682  20.231  1.00  0.00     0.008 C 
ATOM     38  C   UNL     1      23.213 -26.184  20.504  1.00  0.00     0.012 C 
ATOM     39  C   UNL     1      24.011 -24.196  19.146  1.00  0.00     0.012 C 
ENDBRANCH  35  37
ENDBRANCH  34  35
ENDBRANCH   1  34
TORSDOF 9
ENDMDL
MODEL 8
REMARK VINA RESULT:    -6.612      2.017      2.735
REMARK INTER + INTRA:         -12.142
REMARK INTER:                 -10.414
REMARK INTRA:                  -1.727
REMARK UNBOUND:                -2.243
REMARK SMILES C=C(CC[C@H](C(=O)[O-])[C@H]1[C@H](O)C[C@@]2(C)C3=C(CC[C@@]12C)[C@@]1(C)CC[C@@H](OC(C)=O)C(C)(C)[C@H]1CC3)C(C)C
REMARK SMILES IDX 4 1 5 2 6 3 7 4 8 5 9 6 10 7 19 8 12 9 13 10 18 11 20 12
REMARK SMILES IDX 14 13 15 14 17 15 16 16 35 17 21 18 34 19 33 20 23 21 22 22
REMARK SMILES IDX 30 23 24 24 25 25 31 26 32 27 11 28 26 30 27 31 29 32 28 33
REMARK SMILES IDX 3 34 2 35 1 36 36 37 37 38 38 39
REMARK H PARENT 11 29
REMARK Flexibility Score: inf
ROOT
ATOM      1  C   UNL     1      15.640 -34.407  21.725  1.00  0.00     0.014 C 
ENDROOT
BRANCH   1   2
ATOM      2  C   UNL     1      17.064 -34.384  21.093  1.00  0.00     0.042 C 
BRANCH   2   3
ATOM      3  C   UNL     1      17.066 -34.814  19.643  1.00  0.00     0.045 C 
ATOM      4  O   UNL     1      16.544 -35.921  19.334  1.00  0.00    -0.550 OA
ATOM      5  O   UNL     1      17.648 -34.030  18.646  1.00  0.00    -0.550 OA
ENDBRANCH   2   3
BRANCH   2   6
ATOM      6  C   UNL     1      18.140 -35.027  22.028  1.00  0.00     0.033 C 
ATOM      7  C   UNL     1      19.100 -36.055  21.411  1.00  0.00     0.119 C 
ATOM      8  C   UNL     1      19.022 -34.120  22.935  1.00  0.00    -0.017 C 
ATOM      9  C   UNL     1      20.286 -36.138  22.393  1.00  0.00     0.043 C 
ATOM     10  C   UNL     1      19.972 -35.192  23.590  1.00  0.00    -0.003 C 
ATOM     11  C   UNL     1      19.891 -33.116  22.116  1.00  0.00     0.012 C 
ATOM     12  C   UNL     1      18.155 -33.316  23.955  1.00  0.00     0.013 C 
ATOM     13  C   UNL     1      19.227 -36.013  24.725  1.00  0.00     0.017 C 
ATOM     14  C   UNL     1      21.320 -34.642  24.123  1.00  0.00    -0.064 C 
ATOM     15  C   UNL     1      20.940 -32.455  22.992  1.00  0.00     0.032 C 
ATOM     16  C   UNL     1      21.844 -33.455  23.689  1.00  0.00    -0.064 C 
ATOM     17  C   UNL     1      22.153 -35.578  24.987  1.00  0.00     0.032 C 
ATOM     18  C   UNL     1      23.367 -33.133  23.747  1.00  0.00    -0.008 C 
ATOM     19  C   UNL     1      23.635 -35.474  24.736  1.00  0.00     0.009 C 
ATOM     20  C   UNL     1      24.125 -34.019  24.792  1.00  0.00     0.009 C 
ATOM     21  C   UNL     1      23.607 -31.602  24.061  1.00  0.00     0.015 C 
ATOM     22  C   UNL     1      23.930 -33.428  22.341  1.00  0.00     0.016 C 
ATOM     23  C   UNL     1      24.250 -33.356  26.221  1.00  0.00     0.005 C 
ATOM     24  C   UNL     1      24.953 -31.302  24.747  1.00  0.00     0.047 C 
ATOM     25  C   UNL     1      25.192 -32.113  26.044  1.00  0.00     0.182 C 
ATOM     26  C   UNL     1      24.950 -34.322  27.219  1.00  0.00     0.015 C 
ATOM     27  C   UNL     1      22.877 -32.937  26.849  1.00  0.00     0.015 C 
BRANCH   7  28
ATOM     28  O   UNL     1      18.480 -37.310  21.284  1.00  0.00    -0.393 OA
ATOM     29  H   UNL     1      19.182 -37.969  21.514  1.00  0.00     0.210 HD
ENDBRANCH   7  28
BRANCH  25  30
ATOM     30  O   UNL     1      25.129 -31.282  27.207  1.00  0.00    -0.462 OA
BRANCH  30  31
ATOM     31  C   UNL     1      26.247 -30.841  27.922  1.00  0.00     0.302 C 
ATOM     32  O   UNL     1      26.320 -29.647  28.327  1.00  0.00    -0.253 OA
ATOM     33  C   UNL     1      27.360 -31.794  28.211  1.00  0.00     0.139 C 
ENDBRANCH  30  31
ENDBRANCH  25  30
ENDBRANCH   2   6
ENDBRANCH   1   2
BRANCH   1  34
ATOM     34  C   UNL     1      14.603 -33.516  21.001  1.00  0.00     0.031 C 
BRANCH  34  35
ATOM     35  C   UNL     1      14.317 -32.236  21.768  1.00  0.00    -0.075 C 
ATOM     36  C   UNL     1      13.571 -31.273  21.177  1.00  0.00     0.008 C 
BRANCH  35  37
ATOM     37  C   UNL     1      14.878 -32.047  23.170  1.00  0.00     0.008 C 
ATOM     38  C   UNL     1      13.828 -32.429  24.226  1.00  0.00     0.012 C 
ATOM     39  C   UNL     1      15.411 -30.625  23.405  1.00  0.00     0.012 C 
ENDBRANCH  35  37
ENDBRANCH  34  35
ENDBRANCH   1  34
TORSDOF 9
ENDMDL
MODEL 9
REMARK VINA RESULT:    -6.564      2.406      4.444
REMARK INTER + INTRA:         -12.069
REMARK INTER:                 -10.431
REMARK INTRA:                  -1.638
REMARK UNBOUND:                -2.243
REMARK SMILES C=C(CC[C@H](C(=O)[O-])[C@H]1[C@H](O)C[C@@]2(C)C3=C(CC[C@@]12C)[C@@]1(C)CC[C@@H](OC(C)=O)C(C)(C)[C@H]1CC3)C(C)C
REMARK SMILES IDX 4 1 5 2 6 3 7 4 8 5 9 6 10 7 19 8 12 9 13 10 18 11 20 12
REMARK SMILES IDX 14 13 15 14 17 15 16 16 35 17 21 18 34 19 33 20 23 21 22 22
REMARK SMILES IDX 30 23 24 24 25 25 31 26 32 27 11 28 26 30 27 31 29 32 28 33
REMARK SMILES IDX 3 34 2 35 1 36 36 37 37 38 38 39
REMARK H PARENT 11 29
REMARK Flexibility Score: inf
ROOT
ATOM      1  C   UNL     1      15.267 -33.645  20.682  1.00  0.00     0.014 C 
ENDROOT
BRANCH   1   2
ATOM      2  C   UNL     1      15.914 -33.344  22.067  1.00  0.00     0.042 C 
BRANCH   2   3
ATOM      3  C   UNL     1      14.888 -33.053  23.140  1.00  0.00     0.045 C 
ATOM      4  O   UNL     1      14.956 -33.679  24.235  1.00  0.00    -0.550 OA
ATOM      5  O   UNL     1      13.860 -32.131  22.942  1.00  0.00    -0.550 OA
ENDBRANCH   2   3
BRANCH   2   6
ATOM      6  C   UNL     1      17.126 -32.362  21.956  1.00  0.00     0.033 C 
ATOM      7  C   UNL     1      16.874 -30.878  22.267  1.00  0.00     0.119 C 
ATOM      8  C   UNL     1      18.475 -32.712  22.649  1.00  0.00    -0.017 C 
ATOM      9  C   UNL     1      18.269 -30.281  22.538  1.00  0.00     0.043 C 
ATOM     10  C   UNL     1      19.315 -31.418  22.332  1.00  0.00    -0.003 C 
ATOM     11  C   UNL     1      18.336 -32.852  24.197  1.00  0.00     0.012 C 
ATOM     12  C   UNL     1      19.084 -34.033  22.080  1.00  0.00     0.013 C 
ATOM     13  C   UNL     1      19.816 -31.403  20.827  1.00  0.00     0.017 C 
ATOM     14  C   UNL     1      20.500 -31.148  23.294  1.00  0.00    -0.064 C 
ATOM     15  C   UNL     1      19.697 -32.905  24.868  1.00  0.00     0.032 C 
ATOM     16  C   UNL     1      20.563 -31.701  24.545  1.00  0.00    -0.064 C 
ATOM     17  C   UNL     1      21.489 -30.066  22.884  1.00  0.00     0.032 C 
ATOM     18  C   UNL     1      21.382 -31.067  25.708  1.00  0.00    -0.008 C 
ATOM     19  C   UNL     1      21.984 -29.230  24.036  1.00  0.00     0.009 C 
ATOM     20  C   UNL     1      22.500 -30.099  25.193  1.00  0.00     0.009 C 
ATOM     21  C   UNL     1      22.016 -32.187  26.626  1.00  0.00     0.015 C 
ATOM     22  C   UNL     1      20.378 -30.261  26.560  1.00  0.00     0.016 C 
ATOM     23  C   UNL     1      23.906 -30.793  25.001  1.00  0.00     0.005 C 
ATOM     24  C   UNL     1      23.293 -31.748  27.368  1.00  0.00     0.047 C 
ATOM     25  C   UNL     1      24.398 -31.188  26.439  1.00  0.00     0.182 C 
ATOM     26  C   UNL     1      24.944 -29.789  24.422  1.00  0.00     0.015 C 
ATOM     27  C   UNL     1      23.874 -32.041  24.054  1.00  0.00     0.015 C 
BRANCH   7  28
ATOM     28  O   UNL     1      16.268 -30.232  21.176  1.00  0.00    -0.393 OA
ATOM     29  H   UNL     1      16.039 -30.957  20.542  1.00  0.00     0.210 HD
ENDBRANCH   7  28
BRANCH  25  30
ATOM     30  O   UNL     1      25.514 -32.081  26.346  1.00  0.00    -0.462 OA
BRANCH  30  31
ATOM     31  C   UNL     1      26.784 -31.810  26.863  1.00  0.00     0.302 C 
ATOM     32  O   UNL     1      27.738 -31.504  26.093  1.00  0.00    -0.253 OA
ATOM     33  C   UNL     1      27.011 -31.881  28.338  1.00  0.00     0.139 C 
ENDBRANCH  30  31
ENDBRANCH  25  30
ENDBRANCH   2   6
ENDBRANCH   1   2
BRANCH   1  34
ATOM     34  C   UNL     1      15.256 -35.142  20.291  1.00  0.00     0.031 C 
BRANCH  34  35
ATOM     35  C   UNL     1      16.605 -35.602  19.763  1.00  0.00    -0.075 C 
ATOM     36  C   UNL     1      17.330 -34.756  18.996  1.00  0.00     0.008 C 
BRANCH  35  37
ATOM     37  C   UNL     1      17.113 -37.000  20.088  1.00  0.00     0.008 C 
ATOM     38  C   UNL     1      17.988 -36.975  21.351  1.00  0.00     0.012 C 
ATOM     39  C   UNL     1      17.857 -37.646  18.909  1.00  0.00     0.012 C 
ENDBRANCH  35  37
ENDBRANCH  34  35
ENDBRANCH   1  34
TORSDOF 9
ENDMDL
