MODEL 1
REMARK VINA RESULT:     1.605      0.000      0.000
REMARK INTER + INTRA:           1.637
REMARK INTER:                   2.544
REMARK INTRA:                  -0.906
REMARK UNBOUND:                -0.906
REMARK SMILES C[C@@H]1O[C@@H](O[C@H]2[C@@H](Oc3cc(O)c4c(c3)O[C@H](c3ccc(O)cc3)CC4=O)O[C@@H](CO)[C@@H](O)[C@@H]2O)[C@H](O)[C@@H](O)[C@H]1O
REMARK SMILES IDX 6 1 34 2 32 3 29 4 28 5 7 6 5 7 4 8 1 9 2 10 40 11 3 12
REMARK SMILES IDX 38 13 36 14 41 15 39 17 37 19 35 21 8 23 9 24 10 25 15 26
REMARK SMILES IDX 11 27 14 28 13 29 16 30 26 31 17 32 27 33 25 34 12 35 18 37
REMARK SMILES IDX 19 38 24 39 20 40 23 41 21 42 22 43 33 45 30 47 31 48
REMARK H PARENT 41 16 39 18 37 20 35 22 12 36 22 44 33 46 31 49
REMARK Flexibility Score: inf
ROOT
ATOM      1  C   UNL     1      10.264  22.463   1.204  1.00  0.00     0.221 C 
ATOM      2  C   UNL     1       8.910  21.800   1.602  1.00  0.00     0.181 C 
ATOM      3  C   UNL     1       7.949  22.955   2.003  1.00  0.00     0.177 C 
ATOM      4  C   UNL     1       8.175  24.153   1.031  1.00  0.00     0.179 C 
ATOM      5  O   UNL     1       8.630  23.601  -0.234  1.00  0.00    -0.332 OA
ATOM      6  C   UNL     1      10.016  23.234  -0.171  1.00  0.00     0.339 C 
ENDROOT
BRANCH   1   7
ATOM      7  O   UNL     1      11.165  21.438   1.026  1.00  0.00    -0.337 OA
BRANCH   7   8
ATOM      8  C   UNL     1      12.142  20.964   1.981  1.00  0.00     0.282 C 
ATOM      9  C   UNL     1      14.012  23.412   0.068  1.00  0.00     0.041 C 
ATOM     10  C   UNL     1      13.473  21.926   0.328  1.00  0.00     0.150 C 
ATOM     11  C   UNL     1      13.697  20.429  -0.364  1.00  0.00     0.174 C 
ATOM     12  O   UNL     1      13.337  21.750   1.732  1.00  0.00    -0.344 OA
ATOM     13  C   UNL     1      12.764  19.183   0.248  1.00  0.00     0.179 C 
ATOM     14  C   UNL     1      12.698  19.541   1.729  1.00  0.00     0.202 C 
BRANCH  11  15
ATOM     15  O   UNL     1      13.858  20.504  -1.749  1.00  0.00    -0.388 OA
ATOM     16  H   UNL     1      14.394  19.691  -2.014  1.00  0.00     0.211 HD
ENDBRANCH  11  15
BRANCH  13  17
ATOM     17  O   UNL     1      11.410  19.256  -0.140  1.00  0.00    -0.387 OA
ATOM     18  H   UNL     1      10.810  18.843   0.564  1.00  0.00     0.211 HD
ENDBRANCH  13  17
BRANCH  14  19
ATOM     19  O   UNL     1      14.097  19.353   2.192  1.00  0.00    -0.385 OA
ATOM     20  H   UNL     1      14.636  20.174   1.975  1.00  0.00     0.211 HD
ENDBRANCH  14  19
ENDBRANCH   7   8
ENDBRANCH   1   7
BRANCH   2  21
ATOM     21  O   UNL     1       8.882  20.753   2.588  1.00  0.00    -0.387 OA
ATOM     22  H   UNL     1       7.969  20.409   2.699  1.00  0.00     0.211 HD
ENDBRANCH   2  21
BRANCH   6  23
ATOM     23  O   UNL     1      10.505  22.352  -1.288  1.00  0.00    -0.462 OA
BRANCH  23  24
ATOM     24  C   UNL     1      11.110  22.780  -2.542  1.00  0.00     0.130 A 
ATOM     25  C   UNL     1      12.484  22.501  -2.839  1.00  0.00     0.093 A 
ATOM     26  C   UNL     1      10.359  23.497  -3.477  1.00  0.00     0.094 A 
ATOM     27  C   UNL     1      12.969  22.804  -4.133  1.00  0.00     0.133 A 
ATOM     28  C   UNL     1      10.920  23.907  -4.687  1.00  0.00     0.138 A 
ATOM     29  C   UNL     1      12.205  23.555  -5.023  1.00  0.00     0.102 A 
ATOM     30  O   UNL     1      10.130  24.603  -5.597  1.00  0.00    -0.484 OA
ATOM     31  C   UNL     1      12.612  23.833  -6.473  1.00  0.00     0.174 C 
ATOM     32  C   UNL     1      10.484  24.958  -6.985  1.00  0.00     0.211 C 
ATOM     33  O   UNL     1      13.832  24.121  -6.786  1.00  0.00    -0.294 OA
ATOM     34  C   UNL     1      11.574  24.011  -7.527  1.00  0.00     0.131 C 
BRANCH  27  35
ATOM     35  O   UNL     1      14.121  22.164  -4.567  1.00  0.00    -0.507 OA
ATOM     36  H   UNL     1      14.258  21.141  -4.319  1.00  0.00     0.293 HD
ENDBRANCH  27  35
BRANCH  32  37
ATOM     37  C   UNL     1       9.157  24.904  -7.851  1.00  0.00    -0.007 A 
ATOM     38  C   UNL     1       7.952  24.303  -7.380  1.00  0.00     0.011 A 
ATOM     39  C   UNL     1       9.328  25.064  -9.240  1.00  0.00     0.011 A 
ATOM     40  C   UNL     1       7.095  23.632  -8.311  1.00  0.00     0.046 A 
ATOM     41  C   UNL     1       8.686  24.104 -10.032  1.00  0.00     0.046 A 
ATOM     42  C   UNL     1       7.550  23.411  -9.648  1.00  0.00     0.115 A 
BRANCH  42  43
ATOM     43  O   UNL     1       6.867  22.497 -10.520  1.00  0.00    -0.508 OA
ATOM     44  H   UNL     1       7.013  21.411 -10.528  1.00  0.00     0.293 HD
ENDBRANCH  42  43
ENDBRANCH  32  37
ENDBRANCH  23  24
ENDBRANCH   6  23
BRANCH   3  45
ATOM     45  O   UNL     1       6.573  22.500   2.113  1.00  0.00    -0.387 OA
ATOM     46  H   UNL     1       6.090  23.167   2.670  1.00  0.00     0.211 HD
ENDBRANCH   3  45
BRANCH   4  47
ATOM     47  C   UNL     1       6.956  25.125   0.791  1.00  0.00     0.191 C 
BRANCH  47  48
ATOM     48  O   UNL     1       6.503  24.858  -0.530  1.00  0.00    -0.394 OA
ATOM     49  H   UNL     1       5.788  25.551  -0.748  1.00  0.00     0.210 HD
ENDBRANCH  47  48
ENDBRANCH   4  47
TORSDOF 14
ENDMDL
MODEL 2
REMARK VINA RESULT:     4.040      9.513     16.810
REMARK INTER + INTRA:           5.496
REMARK INTER:                   5.882
REMARK INTRA:                  -0.386
REMARK UNBOUND:                -0.906
REMARK SMILES C[C@@H]1O[C@@H](O[C@H]2[C@@H](Oc3cc(O)c4c(c3)O[C@H](c3ccc(O)cc3)CC4=O)O[C@@H](CO)[C@@H](O)[C@@H]2O)[C@H](O)[C@@H](O)[C@H]1O
REMARK SMILES IDX 6 1 34 2 32 3 29 4 28 5 7 6 5 7 4 8 1 9 2 10 40 11 3 12
REMARK SMILES IDX 38 13 36 14 41 15 39 17 37 19 35 21 8 23 9 24 10 25 15 26
REMARK SMILES IDX 11 27 14 28 13 29 16 30 26 31 17 32 27 33 25 34 12 35 18 37
REMARK SMILES IDX 19 38 24 39 20 40 23 41 21 42 22 43 33 45 30 47 31 48
REMARK H PARENT 41 16 39 18 37 20 35 22 12 36 22 44 33 46 31 49
REMARK Flexibility Score: inf
ROOT
ATOM      1  C   UNL     1      -3.317  22.755 -12.242  1.00  0.00     0.221 C 
ATOM      2  C   UNL     1      -4.248  23.732 -11.461  1.00  0.00     0.181 C 
ATOM      3  C   UNL     1      -4.089  23.389  -9.953  1.00  0.00     0.177 C 
ATOM      4  C   UNL     1      -2.591  23.069  -9.668  1.00  0.00     0.179 C 
ATOM      5  O   UNL     1      -1.800  23.819 -10.629  1.00  0.00    -0.332 OA
ATOM      6  C   UNL     1      -1.815  23.187 -11.918  1.00  0.00     0.339 C 
ENDROOT
BRANCH   1   7
ATOM      7  O   UNL     1      -3.592  22.934 -13.578  1.00  0.00    -0.337 OA
BRANCH   7   8
ATOM      8  C   UNL     1      -4.892  23.138 -14.178  1.00  0.00     0.282 C 
ATOM      9  C   UNL     1      -4.639  19.525 -14.024  1.00  0.00     0.041 C 
ATOM     10  C   UNL     1      -4.409  20.933 -14.753  1.00  0.00     0.150 C 
ATOM     11  C   UNL     1      -3.850  21.441 -16.236  1.00  0.00     0.174 C 
ATOM     12  O   UNL     1      -5.451  21.810 -14.347  1.00  0.00    -0.344 OA
ATOM     13  C   UNL     1      -3.698  23.093 -16.444  1.00  0.00     0.179 C 
ATOM     14  C   UNL     1      -4.889  23.619 -15.650  1.00  0.00     0.202 C 
BRANCH  11  15
ATOM     15  O   UNL     1      -2.828  20.624 -16.725  1.00  0.00    -0.388 OA
ATOM     16  H   UNL     1      -2.998  20.525 -17.716  1.00  0.00     0.211 HD
ENDBRANCH  11  15
BRANCH  13  17
ATOM     17  O   UNL     1      -2.604  23.645 -15.746  1.00  0.00    -0.387 OA
ATOM     18  H   UNL     1      -2.674  23.453 -14.754  1.00  0.00     0.211 HD
ENDBRANCH  13  17
BRANCH  14  19
ATOM     19  O   UNL     1      -6.060  23.151 -16.436  1.00  0.00    -0.385 OA
ATOM     20  H   UNL     1      -6.039  23.568 -17.350  1.00  0.00     0.211 HD
ENDBRANCH  14  19
ENDBRANCH   7   8
ENDBRANCH   1   7
BRANCH   2  21
ATOM     21  O   UNL     1      -5.638  23.839 -11.814  1.00  0.00    -0.387 OA
ATOM     22  H   UNL     1      -6.128  23.035 -11.530  1.00  0.00     0.211 HD
ENDBRANCH   2  21
BRANCH   6  23
ATOM     23  O   UNL     1      -1.323  24.035 -13.060  1.00  0.00    -0.462 OA
BRANCH  23  24
ATOM     24  C   UNL     1      -0.038  23.932 -13.737  1.00  0.00     0.130 A 
ATOM     25  C   UNL     1       0.045  23.794 -15.161  1.00  0.00     0.093 A 
ATOM     26  C   UNL     1       1.149  23.946 -12.999  1.00  0.00     0.094 A 
ATOM     27  C   UNL     1       1.320  23.856 -15.771  1.00  0.00     0.133 A 
ATOM     28  C   UNL     1       2.390  23.859 -13.632  1.00  0.00     0.138 A 
ATOM     29  C   UNL     1       2.481  23.828 -15.003  1.00  0.00     0.102 A 
ATOM     30  O   UNL     1       3.547  23.895 -12.859  1.00  0.00    -0.484 OA
ATOM     31  C   UNL     1       3.890  24.001 -15.578  1.00  0.00     0.174 C 
ATOM     32  C   UNL     1       4.935  23.996 -13.350  1.00  0.00     0.211 C 
ATOM     33  O   UNL     1       4.236  23.439 -16.689  1.00  0.00    -0.294 OA
ATOM     34  C   UNL     1       4.968  24.621 -14.759  1.00  0.00     0.131 C 
BRANCH  27  35
ATOM     35  O   UNL     1       1.384  24.156 -17.125  1.00  0.00    -0.507 OA
ATOM     36  H   UNL     1       1.807  25.084 -17.420  1.00  0.00     0.293 HD
ENDBRANCH  27  35
BRANCH  32  37
ATOM     37  C   UNL     1       5.759  24.846 -12.296  1.00  0.00    -0.007 A 
ATOM     38  C   UNL     1       7.182  24.953 -12.334  1.00  0.00     0.011 A 
ATOM     39  C   UNL     1       5.099  25.122 -11.083  1.00  0.00     0.011 A 
ATOM     40  C   UNL     1       7.909  25.051 -11.105  1.00  0.00     0.046 A 
ATOM     41  C   UNL     1       5.838  24.841  -9.928  1.00  0.00     0.046 A 
ATOM     42  C   UNL     1       7.223  24.849  -9.867  1.00  0.00     0.115 A 
BRANCH  42  43
ATOM     43  O   UNL     1       7.947  24.642  -8.645  1.00  0.00    -0.508 OA
ATOM     44  H   UNL     1       8.442  23.707  -8.360  1.00  0.00     0.293 HD
ENDBRANCH  42  43
ENDBRANCH  32  37
ENDBRANCH  23  24
ENDBRANCH   6  23
BRANCH   3  45
ATOM     45  O   UNL     1      -4.675  24.412  -9.101  1.00  0.00    -0.387 OA
ATOM     46  H   UNL     1      -5.401  23.976  -8.581  1.00  0.00     0.211 HD
ENDBRANCH   3  45
BRANCH   4  47
ATOM     47  C   UNL     1      -2.062  23.336  -8.206  1.00  0.00     0.191 C 
BRANCH  47  48
ATOM     48  O   UNL     1      -2.258  24.723  -7.970  1.00  0.00    -0.394 OA
ATOM     49  H   UNL     1      -3.029  24.811  -7.309  1.00  0.00     0.210 HD
ENDBRANCH  47  48
ENDBRANCH   4  47
TORSDOF 14
ENDMDL
