MODEL 1
REMARK VINA RESULT:    -5.318      0.000      0.000
REMARK INTER + INTRA:         -13.932
REMARK INTER:                 -11.224
REMARK INTRA:                  -2.708
REMARK UNBOUND:                -2.708
REMARK SMILES CCC(=O)CCCCC[C@H]1NC(=O)[C@H]2CCCCN2C(=O)[C@H]([C@H](C)CC)NC(=O)[C@@H](Cc2cn(OC)c3ccccc23)NC1=O
REMARK SMILES IDX 9 1 10 2 44 3 43 4 45 6 30 7 28 8 27 9 29 11 22 12 23 14
REMARK SMILES IDX 24 15 25 16 26 17 31 18 32 19 33 20 42 21 34 22 37 23 41 24
REMARK SMILES IDX 38 25 40 26 39 27 35 28 36 29 11 30 12 31 13 33 14 34 19 35
REMARK SMILES IDX 15 36 18 37 16 38 17 39 20 40 21 41 8 43 7 44 6 45 5 46 3 47
REMARK SMILES IDX 4 48 2 49 1 50
REMARK H PARENT 43 5 27 10 11 32
REMARK Flexibility Score: 80.00
ROOT
ATOM      1  C   UNL     1     -26.071 -23.952  41.081  1.00  0.00     0.035 C 
ENDROOT
BRANCH   1   2
ATOM      2  C   UNL     1     -24.773 -23.123  41.235  1.00  0.00     0.171 C 
BRANCH   2   3
ATOM      3  C   UNL     1     -24.786 -21.847  40.427  1.00  0.00     0.243 C 
ATOM      4  N   UNL     1     -24.839 -20.582  41.113  1.00  0.00    -0.342 N 
ATOM      5  H   UNL     1     -25.133 -20.614  42.117  1.00  0.00     0.164 HD
ATOM      6  O   UNL     1     -24.765 -21.893  39.166  1.00  0.00    -0.273 OA
BRANCH   4   7
ATOM      7  C   UNL     1     -24.168 -19.338  40.700  1.00  0.00     0.175 C 
BRANCH   7   8
ATOM      8  C   UNL     1     -23.152 -19.634  39.625  1.00  0.00     0.243 C 
ATOM      9  N   UNL     1     -22.063 -20.537  39.882  1.00  0.00    -0.342 N 
ATOM     10  H   UNL     1     -22.210 -21.156  40.705  1.00  0.00     0.164 HD
ATOM     11  O   UNL     1     -23.314 -19.122  38.489  1.00  0.00    -0.273 OA
BRANCH   9  12
ATOM     12  C   UNL     1     -21.050 -20.969  38.900  1.00  0.00     0.174 CG0
ATOM     13  G   UNL     1     -21.091 -22.492  38.743  1.00  0.00     0.000 G0
BRANCH  12  14
ATOM     14  C   UNL     1     -19.629 -20.371  39.165  1.00  0.00     0.018 C 
ATOM     15  C   UNL     1     -19.598 -19.476  40.419  1.00  0.00     0.010 C 
BRANCH  14  16
ATOM     16  C   UNL     1     -18.991 -19.714  37.912  1.00  0.00     0.002 C 
ATOM     17  C   UNL     1     -18.079 -20.668  37.139  1.00  0.00     0.004 C 
ENDBRANCH  14  16
ENDBRANCH  12  14
ENDBRANCH   9  12
ENDBRANCH   7   8
BRANCH   7  18
ATOM     18  C   UNL     1     -25.134 -18.217  40.268  1.00  0.00     0.073 C 
BRANCH  18  19
ATOM     19  C   UNL     1     -26.458 -18.344  40.970  1.00  0.00    -0.016 A 
ATOM     20  C   UNL     1     -27.613 -18.919  40.456  1.00  0.00     0.134 A 
ATOM     21  C   UNL     1     -26.724 -18.103  42.303  1.00  0.00     0.006 A 
ATOM     22  N   UNL     1     -28.560 -19.027  41.417  1.00  0.00    -0.191 N 
ATOM     23  C   UNL     1     -28.013 -18.523  42.555  1.00  0.00     0.087 A 
ATOM     24  C   UNL     1     -25.904 -17.577  43.303  1.00  0.00     0.011 A 
ATOM     25  C   UNL     1     -28.561 -18.403  43.845  1.00  0.00     0.030 A 
ATOM     26  C   UNL     1     -26.430 -17.467  44.599  1.00  0.00     0.001 A 
ATOM     27  C   UNL     1     -27.755 -17.867  44.866  1.00  0.00     0.002 A 
BRANCH  22  28
ATOM     28  O   UNL     1     -29.785 -19.635  41.185  1.00  0.00    -0.417 OA
ATOM     29  C   UNL     1     -29.981 -20.781  40.369  1.00  0.00     0.313 C 
ENDBRANCH  22  28
ENDBRANCH  18  19
ENDBRANCH   7  18
ENDBRANCH   4   7
ENDBRANCH   2   3
BRANCH   2  30
ATOM     30  N   UNL     1     -23.582 -23.915  40.900  1.00  0.00    -0.343 N 
ATOM     31  C   UNL     1     -22.241 -23.537  41.262  1.00  0.00     0.243 C 
ATOM     32  H   UNL     1     -23.716 -24.763  40.307  1.00  0.00     0.164 HD
ATOM     33  O   UNL     1     -22.044 -22.623  42.109  1.00  0.00    -0.273 OA
BRANCH  31  34
ATOM     34  C   UNL     1     -21.068 -24.234  40.623  1.00  0.00     0.174 C 
ATOM     35  N   UNL     1     -20.395 -23.442  39.574  1.00  0.00    -0.329 N 
ATOM     36  C   UNL     1     -21.461 -25.626  40.075  1.00  0.00     0.035 C 
ATOM     37  C   UNL     1     -19.158 -24.019  39.009  1.00  0.00     0.120 C 
ATOM     38  C   UNL     1     -20.400 -26.215  39.120  1.00  0.00     0.004 C 
ATOM     39  C   UNL     1     -19.037 -25.530  39.260  1.00  0.00     0.022 C 
BRANCH  35  40
ATOM     40  C   UNL     1     -21.125 -22.505  38.751  1.00  0.00     0.246 CG0
ATOM     41  O   UNL     1     -21.904 -22.965  37.870  1.00  0.00    -0.272 OA
ATOM     42  G   UNL     1     -21.027 -20.984  38.901  1.00  0.00     0.000 G0
ENDBRANCH  35  40
ENDBRANCH  31  34
ENDBRANCH   2  30
ENDBRANCH   1   2
BRANCH   1  43
ATOM     43  C   UNL     1     -26.333 -24.930  42.241  1.00  0.00     0.003 C 
BRANCH  43  44
ATOM     44  C   UNL     1     -26.947 -26.278  41.830  1.00  0.00     0.001 C 
BRANCH  44  45
ATOM     45  C   UNL     1     -26.065 -27.126  40.893  1.00  0.00     0.008 C 
BRANCH  45  46
ATOM     46  C   UNL     1     -24.791 -27.688  41.558  1.00  0.00     0.075 C 
BRANCH  46  47
ATOM     47  C   UNL     1     -24.258 -28.948  40.915  1.00  0.00     0.132 C 
ATOM     48  O   UNL     1     -24.829 -30.012  41.099  1.00  0.00    -0.300 OA
BRANCH  47  49
ATOM     49  C   UNL     1     -22.930 -28.941  40.196  1.00  0.00     0.072 C 
ATOM     50  C   UNL     1     -23.091 -28.714  38.693  1.00  0.00     0.012 C 
ENDBRANCH  47  49
ENDBRANCH  46  47
ENDBRANCH  45  46
ENDBRANCH  44  45
ENDBRANCH  43  44
ENDBRANCH   1  43
TORSDOF 12
ENDMDL
MODEL 2
REMARK VINA RESULT:    -5.301      3.073      7.443
REMARK INTER + INTRA:         -13.897
REMARK INTER:                 -12.379
REMARK INTRA:                  -1.518
REMARK UNBOUND:                -2.708
REMARK SMILES CCC(=O)CCCCC[C@H]1NC(=O)[C@H]2CCCCN2C(=O)[C@H]([C@H](C)CC)NC(=O)[C@@H](Cc2cn(OC)c3ccccc23)NC1=O
REMARK SMILES IDX 9 1 10 2 44 3 43 4 45 6 30 7 28 8 27 9 29 11 22 12 23 14
REMARK SMILES IDX 24 15 25 16 26 17 31 18 32 19 33 20 42 21 34 22 37 23 41 24
REMARK SMILES IDX 38 25 40 26 39 27 35 28 36 29 11 30 12 31 13 33 14 34 19 35
REMARK SMILES IDX 15 36 18 37 16 38 17 39 20 40 21 41 8 43 7 44 6 45 5 46 3 47
REMARK SMILES IDX 4 48 2 49 1 50
REMARK H PARENT 43 5 27 10 11 32
REMARK Flexibility Score: 80.00
ROOT
ATOM      1  C   UNL     1     -24.899 -26.052  42.511  1.00  0.00     0.035 C 
ENDROOT
BRANCH   1   2
ATOM      2  C   UNL     1     -25.312 -25.286  41.231  1.00  0.00     0.171 C 
BRANCH   2   3
ATOM      3  C   UNL     1     -24.504 -24.029  41.008  1.00  0.00     0.243 C 
ATOM      4  N   UNL     1     -25.021 -23.009  40.131  1.00  0.00    -0.342 N 
ATOM      5  H   UNL     1     -25.795 -23.300  39.491  1.00  0.00     0.164 HD
ATOM      6  O   UNL     1     -23.384 -23.885  41.571  1.00  0.00    -0.273 OA
BRANCH   4   7
ATOM      7  C   UNL     1     -24.868 -21.554  40.304  1.00  0.00     0.175 C 
BRANCH   7   8
ATOM      8  C   UNL     1     -26.006 -21.011  41.132  1.00  0.00     0.243 C 
ATOM      9  N   UNL     1     -27.249 -21.730  41.221  1.00  0.00    -0.342 N 
ATOM     10  H   UNL     1     -27.182 -22.729  40.939  1.00  0.00     0.164 HD
ATOM     11  O   UNL     1     -25.820 -19.955  41.787  1.00  0.00    -0.273 OA
BRANCH   9  12
ATOM     12  C   UNL     1     -28.407 -21.351  42.052  1.00  0.00     0.174 CG0
ATOM     13  G   UNL     1     -28.995 -22.593  42.727  1.00  0.00     0.000 G0
BRANCH  12  14
ATOM     14  C   UNL     1     -29.446 -20.453  41.303  1.00  0.00     0.018 C 
ATOM     15  C   UNL     1     -29.183 -20.401  39.785  1.00  0.00     0.010 C 
BRANCH  14  16
ATOM     16  C   UNL     1     -29.641 -19.057  41.952  1.00  0.00     0.002 C 
ATOM     17  C   UNL     1     -30.223 -18.026  40.984  1.00  0.00     0.004 C 
ENDBRANCH  14  16
ENDBRANCH  12  14
ENDBRANCH   9  12
ENDBRANCH   7   8
BRANCH   7  18
ATOM     18  C   UNL     1     -23.501 -21.131  40.879  1.00  0.00     0.073 C 
BRANCH  18  19
ATOM     19  C   UNL     1     -22.599 -20.606  39.797  1.00  0.00    -0.016 A 
ATOM     20  C   UNL     1     -21.517 -21.268  39.231  1.00  0.00     0.134 A 
ATOM     21  C   UNL     1     -22.784 -19.473  39.031  1.00  0.00     0.006 A 
ATOM     22  N   UNL     1     -21.043 -20.582  38.166  1.00  0.00    -0.191 N 
ATOM     23  C   UNL     1     -21.822 -19.475  38.042  1.00  0.00     0.087 A 
ATOM     24  C   UNL     1     -23.752 -18.472  39.123  1.00  0.00     0.011 A 
ATOM     25  C   UNL     1     -21.767 -18.431  37.100  1.00  0.00     0.030 A 
ATOM     26  C   UNL     1     -23.723 -17.434  38.179  1.00  0.00     0.001 A 
ATOM     27  C   UNL     1     -22.728 -17.408  37.181  1.00  0.00     0.002 A 
BRANCH  22  28
ATOM     28  O   UNL     1     -20.008 -21.063  37.376  1.00  0.00    -0.417 OA
ATOM     29  C   UNL     1     -18.628 -20.826  37.612  1.00  0.00     0.313 C 
ENDBRANCH  22  28
ENDBRANCH  18  19
ENDBRANCH   7  18
ENDBRANCH   4   7
ENDBRANCH   2   3
BRANCH   2  30
ATOM     30  N   UNL     1     -26.745 -24.964  41.231  1.00  0.00    -0.343 N 
ATOM     31  C   UNL     1     -27.604 -25.134  42.374  1.00  0.00     0.243 C 
ATOM     32  H   UNL     1     -27.172 -24.659  40.329  1.00  0.00     0.164 HD
ATOM     33  O   UNL     1     -27.110 -25.338  43.517  1.00  0.00    -0.273 OA
BRANCH  31  34
ATOM     34  C   UNL     1     -29.099 -25.073  42.202  1.00  0.00     0.174 C 
ATOM     35  N   UNL     1     -29.638 -23.702  42.087  1.00  0.00    -0.329 N 
ATOM     36  C   UNL     1     -29.835 -25.846  43.321  1.00  0.00     0.035 C 
ATOM     37  C   UNL     1     -31.078 -23.587  41.780  1.00  0.00     0.120 C 
ATOM     38  C   UNL     1     -31.343 -25.522  43.381  1.00  0.00     0.004 C 
ATOM     39  C   UNL     1     -31.858 -24.874  42.092  1.00  0.00     0.022 C 
BRANCH  35  40
ATOM     40  C   UNL     1     -29.012 -22.587  42.762  1.00  0.00     0.246 CG0
ATOM     41  O   UNL     1     -28.958 -22.608  44.023  1.00  0.00    -0.272 OA
ATOM     42  G   UNL     1     -28.390 -21.393  42.034  1.00  0.00     0.000 G0
ENDBRANCH  35  40
ENDBRANCH  31  34
ENDBRANCH   2  30
ENDBRANCH   1   2
BRANCH   1  43
ATOM     43  C   UNL     1     -24.499 -27.518  42.263  1.00  0.00     0.003 C 
BRANCH  43  44
ATOM     44  C   UNL     1     -24.259 -27.888  40.790  1.00  0.00     0.001 C 
BRANCH  44  45
ATOM     45  C   UNL     1     -22.854 -28.448  40.490  1.00  0.00     0.008 C 
BRANCH  45  46
ATOM     46  C   UNL     1     -22.490 -28.477  38.991  1.00  0.00     0.075 C 
BRANCH  46  47
ATOM     47  C   UNL     1     -21.542 -27.382  38.561  1.00  0.00     0.132 C 
ATOM     48  O   UNL     1     -21.174 -27.319  37.397  1.00  0.00    -0.300 OA
BRANCH  47  49
ATOM     49  C   UNL     1     -20.903 -26.472  39.583  1.00  0.00     0.072 C 
ATOM     50  C   UNL     1     -21.118 -24.994  39.253  1.00  0.00     0.012 C 
ENDBRANCH  47  49
ENDBRANCH  46  47
ENDBRANCH  45  46
ENDBRANCH  44  45
ENDBRANCH  43  44
ENDBRANCH   1  43
TORSDOF 12
ENDMDL
MODEL 3
REMARK VINA RESULT:    -5.002      0.926      1.891
REMARK INTER + INTRA:         -13.266
REMARK INTER:                 -10.970
REMARK INTRA:                  -2.296
REMARK UNBOUND:                -2.708
REMARK SMILES CCC(=O)CCCCC[C@H]1NC(=O)[C@H]2CCCCN2C(=O)[C@H]([C@H](C)CC)NC(=O)[C@@H](Cc2cn(OC)c3ccccc23)NC1=O
REMARK SMILES IDX 9 1 10 2 44 3 43 4 45 6 30 7 28 8 27 9 29 11 22 12 23 14
REMARK SMILES IDX 24 15 25 16 26 17 31 18 32 19 33 20 42 21 34 22 37 23 41 24
REMARK SMILES IDX 38 25 40 26 39 27 35 28 36 29 11 30 12 31 13 33 14 34 19 35
REMARK SMILES IDX 15 36 18 37 16 38 17 39 20 40 21 41 8 43 7 44 6 45 5 46 3 47
REMARK SMILES IDX 4 48 2 49 1 50
REMARK H PARENT 43 5 27 10 11 32
REMARK Flexibility Score: 80.00
ROOT
ATOM      1  C   UNL     1     -26.142 -24.015  41.121  1.00  0.00     0.035 C 
ENDROOT
BRANCH   1   2
ATOM      2  C   UNL     1     -24.888 -23.116  41.248  1.00  0.00     0.171 C 
BRANCH   2   3
ATOM      3  C   UNL     1     -24.980 -21.853  40.424  1.00  0.00     0.243 C 
ATOM      4  N   UNL     1     -25.159 -20.590  41.093  1.00  0.00    -0.342 N 
ATOM      5  H   UNL     1     -25.480 -20.637  42.088  1.00  0.00     0.164 HD
ATOM      6  O   UNL     1     -24.917 -21.909  39.164  1.00  0.00    -0.273 OA
BRANCH   4   7
ATOM      7  C   UNL     1     -24.578 -19.299  40.685  1.00  0.00     0.175 C 
BRANCH   7   8
ATOM      8  C   UNL     1     -23.531 -19.518  39.622  1.00  0.00     0.243 C 
ATOM      9  N   UNL     1     -22.555 -20.565  39.767  1.00  0.00    -0.342 N 
ATOM     10  H   UNL     1     -22.815 -21.294  40.462  1.00  0.00     0.164 HD
ATOM     11  O   UNL     1     -23.570 -18.807  38.586  1.00  0.00    -0.273 OA
BRANCH   9  12
ATOM     12  C   UNL     1     -21.530 -20.932  38.771  1.00  0.00     0.174 CG0
ATOM     13  G   UNL     1     -21.409 -22.456  38.684  1.00  0.00     0.000 G0
BRANCH  12  14
ATOM     14  C   UNL     1     -20.176 -20.173  38.960  1.00  0.00     0.018 C 
ATOM     15  C   UNL     1     -20.255 -19.107  40.070  1.00  0.00     0.010 C 
BRANCH  14  16
ATOM     16  C   UNL     1     -19.570 -19.648  37.632  1.00  0.00     0.002 C 
ATOM     17  C   UNL     1     -18.509 -20.584  37.050  1.00  0.00     0.004 C 
ENDBRANCH  14  16
ENDBRANCH  12  14
ENDBRANCH   9  12
ENDBRANCH   7   8
BRANCH   7  18
ATOM     18  C   UNL     1     -25.622 -18.255  40.241  1.00  0.00     0.073 C 
BRANCH  18  19
ATOM     19  C   UNL     1     -26.797 -18.232  41.178  1.00  0.00    -0.016 A 
ATOM     20  C   UNL     1     -26.892 -17.517  42.364  1.00  0.00     0.134 A 
ATOM     21  C   UNL     1     -28.058 -18.746  40.951  1.00  0.00     0.006 A 
ATOM     22  N   UNL     1     -28.150 -17.583  42.861  1.00  0.00    -0.191 N 
ATOM     23  C   UNL     1     -28.869 -18.341  41.991  1.00  0.00     0.087 A 
ATOM     24  C   UNL     1     -28.542 -19.507  39.885  1.00  0.00     0.011 A 
ATOM     25  C   UNL     1     -30.224 -18.717  42.026  1.00  0.00     0.030 A 
ATOM     26  C   UNL     1     -29.896 -19.874  39.895  1.00  0.00     0.001 A 
ATOM     27  C   UNL     1     -30.729 -19.491  40.965  1.00  0.00     0.002 A 
BRANCH  22  28
ATOM     28  O   UNL     1     -28.533 -16.892  44.002  1.00  0.00    -0.417 OA
ATOM     29  C   UNL     1     -28.868 -17.497  45.243  1.00  0.00     0.313 C 
ENDBRANCH  22  28
ENDBRANCH  18  19
ENDBRANCH   7  18
ENDBRANCH   4   7
ENDBRANCH   2   3
BRANCH   2  30
ATOM     30  N   UNL     1     -23.661 -23.847  40.905  1.00  0.00    -0.343 N 
ATOM     31  C   UNL     1     -22.340 -23.417  41.286  1.00  0.00     0.243 C 
ATOM     32  H   UNL     1     -23.753 -24.688  40.295  1.00  0.00     0.164 HD
ATOM     33  O   UNL     1     -22.190 -22.512  42.152  1.00  0.00    -0.273 OA
BRANCH  31  34
ATOM     34  C   UNL     1     -21.134 -24.048  40.642  1.00  0.00     0.174 C 
ATOM     35  N   UNL     1     -20.573 -23.269  39.518  1.00  0.00    -0.329 N 
ATOM     36  C   UNL     1     -21.419 -25.501  40.197  1.00  0.00     0.035 C 
ATOM     37  C   UNL     1     -19.311 -23.770  38.939  1.00  0.00     0.120 C 
ATOM     38  C   UNL     1     -20.344 -26.056  39.237  1.00  0.00     0.004 C 
ATOM     39  C   UNL     1     -19.044 -25.246  39.277  1.00  0.00     0.022 C 
BRANCH  35  40
ATOM     40  C   UNL     1     -21.415 -22.456  38.671  1.00  0.00     0.246 CG0
ATOM     41  O   UNL     1     -22.123 -23.035  37.800  1.00  0.00    -0.272 OA
ATOM     42  G   UNL     1     -21.516 -20.932  38.784  1.00  0.00     0.000 G0
ENDBRANCH  35  40
ENDBRANCH  31  34
ENDBRANCH   2  30
ENDBRANCH   1   2
BRANCH   1  43
ATOM     43  C   UNL     1     -26.368 -24.950  42.323  1.00  0.00     0.003 C 
BRANCH  43  44
ATOM     44  C   UNL     1     -26.829 -26.372  41.964  1.00  0.00     0.001 C 
BRANCH  44  45
ATOM     45  C   UNL     1     -25.920 -27.107  40.959  1.00  0.00     0.008 C 
BRANCH  45  46
ATOM     46  C   UNL     1     -24.648 -27.718  41.583  1.00  0.00     0.075 C 
BRANCH  46  47
ATOM     47  C   UNL     1     -24.117 -28.930  40.853  1.00  0.00     0.132 C 
ATOM     48  O   UNL     1     -24.717 -29.992  40.921  1.00  0.00    -0.300 OA
BRANCH  47  49
ATOM     49  C   UNL     1     -22.763 -28.893  40.186  1.00  0.00     0.072 C 
ATOM     50  C   UNL     1     -22.865 -28.601  38.689  1.00  0.00     0.012 C 
ENDBRANCH  47  49
ENDBRANCH  46  47
ENDBRANCH  45  46
ENDBRANCH  44  45
ENDBRANCH  43  44
ENDBRANCH   1  43
TORSDOF 12
ENDMDL
MODEL 4
REMARK VINA RESULT:    -4.880      2.722      8.307
REMARK INTER + INTRA:         -13.009
REMARK INTER:                 -10.574
REMARK INTRA:                  -2.435
REMARK UNBOUND:                -2.708
REMARK SMILES CCC(=O)CCCCC[C@H]1NC(=O)[C@H]2CCCCN2C(=O)[C@H]([C@H](C)CC)NC(=O)[C@@H](Cc2cn(OC)c3ccccc23)NC1=O
REMARK SMILES IDX 9 1 10 2 44 3 43 4 45 6 30 7 28 8 27 9 29 11 22 12 23 14
REMARK SMILES IDX 24 15 25 16 26 17 31 18 32 19 33 20 42 21 34 22 37 23 41 24
REMARK SMILES IDX 38 25 40 26 39 27 35 28 36 29 11 30 12 31 13 33 14 34 19 35
REMARK SMILES IDX 15 36 18 37 16 38 17 39 20 40 21 41 8 43 7 44 6 45 5 46 3 47
REMARK SMILES IDX 4 48 2 49 1 50
REMARK H PARENT 43 5 27 10 11 32
REMARK Flexibility Score: 80.00
ROOT
ATOM      1  C   UNL     1     -22.690 -24.837  41.203  1.00  0.00     0.035 C 
ENDROOT
BRANCH   1   2
ATOM      2  C   UNL     1     -22.447 -23.780  40.099  1.00  0.00     0.171 C 
BRANCH   2   3
ATOM      3  C   UNL     1     -21.053 -23.197  40.136  1.00  0.00     0.243 C 
ATOM      4  N   UNL     1     -20.109 -23.570  39.113  1.00  0.00    -0.342 N 
ATOM      5  H   UNL     1     -20.347 -24.422  38.555  1.00  0.00     0.164 HD
ATOM      6  O   UNL     1     -20.719 -22.406  41.061  1.00  0.00    -0.273 OA
BRANCH   4   7
ATOM      7  C   UNL     1     -19.086 -22.698  38.514  1.00  0.00     0.175 C 
BRANCH   7   8
ATOM      8  C   UNL     1     -19.398 -21.253  38.816  1.00  0.00     0.243 C 
ATOM      9  N   UNL     1     -20.700 -20.714  38.525  1.00  0.00    -0.342 N 
ATOM     10  H   UNL     1     -21.437 -21.436  38.391  1.00  0.00     0.164 HD
ATOM     11  O   UNL     1     -18.519 -20.555  39.380  1.00  0.00    -0.273 OA
BRANCH   9  12
ATOM     12  C   UNL     1     -21.157 -19.347  38.840  1.00  0.00     0.174 CG0
ATOM     13  G   UNL     1     -22.400 -19.405  39.732  1.00  0.00     0.000 G0
BRANCH  12  14
ATOM     14  C   UNL     1     -21.291 -18.429  37.581  1.00  0.00     0.018 C 
ATOM     15  C   UNL     1     -21.099 -19.210  36.266  1.00  0.00     0.010 C 
BRANCH  14  16
ATOM     16  C   UNL     1     -20.442 -17.133  37.667  1.00  0.00     0.002 C 
ATOM     17  C   UNL     1     -19.012 -17.322  37.156  1.00  0.00     0.004 C 
ENDBRANCH  14  16
ENDBRANCH  12  14
ENDBRANCH   9  12
ENDBRANCH   7   8
BRANCH   7  18
ATOM     18  C   UNL     1     -17.641 -23.057  38.916  1.00  0.00     0.073 C 
BRANCH  18  19
ATOM     19  C   UNL     1     -16.892 -23.659  37.760  1.00  0.00    -0.016 A 
ATOM     20  C   UNL     1     -15.993 -23.004  36.929  1.00  0.00     0.134 A 
ATOM     21  C   UNL     1     -16.799 -24.996  37.429  1.00  0.00     0.006 A 
ATOM     22  N   UNL     1     -15.370 -23.886  36.112  1.00  0.00    -0.191 N 
ATOM     23  C   UNL     1     -15.867 -25.114  36.419  1.00  0.00     0.087 A 
ATOM     24  C   UNL     1     -17.446 -26.106  37.976  1.00  0.00     0.011 A 
ATOM     25  C   UNL     1     -15.559 -26.375  35.878  1.00  0.00     0.030 A 
ATOM     26  C   UNL     1     -17.136 -27.373  37.460  1.00  0.00     0.001 A 
ATOM     27  C   UNL     1     -16.207 -27.506  36.408  1.00  0.00     0.002 A 
BRANCH  22  28
ATOM     28  O   UNL     1     -14.369 -23.501  35.232  1.00  0.00    -0.417 OA
ATOM     29  C   UNL     1     -14.521 -22.534  34.202  1.00  0.00     0.313 C 
ENDBRANCH  22  28
ENDBRANCH  18  19
ENDBRANCH   7  18
ENDBRANCH   4   7
ENDBRANCH   2   3
BRANCH   2  30
ATOM     30  N   UNL     1     -23.440 -22.700  40.154  1.00  0.00    -0.343 N 
ATOM     31  C   UNL     1     -23.777 -21.863  39.032  1.00  0.00     0.243 C 
ATOM     32  H   UNL     1     -23.876 -22.489  41.079  1.00  0.00     0.164 HD
ATOM     33  O   UNL     1     -23.407 -22.179  37.868  1.00  0.00    -0.273 OA
BRANCH  31  34
ATOM     34  C   UNL     1     -24.568 -20.600  39.251  1.00  0.00     0.174 C 
ATOM     35  N   UNL     1     -23.749 -19.370  39.268  1.00  0.00    -0.329 N 
ATOM     36  C   UNL     1     -25.435 -20.684  40.529  1.00  0.00     0.035 C 
ATOM     37  C   UNL     1     -24.487 -18.093  39.342  1.00  0.00     0.120 C 
ATOM     38  C   UNL     1     -25.981 -19.310  40.974  1.00  0.00     0.004 C 
ATOM     39  C   UNL     1     -25.925 -18.264  39.856  1.00  0.00     0.022 C 
BRANCH  35  40
ATOM     40  C   UNL     1     -22.386 -19.378  39.749  1.00  0.00     0.246 CG0
ATOM     41  O   UNL     1     -22.194 -19.444  40.996  1.00  0.00    -0.272 OA
ATOM     42  G   UNL     1     -21.161 -19.336  38.833  1.00  0.00     0.000 G0
ENDBRANCH  35  40
ENDBRANCH  31  34
ENDBRANCH   2  30
ENDBRANCH   1   2
BRANCH   1  43
ATOM     43  C   UNL     1     -24.163 -24.965  41.635  1.00  0.00     0.003 C 
BRANCH  43  44
ATOM     44  C   UNL     1     -24.603 -26.383  42.035  1.00  0.00     0.001 C 
BRANCH  44  45
ATOM     45  C   UNL     1     -25.627 -27.030  41.082  1.00  0.00     0.008 C 
BRANCH  45  46
ATOM     46  C   UNL     1     -25.475 -28.558  40.931  1.00  0.00     0.075 C 
BRANCH  46  47
ATOM     47  C   UNL     1     -24.046 -29.032  40.807  1.00  0.00     0.132 C 
ATOM     48  O   UNL     1     -23.364 -29.176  41.812  1.00  0.00    -0.300 OA
BRANCH  47  49
ATOM     49  C   UNL     1     -23.392 -29.159  39.452  1.00  0.00     0.072 C 
ATOM     50  C   UNL     1     -22.286 -28.125  39.247  1.00  0.00     0.012 C 
ENDBRANCH  47  49
ENDBRANCH  46  47
ENDBRANCH  45  46
ENDBRANCH  44  45
ENDBRANCH  43  44
ENDBRANCH   1  43
TORSDOF 12
ENDMDL
MODEL 5
REMARK VINA RESULT:    -4.812      3.577      9.196
REMARK INTER + INTRA:         -12.866
REMARK INTER:                 -10.515
REMARK INTRA:                  -2.351
REMARK UNBOUND:                -2.708
REMARK SMILES CCC(=O)CCCCC[C@H]1NC(=O)[C@H]2CCCCN2C(=O)[C@H]([C@H](C)CC)NC(=O)[C@@H](Cc2cn(OC)c3ccccc23)NC1=O
REMARK SMILES IDX 9 1 10 2 44 3 43 4 45 6 30 7 28 8 27 9 29 11 22 12 23 14
REMARK SMILES IDX 24 15 25 16 26 17 31 18 32 19 33 20 42 21 34 22 37 23 41 24
REMARK SMILES IDX 38 25 40 26 39 27 35 28 36 29 11 30 12 31 13 33 14 34 19 35
REMARK SMILES IDX 15 36 18 37 16 38 17 39 20 40 21 41 8 43 7 44 6 45 5 46 3 47
REMARK SMILES IDX 4 48 2 49 1 50
REMARK H PARENT 43 5 27 10 11 32
REMARK Flexibility Score: 80.00
ROOT
ATOM      1  C   UNL     1     -31.158 -24.565  43.428  1.00  0.00     0.035 C 
ENDROOT
BRANCH   1   2
ATOM      2  C   UNL     1     -30.179 -23.749  42.549  1.00  0.00     0.171 C 
BRANCH   2   3
ATOM      3  C   UNL     1     -28.729 -24.083  42.813  1.00  0.00     0.243 C 
ATOM      4  N   UNL     1     -28.033 -24.958  41.905  1.00  0.00    -0.342 N 
ATOM      5  H   UNL     1     -28.633 -25.527  41.263  1.00  0.00     0.164 HD
ATOM      6  O   UNL     1     -28.143 -23.610  43.826  1.00  0.00    -0.273 OA
BRANCH   4   7
ATOM      7  C   UNL     1     -26.618 -24.856  41.510  1.00  0.00     0.175 C 
BRANCH   7   8
ATOM      8  C   UNL     1     -26.226 -23.407  41.369  1.00  0.00     0.243 C 
ATOM      9  N   UNL     1     -27.207 -22.368  41.536  1.00  0.00    -0.342 N 
ATOM     10  H   UNL     1     -28.069 -22.674  42.032  1.00  0.00     0.164 HD
ATOM     11  O   UNL     1     -25.018 -23.129  41.164  1.00  0.00    -0.273 OA
BRANCH   9  12
ATOM     12  C   UNL     1     -26.942 -20.917  41.500  1.00  0.00     0.174 CG0
ATOM     13  G   UNL     1     -27.944 -20.180  42.393  1.00  0.00     0.000 G0
BRANCH  12  14
ATOM     14  C   UNL     1     -26.802 -20.343  40.052  1.00  0.00     0.018 C 
ATOM     15  C   UNL     1     -27.170 -21.383  38.975  1.00  0.00     0.010 C 
BRANCH  14  16
ATOM     16  C   UNL     1     -25.447 -19.632  39.796  1.00  0.00     0.002 C 
ATOM     17  C   UNL     1     -24.485 -19.737  40.981  1.00  0.00     0.004 C 
ENDBRANCH  14  16
ENDBRANCH  12  14
ENDBRANCH   9  12
ENDBRANCH   7   8
BRANCH   7  18
ATOM     18  C   UNL     1     -25.651 -25.613  42.442  1.00  0.00     0.073 C 
BRANCH  18  19
ATOM     19  C   UNL     1     -24.898 -26.675  41.691  1.00  0.00    -0.016 A 
ATOM     20  C   UNL     1     -25.390 -27.911  41.293  1.00  0.00     0.134 A 
ATOM     21  C   UNL     1     -23.661 -26.556  41.088  1.00  0.00     0.006 A 
ATOM     22  N   UNL     1     -24.505 -28.540  40.485  1.00  0.00    -0.191 N 
ATOM     23  C   UNL     1     -23.439 -27.706  40.359  1.00  0.00     0.087 A 
ATOM     24  C   UNL     1     -22.748 -25.501  41.110  1.00  0.00     0.011 A 
ATOM     25  C   UNL     1     -22.247 -27.866  39.628  1.00  0.00     0.030 A 
ATOM     26  C   UNL     1     -21.563 -25.638  40.371  1.00  0.00     0.001 A 
ATOM     27  C   UNL     1     -21.308 -26.818  39.644  1.00  0.00     0.002 A 
BRANCH  22  28
ATOM     28  O   UNL     1     -24.784 -29.761  39.889  1.00  0.00    -0.417 OA
ATOM     29  C   UNL     1     -25.204 -29.931  38.542  1.00  0.00     0.313 C 
ENDBRANCH  22  28
ENDBRANCH  18  19
ENDBRANCH   7  18
ENDBRANCH   4   7
ENDBRANCH   2   3
BRANCH   2  30
ATOM     30  N   UNL     1     -30.394 -22.304  42.697  1.00  0.00    -0.343 N 
ATOM     31  C   UNL     1     -30.517 -21.395  41.588  1.00  0.00     0.243 C 
ATOM     32  H   UNL     1     -30.389 -21.911  43.664  1.00  0.00     0.164 HD
ATOM     33  O   UNL     1     -30.694 -21.836  40.419  1.00  0.00    -0.273 OA
BRANCH  31  34
ATOM     34  C   UNL     1     -30.428 -19.910  41.824  1.00  0.00     0.174 C 
ATOM     35  N   UNL     1     -29.047 -19.391  41.892  1.00  0.00    -0.329 N 
ATOM     36  C   UNL     1     -31.223 -19.484  43.080  1.00  0.00     0.035 C 
ATOM     37  C   UNL     1     -28.900 -17.925  41.985  1.00  0.00     0.120 C 
ATOM     38  C   UNL     1     -30.879 -18.054  43.550  1.00  0.00     0.004 C 
ATOM     39  C   UNL     1     -30.184 -17.227  42.463  1.00  0.00     0.022 C 
BRANCH  35  40
ATOM     40  C   UNL     1     -27.962 -20.199  42.402  1.00  0.00     0.246 CG0
ATOM     41  O   UNL     1     -27.852 -20.330  43.653  1.00  0.00    -0.272 OA
ATOM     42  G   UNL     1     -26.952 -20.927  41.511  1.00  0.00     0.000 G0
ENDBRANCH  35  40
ENDBRANCH  31  34
ENDBRANCH   2  30
ENDBRANCH   1   2
BRANCH   1  43
ATOM     43  C   UNL     1     -32.593 -24.008  43.451  1.00  0.00     0.003 C 
BRANCH  43  44
ATOM     44  C   UNL     1     -32.936 -23.141  44.674  1.00  0.00     0.001 C 
BRANCH  44  45
ATOM     45  C   UNL     1     -32.297 -23.615  45.995  1.00  0.00     0.008 C 
BRANCH  45  46
ATOM     46  C   UNL     1     -31.891 -22.471  46.948  1.00  0.00     0.075 C 
BRANCH  46  47
ATOM     47  C   UNL     1     -30.485 -21.958  46.741  1.00  0.00     0.132 C 
ATOM     48  O   UNL     1     -30.146 -21.540  45.644  1.00  0.00    -0.300 OA
BRANCH  47  49
ATOM     49  C   UNL     1     -29.441 -22.120  47.820  1.00  0.00     0.072 C 
ATOM     50  C   UNL     1     -30.003 -22.800  49.068  1.00  0.00     0.012 C 
ENDBRANCH  47  49
ENDBRANCH  46  47
ENDBRANCH  45  46
ENDBRANCH  44  45
ENDBRANCH  43  44
ENDBRANCH   1  43
TORSDOF 12
ENDMDL
MODEL 6
REMARK VINA RESULT:    -4.584      3.425      5.796
REMARK INTER + INTRA:         -12.384
REMARK INTER:                  -9.299
REMARK INTRA:                  -3.085
REMARK UNBOUND:                -2.708
REMARK SMILES CCC(=O)CCCCC[C@H]1NC(=O)[C@H]2CCCCN2C(=O)[C@H]([C@H](C)CC)NC(=O)[C@@H](Cc2cn(OC)c3ccccc23)NC1=O
REMARK SMILES IDX 9 1 10 2 44 3 43 4 45 6 30 7 28 8 27 9 29 11 22 12 23 14
REMARK SMILES IDX 24 15 25 16 26 17 31 18 32 19 33 20 42 21 34 22 37 23 41 24
REMARK SMILES IDX 38 25 40 26 39 27 35 28 36 29 11 30 12 31 13 33 14 34 19 35
REMARK SMILES IDX 15 36 18 37 16 38 17 39 20 40 21 41 8 43 7 44 6 45 5 46 3 47
REMARK SMILES IDX 4 48 2 49 1 50
REMARK H PARENT 43 5 27 10 11 32
REMARK Flexibility Score: 80.00
ROOT
ATOM      1  C   UNL     1     -21.495 -21.520  37.460  1.00  0.00     0.035 C 
ENDROOT
BRANCH   1   2
ATOM      2  C   UNL     1     -20.177 -21.139  38.177  1.00  0.00     0.171 C 
BRANCH   2   3
ATOM      3  C   UNL     1     -20.201 -19.744  38.755  1.00  0.00     0.243 C 
ATOM      4  N   UNL     1     -20.279 -19.577  40.184  1.00  0.00    -0.342 N 
ATOM      5  H   UNL     1     -20.582 -20.416  40.730  1.00  0.00     0.164 HD
ATOM      6  O   UNL     1     -20.168 -18.739  37.992  1.00  0.00    -0.273 OA
BRANCH   4   7
ATOM      7  C   UNL     1     -19.622 -18.523  40.974  1.00  0.00     0.175 C 
BRANCH   7   8
ATOM      8  C   UNL     1     -18.229 -18.278  40.450  1.00  0.00     0.243 C 
ATOM      9  N   UNL     1     -17.387 -19.383  40.077  1.00  0.00    -0.342 N 
ATOM     10  H   UNL     1     -17.902 -20.274  39.920  1.00  0.00     0.164 HD
ATOM     11  O   UNL     1     -17.848 -17.091  40.290  1.00  0.00    -0.273 OA
BRANCH   9  12
ATOM     12  C   UNL     1     -16.041 -19.280  39.482  1.00  0.00     0.174 CG0
ATOM     13  G   UNL     1     -16.114 -19.541  37.975  1.00  0.00     0.000 G0
BRANCH  12  14
ATOM     14  C   UNL     1     -14.957 -20.111  40.244  1.00  0.00     0.018 C 
ATOM     15  C   UNL     1     -15.544 -21.380  40.891  1.00  0.00     0.010 C 
BRANCH  14  16
ATOM     16  C   UNL     1     -14.090 -19.261  41.209  1.00  0.00     0.002 C 
ATOM     17  C   UNL     1     -14.788 -18.970  42.538  1.00  0.00     0.004 C 
ENDBRANCH  14  16
ENDBRANCH  12  14
ENDBRANCH   9  12
ENDBRANCH   7   8
BRANCH   7  18
ATOM     18  C   UNL     1     -20.428 -17.211  41.064  1.00  0.00     0.073 C 
BRANCH  18  19
ATOM     19  C   UNL     1     -21.796 -17.456  41.638  1.00  0.00    -0.016 A 
ATOM     20  C   UNL     1     -22.168 -17.320  42.969  1.00  0.00     0.134 A 
ATOM     21  C   UNL     1     -22.970 -17.665  40.942  1.00  0.00     0.006 A 
ATOM     22  N   UNL     1     -23.510 -17.442  43.103  1.00  0.00    -0.191 N 
ATOM     23  C   UNL     1     -24.004 -17.656  41.855  1.00  0.00     0.087 A 
ATOM     24  C   UNL     1     -23.188 -17.824  39.573  1.00  0.00     0.011 A 
ATOM     25  C   UNL     1     -25.331 -17.844  41.428  1.00  0.00     0.030 A 
ATOM     26  C   UNL     1     -24.508 -17.993  39.129  1.00  0.00     0.001 A 
ATOM     27  C   UNL     1     -25.573 -18.015  40.052  1.00  0.00     0.002 A 
BRANCH  22  28
ATOM     28  O   UNL     1     -24.151 -17.274  44.322  1.00  0.00    -0.417 OA
ATOM     29  C   UNL     1     -23.511 -16.883  45.529  1.00  0.00     0.313 C 
ENDBRANCH  22  28
ENDBRANCH  18  19
ENDBRANCH   7  18
ENDBRANCH   4   7
ENDBRANCH   2   3
BRANCH   2  30
ATOM     30  N   UNL     1     -19.015 -21.293  37.293  1.00  0.00    -0.343 N 
ATOM     31  C   UNL     1     -17.781 -21.918  37.693  1.00  0.00     0.243 C 
ATOM     32  H   UNL     1     -19.069 -20.864  36.343  1.00  0.00     0.164 HD
ATOM     33  O   UNL     1     -17.725 -22.591  38.759  1.00  0.00    -0.273 OA
BRANCH  31  34
ATOM     34  C   UNL     1     -16.552 -21.762  36.837  1.00  0.00     0.174 C 
ATOM     35  N   UNL     1     -15.628 -20.704  37.295  1.00  0.00    -0.329 N 
ATOM     36  C   UNL     1     -16.915 -21.549  35.349  1.00  0.00     0.035 C 
ATOM     37  C   UNL     1     -14.343 -20.599  36.575  1.00  0.00     0.120 C 
ATOM     38  C   UNL     1     -15.723 -21.045  34.507  1.00  0.00     0.004 C 
ATOM     39  C   UNL     1     -14.375 -21.278  35.196  1.00  0.00     0.022 C 
BRANCH  35  40
ATOM     40  C   UNL     1     -16.112 -19.518  37.964  1.00  0.00     0.246 CG0
ATOM     41  O   UNL     1     -16.641 -18.611  37.262  1.00  0.00    -0.272 OA
ATOM     42  G   UNL     1     -16.043 -19.308  39.479  1.00  0.00     0.000 G0
ENDBRANCH  35  40
ENDBRANCH  31  34
ENDBRANCH   2  30
ENDBRANCH   1   2
BRANCH   1  43
ATOM     43  C   UNL     1     -22.511 -22.249  38.359  1.00  0.00     0.003 C 
BRANCH  43  44
ATOM     44  C   UNL     1     -23.179 -21.371  39.430  1.00  0.00     0.001 C 
BRANCH  44  45
ATOM     45  C   UNL     1     -23.248 -22.009  40.832  1.00  0.00     0.008 C 
BRANCH  45  46
ATOM     46  C   UNL     1     -24.148 -23.260  40.915  1.00  0.00     0.075 C 
BRANCH  46  47
ATOM     47  C   UNL     1     -23.411 -24.533  41.260  1.00  0.00     0.132 C 
ATOM     48  O   UNL     1     -22.191 -24.564  41.205  1.00  0.00    -0.300 OA
BRANCH  47  49
ATOM     49  C   UNL     1     -24.168 -25.818  41.500  1.00  0.00     0.072 C 
ATOM     50  C   UNL     1     -25.677 -25.590  41.587  1.00  0.00     0.012 C 
ENDBRANCH  47  49
ENDBRANCH  46  47
ENDBRANCH  45  46
ENDBRANCH  44  45
ENDBRANCH  43  44
ENDBRANCH   1  43
TORSDOF 12
ENDMDL
MODEL 7
REMARK VINA RESULT:    -4.535      2.889      7.942
REMARK INTER + INTRA:         -12.281
REMARK INTER:                 -11.116
REMARK INTRA:                  -1.164
REMARK UNBOUND:                -2.708
REMARK SMILES CCC(=O)CCCCC[C@H]1NC(=O)[C@H]2CCCCN2C(=O)[C@H]([C@H](C)CC)NC(=O)[C@@H](Cc2cn(OC)c3ccccc23)NC1=O
REMARK SMILES IDX 9 1 10 2 44 3 43 4 45 6 30 7 28 8 27 9 29 11 22 12 23 14
REMARK SMILES IDX 24 15 25 16 26 17 31 18 32 19 33 20 42 21 34 22 37 23 41 24
REMARK SMILES IDX 38 25 40 26 39 27 35 28 36 29 11 30 12 31 13 33 14 34 19 35
REMARK SMILES IDX 15 36 18 37 16 38 17 39 20 40 21 41 8 43 7 44 6 45 5 46 3 47
REMARK SMILES IDX 4 48 2 49 1 50
REMARK H PARENT 43 5 27 10 11 32
REMARK Flexibility Score: 80.00
ROOT
ATOM      1  C   UNL     1     -22.671 -23.935  41.446  1.00  0.00     0.035 C 
ENDROOT
BRANCH   1   2
ATOM      2  C   UNL     1     -22.524 -23.694  39.924  1.00  0.00     0.171 C 
BRANCH   2   3
ATOM      3  C   UNL     1     -21.087 -23.720  39.457  1.00  0.00     0.243 C 
ATOM      4  N   UNL     1     -20.658 -22.778  38.455  1.00  0.00    -0.342 N 
ATOM      5  H   UNL     1     -21.416 -22.305  37.912  1.00  0.00     0.164 HD
ATOM      6  O   UNL     1     -20.280 -24.567  39.930  1.00  0.00    -0.273 OA
BRANCH   4   7
ATOM      7  C   UNL     1     -19.339 -22.127  38.381  1.00  0.00     0.175 C 
BRANCH   7   8
ATOM      8  C   UNL     1     -19.469 -20.660  38.704  1.00  0.00     0.243 C 
ATOM      9  N   UNL     1     -20.768 -20.051  38.811  1.00  0.00    -0.342 N 
ATOM     10  H   UNL     1     -21.545 -20.730  38.945  1.00  0.00     0.164 HD
ATOM     11  O   UNL     1     -18.424 -20.001  38.935  1.00  0.00    -0.273 OA
BRANCH   9  12
ATOM     12  C   UNL     1     -21.036 -18.652  39.194  1.00  0.00     0.174 CG0
ATOM     13  G   UNL     1     -22.326 -18.572  40.016  1.00  0.00     0.000 G0
BRANCH  12  14
ATOM     14  C   UNL     1     -20.955 -17.650  37.995  1.00  0.00     0.018 C 
ATOM     15  C   UNL     1     -21.371 -18.301  36.662  1.00  0.00     0.010 C 
BRANCH  14  16
ATOM     16  C   UNL     1     -19.610 -16.880  37.922  1.00  0.00     0.002 C 
ATOM     17  C   UNL     1     -19.001 -16.876  36.518  1.00  0.00     0.004 C 
ENDBRANCH  14  16
ENDBRANCH  12  14
ENDBRANCH   9  12
ENDBRANCH   7   8
BRANCH   7  18
ATOM     18  C   UNL     1     -18.258 -22.801  39.250  1.00  0.00     0.073 C 
BRANCH  18  19
ATOM     19  C   UNL     1     -16.909 -22.721  38.591  1.00  0.00    -0.016 A 
ATOM     20  C   UNL     1     -16.625 -22.983  37.257  1.00  0.00     0.134 A 
ATOM     21  C   UNL     1     -15.749 -22.193  39.122  1.00  0.00     0.006 A 
ATOM     22  N   UNL     1     -15.348 -22.640  36.966  1.00  0.00    -0.191 N 
ATOM     23  C   UNL     1     -14.807 -22.154  38.114  1.00  0.00     0.087 A 
ATOM     24  C   UNL     1     -15.482 -21.716  40.406  1.00  0.00     0.011 A 
ATOM     25  C   UNL     1     -13.516 -21.655  38.365  1.00  0.00     0.030 A 
ATOM     26  C   UNL     1     -14.205 -21.197  40.667  1.00  0.00     0.001 A 
ATOM     27  C   UNL     1     -13.224 -21.177  39.655  1.00  0.00     0.002 A 
BRANCH  22  28
ATOM     28  O   UNL     1     -14.832 -22.733  35.681  1.00  0.00    -0.417 OA
ATOM     29  C   UNL     1     -14.935 -21.720  34.690  1.00  0.00     0.313 C 
ENDBRANCH  22  28
ENDBRANCH  18  19
ENDBRANCH   7  18
ENDBRANCH   4   7
ENDBRANCH   2   3
BRANCH   2  30
ATOM     30  N   UNL     1     -23.160 -22.436  39.511  1.00  0.00    -0.343 N 
ATOM     31  C   UNL     1     -23.392 -21.326  40.399  1.00  0.00     0.243 C 
ATOM     32  H   UNL     1     -23.523 -22.375  38.535  1.00  0.00     0.164 HD
ATOM     33  O   UNL     1     -22.830 -21.287  41.528  1.00  0.00    -0.273 OA
BRANCH  31  34
ATOM     34  C   UNL     1     -24.312 -20.211  39.978  1.00  0.00     0.174 C 
ATOM     35  N   UNL     1     -23.614 -19.001  39.497  1.00  0.00    -0.329 N 
ATOM     36  C   UNL     1     -25.312 -19.843  41.099  1.00  0.00     0.035 C 
ATOM     37  C   UNL     1     -24.466 -17.929  38.944  1.00  0.00     0.120 C 
ATOM     38  C   UNL     1     -26.027 -18.498  40.846  1.00  0.00     0.004 C 
ATOM     39  C   UNL     1     -25.934 -18.047  39.385  1.00  0.00     0.022 C 
BRANCH  35  40
ATOM     40  C   UNL     1     -22.322 -18.619  40.019  1.00  0.00     0.246 CG0
ATOM     41  O   UNL     1     -22.253 -18.240  41.222  1.00  0.00    -0.272 OA
ATOM     42  G   UNL     1     -21.027 -18.669  39.204  1.00  0.00     0.000 G0
ENDBRANCH  35  40
ENDBRANCH  31  34
ENDBRANCH   2  30
ENDBRANCH   1   2
BRANCH   1  43
ATOM     43  C   UNL     1     -23.525 -25.165  41.807  1.00  0.00     0.003 C 
BRANCH  43  44
ATOM     44  C   UNL     1     -25.031 -25.015  41.534  1.00  0.00     0.001 C 
BRANCH  44  45
ATOM     45  C   UNL     1     -25.814 -26.343  41.509  1.00  0.00     0.008 C 
BRANCH  45  46
ATOM     46  C   UNL     1     -24.925 -27.604  41.535  1.00  0.00     0.075 C 
BRANCH  46  47
ATOM     47  C   UNL     1     -25.010 -28.451  40.287  1.00  0.00     0.132 C 
ATOM     48  O   UNL     1     -26.100 -28.826  39.880  1.00  0.00    -0.300 OA
BRANCH  47  49
ATOM     49  C   UNL     1     -23.758 -28.989  39.635  1.00  0.00     0.072 C 
ATOM     50  C   UNL     1     -22.642 -29.237  40.650  1.00  0.00     0.012 C 
ENDBRANCH  47  49
ENDBRANCH  46  47
ENDBRANCH  45  46
ENDBRANCH  44  45
ENDBRANCH  43  44
ENDBRANCH   1  43
TORSDOF 12
ENDMDL
MODEL 8
REMARK VINA RESULT:    -4.456      3.264      5.154
REMARK INTER + INTRA:         -12.114
REMARK INTER:                  -9.556
REMARK INTRA:                  -2.558
REMARK UNBOUND:                -2.708
REMARK SMILES CCC(=O)CCCCC[C@H]1NC(=O)[C@H]2CCCCN2C(=O)[C@H]([C@H](C)CC)NC(=O)[C@@H](Cc2cn(OC)c3ccccc23)NC1=O
REMARK SMILES IDX 9 1 10 2 44 3 43 4 45 6 30 7 28 8 27 9 29 11 22 12 23 14
REMARK SMILES IDX 24 15 25 16 26 17 31 18 32 19 33 20 42 21 34 22 37 23 41 24
REMARK SMILES IDX 38 25 40 26 39 27 35 28 36 29 11 30 12 31 13 33 14 34 19 35
REMARK SMILES IDX 15 36 18 37 16 38 17 39 20 40 21 41 8 43 7 44 6 45 5 46 3 47
REMARK SMILES IDX 4 48 2 49 1 50
REMARK H PARENT 43 5 27 10 11 32
REMARK Flexibility Score: 80.00
ROOT
ATOM      1  C   UNL     1     -20.611 -23.779  39.225  1.00  0.00     0.035 C 
ENDROOT
BRANCH   1   2
ATOM      2  C   UNL     1     -19.478 -22.725  39.188  1.00  0.00     0.171 C 
BRANCH   2   3
ATOM      3  C   UNL     1     -19.936 -21.382  38.670  1.00  0.00     0.243 C 
ATOM      4  N   UNL     1     -19.999 -20.264  39.576  1.00  0.00    -0.342 N 
ATOM      5  H   UNL     1     -19.982 -20.496  40.596  1.00  0.00     0.164 HD
ATOM      6  O   UNL     1     -20.272 -21.249  37.460  1.00  0.00    -0.273 OA
BRANCH   4   7
ATOM      7  C   UNL     1     -19.692 -18.861  39.250  1.00  0.00     0.175 C 
BRANCH   7   8
ATOM      8  C   UNL     1     -18.625 -18.801  38.186  1.00  0.00     0.243 C 
ATOM      9  N   UNL     1     -17.317 -19.343  38.436  1.00  0.00    -0.342 N 
ATOM     10  H   UNL     1     -17.279 -20.006  39.238  1.00  0.00     0.164 HD
ATOM     11  O   UNL     1     -18.924 -18.323  37.063  1.00  0.00    -0.273 OA
BRANCH   9  12
ATOM     12  C   UNL     1     -16.212 -19.417  37.461  1.00  0.00     0.174 CG0
ATOM     13  G   UNL     1     -16.282 -20.738  36.690  1.00  0.00     0.000 G0
BRANCH  12  14
ATOM     14  C   UNL     1     -14.813 -19.086  38.077  1.00  0.00     0.018 C 
ATOM     15  C   UNL     1     -14.808 -19.212  39.613  1.00  0.00     0.010 C 
BRANCH  14  16
ATOM     16  C   UNL     1     -14.206 -17.757  37.557  1.00  0.00     0.002 C 
ATOM     17  C   UNL     1     -14.850 -17.277  36.255  1.00  0.00     0.004 C 
ENDBRANCH  14  16
ENDBRANCH  12  14
ENDBRANCH   9  12
ENDBRANCH   7   8
BRANCH   7  18
ATOM     18  C   UNL     1     -20.926 -18.024  38.857  1.00  0.00     0.073 C 
BRANCH  18  19
ATOM     19  C   UNL     1     -22.058 -18.244  39.822  1.00  0.00    -0.016 A 
ATOM     20  C   UNL     1     -23.235 -18.937  39.570  1.00  0.00     0.134 A 
ATOM     21  C   UNL     1     -22.064 -17.981  41.178  1.00  0.00     0.006 A 
ATOM     22  N   UNL     1     -23.948 -19.096  40.709  1.00  0.00    -0.191 N 
ATOM     23  C   UNL     1     -23.228 -18.506  41.700  1.00  0.00     0.087 A 
ATOM     24  C   UNL     1     -21.109 -17.351  41.976  1.00  0.00     0.011 A 
ATOM     25  C   UNL     1     -23.507 -18.390  43.074  1.00  0.00     0.030 A 
ATOM     26  C   UNL     1     -21.364 -17.243  43.352  1.00  0.00     0.001 A 
ATOM     27  C   UNL     1     -22.562 -17.750  43.896  1.00  0.00     0.002 A 
BRANCH  22  28
ATOM     28  O   UNL     1     -25.132 -19.818  40.747  1.00  0.00    -0.417 OA
ATOM     29  C   UNL     1     -25.597 -20.670  39.710  1.00  0.00     0.313 C 
ENDBRANCH  22  28
ENDBRANCH  18  19
ENDBRANCH   7  18
ENDBRANCH   4   7
ENDBRANCH   2   3
BRANCH   2  30
ATOM     30  N   UNL     1     -18.326 -23.195  38.408  1.00  0.00    -0.343 N 
ATOM     31  C   UNL     1     -16.967 -22.795  38.664  1.00  0.00     0.243 C 
ATOM     32  H   UNL     1     -18.517 -23.802  37.580  1.00  0.00     0.164 HD
ATOM     33  O   UNL     1     -16.669 -22.205  39.738  1.00  0.00    -0.273 OA
BRANCH  31  34
ATOM     34  C   UNL     1     -15.898 -23.076  37.640  1.00  0.00     0.174 C 
ATOM     35  N   UNL     1     -15.411 -21.875  36.931  1.00  0.00    -0.329 N 
ATOM     36  C   UNL     1     -16.350 -24.152  36.625  1.00  0.00     0.035 C 
ATOM     37  C   UNL     1     -14.269 -22.072  36.016  1.00  0.00     0.120 C 
ATOM     38  C   UNL     1     -15.442 -24.216  35.378  1.00  0.00     0.004 C 
ATOM     39  C   UNL     1     -14.085 -23.541  35.601  1.00  0.00     0.022 C 
BRANCH  35  40
ATOM     40  C   UNL     1     -16.277 -20.746  36.678  1.00  0.00     0.246 CG0
ATOM     41  O   UNL     1     -17.144 -20.852  35.766  1.00  0.00    -0.272 OA
ATOM     42  G   UNL     1     -16.219 -19.436  37.467  1.00  0.00     0.000 G0
ENDBRANCH  35  40
ENDBRANCH  31  34
ENDBRANCH   2  30
ENDBRANCH   1   2
BRANCH   1  43
ATOM     43  C   UNL     1     -20.193 -25.129  39.837  1.00  0.00     0.003 C 
BRANCH  43  44
ATOM     44  C   UNL     1     -20.201 -26.317  38.861  1.00  0.00     0.001 C 
BRANCH  44  45
ATOM     45  C   UNL     1     -21.450 -27.216  38.955  1.00  0.00     0.008 C 
BRANCH  45  46
ATOM     46  C   UNL     1     -22.044 -27.330  40.375  1.00  0.00     0.075 C 
BRANCH  46  47
ATOM     47  C   UNL     1     -22.959 -28.516  40.572  1.00  0.00     0.132 C 
ATOM     48  O   UNL     1     -22.716 -29.572  40.007  1.00  0.00    -0.300 OA
BRANCH  47  49
ATOM     49  C   UNL     1     -24.265 -28.364  41.315  1.00  0.00     0.072 C 
ATOM     50  C   UNL     1     -25.397 -27.896  40.399  1.00  0.00     0.012 C 
ENDBRANCH  47  49
ENDBRANCH  46  47
ENDBRANCH  45  46
ENDBRANCH  44  45
ENDBRANCH  43  44
ENDBRANCH   1  43
TORSDOF 12
ENDMDL
MODEL 9
REMARK VINA RESULT:    -4.435      3.187      5.260
REMARK INTER + INTRA:         -12.070
REMARK INTER:                  -9.592
REMARK INTRA:                  -2.478
REMARK UNBOUND:                -2.708
REMARK SMILES CCC(=O)CCCCC[C@H]1NC(=O)[C@H]2CCCCN2C(=O)[C@H]([C@H](C)CC)NC(=O)[C@@H](Cc2cn(OC)c3ccccc23)NC1=O
REMARK SMILES IDX 9 1 10 2 44 3 43 4 45 6 30 7 28 8 27 9 29 11 22 12 23 14
REMARK SMILES IDX 24 15 25 16 26 17 31 18 32 19 33 20 42 21 34 22 37 23 41 24
REMARK SMILES IDX 38 25 40 26 39 27 35 28 36 29 11 30 12 31 13 33 14 34 19 35
REMARK SMILES IDX 15 36 18 37 16 38 17 39 20 40 21 41 8 43 7 44 6 45 5 46 3 47
REMARK SMILES IDX 4 48 2 49 1 50
REMARK H PARENT 43 5 27 10 11 32
REMARK Flexibility Score: 80.00
ROOT
ATOM      1  C   UNL     1     -20.538 -23.690  39.347  1.00  0.00     0.035 C 
ENDROOT
BRANCH   1   2
ATOM      2  C   UNL     1     -19.471 -22.574  39.253  1.00  0.00     0.171 C 
BRANCH   2   3
ATOM      3  C   UNL     1     -20.006 -21.293  38.657  1.00  0.00     0.243 C 
ATOM      4  N   UNL     1     -20.183 -20.143  39.508  1.00  0.00    -0.342 N 
ATOM      5  H   UNL     1     -20.185 -20.328  40.538  1.00  0.00     0.164 HD
ATOM      6  O   UNL     1     -20.309 -21.238  37.433  1.00  0.00    -0.273 OA
BRANCH   4   7
ATOM      7  C   UNL     1     -19.968 -18.737  39.127  1.00  0.00     0.175 C 
BRANCH   7   8
ATOM      8  C   UNL     1     -19.072 -18.663  37.916  1.00  0.00     0.243 C 
ATOM      9  N   UNL     1     -17.735 -19.192  37.966  1.00  0.00    -0.342 N 
ATOM     10  H   UNL     1     -17.571 -19.856  38.750  1.00  0.00     0.164 HD
ATOM     11  O   UNL     1     -19.540 -18.185  36.852  1.00  0.00    -0.273 OA
BRANCH   9  12
ATOM     12  C   UNL     1     -16.788 -19.252  36.837  1.00  0.00     0.174 CG0
ATOM     13  G   UNL     1     -16.668 -20.691  36.330  1.00  0.00     0.000 G0
BRANCH  12  14
ATOM     14  C   UNL     1     -15.426 -18.538  37.126  1.00  0.00     0.018 C 
ATOM     15  C   UNL     1     -15.253 -18.196  38.619  1.00  0.00     0.010 C 
BRANCH  14  16
ATOM     16  C   UNL     1     -15.136 -17.348  36.174  1.00  0.00     0.002 C 
ATOM     17  C   UNL     1     -14.514 -17.785  34.846  1.00  0.00     0.004 C 
ENDBRANCH  14  16
ENDBRANCH  12  14
ENDBRANCH   9  12
ENDBRANCH   7   8
BRANCH   7  18
ATOM     18  C   UNL     1     -21.269 -17.939  38.914  1.00  0.00     0.073 C 
BRANCH  18  19
ATOM     19  C   UNL     1     -22.183 -18.069  40.101  1.00  0.00    -0.016 A 
ATOM     20  C   UNL     1     -22.150 -17.301  41.257  1.00  0.00     0.134 A 
ATOM     21  C   UNL     1     -23.335 -18.825  40.190  1.00  0.00     0.006 A 
ATOM     22  N   UNL     1     -23.224 -17.566  42.037  1.00  0.00    -0.191 N 
ATOM     23  C   UNL     1     -23.955 -18.505  41.380  1.00  0.00     0.087 A 
ATOM     24  C   UNL     1     -23.885 -19.737  39.288  1.00  0.00     0.011 A 
ATOM     25  C   UNL     1     -25.165 -19.125  41.742  1.00  0.00     0.030 A 
ATOM     26  C   UNL     1     -25.102 -20.350  39.625  1.00  0.00     0.001 A 
ATOM     27  C   UNL     1     -25.732 -20.054  40.851  1.00  0.00     0.002 A 
BRANCH  22  28
ATOM     28  O   UNL     1     -23.469 -16.879  43.217  1.00  0.00    -0.417 OA
ATOM     29  C   UNL     1     -23.693 -17.489  44.480  1.00  0.00     0.313 C 
ENDBRANCH  22  28
ENDBRANCH  18  19
ENDBRANCH   7  18
ENDBRANCH   4   7
ENDBRANCH   2   3
BRANCH   2  30
ATOM     30  N   UNL     1     -18.289 -23.017  38.502  1.00  0.00    -0.343 N 
ATOM     31  C   UNL     1     -16.978 -22.442  38.660  1.00  0.00     0.243 C 
ATOM     32  H   UNL     1     -18.427 -23.744  37.767  1.00  0.00     0.164 HD
ATOM     33  O   UNL     1     -16.727 -21.687  39.639  1.00  0.00    -0.273 OA
BRANCH  31  34
ATOM     34  C   UNL     1     -15.903 -22.740  37.647  1.00  0.00     0.174 C 
ATOM     35  N   UNL     1     -15.626 -21.626  36.717  1.00  0.00    -0.329 N 
ATOM     36  C   UNL     1     -16.206 -24.035  36.858  1.00  0.00     0.035 C 
ATOM     37  C   UNL     1     -14.490 -21.812  35.792  1.00  0.00     0.120 C 
ATOM     38  C   UNL     1     -15.330 -24.186  35.596  1.00  0.00     0.004 C 
ATOM     39  C   UNL     1     -14.089 -23.287  35.629  1.00  0.00     0.022 C 
BRANCH  35  40
ATOM     40  C   UNL     1     -16.663 -20.703  36.316  1.00  0.00     0.246 CG0
ATOM     41  O   UNL     1     -17.535 -21.104  35.495  1.00  0.00    -0.272 OA
ATOM     42  G   UNL     1     -16.779 -19.272  36.848  1.00  0.00     0.000 G0
ENDBRANCH  35  40
ENDBRANCH  31  34
ENDBRANCH   2  30
ENDBRANCH   1   2
BRANCH   1  43
ATOM     43  C   UNL     1     -20.030 -24.991  39.999  1.00  0.00     0.003 C 
BRANCH  43  44
ATOM     44  C   UNL     1     -20.013 -26.218  39.073  1.00  0.00     0.001 C 
BRANCH  44  45
ATOM     45  C   UNL     1     -21.343 -26.995  39.012  1.00  0.00     0.008 C 
BRANCH  45  46
ATOM     46  C   UNL     1     -22.231 -26.832  40.263  1.00  0.00     0.075 C 
BRANCH  46  47
ATOM     47  C   UNL     1     -23.308 -27.882  40.402  1.00  0.00     0.132 C 
ATOM     48  O   UNL     1     -24.059 -27.858  41.366  1.00  0.00    -0.300 OA
BRANCH  47  49
ATOM     49  C   UNL     1     -23.356 -29.063  39.463  1.00  0.00     0.072 C 
ATOM     50  C   UNL     1     -24.724 -29.746  39.466  1.00  0.00     0.012 C 
ENDBRANCH  47  49
ENDBRANCH  46  47
ENDBRANCH  45  46
ENDBRANCH  44  45
ENDBRANCH  43  44
ENDBRANCH   1  43
TORSDOF 12
ENDMDL
