MODEL 1
REMARK VINA RESULT:    -2.768      0.000      0.000
REMARK INTER + INTRA:          -2.768
REMARK INTER:                  -2.768
REMARK INTRA:                   0.000
REMARK UNBOUND:                 0.000
REMARK SMILES CC(=O)[O-]
REMARK SMILES IDX 1 1 2 2 3 3 4 4
REMARK H PARENT
REMARK Flexibility Score: inf
ROOT
ATOM      1  C   UNL     1      -3.867  -4.107   4.963  1.00  0.00     0.063 C 
ATOM      2  C   UNL     1      -4.500  -2.853   5.463  1.00  0.00     0.038 C 
ATOM      3  O   UNL     1      -4.323  -1.768   4.850  1.00  0.00    -0.550 OA
ATOM      4  O   UNL     1      -5.331  -2.888   6.576  1.00  0.00    -0.550 OA
ENDROOT
TORSDOF 0
ENDMDL
MODEL 2
REMARK VINA RESULT:    -2.691     13.306     13.942
REMARK INTER + INTRA:          -2.691
REMARK INTER:                  -2.691
REMARK INTRA:                   0.000
REMARK UNBOUND:                 0.000
REMARK SMILES CC(=O)[O-]
REMARK SMILES IDX 1 1 2 2 3 3 4 4
REMARK H PARENT
REMARK Flexibility Score: inf
ROOT
ATOM      1  C   UNL     1       1.842  -7.956  -7.045  1.00  0.00     0.063 C 
ATOM      2  C   UNL     1       2.213  -7.660  -5.631  1.00  0.00     0.038 C 
ATOM      3  O   UNL     1       1.545  -6.828  -4.964  1.00  0.00    -0.550 OA
ATOM      4  O   UNL     1       3.265  -8.341  -5.031  1.00  0.00    -0.550 OA
ENDROOT
TORSDOF 0
ENDMDL
MODEL 3
REMARK VINA RESULT:    -2.637      1.466      2.012
REMARK INTER + INTRA:          -2.637
REMARK INTER:                  -2.637
REMARK INTRA:                   0.000
REMARK UNBOUND:                 0.000
REMARK SMILES CC(=O)[O-]
REMARK SMILES IDX 1 1 2 2 3 3 4 4
REMARK H PARENT
REMARK Flexibility Score: inf
ROOT
ATOM      1  C   UNL     1      -5.259  -3.423   6.698  1.00  0.00     0.063 C 
ATOM      2  C   UNL     1      -4.455  -3.207   5.461  1.00  0.00     0.038 C 
ATOM      3  O   UNL     1      -3.882  -4.179   4.903  1.00  0.00    -0.550 OA
ATOM      4  O   UNL     1      -4.379  -1.943   4.892  1.00  0.00    -0.550 OA
ENDROOT
TORSDOF 0
ENDMDL
MODEL 4
REMARK VINA RESULT:    -2.632     14.699     15.246
REMARK INTER + INTRA:          -2.632
REMARK INTER:                  -2.632
REMARK INTRA:                   0.000
REMARK UNBOUND:                 0.000
REMARK SMILES CC(=O)[O-]
REMARK SMILES IDX 1 1 2 2 3 3 4 4
REMARK H PARENT
REMARK Flexibility Score: inf
ROOT
ATOM      1  C   UNL     1       1.391   4.889  -7.854  1.00  0.00     0.063 C 
ATOM      2  C   UNL     1       0.410   4.181  -6.983  1.00  0.00     0.038 C 
ATOM      3  O   UNL     1      -0.315   3.269  -7.460  1.00  0.00    -0.550 OA
ATOM      4  O   UNL     1       0.331   4.488  -5.630  1.00  0.00    -0.550 OA
ENDROOT
TORSDOF 0
ENDMDL
MODEL 5
REMARK VINA RESULT:    -2.532     15.451     16.048
REMARK INTER + INTRA:          -2.532
REMARK INTER:                  -2.532
REMARK INTRA:                   0.000
REMARK UNBOUND:                 0.000
REMARK SMILES CC(=O)[O-]
REMARK SMILES IDX 1 1 2 2 3 3 4 4
REMARK H PARENT
REMARK Flexibility Score: inf
ROOT
ATOM      1  C   UNL     1       3.095   8.768  -4.830  1.00  0.00     0.063 C 
ATOM      2  C   UNL     1       2.590   7.450  -4.347  1.00  0.00     0.038 C 
ATOM      3  O   UNL     1       2.462   6.490  -5.150  1.00  0.00    -0.550 OA
ATOM      4  O   UNL     1       2.312   7.264  -2.999  1.00  0.00    -0.550 OA
ENDROOT
TORSDOF 0
ENDMDL
MODEL 6
REMARK VINA RESULT:    -2.505     13.965     14.636
REMARK INTER + INTRA:          -2.505
REMARK INTER:                  -2.505
REMARK INTRA:                   0.000
REMARK UNBOUND:                 0.000
REMARK SMILES CC(=O)[O-]
REMARK SMILES IDX 1 1 2 2 3 3 4 4
REMARK H PARENT
REMARK Flexibility Score: inf
ROOT
ATOM      1  C   UNL     1       2.288  -7.416  -5.255  1.00  0.00     0.063 C 
ATOM      2  C   UNL     1       1.842  -7.869  -6.604  1.00  0.00     0.038 C 
ATOM      3  O   UNL     1       0.707  -7.539  -7.037  1.00  0.00    -0.550 OA
ATOM      4  O   UNL     1       2.698  -8.610  -7.408  1.00  0.00    -0.550 OA
ENDROOT
TORSDOF 0
ENDMDL
MODEL 7
REMARK VINA RESULT:    -2.450     15.069     15.579
REMARK INTER + INTRA:          -2.450
REMARK INTER:                  -2.450
REMARK INTRA:                   0.000
REMARK UNBOUND:                 0.000
REMARK SMILES CC(=O)[O-]
REMARK SMILES IDX 1 1 2 2 3 3 4 4
REMARK H PARENT
REMARK Flexibility Score: inf
ROOT
ATOM      1  C   UNL     1       0.378   4.211  -6.556  1.00  0.00     0.063 C 
ATOM      2  C   UNL     1       1.269   5.375  -6.279  1.00  0.00     0.038 C 
ATOM      3  O   UNL     1       2.265   5.241  -5.522  1.00  0.00    -0.550 OA
ATOM      4  O   UNL     1       1.033   6.595  -6.899  1.00  0.00    -0.550 OA
ENDROOT
TORSDOF 0
ENDMDL
MODEL 8
REMARK VINA RESULT:    -2.446     13.903     14.579
REMARK INTER + INTRA:          -2.446
REMARK INTER:                  -2.446
REMARK INTRA:                   0.000
REMARK UNBOUND:                 0.000
REMARK SMILES CC(=O)[O-]
REMARK SMILES IDX 1 1 2 2 3 3 4 4
REMARK H PARENT
REMARK Flexibility Score: inf
ROOT
ATOM      1  C   UNL     1       2.252  -7.305  -5.309  1.00  0.00     0.063 C 
ATOM      2  C   UNL     1       2.689  -8.707  -5.569  1.00  0.00     0.038 C 
ATOM      3  O   UNL     1       2.515  -9.595  -4.694  1.00  0.00    -0.550 OA
ATOM      4  O   UNL     1       3.241  -9.048  -6.797  1.00  0.00    -0.550 OA
ENDROOT
TORSDOF 0
ENDMDL
MODEL 9
REMARK VINA RESULT:    -2.426      2.869      3.190
REMARK INTER + INTRA:          -2.426
REMARK INTER:                  -2.426
REMARK INTRA:                   0.000
REMARK UNBOUND:                 0.000
REMARK SMILES CC(=O)[O-]
REMARK SMILES IDX 1 1 2 2 3 3 4 4
REMARK H PARENT
REMARK Flexibility Score: inf
ROOT
ATOM      1  C   UNL     1      -4.080  -4.200   5.341  1.00  0.00     0.063 C 
ATOM      2  C   UNL     1      -4.118  -5.382   6.250  1.00  0.00     0.038 C 
ATOM      3  O   UNL     1      -4.706  -6.435   5.891  1.00  0.00    -0.550 OA
ATOM      4  O   UNL     1      -3.460  -5.342   7.472  1.00  0.00    -0.550 OA
ENDROOT
TORSDOF 0
ENDMDL
