MODEL 1
REMARK VINA RESULT:    10.963      0.000      0.000
REMARK INTER + INTRA:          11.283
REMARK INTER:                  11.283
REMARK INTRA:                   0.000
REMARK UNBOUND:                 0.000
REMARK SMILES C=C1[C@@H](O)C[C@@]23C[C@@H]1C(C)(C)[C@@H]2CC[C@H]3C
REMARK SMILES IDX 16 1 15 2 14 3 13 4 12 5 6 6 7 7 8 8 9 9 10 10 11 11 2 12
REMARK SMILES IDX 1 13 3 14 5 15 4 16
REMARK H PARENT 4 17
REMARK Flexibility Score: inf
ROOT
ATOM      1  C   UNL     1      14.853  14.066  32.650  1.00  0.00     0.008 C 
ATOM      2  C   UNL     1      13.946  13.313  33.634  1.00  0.00    -0.008 C 
ATOM      3  C   UNL     1      12.584  13.989  33.775  1.00  0.00     0.004 C 
ATOM      4  C   UNL     1      12.034  13.472  35.091  1.00  0.00     0.005 C 
ATOM      5  C   UNL     1      13.259  13.401  36.014  1.00  0.00     0.002 C 
ATOM      6  C   UNL     1      14.478  13.155  35.093  1.00  0.00    -0.020 C 
ATOM      7  C   UNL     1      14.924  11.726  35.416  1.00  0.00     0.016 C 
ATOM      8  C   UNL     1      14.733  11.681  36.923  1.00  0.00     0.023 C 
ATOM      9  C   UNL     1      13.314  12.296  37.125  1.00  0.00    -0.025 C 
ATOM     10  C   UNL     1      12.248  11.178  36.973  1.00  0.00     0.012 C 
ATOM     11  C   UNL     1      13.115  12.913  38.533  1.00  0.00     0.012 C 
ATOM     12  C   UNL     1      15.832  12.542  37.543  1.00  0.00    -0.045 C 
ATOM     13  C   UNL     1      16.395  12.164  38.702  1.00  0.00     0.011 C 
ATOM     14  C   UNL     1      16.160  13.913  36.946  1.00  0.00     0.140 C 
ATOM     15  C   UNL     1      15.656  14.100  35.481  1.00  0.00     0.044 C 
ENDROOT
BRANCH  14  16
ATOM     16  O   UNL     1      17.549  14.122  36.989  1.00  0.00    -0.389 OA
ATOM     17  H   UNL     1      17.958  13.268  37.287  1.00  0.00     0.211 HD
ENDBRANCH  14  16
TORSDOF 1
ENDMDL
