MODEL 1
REMARK VINA RESULT:    -3.451      0.000      0.000
REMARK INTER + INTRA:         -10.645
REMARK INTER:                  -7.486
REMARK INTRA:                  -3.159
REMARK UNBOUND:                -3.159
REMARK SMILES CCCCCCCCCCCCCCCCCCCCCC(=O)[O-]
REMARK SMILES IDX 12 1 11 2 10 3 9 4 8 5 7 6 6 7 5 8 4 9 3 10 2 11 1 12 13 13
REMARK SMILES IDX 14 14 15 15 16 16 17 17 18 18 19 19 20 20 21 21 22 22 23 23
REMARK SMILES IDX 24 24
REMARK H PARENT
REMARK Flexibility Score: inf
ROOT
ATOM      1  C   UNL     1       1.642   7.344  -8.400  1.00  0.00     0.000 C 
ENDROOT
BRANCH   1   2
ATOM      2  C   UNL     1       2.606   7.861  -9.482  1.00  0.00     0.000 C 
BRANCH   2   3
ATOM      3  C   UNL     1       2.318   9.314  -9.893  1.00  0.00     0.000 C 
BRANCH   3   4
ATOM      4  C   UNL     1       1.983   9.455 -11.394  1.00  0.00    -0.000 C 
BRANCH   4   5
ATOM      5  C   UNL     1       0.495   9.233 -11.724  1.00  0.00    -0.000 C 
BRANCH   5   6
ATOM      6  C   UNL     1      -0.450  10.376 -11.307  1.00  0.00    -0.000 C 
BRANCH   6   7
ATOM      7  C   UNL     1      -0.227  11.711 -12.041  1.00  0.00    -0.000 C 
BRANCH   7   8
ATOM      8  C   UNL     1      -0.456  12.935 -11.138  1.00  0.00    -0.000 C 
BRANCH   8   9
ATOM      9  C   UNL     1       0.734  13.908 -11.145  1.00  0.00    -0.000 C 
BRANCH   9  10
ATOM     10  C   UNL     1       2.052  13.236 -10.721  1.00  0.00    -0.000 C 
BRANCH  10  11
ATOM     11  C   UNL     1       2.081  12.894  -9.223  1.00  0.00    -0.003 C 
ATOM     12  C   UNL     1       3.500  12.688  -8.688  1.00  0.00     0.004 C 
ENDBRANCH  10  11
ENDBRANCH   9  10
ENDBRANCH   8   9
ENDBRANCH   7   8
ENDBRANCH   6   7
ENDBRANCH   5   6
ENDBRANCH   4   5
ENDBRANCH   3   4
ENDBRANCH   2   3
ENDBRANCH   1   2
BRANCH   1  13
ATOM     13  C   UNL     1       0.657   8.416  -7.888  1.00  0.00     0.000 C 
BRANCH  13  14
ATOM     14  C   UNL     1      -0.808   8.037  -8.170  1.00  0.00     0.000 C 
BRANCH  14  15
ATOM     15  C   UNL     1      -0.943   6.959  -9.256  1.00  0.00     0.000 C 
BRANCH  15  16
ATOM     16  C   UNL     1      -2.372   6.851  -9.808  1.00  0.00     0.000 C 
BRANCH  16  17
ATOM     17  C   UNL     1      -2.373   6.910 -11.343  1.00  0.00     0.000 C 
BRANCH  17  18
ATOM     18  C   UNL     1      -3.690   7.458 -11.923  1.00  0.00     0.000 C 
BRANCH  18  19
ATOM     19  C   UNL     1      -3.811   8.993 -11.923  1.00  0.00     0.000 C 
BRANCH  19  20
ATOM     20  C   UNL     1      -4.495   9.540 -10.660  1.00  0.00     0.006 C 
BRANCH  20  21
ATOM     21  C   UNL     1      -5.498  10.642 -11.011  1.00  0.00     0.053 C 
BRANCH  21  22
ATOM     22  C   UNL     1      -5.008  11.970 -10.528  1.00  0.00     0.041 C 
ATOM     23  O   UNL     1      -3.829  12.339 -10.778  1.00  0.00    -0.550 OA
ATOM     24  O   UNL     1      -5.869  12.826  -9.852  1.00  0.00    -0.550 OA
ENDBRANCH  21  22
ENDBRANCH  20  21
ENDBRANCH  19  20
ENDBRANCH  18  19
ENDBRANCH  17  18
ENDBRANCH  16  17
ENDBRANCH  15  16
ENDBRANCH  14  15
ENDBRANCH  13  14
ENDBRANCH   1  13
TORSDOF 20
ENDMDL
MODEL 2
REMARK VINA RESULT:    -3.443      3.426      6.665
REMARK INTER + INTRA:         -10.627
REMARK INTER:                  -7.415
REMARK INTRA:                  -3.211
REMARK UNBOUND:                -3.159
REMARK SMILES CCCCCCCCCCCCCCCCCCCCCC(=O)[O-]
REMARK SMILES IDX 12 1 11 2 10 3 9 4 8 5 7 6 6 7 5 8 4 9 3 10 2 11 1 12 13 13
REMARK SMILES IDX 14 14 15 15 16 16 17 17 18 18 19 19 20 20 21 21 22 22 23 23
REMARK SMILES IDX 24 24
REMARK H PARENT
REMARK Flexibility Score: inf
ROOT
ATOM      1  C   UNL     1       2.504   8.234  -9.701  1.00  0.00     0.000 C 
ENDROOT
BRANCH   1   2
ATOM      2  C   UNL     1       1.872   7.372  -8.595  1.00  0.00     0.000 C 
BRANCH   2   3
ATOM      3  C   UNL     1       0.874   8.154  -7.726  1.00  0.00     0.000 C 
BRANCH   3   4
ATOM      4  C   UNL     1      -0.583   8.018  -8.220  1.00  0.00    -0.000 C 
BRANCH   4   5
ATOM      5  C   UNL     1      -0.822   6.796  -9.127  1.00  0.00    -0.000 C 
BRANCH   5   6
ATOM      6  C   UNL     1      -2.245   6.672  -9.703  1.00  0.00    -0.000 C 
BRANCH   6   7
ATOM      7  C   UNL     1      -2.402   7.128 -11.165  1.00  0.00    -0.000 C 
BRANCH   7   8
ATOM      8  C   UNL     1      -3.545   8.139 -11.356  1.00  0.00    -0.000 C 
BRANCH   8   9
ATOM      9  C   UNL     1      -3.057   9.597 -11.336  1.00  0.00    -0.000 C 
BRANCH   9  10
ATOM     10  C   UNL     1      -4.154  10.584 -10.900  1.00  0.00    -0.000 C 
BRANCH  10  11
ATOM     11  C   UNL     1      -3.613  12.005 -10.681  1.00  0.00    -0.003 C 
ATOM     12  C   UNL     1      -4.501  12.844  -9.761  1.00  0.00     0.004 C 
ENDBRANCH  10  11
ENDBRANCH   9  10
ENDBRANCH   8   9
ENDBRANCH   7   8
ENDBRANCH   6   7
ENDBRANCH   5   6
ENDBRANCH   4   5
ENDBRANCH   3   4
ENDBRANCH   2   3
ENDBRANCH   1   2
BRANCH   1  13
ATOM     13  C   UNL     1       2.210   7.722 -11.127  1.00  0.00     0.000 C 
BRANCH  13  14
ATOM     14  C   UNL     1       1.003   8.436 -11.761  1.00  0.00     0.000 C 
BRANCH  14  15
ATOM     15  C   UNL     1       0.703   9.792 -11.102  1.00  0.00     0.000 C 
BRANCH  15  16
ATOM     16  C   UNL     1       0.352  10.881 -12.125  1.00  0.00     0.000 C 
BRANCH  16  17
ATOM     17  C   UNL     1       0.157  12.240 -11.435  1.00  0.00     0.000 C 
BRANCH  17  18
ATOM     18  C   UNL     1       1.449  12.782 -10.796  1.00  0.00     0.000 C 
BRANCH  18  19
ATOM     19  C   UNL     1       2.678  12.791 -11.723  1.00  0.00     0.000 C 
BRANCH  19  20
ATOM     20  C   UNL     1       3.840  11.940 -11.187  1.00  0.00     0.006 C 
BRANCH  20  21
ATOM     21  C   UNL     1       4.127  10.755 -12.113  1.00  0.00     0.053 C 
BRANCH  21  22
ATOM     22  C   UNL     1       5.433  10.118 -11.759  1.00  0.00     0.041 C 
ATOM     23  O   UNL     1       6.377  10.820 -11.307  1.00  0.00    -0.550 OA
ATOM     24  O   UNL     1       5.591   8.743 -11.875  1.00  0.00    -0.550 OA
ENDBRANCH  21  22
ENDBRANCH  20  21
ENDBRANCH  19  20
ENDBRANCH  18  19
ENDBRANCH  17  18
ENDBRANCH  16  17
ENDBRANCH  15  16
ENDBRANCH  14  15
ENDBRANCH  13  14
ENDBRANCH   1  13
TORSDOF 20
ENDMDL
MODEL 3
REMARK VINA RESULT:    -3.394     15.409     17.930
REMARK INTER + INTRA:         -10.520
REMARK INTER:                  -7.787
REMARK INTRA:                  -2.733
REMARK UNBOUND:                -3.159
REMARK SMILES CCCCCCCCCCCCCCCCCCCCCC(=O)[O-]
REMARK SMILES IDX 12 1 11 2 10 3 9 4 8 5 7 6 6 7 5 8 4 9 3 10 2 11 1 12 13 13
REMARK SMILES IDX 14 14 15 15 16 16 17 17 18 18 19 19 20 20 21 21 22 22 23 23
REMARK SMILES IDX 24 24
REMARK H PARENT
REMARK Flexibility Score: inf
ROOT
ATOM      1  C   UNL     1      -1.010  11.105   5.714  1.00  0.00     0.000 C 
ENDROOT
BRANCH   1   2
ATOM      2  C   UNL     1      -2.012   9.944   5.596  1.00  0.00     0.000 C 
BRANCH   2   3
ATOM      3  C   UNL     1      -2.546   9.476   6.960  1.00  0.00     0.000 C 
BRANCH   3   4
ATOM      4  C   UNL     1      -3.515   8.281   6.844  1.00  0.00    -0.000 C 
BRANCH   4   5
ATOM      5  C   UNL     1      -4.758   8.566   5.980  1.00  0.00    -0.000 C 
BRANCH   5   6
ATOM      6  C   UNL     1      -5.700   9.658   6.521  1.00  0.00    -0.000 C 
BRANCH   6   7
ATOM      7  C   UNL     1      -6.444  10.473   5.446  1.00  0.00    -0.000 C 
BRANCH   7   8
ATOM      8  C   UNL     1      -5.505  11.026   4.360  1.00  0.00    -0.000 C 
BRANCH   8   9
ATOM      9  C   UNL     1      -5.389  12.559   4.401  1.00  0.00    -0.000 C 
BRANCH   9  10
ATOM     10  C   UNL     1      -3.951  13.037   4.672  1.00  0.00    -0.000 C 
BRANCH  10  11
ATOM     11  C   UNL     1      -3.833  13.829   5.984  1.00  0.00    -0.003 C 
ATOM     12  C   UNL     1      -3.952  12.943   7.226  1.00  0.00     0.004 C 
ENDBRANCH  10  11
ENDBRANCH   9  10
ENDBRANCH   8   9
ENDBRANCH   7   8
ENDBRANCH   6   7
ENDBRANCH   5   6
ENDBRANCH   4   5
ENDBRANCH   3   4
ENDBRANCH   2   3
ENDBRANCH   1   2
BRANCH   1  13
ATOM     13  C   UNL     1      -0.331  11.473   4.377  1.00  0.00     0.000 C 
BRANCH  13  14
ATOM     14  C   UNL     1      -0.365  12.988   4.110  1.00  0.00     0.000 C 
BRANCH  14  15
ATOM     15  C   UNL     1       0.590  13.774   5.022  1.00  0.00     0.000 C 
BRANCH  15  16
ATOM     16  C   UNL     1       2.067  13.481   4.723  1.00  0.00     0.000 C 
BRANCH  16  17
ATOM     17  C   UNL     1       2.933  13.693   5.974  1.00  0.00     0.000 C 
BRANCH  17  18
ATOM     18  C   UNL     1       2.503  12.811   7.160  1.00  0.00     0.000 C 
BRANCH  18  19
ATOM     19  C   UNL     1       3.397  11.585   7.417  1.00  0.00     0.000 C 
BRANCH  19  20
ATOM     20  C   UNL     1       4.897  11.921   7.398  1.00  0.00     0.006 C 
BRANCH  20  21
ATOM     21  C   UNL     1       5.746  10.647   7.420  1.00  0.00     0.053 C 
BRANCH  21  22
ATOM     22  C   UNL     1       6.014  10.173   6.026  1.00  0.00     0.041 C 
ATOM     23  O   UNL     1       7.029  10.584   5.403  1.00  0.00    -0.550 OA
ATOM     24  O   UNL     1       5.175   9.236   5.437  1.00  0.00    -0.550 OA
ENDBRANCH  21  22
ENDBRANCH  20  21
ENDBRANCH  19  20
ENDBRANCH  18  19
ENDBRANCH  17  18
ENDBRANCH  16  17
ENDBRANCH  15  16
ENDBRANCH  14  15
ENDBRANCH  13  14
ENDBRANCH   1  13
TORSDOF 20
ENDMDL
MODEL 4
REMARK VINA RESULT:    -3.356      6.130     10.324
REMARK INTER + INTRA:         -10.438
REMARK INTER:                  -8.830
REMARK INTRA:                  -1.608
REMARK UNBOUND:                -3.159
REMARK SMILES CCCCCCCCCCCCCCCCCCCCCC(=O)[O-]
REMARK SMILES IDX 12 1 11 2 10 3 9 4 8 5 7 6 6 7 5 8 4 9 3 10 2 11 1 12 13 13
REMARK SMILES IDX 14 14 15 15 16 16 17 17 18 18 19 19 20 20 21 21 22 22 23 23
REMARK SMILES IDX 24 24
REMARK H PARENT
REMARK Flexibility Score: inf
ROOT
ATOM      1  C   UNL     1       2.637  11.921  -8.647  1.00  0.00     0.000 C 
ENDROOT
BRANCH   1   2
ATOM      2  C   UNL     1       2.183  10.973  -9.770  1.00  0.00     0.000 C 
BRANCH   2   3
ATOM      3  C   UNL     1       1.162  11.620 -10.720  1.00  0.00     0.000 C 
BRANCH   3   4
ATOM      4  C   UNL     1       0.244  10.585 -11.405  1.00  0.00    -0.000 C 
BRANCH   4   5
ATOM      5  C   UNL     1      -1.242  10.990 -11.433  1.00  0.00    -0.000 C 
BRANCH   5   6
ATOM      6  C   UNL     1      -2.245   9.823 -11.362  1.00  0.00    -0.000 C 
BRANCH   6   7
ATOM      7  C   UNL     1      -2.017   8.834 -10.204  1.00  0.00    -0.000 C 
BRANCH   7   8
ATOM      8  C   UNL     1      -1.677   7.414 -10.689  1.00  0.00    -0.000 C 
BRANCH   8   9
ATOM      9  C   UNL     1      -0.599   6.735  -9.828  1.00  0.00    -0.000 C 
BRANCH   9  10
ATOM     10  C   UNL     1       0.791   7.366 -10.013  1.00  0.00    -0.000 C 
BRANCH  10  11
ATOM     11  C   UNL     1       1.552   7.512  -8.685  1.00  0.00    -0.003 C 
ATOM     12  C   UNL     1       0.777   8.319  -7.642  1.00  0.00     0.004 C 
ENDBRANCH  10  11
ENDBRANCH   9  10
ENDBRANCH   8   9
ENDBRANCH   7   8
ENDBRANCH   6   7
ENDBRANCH   5   6
ENDBRANCH   4   5
ENDBRANCH   3   4
ENDBRANCH   2   3
ENDBRANCH   1   2
BRANCH   1  13
ATOM     13  C   UNL     1       3.405  13.159  -9.155  1.00  0.00     0.000 C 
BRANCH  13  14
ATOM     14  C   UNL     1       4.928  13.000  -8.996  1.00  0.00     0.000 C 
BRANCH  14  15
ATOM     15  C   UNL     1       5.462  13.658  -7.713  1.00  0.00     0.000 C 
BRANCH  15  16
ATOM     16  C   UNL     1       6.762  13.010  -7.214  1.00  0.00     0.000 C 
BRANCH  16  17
ATOM     17  C   UNL     1       6.814  12.996  -5.679  1.00  0.00     0.000 C 
BRANCH  17  18
ATOM     18  C   UNL     1       7.598  11.797  -5.114  1.00  0.00     0.000 C 
BRANCH  18  19
ATOM     19  C   UNL     1       9.090  11.760  -5.492  1.00  0.00     0.000 C 
BRANCH  19  20
ATOM     20  C   UNL     1       9.574  10.357  -5.890  1.00  0.00     0.006 C 
BRANCH  20  21
ATOM     21  C   UNL     1      10.790   9.939  -5.060  1.00  0.00     0.053 C 
BRANCH  21  22
ATOM     22  C   UNL     1      11.129   8.504  -5.313  1.00  0.00     0.041 C 
ATOM     23  O   UNL     1      10.930   7.639  -4.419  1.00  0.00    -0.550 OA
ATOM     24  O   UNL     1      11.612   8.112  -6.556  1.00  0.00    -0.550 OA
ENDBRANCH  21  22
ENDBRANCH  20  21
ENDBRANCH  19  20
ENDBRANCH  18  19
ENDBRANCH  17  18
ENDBRANCH  16  17
ENDBRANCH  15  16
ENDBRANCH  14  15
ENDBRANCH  13  14
ENDBRANCH   1  13
TORSDOF 20
ENDMDL
MODEL 5
REMARK VINA RESULT:    -3.273      3.102      6.580
REMARK INTER + INTRA:         -10.258
REMARK INTER:                  -7.249
REMARK INTRA:                  -3.010
REMARK UNBOUND:                -3.159
REMARK SMILES CCCCCCCCCCCCCCCCCCCCCC(=O)[O-]
REMARK SMILES IDX 12 1 11 2 10 3 9 4 8 5 7 6 6 7 5 8 4 9 3 10 2 11 1 12 13 13
REMARK SMILES IDX 14 14 15 15 16 16 17 17 18 18 19 19 20 20 21 21 22 22 23 23
REMARK SMILES IDX 24 24
REMARK H PARENT
REMARK Flexibility Score: inf
ROOT
ATOM      1  C   UNL     1       2.218   8.971  -9.652  1.00  0.00     0.000 C 
ENDROOT
BRANCH   1   2
ATOM      2  C   UNL     1       2.047   7.729  -8.760  1.00  0.00     0.000 C 
BRANCH   2   3
ATOM      3  C   UNL     1       1.005   7.933  -7.647  1.00  0.00     0.000 C 
BRANCH   3   4
ATOM      4  C   UNL     1      -0.441   7.978  -8.184  1.00  0.00    -0.000 C 
BRANCH   4   5
ATOM      5  C   UNL     1      -0.767   6.861  -9.194  1.00  0.00    -0.000 C 
BRANCH   5   6
ATOM      6  C   UNL     1      -2.207   6.868  -9.741  1.00  0.00    -0.000 C 
BRANCH   6   7
ATOM      7  C   UNL     1      -2.328   7.070 -11.263  1.00  0.00    -0.000 C 
BRANCH   7   8
ATOM      8  C   UNL     1      -3.709   7.597 -11.688  1.00  0.00    -0.000 C 
BRANCH   8   9
ATOM      9  C   UNL     1      -3.750   9.131 -11.798  1.00  0.00    -0.000 C 
BRANCH   9  10
ATOM     10  C   UNL     1      -4.377   9.797 -10.561  1.00  0.00    -0.000 C 
BRANCH  10  11
ATOM     11  C   UNL     1      -3.860  11.227 -10.338  1.00  0.00    -0.003 C 
ATOM     12  C   UNL     1      -4.983  12.265 -10.299  1.00  0.00     0.004 C 
ENDBRANCH  10  11
ENDBRANCH   9  10
ENDBRANCH   8   9
ENDBRANCH   7   8
ENDBRANCH   6   7
ENDBRANCH   5   6
ENDBRANCH   4   5
ENDBRANCH   3   4
ENDBRANCH   2   3
ENDBRANCH   1   2
BRANCH   1  13
ATOM     13  C   UNL     1       2.371   8.639 -11.151  1.00  0.00     0.000 C 
BRANCH  13  14
ATOM     14  C   UNL     1       1.129   9.049 -11.963  1.00  0.00     0.000 C 
BRANCH  14  15
ATOM     15  C   UNL     1       0.142   9.899 -11.148  1.00  0.00     0.000 C 
BRANCH  15  16
ATOM     16  C   UNL     1      -0.492  11.026 -11.977  1.00  0.00     0.000 C 
BRANCH  16  17
ATOM     17  C   UNL     1      -0.221  12.396 -11.337  1.00  0.00     0.000 C 
BRANCH  17  18
ATOM     18  C   UNL     1       1.009  13.106 -11.932  1.00  0.00     0.000 C 
BRANCH  18  19
ATOM     19  C   UNL     1       2.002  13.664 -10.897  1.00  0.00     0.000 C 
BRANCH  19  20
ATOM     20  C   UNL     1       2.945  12.590 -10.330  1.00  0.00     0.006 C 
BRANCH  20  21
ATOM     21  C   UNL     1       3.411  12.957  -8.919  1.00  0.00     0.053 C 
BRANCH  21  22
ATOM     22  C   UNL     1       4.900  13.100  -8.881  1.00  0.00     0.041 C 
ATOM     23  O   UNL     1       5.534  13.402  -9.927  1.00  0.00    -0.550 OA
ATOM     24  O   UNL     1       5.582  12.957  -7.678  1.00  0.00    -0.550 OA
ENDBRANCH  21  22
ENDBRANCH  20  21
ENDBRANCH  19  20
ENDBRANCH  18  19
ENDBRANCH  17  18
ENDBRANCH  16  17
ENDBRANCH  15  16
ENDBRANCH  14  15
ENDBRANCH  13  14
ENDBRANCH   1  13
TORSDOF 20
ENDMDL
MODEL 6
REMARK VINA RESULT:    -3.222     15.830     18.176
REMARK INTER + INTRA:         -10.147
REMARK INTER:                  -7.532
REMARK INTRA:                  -2.615
REMARK UNBOUND:                -3.159
REMARK SMILES CCCCCCCCCCCCCCCCCCCCCC(=O)[O-]
REMARK SMILES IDX 12 1 11 2 10 3 9 4 8 5 7 6 6 7 5 8 4 9 3 10 2 11 1 12 13 13
REMARK SMILES IDX 14 14 15 15 16 16 17 17 18 18 19 19 20 20 21 21 22 22 23 23
REMARK SMILES IDX 24 24
REMARK H PARENT
REMARK Flexibility Score: inf
ROOT
ATOM      1  C   UNL     1      -2.559  13.963   4.915  1.00  0.00     0.000 C 
ENDROOT
BRANCH   1   2
ATOM      2  C   UNL     1      -4.042  13.619   4.692  1.00  0.00     0.000 C 
BRANCH   2   3
ATOM      3  C   UNL     1      -4.487  12.368   5.468  1.00  0.00     0.000 C 
BRANCH   3   4
ATOM      4  C   UNL     1      -5.546  11.540   4.710  1.00  0.00    -0.000 C 
BRANCH   4   5
ATOM      5  C   UNL     1      -5.127  10.081   4.446  1.00  0.00    -0.000 C 
BRANCH   5   6
ATOM      6  C   UNL     1      -5.811   9.028   5.338  1.00  0.00    -0.000 C 
BRANCH   6   7
ATOM      7  C   UNL     1      -5.200   8.863   6.742  1.00  0.00    -0.000 C 
BRANCH   7   8
ATOM      8  C   UNL     1      -4.177   7.717   6.817  1.00  0.00    -0.000 C 
BRANCH   8   9
ATOM      9  C   UNL     1      -2.730   8.202   6.624  1.00  0.00    -0.000 C 
BRANCH   9  10
ATOM     10  C   UNL     1      -2.433   9.501   7.394  1.00  0.00    -0.000 C 
BRANCH  10  11
ATOM     11  C   UNL     1      -1.650  10.518   6.548  1.00  0.00    -0.003 C 
ATOM     12  C   UNL     1      -1.617  10.155   5.063  1.00  0.00     0.004 C 
ENDBRANCH  10  11
ENDBRANCH   9  10
ENDBRANCH   8   9
ENDBRANCH   7   8
ENDBRANCH   6   7
ENDBRANCH   5   6
ENDBRANCH   4   5
ENDBRANCH   3   4
ENDBRANCH   2   3
ENDBRANCH   1   2
BRANCH   1  13
ATOM     13  C   UNL     1      -2.159  14.039   6.404  1.00  0.00     0.000 C 
BRANCH  13  14
ATOM     14  C   UNL     1      -0.634  14.124   6.589  1.00  0.00     0.000 C 
BRANCH  14  15
ATOM     15  C   UNL     1       0.135  13.934   5.272  1.00  0.00     0.000 C 
BRANCH  15  16
ATOM     16  C   UNL     1       1.004  12.668   5.272  1.00  0.00     0.000 C 
BRANCH  16  17
ATOM     17  C   UNL     1       2.482  13.016   5.039  1.00  0.00     0.000 C 
BRANCH  17  18
ATOM     18  C   UNL     1       3.084  13.871   6.169  1.00  0.00     0.000 C 
BRANCH  18  19
ATOM     19  C   UNL     1       4.225  13.199   6.956  1.00  0.00     0.000 C 
BRANCH  19  20
ATOM     20  C   UNL     1       4.041  11.681   7.101  1.00  0.00     0.006 C 
BRANCH  20  21
ATOM     21  C   UNL     1       5.374  10.991   7.403  1.00  0.00     0.053 C 
BRANCH  21  22
ATOM     22  C   UNL     1       5.933  10.368   6.163  1.00  0.00     0.041 C 
ATOM     23  O   UNL     1       5.299   9.454   5.573  1.00  0.00    -0.550 OA
ATOM     24  O   UNL     1       7.127  10.835   5.628  1.00  0.00    -0.550 OA
ENDBRANCH  21  22
ENDBRANCH  20  21
ENDBRANCH  19  20
ENDBRANCH  18  19
ENDBRANCH  17  18
ENDBRANCH  16  17
ENDBRANCH  15  16
ENDBRANCH  14  15
ENDBRANCH  13  14
ENDBRANCH   1  13
TORSDOF 20
ENDMDL
MODEL 7
REMARK VINA RESULT:    -3.221      2.782      5.782
REMARK INTER + INTRA:         -10.146
REMARK INTER:                  -7.520
REMARK INTRA:                  -2.627
REMARK UNBOUND:                -3.159
REMARK SMILES CCCCCCCCCCCCCCCCCCCCCC(=O)[O-]
REMARK SMILES IDX 12 1 11 2 10 3 9 4 8 5 7 6 6 7 5 8 4 9 3 10 2 11 1 12 13 13
REMARK SMILES IDX 14 14 15 15 16 16 17 17 18 18 19 19 20 20 21 21 22 22 23 23
REMARK SMILES IDX 24 24
REMARK H PARENT
REMARK Flexibility Score: inf
ROOT
ATOM      1  C   UNL     1      -0.761   8.121  -8.365  1.00  0.00     0.000 C 
ENDROOT
BRANCH   1   2
ATOM      2  C   UNL     1      -0.948   7.012  -9.414  1.00  0.00     0.000 C 
BRANCH   2   3
ATOM      3  C   UNL     1      -1.424   7.551 -10.774  1.00  0.00     0.000 C 
BRANCH   3   4
ATOM      4  C   UNL     1      -2.494   6.653 -11.431  1.00  0.00    -0.000 C 
BRANCH   4   5
ATOM      5  C   UNL     1      -3.728   7.423 -11.939  1.00  0.00    -0.000 C 
BRANCH   5   6
ATOM      6  C   UNL     1      -4.226   8.552 -11.016  1.00  0.00    -0.000 C 
BRANCH   6   7
ATOM      7  C   UNL     1      -4.280   9.949 -11.662  1.00  0.00    -0.000 C 
BRANCH   7   8
ATOM      8  C   UNL     1      -4.559  11.068 -10.644  1.00  0.00    -0.000 C 
BRANCH   8   9
ATOM      9  C   UNL     1      -5.340  12.244 -11.254  1.00  0.00    -0.000 C 
BRANCH   9  10
ATOM     10  C   UNL     1      -4.529  13.551 -11.267  1.00  0.00    -0.000 C 
BRANCH  10  11
ATOM     11  C   UNL     1      -3.158  13.385 -11.941  1.00  0.00    -0.003 C 
ATOM     12  C   UNL     1      -1.995  13.776 -11.028  1.00  0.00     0.004 C 
ENDBRANCH  10  11
ENDBRANCH   9  10
ENDBRANCH   8   9
ENDBRANCH   7   8
ENDBRANCH   6   7
ENDBRANCH   5   6
ENDBRANCH   4   5
ENDBRANCH   3   4
ENDBRANCH   2   3
ENDBRANCH   1   2
BRANCH   1  13
ATOM     13  C   UNL     1       0.717   8.478  -8.100  1.00  0.00     0.000 C 
BRANCH  13  14
ATOM     14  C   UNL     1       1.681   7.462  -8.739  1.00  0.00     0.000 C 
BRANCH  14  15
ATOM     15  C   UNL     1       2.593   8.096  -9.800  1.00  0.00     0.000 C 
BRANCH  15  16
ATOM     16  C   UNL     1       2.208   7.690 -11.230  1.00  0.00     0.000 C 
BRANCH  16  17
ATOM     17  C   UNL     1       1.694   8.900 -12.025  1.00  0.00     0.000 C 
BRANCH  17  18
ATOM     18  C   UNL     1       2.125  10.247 -11.416  1.00  0.00     0.000 C 
BRANCH  18  19
ATOM     19  C   UNL     1       0.971  11.127 -10.900  1.00  0.00     0.000 C 
BRANCH  19  20
ATOM     20  C   UNL     1       1.457  12.422 -10.231  1.00  0.00     0.006 C 
BRANCH  20  21
ATOM     21  C   UNL     1       2.378  12.118  -9.047  1.00  0.00     0.053 C 
BRANCH  21  22
ATOM     22  C   UNL     1       3.727  12.727  -9.263  1.00  0.00     0.041 C 
ATOM     23  O   UNL     1       3.993  13.308 -10.349  1.00  0.00    -0.550 OA
ATOM     24  O   UNL     1       4.672  12.702  -8.245  1.00  0.00    -0.550 OA
ENDBRANCH  21  22
ENDBRANCH  20  21
ENDBRANCH  19  20
ENDBRANCH  18  19
ENDBRANCH  17  18
ENDBRANCH  16  17
ENDBRANCH  15  16
ENDBRANCH  14  15
ENDBRANCH  13  14
ENDBRANCH   1  13
TORSDOF 20
ENDMDL
MODEL 8
REMARK VINA RESULT:    -3.209     15.139     17.868
REMARK INTER + INTRA:         -10.120
REMARK INTER:                  -7.680
REMARK INTRA:                  -2.441
REMARK UNBOUND:                -3.159
REMARK SMILES CCCCCCCCCCCCCCCCCCCCCC(=O)[O-]
REMARK SMILES IDX 12 1 11 2 10 3 9 4 8 5 7 6 6 7 5 8 4 9 3 10 2 11 1 12 13 13
REMARK SMILES IDX 14 14 15 15 16 16 17 17 18 18 19 19 20 20 21 21 22 22 23 23
REMARK SMILES IDX 24 24
REMARK H PARENT
REMARK Flexibility Score: inf
ROOT
ATOM      1  C   UNL     1      -1.071  11.026   5.546  1.00  0.00     0.000 C 
ENDROOT
BRANCH   1   2
ATOM      2  C   UNL     1      -2.070   9.934   5.128  1.00  0.00     0.000 C 
BRANCH   2   3
ATOM      3  C   UNL     1      -2.632   9.150   6.326  1.00  0.00     0.000 C 
BRANCH   3   4
ATOM      4  C   UNL     1      -4.144   9.382   6.535  1.00  0.00    -0.000 C 
BRANCH   4   5
ATOM      5  C   UNL     1      -4.691  10.625   5.807  1.00  0.00    -0.000 C 
BRANCH   5   6
ATOM      6  C   UNL     1      -4.749  11.911   6.654  1.00  0.00    -0.000 C 
BRANCH   6   7
ATOM      7  C   UNL     1      -4.061  13.138   6.028  1.00  0.00    -0.000 C 
BRANCH   7   8
ATOM      8  C   UNL     1      -4.289  13.241   4.510  1.00  0.00    -0.000 C 
BRANCH   8   9
ATOM      9  C   UNL     1      -5.536  14.067   4.153  1.00  0.00    -0.000 C 
BRANCH   9  10
ATOM     10  C   UNL     1      -6.718  13.191   3.701  1.00  0.00    -0.000 C 
BRANCH  10  11
ATOM     11  C   UNL     1      -6.383  12.348   2.461  1.00  0.00    -0.003 C 
ATOM     12  C   UNL     1      -6.777  10.878   2.619  1.00  0.00     0.004 C 
ENDBRANCH  10  11
ENDBRANCH   9  10
ENDBRANCH   8   9
ENDBRANCH   7   8
ENDBRANCH   6   7
ENDBRANCH   5   6
ENDBRANCH   4   5
ENDBRANCH   3   4
ENDBRANCH   2   3
ENDBRANCH   1   2
BRANCH   1  13
ATOM     13  C   UNL     1      -0.329  11.672   4.357  1.00  0.00     0.000 C 
BRANCH  13  14
ATOM     14  C   UNL     1      -0.656  13.169   4.215  1.00  0.00     0.000 C 
BRANCH  14  15
ATOM     15  C   UNL     1       0.352  14.069   4.947  1.00  0.00     0.000 C 
BRANCH  15  16
ATOM     16  C   UNL     1       1.761  13.459   4.998  1.00  0.00     0.000 C 
BRANCH  16  17
ATOM     17  C   UNL     1       2.299  13.440   6.437  1.00  0.00     0.000 C 
BRANCH  17  18
ATOM     18  C   UNL     1       2.228  12.046   7.087  1.00  0.00     0.000 C 
BRANCH  18  19
ATOM     19  C   UNL     1       3.591  11.423   7.440  1.00  0.00     0.000 C 
BRANCH  19  20
ATOM     20  C   UNL     1       4.756  12.418   7.315  1.00  0.00     0.006 C 
BRANCH  20  21
ATOM     21  C   UNL     1       5.624  12.100   6.096  1.00  0.00     0.053 C 
BRANCH  21  22
ATOM     22  C   UNL     1       6.964  11.592   6.525  1.00  0.00     0.041 C 
ATOM     23  O   UNL     1       7.565  10.727   5.832  1.00  0.00    -0.550 OA
ATOM     24  O   UNL     1       7.576  12.114   7.658  1.00  0.00    -0.550 OA
ENDBRANCH  21  22
ENDBRANCH  20  21
ENDBRANCH  19  20
ENDBRANCH  18  19
ENDBRANCH  17  18
ENDBRANCH  16  17
ENDBRANCH  15  16
ENDBRANCH  14  15
ENDBRANCH  13  14
ENDBRANCH   1  13
TORSDOF 20
ENDMDL
MODEL 9
REMARK VINA RESULT:    -3.103      9.900     12.421
REMARK INTER + INTRA:          -9.890
REMARK INTER:                  -6.011
REMARK INTRA:                  -3.879
REMARK UNBOUND:                -3.159
REMARK SMILES CCCCCCCCCCCCCCCCCCCCCC(=O)[O-]
REMARK SMILES IDX 12 1 11 2 10 3 9 4 8 5 7 6 6 7 5 8 4 9 3 10 2 11 1 12 13 13
REMARK SMILES IDX 14 14 15 15 16 16 17 17 18 18 19 19 20 20 21 21 22 22 23 23
REMARK SMILES IDX 24 24
REMARK H PARENT
REMARK Flexibility Score: inf
ROOT
ATOM      1  C   UNL     1      10.062   9.626  -6.832  1.00  0.00     0.000 C 
ENDROOT
BRANCH   1   2
ATOM      2  C   UNL     1       9.122  10.176  -5.746  1.00  0.00     0.000 C 
BRANCH   2   3
ATOM      3  C   UNL     1       8.439  11.491  -6.158  1.00  0.00     0.000 C 
BRANCH   3   4
ATOM      4  C   UNL     1       7.612  12.119  -5.016  1.00  0.00    -0.000 C 
BRANCH   4   5
ATOM      5  C   UNL     1       7.998  13.575  -4.693  1.00  0.00    -0.000 C 
BRANCH   5   6
ATOM      6  C   UNL     1       8.925  13.756  -3.476  1.00  0.00    -0.000 C 
BRANCH   6   7
ATOM      7  C   UNL     1      10.411  13.982  -3.812  1.00  0.00    -0.000 C 
BRANCH   7   8
ATOM      8  C   UNL     1      11.219  12.674  -3.850  1.00  0.00    -0.000 C 
BRANCH   8   9
ATOM      9  C   UNL     1      11.953  12.469  -5.186  1.00  0.00    -0.000 C 
BRANCH   9  10
ATOM     10  C   UNL     1      11.500  13.465  -6.268  1.00  0.00    -0.000 C 
BRANCH  10  11
ATOM     11  C   UNL     1      11.643  12.894  -7.688  1.00  0.00    -0.003 C 
ATOM     12  C   UNL     1      12.882  12.012  -7.852  1.00  0.00     0.004 C 
ENDBRANCH  10  11
ENDBRANCH   9  10
ENDBRANCH   8   9
ENDBRANCH   7   8
ENDBRANCH   6   7
ENDBRANCH   5   6
ENDBRANCH   4   5
ENDBRANCH   3   4
ENDBRANCH   2   3
ENDBRANCH   1   2
BRANCH   1  13
ATOM     13  C   UNL     1      11.301   8.900  -6.267  1.00  0.00     0.000 C 
BRANCH  13  14
ATOM     14  C   UNL     1      12.282   8.483  -7.376  1.00  0.00     0.000 C 
BRANCH  14  15
ATOM     15  C   UNL     1      11.645   7.539  -8.408  1.00  0.00     0.000 C 
BRANCH  15  16
ATOM     16  C   UNL     1      12.424   7.495  -9.730  1.00  0.00     0.000 C 
BRANCH  16  17
ATOM     17  C   UNL     1      12.789   8.911 -10.199  1.00  0.00     0.000 C 
BRANCH  17  18
ATOM     18  C   UNL     1      12.268   9.231 -11.613  1.00  0.00     0.000 C 
BRANCH  18  19
ATOM     19  C   UNL     1      10.818   9.745 -11.670  1.00  0.00     0.000 C 
BRANCH  19  20
ATOM     20  C   UNL     1      10.422  10.564 -10.432  1.00  0.00     0.006 C 
BRANCH  20  21
ATOM     21  C   UNL     1       8.938  10.385 -10.105  1.00  0.00     0.053 C 
BRANCH  21  22
ATOM     22  C   UNL     1       8.245  11.710 -10.072  1.00  0.00     0.041 C 
ATOM     23  O   UNL     1       8.904  12.765  -9.871  1.00  0.00    -0.550 OA
ATOM     24  O   UNL     1       6.880  11.788 -10.321  1.00  0.00    -0.550 OA
ENDBRANCH  21  22
ENDBRANCH  20  21
ENDBRANCH  19  20
ENDBRANCH  18  19
ENDBRANCH  17  18
ENDBRANCH  16  17
ENDBRANCH  15  16
ENDBRANCH  14  15
ENDBRANCH  13  14
ENDBRANCH   1  13
TORSDOF 20
ENDMDL
