MODEL 1
REMARK VINA RESULT:    -3.843      0.000      0.000
REMARK INTER + INTRA:          -4.559
REMARK INTER:                  -4.517
REMARK INTRA:                  -0.042
REMARK UNBOUND:                -0.042
REMARK SMILES O=C([O-])CCC(=O)[O-]
REMARK SMILES IDX 4 1 2 2 1 3 3 4 5 5 6 6 7 7 8 8
REMARK H PARENT
REMARK Flexibility Score: inf
ROOT
ATOM      1  C   UNL     1     -40.639  20.692 -28.597  1.00  0.00     0.059 C 
ENDROOT
BRANCH   1   2
ATOM      2  C   UNL     1     -41.857  21.536 -28.396  1.00  0.00     0.042 C 
ATOM      3  O   UNL     1     -42.858  21.070 -27.792  1.00  0.00    -0.550 OA
ATOM      4  O   UNL     1     -41.906  22.822 -28.920  1.00  0.00    -0.550 OA
ENDBRANCH   1   2
BRANCH   1   5
ATOM      5  C   UNL     1     -40.363  20.495 -30.088  1.00  0.00     0.059 C 
BRANCH   5   6
ATOM      6  C   UNL     1     -40.274  19.038 -30.416  1.00  0.00     0.042 C 
ATOM      7  O   UNL     1     -41.155  18.495 -31.134  1.00  0.00    -0.550 OA
ATOM      8  O   UNL     1     -39.245  18.268 -29.889  1.00  0.00    -0.550 OA
ENDBRANCH   5   6
ENDBRANCH   1   5
TORSDOF 3
ENDMDL
MODEL 2
REMARK VINA RESULT:    -3.835      0.069      4.026
REMARK INTER + INTRA:          -4.549
REMARK INTER:                  -4.509
REMARK INTRA:                  -0.040
REMARK UNBOUND:                -0.042
REMARK SMILES O=C([O-])CCC(=O)[O-]
REMARK SMILES IDX 4 1 2 2 1 3 3 4 5 5 6 6 7 7 8 8
REMARK H PARENT
REMARK Flexibility Score: inf
ROOT
ATOM      1  C   UNL     1     -40.350  20.510 -30.046  1.00  0.00     0.059 C 
ENDROOT
BRANCH   1   2
ATOM      2  C   UNL     1     -40.246  19.054 -30.371  1.00  0.00     0.042 C 
ATOM      3  O   UNL     1     -39.255  18.386 -29.976  1.00  0.00    -0.550 OA
ATOM      4  O   UNL     1     -41.220  18.444 -31.153  1.00  0.00    -0.550 OA
ENDBRANCH   1   2
BRANCH   1   5
ATOM      5  C   UNL     1     -40.654  20.706 -28.560  1.00  0.00     0.059 C 
BRANCH   5   6
ATOM      6  C   UNL     1     -41.881  21.543 -28.382  1.00  0.00     0.042 C 
ATOM      7  O   UNL     1     -42.887  21.074 -27.788  1.00  0.00    -0.550 OA
ATOM      8  O   UNL     1     -41.931  22.825 -28.915  1.00  0.00    -0.550 OA
ENDBRANCH   5   6
ENDBRANCH   1   5
TORSDOF 3
ENDMDL
MODEL 3
REMARK VINA RESULT:    -3.832      0.101      1.621
REMARK INTER + INTRA:          -4.546
REMARK INTER:                  -4.506
REMARK INTRA:                  -0.040
REMARK UNBOUND:                -0.042
REMARK SMILES O=C([O-])CCC(=O)[O-]
REMARK SMILES IDX 4 1 2 2 1 3 3 4 5 5 6 6 7 7 8 8
REMARK H PARENT
REMARK Flexibility Score: inf
ROOT
ATOM      1  C   UNL     1     -40.552  20.815 -28.661  1.00  0.00     0.059 C 
ENDROOT
BRANCH   1   2
ATOM      2  C   UNL     1     -41.804  21.609 -28.466  1.00  0.00     0.042 C 
ATOM      3  O   UNL     1     -41.873  22.796 -28.878  1.00  0.00    -0.550 OA
ATOM      4  O   UNL     1     -42.881  21.054 -27.784  1.00  0.00    -0.550 OA
ENDBRANCH   1   2
BRANCH   1   5
ATOM      5  C   UNL     1     -40.323  20.533 -30.147  1.00  0.00     0.059 C 
BRANCH   5   6
ATOM      6  C   UNL     1     -40.230  19.060 -30.392  1.00  0.00     0.042 C 
ATOM      7  O   UNL     1     -39.259  18.402 -29.932  1.00  0.00    -0.550 OA
ATOM      8  O   UNL     1     -41.188  18.422 -31.169  1.00  0.00    -0.550 OA
ENDBRANCH   5   6
ENDBRANCH   1   5
TORSDOF 3
ENDMDL
MODEL 4
REMARK VINA RESULT:    -3.826      0.179      3.981
REMARK INTER + INTRA:          -4.539
REMARK INTER:                  -4.486
REMARK INTRA:                  -0.053
REMARK UNBOUND:                -0.042
REMARK SMILES O=C([O-])CCC(=O)[O-]
REMARK SMILES IDX 4 1 2 2 1 3 3 4 5 5 6 6 7 7 8 8
REMARK H PARENT
REMARK Flexibility Score: inf
ROOT
ATOM      1  C   UNL     1     -40.187  20.471 -30.168  1.00  0.00     0.059 C 
ENDROOT
BRANCH   1   2
ATOM      2  C   UNL     1     -40.264  18.995 -30.394  1.00  0.00     0.042 C 
ATOM      3  O   UNL     1     -41.147  18.516 -31.153  1.00  0.00    -0.550 OA
ATOM      4  O   UNL     1     -39.392  18.143 -29.729  1.00  0.00    -0.550 OA
ENDBRANCH   1   2
BRANCH   1   5
ATOM      5  C   UNL     1     -40.433  20.801 -28.695  1.00  0.00     0.059 C 
BRANCH   5   6
ATOM      6  C   UNL     1     -41.698  21.585 -28.539  1.00  0.00     0.042 C 
ATOM      7  O   UNL     1     -41.781  22.752 -29.005  1.00  0.00    -0.550 OA
ATOM      8  O   UNL     1     -42.768  21.046 -27.837  1.00  0.00    -0.550 OA
ENDBRANCH   5   6
ENDBRANCH   1   5
TORSDOF 3
ENDMDL
MODEL 5
REMARK VINA RESULT:    -3.586      1.661      3.847
REMARK INTER + INTRA:          -4.257
REMARK INTER:                  -4.133
REMARK INTRA:                  -0.124
REMARK UNBOUND:                -0.042
REMARK SMILES O=C([O-])CCC(=O)[O-]
REMARK SMILES IDX 4 1 2 2 1 3 3 4 5 5 6 6 7 7 8 8
REMARK H PARENT
REMARK Flexibility Score: inf
ROOT
ATOM      1  C   UNL     1     -40.464  20.125 -29.699  1.00  0.00     0.059 C 
ENDROOT
BRANCH   1   2
ATOM      2  C   UNL     1     -39.531  20.913 -30.563  1.00  0.00     0.042 C 
ATOM      3  O   UNL     1     -38.287  20.828 -30.395  1.00  0.00    -0.550 OA
ATOM      4  O   UNL     1     -40.038  21.781 -31.523  1.00  0.00    -0.550 OA
ENDBRANCH   1   2
BRANCH   1   5
ATOM      5  C   UNL     1     -40.645  20.810 -28.344  1.00  0.00     0.059 C 
BRANCH   5   6
ATOM      6  C   UNL     1     -41.934  21.570 -28.310  1.00  0.00     0.042 C 
ATOM      7  O   UNL     1     -42.962  21.050 -27.802  1.00  0.00    -0.550 OA
ATOM      8  O   UNL     1     -42.011  22.833 -28.882  1.00  0.00    -0.550 OA
ENDBRANCH   5   6
ENDBRANCH   1   5
TORSDOF 3
ENDMDL
MODEL 6
REMARK VINA RESULT:    -3.542      2.200      3.902
REMARK INTER + INTRA:          -4.205
REMARK INTER:                  -4.100
REMARK INTRA:                  -0.105
REMARK UNBOUND:                -0.042
REMARK SMILES O=C([O-])CCC(=O)[O-]
REMARK SMILES IDX 4 1 2 2 1 3 3 4 5 5 6 6 7 7 8 8
REMARK H PARENT
REMARK Flexibility Score: inf
ROOT
ATOM      1  C   UNL     1     -39.309  18.746 -29.627  1.00  0.00     0.059 C 
ENDROOT
BRANCH   1   2
ATOM      2  C   UNL     1     -40.271  19.241 -30.660  1.00  0.00     0.042 C 
ATOM      3  O   UNL     1     -40.241  20.444 -31.029  1.00  0.00    -0.550 OA
ATOM      4  O   UNL     1     -41.235  18.386 -31.180  1.00  0.00    -0.550 OA
ENDBRANCH   1   2
BRANCH   1   5
ATOM      5  C   UNL     1     -38.514  19.911 -29.034  1.00  0.00     0.059 C 
BRANCH   5   6
ATOM      6  C   UNL     1     -38.992  20.220 -27.650  1.00  0.00     0.042 C 
ATOM      7  O   UNL     1     -38.199  20.139 -26.675  1.00  0.00    -0.550 OA
ATOM      8  O   UNL     1     -40.323  20.549 -27.431  1.00  0.00    -0.550 OA
ENDBRANCH   5   6
ENDBRANCH   1   5
TORSDOF 3
ENDMDL
MODEL 7
REMARK VINA RESULT:    -3.500      2.254      2.847
REMARK INTER + INTRA:          -4.156
REMARK INTER:                  -4.046
REMARK INTRA:                  -0.109
REMARK UNBOUND:                -0.042
REMARK SMILES O=C([O-])CCC(=O)[O-]
REMARK SMILES IDX 4 1 2 2 1 3 3 4 5 5 6 6 7 7 8 8
REMARK H PARENT
REMARK Flexibility Score: inf
ROOT
ATOM      1  C   UNL     1     -41.507  22.479 -29.201  1.00  0.00     0.059 C 
ENDROOT
BRANCH   1   2
ATOM      2  C   UNL     1     -41.668  21.393 -28.186  1.00  0.00     0.042 C 
ATOM      3  O   UNL     1     -40.659  20.784 -27.745  1.00  0.00    -0.550 OA
ATOM      4  O   UNL     1     -42.938  21.018 -27.763  1.00  0.00    -0.550 OA
ENDBRANCH   1   2
BRANCH   1   5
ATOM      5  C   UNL     1     -40.036  22.635 -29.590  1.00  0.00     0.059 C 
BRANCH   5   6
ATOM      6  C   UNL     1     -39.821  22.202 -31.007  1.00  0.00     0.042 C 
ATOM      7  O   UNL     1     -40.202  21.063 -31.385  1.00  0.00    -0.550 OA
ATOM      8  O   UNL     1     -39.156  23.037 -31.895  1.00  0.00    -0.550 OA
ENDBRANCH   5   6
ENDBRANCH   1   5
TORSDOF 3
ENDMDL
MODEL 8
REMARK VINA RESULT:    -3.410      1.427      4.019
REMARK INTER + INTRA:          -4.050
REMARK INTER:                  -3.914
REMARK INTRA:                  -0.136
REMARK UNBOUND:                -0.042
REMARK SMILES O=C([O-])CCC(=O)[O-]
REMARK SMILES IDX 4 1 2 2 1 3 3 4 5 5 6 6 7 7 8 8
REMARK H PARENT
REMARK Flexibility Score: inf
ROOT
ATOM      1  C   UNL     1     -40.410  20.693 -28.627  1.00  0.00     0.059 C 
ENDROOT
BRANCH   1   2
ATOM      2  C   UNL     1     -40.248  20.214 -30.034  1.00  0.00     0.042 C 
ATOM      3  O   UNL     1     -39.500  20.835 -30.833  1.00  0.00    -0.550 OA
ATOM      4  O   UNL     1     -40.961  19.107 -30.479  1.00  0.00    -0.550 OA
ENDBRANCH   1   2
BRANCH   1   5
ATOM      5  C   UNL     1     -41.734  21.443 -28.466  1.00  0.00     0.059 C 
BRANCH   5   6
ATOM      6  C   UNL     1     -41.574  22.878 -28.859  1.00  0.00     0.042 C 
ATOM      7  O   UNL     1     -42.508  23.479 -29.451  1.00  0.00    -0.550 OA
ATOM      8  O   UNL     1     -40.376  23.536 -28.614  1.00  0.00    -0.550 OA
ENDBRANCH   5   6
ENDBRANCH   1   5
TORSDOF 3
ENDMDL
MODEL 9
REMARK VINA RESULT:    -3.383      2.633      3.056
REMARK INTER + INTRA:          -4.018
REMARK INTER:                  -3.930
REMARK INTRA:                  -0.088
REMARK UNBOUND:                -0.042
REMARK SMILES O=C([O-])CCC(=O)[O-]
REMARK SMILES IDX 4 1 2 2 1 3 3 4 5 5 6 6 7 7 8 8
REMARK H PARENT
REMARK Flexibility Score: inf
ROOT
ATOM      1  C   UNL     1     -38.300  19.820 -29.423  1.00  0.00     0.059 C 
ENDROOT
BRANCH   1   2
ATOM      2  C   UNL     1     -38.363  20.092 -27.954  1.00  0.00     0.042 C 
ATOM      3  O   UNL     1     -39.196  19.484 -27.232  1.00  0.00    -0.550 OA
ATOM      4  O   UNL     1     -37.533  21.052 -27.388  1.00  0.00    -0.550 OA
ENDBRANCH   1   2
BRANCH   1   5
ATOM      5  C   UNL     1     -39.259  18.690 -29.800  1.00  0.00     0.059 C 
BRANCH   5   6
ATOM      6  C   UNL     1     -40.344  19.200 -30.695  1.00  0.00     0.042 C 
ATOM      7  O   UNL     1     -41.243  18.421 -31.108  1.00  0.00    -0.550 OA
ATOM      8  O   UNL     1     -40.335  20.524 -31.113  1.00  0.00    -0.550 OA
ENDBRANCH   5   6
ENDBRANCH   1   5
TORSDOF 3
ENDMDL
