MODEL 1
REMARK VINA RESULT:    -4.793      0.000      0.000
REMARK INTER + INTRA:          -5.234
REMARK INTER:                  -5.073
REMARK INTRA:                  -0.161
REMARK UNBOUND:                -0.161
REMARK SMILES C=C(C)[C@H]1CC=C(C)C(=O)C1
REMARK SMILES IDX 8 1 7 2 6 3 5 4 4 5 11 6 9 7 10 8 2 9 1 10 3 11
REMARK H PARENT
REMARK Flexibility Score: inf
ROOT
ATOM      1  C   UNL     1       6.210 -10.883  43.388  1.00  0.00     0.048 C 
ATOM      2  C   UNL     1       7.309  -9.886  43.140  1.00  0.00    -0.012 C 
ATOM      3  C   UNL     1       7.878  -9.252  44.177  1.00  0.00    -0.019 C 
ATOM      4  C   UNL     1       9.004  -8.269  44.005  1.00  0.00     0.036 C 
ATOM      5  C   UNL     1       8.974  -7.528  42.651  1.00  0.00     0.025 C 
ATOM      6  C   UNL     1       8.737  -8.495  41.473  1.00  0.00     0.089 C 
ATOM      7  C   UNL     1       7.652  -9.498  41.752  1.00  0.00     0.158 C 
ATOM      8  O   UNL     1       7.058 -10.039  40.781  1.00  0.00    -0.295 OA
ENDROOT
BRANCH   5   9
ATOM      9  C   UNL     1       8.017  -6.334  42.649  1.00  0.00    -0.077 C 
ATOM     10  C   UNL     1       7.505  -5.823  43.781  1.00  0.00     0.008 C 
ATOM     11  C   UNL     1       7.620  -5.694  41.341  1.00  0.00     0.039 C 
ENDBRANCH   5   9
TORSDOF 1
ENDMDL
MODEL 2
REMARK VINA RESULT:    -4.578      1.876      4.101
REMARK INTER + INTRA:          -5.006
REMARK INTER:                  -4.814
REMARK INTRA:                  -0.192
REMARK UNBOUND:                -0.161
REMARK SMILES C=C(C)[C@H]1CC=C(C)C(=O)C1
REMARK SMILES IDX 8 1 7 2 6 3 5 4 4 5 11 6 9 7 10 8 2 9 1 10 3 11
REMARK H PARENT
REMARK Flexibility Score: inf
ROOT
ATOM      1  C   UNL     1       7.132  -4.863  43.018  1.00  0.00     0.048 C 
ATOM      2  C   UNL     1       7.824  -6.186  42.826  1.00  0.00    -0.012 C 
ATOM      3  C   UNL     1       8.170  -6.583  41.591  1.00  0.00    -0.019 C 
ATOM      4  C   UNL     1       8.893  -7.876  41.331  1.00  0.00     0.036 C 
ATOM      5  C   UNL     1       8.584  -8.975  42.368  1.00  0.00     0.025 C 
ATOM      6  C   UNL     1       8.661  -8.439  43.812  1.00  0.00     0.089 C 
ATOM      7  C   UNL     1       7.985  -7.106  43.976  1.00  0.00     0.158 C 
ATOM      8  O   UNL     1       7.586  -6.761  45.120  1.00  0.00    -0.295 OA
ENDROOT
BRANCH   5   9
ATOM      9  C   UNL     1       7.280  -9.720  42.074  1.00  0.00    -0.077 C 
ATOM     10  C   UNL     1       6.709  -9.714  40.857  1.00  0.00     0.008 C 
ATOM     11  C   UNL     1       6.595 -10.495  43.173  1.00  0.00     0.039 C 
ENDBRANCH   5   9
TORSDOF 1
ENDMDL
MODEL 3
REMARK VINA RESULT:    -4.552      1.899      4.624
REMARK INTER + INTRA:          -4.978
REMARK INTER:                  -4.756
REMARK INTRA:                  -0.222
REMARK UNBOUND:                -0.161
REMARK SMILES C=C(C)[C@H]1CC=C(C)C(=O)C1
REMARK SMILES IDX 8 1 7 2 6 3 5 4 4 5 11 6 9 7 10 8 2 9 1 10 3 11
REMARK H PARENT
REMARK Flexibility Score: inf
ROOT
ATOM      1  C   UNL     1       8.723  -8.413  44.004  1.00  0.00     0.048 C 
ATOM      2  C   UNL     1       7.673  -9.362  43.495  1.00  0.00    -0.012 C 
ATOM      3  C   UNL     1       7.151 -10.282  44.321  1.00  0.00    -0.019 C 
ATOM      4  C   UNL     1       6.076 -11.240  43.888  1.00  0.00     0.036 C 
ATOM      5  C   UNL     1       6.125 -11.585  42.385  1.00  0.00     0.025 C 
ATOM      6  C   UNL     1       6.297 -10.324  41.513  1.00  0.00     0.089 C 
ATOM      7  C   UNL     1       7.332  -9.378  42.053  1.00  0.00     0.158 C 
ATOM      8  O   UNL     1       7.885  -8.564  41.265  1.00  0.00    -0.295 OA
ENDROOT
BRANCH   5   9
ATOM      9  C   UNL     1       7.142 -12.681  42.060  1.00  0.00    -0.077 C 
ATOM     10  C   UNL     1       7.764 -12.754  40.871  1.00  0.00     0.008 C 
ATOM     11  C   UNL     1       7.473 -13.728  43.096  1.00  0.00     0.039 C 
ENDBRANCH   5   9
TORSDOF 1
ENDMDL
MODEL 4
REMARK VINA RESULT:    -4.355      3.318      5.527
REMARK INTER + INTRA:          -4.770
REMARK INTER:                  -4.560
REMARK INTRA:                  -0.210
REMARK UNBOUND:                -0.161
REMARK SMILES C=C(C)[C@H]1CC=C(C)C(=O)C1
REMARK SMILES IDX 8 1 7 2 6 3 5 4 4 5 11 6 9 7 10 8 2 9 1 10 3 11
REMARK H PARENT
REMARK Flexibility Score: inf
ROOT
ATOM      1  C   UNL     1      12.071  -3.414  42.226  1.00  0.00     0.048 C 
ATOM      2  C   UNL     1      10.681  -3.561  41.670  1.00  0.00    -0.012 C 
ATOM      3  C   UNL     1       9.666  -2.884  42.228  1.00  0.00    -0.019 C 
ATOM      4  C   UNL     1       8.258  -2.958  41.703  1.00  0.00     0.036 C 
ATOM      5  C   UNL     1       7.924  -4.302  41.023  1.00  0.00     0.025 C 
ATOM      6  C   UNL     1       9.033  -4.742  40.045  1.00  0.00     0.089 C 
ATOM      7  C   UNL     1      10.414  -4.563  40.611  1.00  0.00     0.158 C 
ATOM      8  O   UNL     1      11.359  -5.254  40.145  1.00  0.00    -0.295 OA
ENDROOT
BRANCH   5   9
ATOM      9  C   UNL     1       7.540  -5.395  42.023  1.00  0.00    -0.077 C 
ATOM     10  C   UNL     1       7.035  -5.111  43.235  1.00  0.00     0.008 C 
ATOM     11  C   UNL     1       7.726  -6.847  41.655  1.00  0.00     0.039 C 
ENDBRANCH   5   9
TORSDOF 1
ENDMDL
MODEL 5
REMARK VINA RESULT:    -4.271      2.492      3.934
REMARK INTER + INTRA:          -4.681
REMARK INTER:                  -4.463
REMARK INTRA:                  -0.218
REMARK UNBOUND:                -0.161
REMARK SMILES C=C(C)[C@H]1CC=C(C)C(=O)C1
REMARK SMILES IDX 8 1 7 2 6 3 5 4 4 5 11 6 9 7 10 8 2 9 1 10 3 11
REMARK H PARENT
REMARK Flexibility Score: inf
ROOT
ATOM      1  C   UNL     1       7.501  -8.124  41.610  1.00  0.00     0.048 C 
ATOM      2  C   UNL     1       8.120  -6.758  41.727  1.00  0.00    -0.012 C 
ATOM      3  C   UNL     1       7.367  -5.719  42.122  1.00  0.00    -0.019 C 
ATOM      4  C   UNL     1       7.927  -4.334  42.293  1.00  0.00     0.036 C 
ATOM      5  C   UNL     1       9.120  -4.032  41.362  1.00  0.00     0.025 C 
ATOM      6  C   UNL     1      10.150  -5.180  41.359  1.00  0.00     0.089 C 
ATOM      7  C   UNL     1       9.510  -6.537  41.265  1.00  0.00     0.158 C 
ATOM      8  O   UNL     1      10.188  -7.501  40.820  1.00  0.00    -0.295 OA
ENDROOT
BRANCH   5   9
ATOM      9  C   UNL     1       8.686  -3.612  39.956  1.00  0.00    -0.077 C 
ATOM     10  C   UNL     1       7.542  -2.944  39.729  1.00  0.00     0.008 C 
ATOM     11  C   UNL     1       9.556  -3.949  38.771  1.00  0.00     0.039 C 
ENDBRANCH   5   9
TORSDOF 1
ENDMDL
MODEL 6
REMARK VINA RESULT:    -4.232      2.634      4.786
REMARK INTER + INTRA:          -4.640
REMARK INTER:                  -4.472
REMARK INTRA:                  -0.168
REMARK UNBOUND:                -0.161
REMARK SMILES C=C(C)[C@H]1CC=C(C)C(=O)C1
REMARK SMILES IDX 8 1 7 2 6 3 5 4 4 5 11 6 9 7 10 8 2 9 1 10 3 11
REMARK H PARENT
REMARK Flexibility Score: inf
ROOT
ATOM      1  C   UNL     1       7.137 -10.377  44.580  1.00  0.00     0.048 C 
ATOM      2  C   UNL     1       6.596 -10.447  43.178  1.00  0.00    -0.012 C 
ATOM      3  C   UNL     1       5.568 -11.264  42.901  1.00  0.00    -0.019 C 
ATOM      4  C   UNL     1       4.956 -11.359  41.530  1.00  0.00     0.036 C 
ATOM      5  C   UNL     1       5.952 -11.061  40.389  1.00  0.00     0.025 C 
ATOM      6  C   UNL     1       6.784  -9.793  40.670  1.00  0.00     0.089 C 
ATOM      7  C   UNL     1       7.294  -9.733  42.083  1.00  0.00     0.158 C 
ATOM      8  O   UNL     1       8.308  -9.029  42.336  1.00  0.00    -0.295 OA
ENDROOT
BRANCH   5   9
ATOM      9  C   UNL     1       6.810 -12.273  40.019  1.00  0.00    -0.077 C 
ATOM     10  C   UNL     1       8.135 -12.178  39.816  1.00  0.00     0.008 C 
ATOM     11  C   UNL     1       6.167 -13.630  39.871  1.00  0.00     0.039 C 
ENDBRANCH   5   9
TORSDOF 1
ENDMDL
MODEL 7
REMARK VINA RESULT:    -4.202      4.937      6.535
REMARK INTER + INTRA:          -4.609
REMARK INTER:                  -4.399
REMARK INTRA:                  -0.210
REMARK UNBOUND:                -0.161
REMARK SMILES C=C(C)[C@H]1CC=C(C)C(=O)C1
REMARK SMILES IDX 8 1 7 2 6 3 5 4 4 5 11 6 9 7 10 8 2 9 1 10 3 11
REMARK H PARENT
REMARK Flexibility Score: inf
ROOT
ATOM      1  C   UNL     1       8.999  -1.491  43.611  1.00  0.00     0.048 C 
ATOM      2  C   UNL     1       8.496  -2.379  42.505  1.00  0.00    -0.012 C 
ATOM      3  C   UNL     1       8.350  -3.695  42.724  1.00  0.00    -0.019 C 
ATOM      4  C   UNL     1       7.821  -4.635  41.675  1.00  0.00     0.036 C 
ATOM      5  C   UNL     1       8.132  -4.186  40.232  1.00  0.00     0.025 C 
ATOM      6  C   UNL     1       7.821  -2.691  40.016  1.00  0.00     0.089 C 
ATOM      7  C   UNL     1       8.310  -1.825  41.143  1.00  0.00     0.158 C 
ATOM      8  O   UNL     1       8.526  -0.603  40.925  1.00  0.00    -0.295 OA
ENDROOT
BRANCH   5   9
ATOM      9  C   UNL     1       9.540  -4.577  39.779  1.00  0.00    -0.077 C 
ATOM     10  C   UNL     1      10.172  -3.945  38.775  1.00  0.00     0.008 C 
ATOM     11  C   UNL     1      10.262  -5.708  40.468  1.00  0.00     0.039 C 
ENDBRANCH   5   9
TORSDOF 1
ENDMDL
MODEL 8
REMARK VINA RESULT:    -4.183     15.277     16.706
REMARK INTER + INTRA:          -4.588
REMARK INTER:                  -4.371
REMARK INTRA:                  -0.216
REMARK UNBOUND:                -0.161
REMARK SMILES C=C(C)[C@H]1CC=C(C)C(=O)C1
REMARK SMILES IDX 8 1 7 2 6 3 5 4 4 5 11 6 9 7 10 8 2 9 1 10 3 11
REMARK H PARENT
REMARK Flexibility Score: inf
ROOT
ATOM      1  C   UNL     1      25.116 -10.844  44.154  1.00  0.00     0.048 C 
ATOM      2  C   UNL     1      24.392 -11.328  45.380  1.00  0.00    -0.012 C 
ATOM      3  C   UNL     1      24.961 -12.255  46.166  1.00  0.00    -0.019 C 
ATOM      4  C   UNL     1      24.308 -12.759  47.424  1.00  0.00     0.036 C 
ATOM      5  C   UNL     1      22.766 -12.718  47.379  1.00  0.00     0.025 C 
ATOM      6  C   UNL     1      22.244 -11.370  46.842  1.00  0.00     0.089 C 
ATOM      7  C   UNL     1      22.997 -10.893  45.631  1.00  0.00     0.158 C 
ATOM      8  O   UNL     1      22.438 -10.082  44.845  1.00  0.00    -0.295 OA
ENDROOT
BRANCH   5   9
ATOM      9  C   UNL     1      22.162 -13.925  46.659  1.00  0.00    -0.077 C 
ATOM     10  C   UNL     1      20.949 -13.883  46.082  1.00  0.00     0.008 C 
ATOM     11  C   UNL     1      22.936 -15.218  46.583  1.00  0.00     0.039 C 
ENDBRANCH   5   9
TORSDOF 1
ENDMDL
MODEL 9
REMARK VINA RESULT:    -4.138     14.773     16.005
REMARK INTER + INTRA:          -4.541
REMARK INTER:                  -4.336
REMARK INTRA:                  -0.205
REMARK UNBOUND:                -0.161
REMARK SMILES C=C(C)[C@H]1CC=C(C)C(=O)C1
REMARK SMILES IDX 8 1 7 2 6 3 5 4 4 5 11 6 9 7 10 8 2 9 1 10 3 11
REMARK H PARENT
REMARK Flexibility Score: inf
ROOT
ATOM      1  C   UNL     1      19.669 -12.477  44.951  1.00  0.00     0.048 C 
ATOM      2  C   UNL     1      20.928 -12.512  45.774  1.00  0.00    -0.012 C 
ATOM      3  C   UNL     1      21.524 -11.362  46.126  1.00  0.00    -0.019 C 
ATOM      4  C   UNL     1      22.765 -11.322  46.975  1.00  0.00     0.036 C 
ATOM      5  C   UNL     1      23.664 -12.565  46.812  1.00  0.00     0.025 C 
ATOM      6  C   UNL     1      22.849 -13.874  46.871  1.00  0.00     0.089 C 
ATOM      7  C   UNL     1      21.584 -13.809  46.062  1.00  0.00     0.158 C 
ATOM      8  O   UNL     1      21.062 -14.883  45.660  1.00  0.00    -0.295 OA
ENDROOT
BRANCH   5   9
ATOM      9  C   UNL     1      24.578 -12.482  45.588  1.00  0.00    -0.077 C 
ATOM     10  C   UNL     1      24.920 -11.310  45.027  1.00  0.00     0.008 C 
ATOM     11  C   UNL     1      25.124 -13.747  44.973  1.00  0.00     0.039 C 
ENDBRANCH   5   9
TORSDOF 1
ENDMDL
