MODEL 1
REMARK VINA RESULT:    -4.429      0.000      0.000
REMARK INTER + INTRA:          -8.765
REMARK INTER:                  -6.759
REMARK INTRA:                  -2.006
REMARK UNBOUND:                -2.006
REMARK SMILES CC(=O)CCC=C(C)CCC=C(C)CCC=C(C)C
REMARK SMILES IDX 10 1 11 2 12 3 13 4 14 5 15 6 16 7 18 8 17 9 19 10 9 11 7 12
REMARK SMILES IDX 6 13 8 14 5 15 4 16 2 17 3 18 1 19
REMARK H PARENT
REMARK Flexibility Score: inf
ROOT
ATOM      1  C   UNL     1      19.724  26.008  41.294  1.00  0.00     0.032 C 
ENDROOT
BRANCH   1   2
ATOM      2  C   UNL     1      19.188  26.725  42.510  1.00  0.00    -0.028 C 
ATOM      3  C   UNL     1      19.405  28.036  42.745  1.00  0.00    -0.077 C 
ATOM      4  C   UNL     1      20.207  28.887  41.788  1.00  0.00     0.039 C 
BRANCH   3   5
ATOM      5  C   UNL     1      18.833  28.671  43.998  1.00  0.00     0.034 C 
BRANCH   5   6
ATOM      6  C   UNL     1      17.649  29.596  43.681  1.00  0.00     0.032 C 
BRANCH   6   7
ATOM      7  C   UNL     1      16.328  28.874  43.799  1.00  0.00    -0.028 C 
ATOM      8  C   UNL     1      14.265  27.785  43.029  1.00  0.00     0.039 C 
ATOM      9  C   UNL     1      15.590  28.445  42.751  1.00  0.00    -0.080 C 
ATOM     10  C   UNL     1      16.065  28.592  41.324  1.00  0.00     0.039 C 
ENDBRANCH   6   7
ENDBRANCH   5   6
ENDBRANCH   3   5
ENDBRANCH   1   2
BRANCH   1  11
ATOM     11  C   UNL     1      20.797  24.984  41.682  1.00  0.00     0.034 C 
BRANCH  11  12
ATOM     12  C   UNL     1      22.088  25.673  42.069  1.00  0.00    -0.077 C 
ATOM     13  C   UNL     1      22.869  26.196  41.096  1.00  0.00    -0.028 C 
ATOM     14  C   UNL     1      22.459  25.773  43.530  1.00  0.00     0.039 C 
BRANCH  13  15
ATOM     15  C   UNL     1      24.202  26.867  41.332  1.00  0.00     0.035 C 
BRANCH  15  16
ATOM     16  C   UNL     1      24.107  28.389  41.167  1.00  0.00     0.079 C 
BRANCH  16  17
ATOM     17  C   UNL     1      24.478  29.110  42.438  1.00  0.00     0.130 C 
ATOM     18  O   UNL     1      25.640  29.105  42.816  1.00  0.00    -0.300 OA
ATOM     19  C   UNL     1      23.448  29.837  43.251  1.00  0.00     0.087 C 
ENDBRANCH  16  17
ENDBRANCH  15  16
ENDBRANCH  13  15
ENDBRANCH  11  12
ENDBRANCH   1  11
TORSDOF 9
ENDMDL
MODEL 2
REMARK VINA RESULT:    -4.404      3.441      4.286
REMARK INTER + INTRA:          -8.727
REMARK INTER:                  -6.807
REMARK INTRA:                  -1.920
REMARK UNBOUND:                -2.006
REMARK SMILES CC(=O)CCC=C(C)CCC=C(C)CCC=C(C)C
REMARK SMILES IDX 10 1 11 2 12 3 13 4 14 5 15 6 16 7 18 8 17 9 19 10 9 11 7 12
REMARK SMILES IDX 6 13 8 14 5 15 4 16 2 17 3 18 1 19
REMARK H PARENT
REMARK Flexibility Score: inf
ROOT
ATOM      1  C   UNL     1      21.817  25.703  42.619  1.00  0.00     0.032 C 
ENDROOT
BRANCH   1   2
ATOM      2  C   UNL     1      20.764  26.463  43.389  1.00  0.00    -0.028 C 
ATOM      3  C   UNL     1      20.613  27.803  43.302  1.00  0.00    -0.077 C 
ATOM      4  C   UNL     1      21.499  28.639  42.409  1.00  0.00     0.039 C 
BRANCH   3   5
ATOM      5  C   UNL     1      19.532  28.482  44.118  1.00  0.00     0.034 C 
BRANCH   5   6
ATOM      6  C   UNL     1      18.280  28.775  43.279  1.00  0.00     0.032 C 
BRANCH   6   7
ATOM      7  C   UNL     1      17.323  27.607  43.276  1.00  0.00    -0.028 C 
ATOM      8  C   UNL     1      16.116  25.671  42.366  1.00  0.00     0.039 C 
ATOM      9  C   UNL     1      17.148  26.761  42.237  1.00  0.00    -0.080 C 
ATOM     10  C   UNL     1      17.966  26.865  40.971  1.00  0.00     0.039 C 
ENDBRANCH   6   7
ENDBRANCH   5   6
ENDBRANCH   3   5
ENDBRANCH   1   2
BRANCH   1  11
ATOM     11  C   UNL     1      21.189  24.865  41.500  1.00  0.00     0.034 C 
BRANCH  11  12
ATOM     12  C   UNL     1      21.820  25.187  40.163  1.00  0.00    -0.077 C 
ATOM     13  C   UNL     1      21.419  26.297  39.499  1.00  0.00    -0.028 C 
ATOM     14  C   UNL     1      22.890  24.273  39.615  1.00  0.00     0.039 C 
BRANCH  13  15
ATOM     15  C   UNL     1      21.927  26.714  38.139  1.00  0.00     0.035 C 
BRANCH  15  16
ATOM     16  C   UNL     1      20.901  26.420  37.037  1.00  0.00     0.079 C 
BRANCH  16  17
ATOM     17  C   UNL     1      21.546  25.776  35.836  1.00  0.00     0.130 C 
ATOM     18  O   UNL     1      21.085  25.982  34.723  1.00  0.00    -0.300 OA
ATOM     19  C   UNL     1      22.744  24.886  35.978  1.00  0.00     0.087 C 
ENDBRANCH  16  17
ENDBRANCH  15  16
ENDBRANCH  13  15
ENDBRANCH  11  12
ENDBRANCH   1  11
TORSDOF 9
ENDMDL
MODEL 3
REMARK VINA RESULT:    -4.404      1.806      4.761
REMARK INTER + INTRA:          -8.727
REMARK INTER:                  -6.441
REMARK INTRA:                  -2.286
REMARK UNBOUND:                -2.006
REMARK SMILES CC(=O)CCC=C(C)CCC=C(C)CCC=C(C)C
REMARK SMILES IDX 10 1 11 2 12 3 13 4 14 5 15 6 16 7 18 8 17 9 19 10 9 11 7 12
REMARK SMILES IDX 6 13 8 14 5 15 4 16 2 17 3 18 1 19
REMARK H PARENT
REMARK Flexibility Score: inf
ROOT
ATOM      1  C   UNL     1      16.455  27.134  42.564  1.00  0.00     0.032 C 
ENDROOT
BRANCH   1   2
ATOM      2  C   UNL     1      17.819  27.278  43.195  1.00  0.00    -0.028 C 
ATOM      3  C   UNL     1      18.286  28.451  43.676  1.00  0.00    -0.077 C 
ATOM      4  C   UNL     1      17.458  29.712  43.618  1.00  0.00     0.039 C 
BRANCH   3   5
ATOM      5  C   UNL     1      19.673  28.503  44.286  1.00  0.00     0.034 C 
BRANCH   5   6
ATOM      6  C   UNL     1      20.688  27.688  43.471  1.00  0.00     0.032 C 
BRANCH   6   7
ATOM      7  C   UNL     1      21.942  28.479  43.186  1.00  0.00    -0.028 C 
ATOM      8  C   UNL     1      23.468  29.923  41.913  1.00  0.00     0.039 C 
ATOM      9  C   UNL     1      22.141  29.230  42.080  1.00  0.00    -0.080 C 
ATOM     10  C   UNL     1      21.071  29.407  41.028  1.00  0.00     0.039 C 
ENDBRANCH   6   7
ENDBRANCH   5   6
ENDBRANCH   3   5
ENDBRANCH   1   2
BRANCH   1  11
ATOM     11  C   UNL     1      16.539  26.393  41.225  1.00  0.00     0.034 C 
BRANCH  11  12
ATOM     12  C   UNL     1      17.822  26.732  40.499  1.00  0.00    -0.077 C 
ATOM     13  C   UNL     1      18.875  25.887  40.598  1.00  0.00    -0.028 C 
ATOM     14  C   UNL     1      17.888  27.995  39.672  1.00  0.00     0.039 C 
BRANCH  13  15
ATOM     15  C   UNL     1      20.228  26.123  39.968  1.00  0.00     0.035 C 
BRANCH  15  16
ATOM     16  C   UNL     1      21.339  25.380  40.719  1.00  0.00     0.079 C 
BRANCH  16  17
ATOM     17  C   UNL     1      22.693  25.990  40.455  1.00  0.00     0.130 C 
ATOM     18  O   UNL     1      23.575  25.885  41.294  1.00  0.00    -0.300 OA
ATOM     19  C   UNL     1      22.980  26.724  39.179  1.00  0.00     0.087 C 
ENDBRANCH  16  17
ENDBRANCH  15  16
ENDBRANCH  13  15
ENDBRANCH  11  12
ENDBRANCH   1  11
TORSDOF 9
ENDMDL
MODEL 4
REMARK VINA RESULT:    -4.303      2.761      5.066
REMARK INTER + INTRA:          -8.573
REMARK INTER:                  -6.272
REMARK INTRA:                  -2.301
REMARK UNBOUND:                -2.006
REMARK SMILES CC(=O)CCC=C(C)CCC=C(C)CCC=C(C)C
REMARK SMILES IDX 10 1 11 2 12 3 13 4 14 5 15 6 16 7 18 8 17 9 19 10 9 11 7 12
REMARK SMILES IDX 6 13 8 14 5 15 4 16 2 17 3 18 1 19
REMARK H PARENT
REMARK Flexibility Score: inf
ROOT
ATOM      1  C   UNL     1      16.417  25.937  42.112  1.00  0.00     0.032 C 
ENDROOT
BRANCH   1   2
ATOM      2  C   UNL     1      17.283  26.851  42.945  1.00  0.00    -0.028 C 
ATOM      3  C   UNL     1      17.302  28.192  42.786  1.00  0.00    -0.077 C 
ATOM      4  C   UNL     1      16.440  28.875  41.752  1.00  0.00     0.039 C 
BRANCH   3   5
ATOM      5  C   UNL     1      18.210  29.030  43.664  1.00  0.00     0.034 C 
BRANCH   5   6
ATOM      6  C   UNL     1      19.392  28.215  44.208  1.00  0.00     0.032 C 
BRANCH   6   7
ATOM      7  C   UNL     1      20.638  28.414  43.379  1.00  0.00    -0.028 C 
ATOM      8  C   UNL     1      22.792  27.831  42.352  1.00  0.00     0.039 C 
ATOM      9  C   UNL     1      21.576  27.465  43.161  1.00  0.00    -0.080 C 
ATOM     10  C   UNL     1      21.427  26.056  43.687  1.00  0.00     0.039 C 
ENDBRANCH   6   7
ENDBRANCH   5   6
ENDBRANCH   3   5
ENDBRANCH   1   2
BRANCH   1  11
ATOM     11  C   UNL     1      17.268  25.035  41.210  1.00  0.00     0.034 C 
BRANCH  11  12
ATOM     12  C   UNL     1      18.112  25.861  40.264  1.00  0.00    -0.077 C 
ATOM     13  C   UNL     1      19.428  26.028  40.534  1.00  0.00    -0.028 C 
ATOM     14  C   UNL     1      17.467  26.461  39.037  1.00  0.00     0.039 C 
BRANCH  13  15
ATOM     15  C   UNL     1      20.376  26.863  39.705  1.00  0.00     0.035 C 
BRANCH  15  16
ATOM     16  C   UNL     1      21.582  26.045  39.228  1.00  0.00     0.079 C 
BRANCH  16  17
ATOM     17  C   UNL     1      21.628  25.948  37.724  1.00  0.00     0.130 C 
ATOM     18  O   UNL     1      22.565  25.377  37.186  1.00  0.00    -0.300 OA
ATOM     19  C   UNL     1      20.544  26.537  36.872  1.00  0.00     0.087 C 
ENDBRANCH  16  17
ENDBRANCH  15  16
ENDBRANCH  13  15
ENDBRANCH  11  12
ENDBRANCH   1  11
TORSDOF 9
ENDMDL
MODEL 5
REMARK VINA RESULT:    -4.290      2.248      3.767
REMARK INTER + INTRA:          -8.553
REMARK INTER:                  -6.529
REMARK INTRA:                  -2.024
REMARK UNBOUND:                -2.006
REMARK SMILES CC(=O)CCC=C(C)CCC=C(C)CCC=C(C)C
REMARK SMILES IDX 10 1 11 2 12 3 13 4 14 5 15 6 16 7 18 8 17 9 19 10 9 11 7 12
REMARK SMILES IDX 6 13 8 14 5 15 4 16 2 17 3 18 1 19
REMARK H PARENT
REMARK Flexibility Score: inf
ROOT
ATOM      1  C   UNL     1      18.490  28.753  43.232  1.00  0.00     0.032 C 
ENDROOT
BRANCH   1   2
ATOM      2  C   UNL     1      17.516  27.600  43.289  1.00  0.00    -0.028 C 
ATOM      3  C   UNL     1      17.269  26.794  42.234  1.00  0.00    -0.077 C 
ATOM      4  C   UNL     1      17.966  26.994  40.909  1.00  0.00     0.039 C 
BRANCH   3   5
ATOM      5  C   UNL     1      16.269  25.664  42.381  1.00  0.00     0.034 C 
BRANCH   5   6
ATOM      6  C   UNL     1      14.873  26.067  41.885  1.00  0.00     0.032 C 
BRANCH   6   7
ATOM      7  C   UNL     1      14.060  26.726  42.974  1.00  0.00    -0.028 C 
ATOM      8  C   UNL     1      13.036  28.567  44.237  1.00  0.00     0.039 C 
ATOM      9  C   UNL     1      13.825  28.053  43.061  1.00  0.00    -0.080 C 
ATOM     10  C   UNL     1      14.312  29.024  42.010  1.00  0.00     0.039 C 
ENDBRANCH   6   7
ENDBRANCH   5   6
ENDBRANCH   3   5
ENDBRANCH   1   2
BRANCH   1  11
ATOM     11  C   UNL     1      19.744  28.461  44.064  1.00  0.00     0.034 C 
BRANCH  11  12
ATOM     12  C   UNL     1      20.754  27.671  43.261  1.00  0.00    -0.077 C 
ATOM     13  C   UNL     1      20.799  26.326  43.404  1.00  0.00    -0.028 C 
ATOM     14  C   UNL     1      21.672  28.403  42.311  1.00  0.00     0.039 C 
BRANCH  13  15
ATOM     15  C   UNL     1      21.784  25.420  42.703  1.00  0.00     0.035 C 
BRANCH  15  16
ATOM     16  C   UNL     1      21.157  24.741  41.480  1.00  0.00     0.079 C 
BRANCH  16  17
ATOM     17  C   UNL     1      21.851  25.144  40.203  1.00  0.00     0.130 C 
ATOM     18  O   UNL     1      22.918  24.626  39.909  1.00  0.00    -0.300 OA
ATOM     19  C   UNL     1      21.257  26.169  39.285  1.00  0.00     0.087 C 
ENDBRANCH  16  17
ENDBRANCH  15  16
ENDBRANCH  13  15
ENDBRANCH  11  12
ENDBRANCH   1  11
TORSDOF 9
ENDMDL
MODEL 6
REMARK VINA RESULT:    -4.276      2.873      4.480
REMARK INTER + INTRA:          -8.532
REMARK INTER:                  -6.232
REMARK INTRA:                  -2.299
REMARK UNBOUND:                -2.006
REMARK SMILES CC(=O)CCC=C(C)CCC=C(C)CCC=C(C)C
REMARK SMILES IDX 10 1 11 2 12 3 13 4 14 5 15 6 16 7 18 8 17 9 19 10 9 11 7 12
REMARK SMILES IDX 6 13 8 14 5 15 4 16 2 17 3 18 1 19
REMARK H PARENT
REMARK Flexibility Score: inf
ROOT
ATOM      1  C   UNL     1      21.891  25.927  42.506  1.00  0.00     0.032 C 
ENDROOT
BRANCH   1   2
ATOM      2  C   UNL     1      20.952  26.606  43.473  1.00  0.00    -0.028 C 
ATOM      3  C   UNL     1      20.599  27.905  43.366  1.00  0.00    -0.077 C 
ATOM      4  C   UNL     1      21.125  28.775  42.248  1.00  0.00     0.039 C 
BRANCH   3   5
ATOM      5  C   UNL     1      19.654  28.505  44.388  1.00  0.00     0.034 C 
BRANCH   5   6
ATOM      6  C   UNL     1      18.294  28.862  43.771  1.00  0.00     0.032 C 
BRANCH   6   7
ATOM      7  C   UNL     1      17.675  27.683  43.060  1.00  0.00    -0.028 C 
ATOM      8  C   UNL     1      15.880  26.222  42.237  1.00  0.00     0.039 C 
ATOM      9  C   UNL     1      16.346  27.475  42.932  1.00  0.00    -0.080 C 
ATOM     10  C   UNL     1      15.326  28.466  43.444  1.00  0.00     0.039 C 
ENDBRANCH   6   7
ENDBRANCH   5   6
ENDBRANCH   3   5
ENDBRANCH   1   2
BRANCH   1  11
ATOM     11  C   UNL     1      21.133  24.981  41.568  1.00  0.00     0.034 C 
BRANCH  11  12
ATOM     12  C   UNL     1      20.575  25.731  40.378  1.00  0.00    -0.077 C 
ATOM     13  C   UNL     1      19.267  26.081  40.378  1.00  0.00    -0.028 C 
ATOM     14  C   UNL     1      21.495  26.082  39.233  1.00  0.00     0.039 C 
BRANCH  13  15
ATOM     15  C   UNL     1      18.568  26.788  39.240  1.00  0.00     0.035 C 
BRANCH  15  16
ATOM     16  C   UNL     1      18.308  28.264  39.566  1.00  0.00     0.079 C 
BRANCH  16  17
ATOM     17  C   UNL     1      17.050  28.766  38.903  1.00  0.00     0.130 C 
ATOM     18  O   UNL     1      17.053  28.998  37.703  1.00  0.00    -0.300 OA
ATOM     19  C   UNL     1      15.791  28.985  39.687  1.00  0.00     0.087 C 
ENDBRANCH  16  17
ENDBRANCH  15  16
ENDBRANCH  13  15
ENDBRANCH  11  12
ENDBRANCH   1  11
TORSDOF 9
ENDMDL
MODEL 7
REMARK VINA RESULT:    -4.254      2.015      3.959
REMARK INTER + INTRA:          -8.498
REMARK INTER:                  -6.696
REMARK INTRA:                  -1.802
REMARK UNBOUND:                -2.006
REMARK SMILES CC(=O)CCC=C(C)CCC=C(C)CCC=C(C)C
REMARK SMILES IDX 10 1 11 2 12 3 13 4 14 5 15 6 16 7 18 8 17 9 19 10 9 11 7 12
REMARK SMILES IDX 6 13 8 14 5 15 4 16 2 17 3 18 1 19
REMARK H PARENT
REMARK Flexibility Score: inf
ROOT
ATOM      1  C   UNL     1      17.958  28.717  43.589  1.00  0.00     0.032 C 
ENDROOT
BRANCH   1   2
ATOM      2  C   UNL     1      17.368  27.398  43.153  1.00  0.00    -0.028 C 
ATOM      3  C   UNL     1      16.124  27.282  42.639  1.00  0.00    -0.077 C 
ATOM      4  C   UNL     1      15.231  28.486  42.459  1.00  0.00     0.039 C 
BRANCH   3   5
ATOM      5  C   UNL     1      15.613  25.913  42.235  1.00  0.00     0.034 C 
BRANCH   5   6
ATOM      6  C   UNL     1      16.653  25.130  41.422  1.00  0.00     0.032 C 
BRANCH   6   7
ATOM      7  C   UNL     1      16.712  25.600  39.988  1.00  0.00    -0.028 C 
ATOM      8  C   UNL     1      17.686  26.621  37.977  1.00  0.00     0.039 C 
ATOM      9  C   UNL     1      17.798  26.154  39.405  1.00  0.00    -0.080 C 
ATOM     10  C   UNL     1      19.114  26.299  40.135  1.00  0.00     0.039 C 
ENDBRANCH   6   7
ENDBRANCH   5   6
ENDBRANCH   3   5
ENDBRANCH   1   2
BRANCH   1  11
ATOM     11  C   UNL     1      19.309  28.518  44.286  1.00  0.00     0.034 C 
BRANCH  11  12
ATOM     12  C   UNL     1      20.329  27.939  43.330  1.00  0.00    -0.077 C 
ATOM     13  C   UNL     1      20.747  26.664  43.511  1.00  0.00    -0.028 C 
ATOM     14  C   UNL     1      20.841  28.793  42.195  1.00  0.00     0.039 C 
BRANCH  13  15
ATOM     15  C   UNL     1      21.793  25.976  42.666  1.00  0.00     0.035 C 
BRANCH  15  16
ATOM     16  C   UNL     1      23.194  26.117  43.272  1.00  0.00     0.079 C 
BRANCH  16  17
ATOM     17  C   UNL     1      24.088  26.976  42.413  1.00  0.00     0.130 C 
ATOM     18  O   UNL     1      24.411  26.584  41.301  1.00  0.00    -0.300 OA
ATOM     19  C   UNL     1      24.589  28.304  42.895  1.00  0.00     0.087 C 
ENDBRANCH  16  17
ENDBRANCH  15  16
ENDBRANCH  13  15
ENDBRANCH  11  12
ENDBRANCH   1  11
TORSDOF 9
ENDMDL
MODEL 8
REMARK VINA RESULT:    -4.226      1.696      2.162
REMARK INTER + INTRA:          -8.456
REMARK INTER:                  -6.267
REMARK INTRA:                  -2.188
REMARK UNBOUND:                -2.006
REMARK SMILES CC(=O)CCC=C(C)CCC=C(C)CCC=C(C)C
REMARK SMILES IDX 10 1 11 2 12 3 13 4 14 5 15 6 16 7 18 8 17 9 19 10 9 11 7 12
REMARK SMILES IDX 6 13 8 14 5 15 4 16 2 17 3 18 1 19
REMARK H PARENT
REMARK Flexibility Score: inf
ROOT
ATOM      1  C   UNL     1      21.680  25.646  42.987  1.00  0.00     0.032 C 
ENDROOT
BRANCH   1   2
ATOM      2  C   UNL     1      20.589  26.458  43.644  1.00  0.00    -0.028 C 
ATOM      3  C   UNL     1      20.472  27.794  43.488  1.00  0.00    -0.077 C 
ATOM      4  C   UNL     1      21.437  28.574  42.627  1.00  0.00     0.039 C 
BRANCH   3   5
ATOM      5  C   UNL     1      19.348  28.528  44.192  1.00  0.00     0.034 C 
BRANCH   5   6
ATOM      6  C   UNL     1      18.172  28.816  43.247  1.00  0.00     0.032 C 
BRANCH   6   7
ATOM      7  C   UNL     1      17.171  27.686  43.238  1.00  0.00    -0.028 C 
ATOM      8  C   UNL     1      15.949  25.750  42.348  1.00  0.00     0.039 C 
ATOM      9  C   UNL     1      17.030  26.792  42.235  1.00  0.00    -0.080 C 
ATOM     10  C   UNL     1      17.934  26.799  41.023  1.00  0.00     0.039 C 
ENDBRANCH   6   7
ENDBRANCH   5   6
ENDBRANCH   3   5
ENDBRANCH   1   2
BRANCH   1  11
ATOM     11  C   UNL     1      21.201  25.044  41.661  1.00  0.00     0.034 C 
BRANCH  11  12
ATOM     12  C   UNL     1      21.979  25.617  40.496  1.00  0.00    -0.077 C 
ATOM     13  C   UNL     1      23.324  25.468  40.469  1.00  0.00    -0.028 C 
ATOM     14  C   UNL     1      21.232  26.324  39.389  1.00  0.00     0.039 C 
BRANCH  13  15
ATOM     15  C   UNL     1      24.229  26.028  39.396  1.00  0.00     0.035 C 
BRANCH  15  16
ATOM     16  C   UNL     1      25.359  26.875  39.994  1.00  0.00     0.079 C 
BRANCH  16  17
ATOM     17  C   UNL     1      24.823  27.988  40.859  1.00  0.00     0.130 C 
ATOM     18  O   UNL     1      24.158  28.878  40.350  1.00  0.00    -0.300 OA
ATOM     19  C   UNL     1      25.088  28.024  42.334  1.00  0.00     0.087 C 
ENDBRANCH  16  17
ENDBRANCH  15  16
ENDBRANCH  13  15
ENDBRANCH  11  12
ENDBRANCH   1  11
TORSDOF 9
ENDMDL
MODEL 9
REMARK VINA RESULT:    -4.191      3.749      7.104
REMARK INTER + INTRA:          -8.402
REMARK INTER:                  -6.622
REMARK INTRA:                  -1.780
REMARK UNBOUND:                -2.006
REMARK SMILES CC(=O)CCC=C(C)CCC=C(C)CCC=C(C)C
REMARK SMILES IDX 10 1 11 2 12 3 13 4 14 5 15 6 16 7 18 8 17 9 19 10 9 11 7 12
REMARK SMILES IDX 6 13 8 14 5 15 4 16 2 17 3 18 1 19
REMARK H PARENT
REMARK Flexibility Score: inf
ROOT
ATOM      1  C   UNL     1      19.079  28.553  43.552  1.00  0.00     0.032 C 
ENDROOT
BRANCH   1   2
ATOM      2  C   UNL     1      19.971  27.334  43.551  1.00  0.00    -0.028 C 
ATOM      3  C   UNL     1      21.292  27.390  43.275  1.00  0.00    -0.077 C 
ATOM      4  C   UNL     1      21.975  28.698  42.950  1.00  0.00     0.039 C 
BRANCH   3   5
ATOM      5  C   UNL     1      22.108  26.113  43.290  1.00  0.00     0.034 C 
BRANCH   5   6
ATOM      6  C   UNL     1      21.586  25.088  42.272  1.00  0.00     0.032 C 
BRANCH   6   7
ATOM      7  C   UNL     1      22.122  25.355  40.885  1.00  0.00    -0.028 C 
ATOM      8  C   UNL     1      22.056  26.021  38.522  1.00  0.00     0.039 C 
ATOM      9  C   UNL     1      21.393  25.859  39.865  1.00  0.00    -0.080 C 
ATOM     10  C   UNL     1      19.952  26.277  40.039  1.00  0.00     0.039 C 
ENDBRANCH   6   7
ENDBRANCH   5   6
ENDBRANCH   3   5
ENDBRANCH   1   2
BRANCH   1  11
ATOM     11  C   UNL     1      17.599  28.157  43.608  1.00  0.00     0.034 C 
BRANCH  11  12
ATOM     12  C   UNL     1      17.166  27.500  42.316  1.00  0.00    -0.077 C 
ATOM     13  C   UNL     1      16.869  26.179  42.319  1.00  0.00    -0.028 C 
ATOM     14  C   UNL     1      17.062  28.338  41.064  1.00  0.00     0.039 C 
BRANCH  13  15
ATOM     15  C   UNL     1      16.470  25.386  41.097  1.00  0.00     0.035 C 
BRANCH  15  16
ATOM     16  C   UNL     1      16.257  23.904  41.428  1.00  0.00     0.079 C 
BRANCH  16  17
ATOM     17  C   UNL     1      15.051  23.699  42.310  1.00  0.00     0.130 C 
ATOM     18  O   UNL     1      13.979  24.190  41.987  1.00  0.00    -0.300 OA
ATOM     19  C   UNL     1      15.139  22.903  43.577  1.00  0.00     0.087 C 
ENDBRANCH  16  17
ENDBRANCH  15  16
ENDBRANCH  13  15
ENDBRANCH  11  12
ENDBRANCH   1  11
TORSDOF 9
ENDMDL
