MODEL 1
REMARK VINA RESULT:    71.299      0.000      0.000
REMARK INTER + INTRA:          98.545
REMARK INTER:                  96.307
REMARK INTRA:                   2.238
REMARK UNBOUND:                 2.238
REMARK SMILES O=c1c(-c2ccc(O)cc2)coc2c([C@@H]3O[C@H](CO)[C@H](O)[C@H](O)[C@@H]3O)c(O)ccc12
REMARK SMILES IDX 3 1 11 2 12 3 13 4 30 5 2 6 1 7 29 8 28 9 26 10 14 11 4 12
REMARK SMILES IDX 5 13 6 14 7 15 10 16 9 17 8 18 15 20 24 21 16 22 22 23 17 24
REMARK SMILES IDX 20 25 25 26 23 28 18 30 19 31 21 33 27 35
REMARK H PARENT 8 19 25 27 23 29 19 32 21 34 27 36
REMARK Flexibility Score: inf
ROOT
ATOM      1  C   UNL     1      -3.032  -9.269  12.553  1.00  0.00     0.065 A 
ATOM      2  C   UNL     1      -2.350  -9.294  11.330  1.00  0.00     0.208 A 
ATOM      3  O   UNL     1      -3.007  -9.431  10.183  1.00  0.00    -0.463 OA
ATOM      4  C   UNL     1      -4.330  -9.549  10.109  1.00  0.00     0.147 A 
ATOM      5  C   UNL     1      -5.097  -9.541  11.297  1.00  0.00     0.066 A 
ATOM      6  C   UNL     1      -4.432  -9.408  12.530  1.00  0.00     0.200 A 
ATOM      7  O   UNL     1      -5.085  -9.437  13.611  1.00  0.00    -0.288 OA
ATOM      8  C   UNL     1      -6.489  -9.672  11.223  1.00  0.00     0.020 A 
ATOM      9  C   UNL     1      -7.111  -9.838   9.990  1.00  0.00     0.047 A 
ATOM     10  C   UNL     1      -6.369  -9.877   8.805  1.00  0.00     0.125 A 
ATOM     11  C   UNL     1      -4.957  -9.687   8.844  1.00  0.00     0.069 A 
ENDROOT
BRANCH   1  12
ATOM     12  C   UNL     1      -2.276  -9.090  13.822  1.00  0.00    -0.011 A 
ATOM     13  C   UNL     1      -2.689  -9.742  14.999  1.00  0.00     0.013 A 
ATOM     14  C   UNL     1      -1.984  -9.560  16.193  1.00  0.00     0.047 A 
ATOM     15  C   UNL     1      -0.864  -8.718  16.230  1.00  0.00     0.115 A 
ATOM     16  C   UNL     1      -1.151  -8.246  13.868  1.00  0.00     0.013 A 
ATOM     17  C   UNL     1      -0.450  -8.062  15.067  1.00  0.00     0.047 A 
BRANCH  15  18
ATOM     18  O   UNL     1      -0.162  -8.526  17.419  1.00  0.00    -0.508 OA
ATOM     19  H   UNL     1      -0.613  -8.627  18.323  1.00  0.00     0.293 HD
ENDBRANCH  15  18
ENDBRANCH   1  12
BRANCH  11  20
ATOM     20  C   UNL     1      -4.086  -9.664   7.589  1.00  0.00     0.188 C 
ATOM     21  C   UNL     1      -4.952  -9.812   6.315  1.00  0.00     0.179 C 
ATOM     22  O   UNL     1      -3.281  -8.495   7.552  1.00  0.00    -0.362 OA
ATOM     23  C   UNL     1      -4.050  -9.775   5.061  1.00  0.00     0.177 C 
ATOM     24  C   UNL     1      -2.342  -8.558   6.490  1.00  0.00     0.176 C 
ATOM     25  C   UNL     1      -3.055  -8.598   5.110  1.00  0.00     0.177 C 
BRANCH  21  26
ATOM     26  O   UNL     1      -5.924  -8.798   6.259  1.00  0.00    -0.387 OA
ATOM     27  H   UNL     1      -6.179  -8.584   7.193  1.00  0.00     0.211 HD
ENDBRANCH  21  26
BRANCH  23  28
ATOM     28  O   UNL     1      -4.821  -9.698   3.890  1.00  0.00    -0.387 OA
ATOM     29  H   UNL     1      -4.533  -8.877   3.412  1.00  0.00     0.211 HD
ENDBRANCH  23  28
BRANCH  24  30
ATOM     30  C   UNL     1      -1.359  -7.380   6.599  1.00  0.00     0.191 C 
BRANCH  30  31
ATOM     31  O   UNL     1      -1.881  -6.219   6.009  1.00  0.00    -0.394 OA
ATOM     32  H   UNL     1      -2.419  -6.511   5.228  1.00  0.00     0.210 HD
ENDBRANCH  30  31
ENDBRANCH  24  30
BRANCH  25  33
ATOM     33  O   UNL     1      -3.688  -7.381   4.790  1.00  0.00    -0.388 OA
ATOM     34  H   UNL     1      -2.994  -6.680   4.708  1.00  0.00     0.211 HD
ENDBRANCH  25  33
ENDBRANCH  11  20
BRANCH  10  35
ATOM     35  O   UNL     1      -7.083 -10.119   7.629  1.00  0.00    -0.507 OA
ATOM     36  H   UNL     1      -7.862 -10.754   7.548  1.00  0.00     0.293 HD
ENDBRANCH  10  35
TORSDOF 9
ENDMDL
