MODEL 1
REMARK VINA RESULT:    -5.914      0.000      0.000
REMARK INTER + INTRA:          -7.178
REMARK INTER:                  -6.952
REMARK INTRA:                  -0.226
REMARK UNBOUND:                -0.226
REMARK SMILES O=c1c(O)c(-c2ccc(O)cc2)oc2cc(O)cc(O)c12
REMARK SMILES IDX 5 1 3 2 2 3 1 4 21 5 19 6 18 7 16 8 15 9 14 10 13 11 6 12
REMARK SMILES IDX 7 13 8 14 9 15 12 16 11 17 10 18 4 20 20 22 17 24
REMARK H PARENT 10 19 4 21 20 23 17 25
REMARK Flexibility Score: inf
ROOT
ATOM      1  C   UNL     1     -36.858 -25.627  20.998  1.00  0.00     0.180 A 
ATOM      2  C   UNL     1     -38.194 -26.047  20.852  1.00  0.00     0.208 A 
ATOM      3  C   UNL     1     -38.940 -26.347  22.002  1.00  0.00     0.238 A 
ATOM      4  O   UNL     1     -40.134 -26.734  21.884  1.00  0.00    -0.285 OA
ATOM      5  C   UNL     1     -38.349 -26.204  23.274  1.00  0.00     0.111 A 
ATOM      6  C   UNL     1     -39.032 -26.482  24.482  1.00  0.00     0.134 A 
ATOM      7  C   UNL     1     -38.376 -26.306  25.709  1.00  0.00     0.093 A 
ATOM      8  C   UNL     1     -37.050 -25.858  25.751  1.00  0.00     0.123 A 
ATOM      9  C   UNL     1     -36.372 -25.583  24.563  1.00  0.00     0.094 A 
ATOM     10  C   UNL     1     -37.008 -25.753  23.329  1.00  0.00     0.146 A 
ATOM     11  O   UNL     1     -36.337 -25.490  22.214  1.00  0.00    -0.452 OA
ENDROOT
BRANCH   1  12
ATOM     12  C   UNL     1     -36.000 -25.311  19.833  1.00  0.00     0.021 A 
ATOM     13  C   UNL     1     -35.510 -26.323  18.987  1.00  0.00     0.016 A 
ATOM     14  C   UNL     1     -34.683 -26.002  17.907  1.00  0.00     0.047 A 
ATOM     15  C   UNL     1     -34.324 -24.673  17.665  1.00  0.00     0.115 A 
ATOM     16  C   UNL     1     -35.619 -23.980  19.596  1.00  0.00     0.016 A 
ATOM     17  C   UNL     1     -34.792 -23.662  18.515  1.00  0.00     0.047 A 
BRANCH  15  18
ATOM     18  O   UNL     1     -33.500 -24.368  16.584  1.00  0.00    -0.508 OA
ATOM     19  H   UNL     1     -32.751 -23.690  16.664  1.00  0.00     0.293 HD
ENDBRANCH  15  18
ENDBRANCH   1  12
BRANCH   2  20
ATOM     20  O   UNL     1     -38.772 -26.133  19.584  1.00  0.00    -0.502 OA
ATOM     21  H   UNL     1     -39.764 -26.293  19.449  1.00  0.00     0.293 HD
ENDBRANCH   2  20
BRANCH   6  22
ATOM     22  O   UNL     1     -40.354 -26.930  24.473  1.00  0.00    -0.507 OA
ATOM     23  H   UNL     1     -41.110 -26.350  24.126  1.00  0.00     0.293 HD
ENDBRANCH   6  22
BRANCH   8  24
ATOM     24  O   UNL     1     -36.398 -25.682  26.969  1.00  0.00    -0.508 OA
ATOM     25  H   UNL     1     -36.081 -26.472  27.519  1.00  0.00     0.293 HD
ENDBRANCH   8  24
TORSDOF 5
ENDMDL
MODEL 2
REMARK VINA RESULT:    -5.775      1.937      3.525
REMARK INTER + INTRA:          -7.014
REMARK INTER:                  -6.774
REMARK INTRA:                  -0.240
REMARK UNBOUND:                -0.226
REMARK SMILES O=c1c(O)c(-c2ccc(O)cc2)oc2cc(O)cc(O)c12
REMARK SMILES IDX 5 1 3 2 2 3 1 4 21 5 19 6 18 7 16 8 15 9 14 10 13 11 6 12
REMARK SMILES IDX 7 13 8 14 9 15 12 16 11 17 10 18 4 20 20 22 17 24
REMARK H PARENT 10 19 4 21 20 23 17 25
REMARK Flexibility Score: inf
ROOT
ATOM      1  C   UNL     1     -37.481 -25.446  22.179  1.00  0.00     0.180 A 
ATOM      2  C   UNL     1     -37.169 -25.976  23.446  1.00  0.00     0.208 A 
ATOM      3  C   UNL     1     -38.201 -26.147  24.381  1.00  0.00     0.238 A 
ATOM      4  O   UNL     1     -37.933 -26.611  25.523  1.00  0.00    -0.285 OA
ATOM      5  C   UNL     1     -39.524 -25.806  24.031  1.00  0.00     0.111 A 
ATOM      6  C   UNL     1     -40.621 -25.951  24.914  1.00  0.00     0.134 A 
ATOM      7  C   UNL     1     -41.909 -25.598  24.487  1.00  0.00     0.093 A 
ATOM      8  C   UNL     1     -42.121 -25.103  23.195  1.00  0.00     0.123 A 
ATOM      9  C   UNL     1     -41.043 -24.958  22.321  1.00  0.00     0.094 A 
ATOM     10  C   UNL     1     -39.750 -25.303  22.728  1.00  0.00     0.146 A 
ATOM     11  O   UNL     1     -38.742 -25.149  21.878  1.00  0.00    -0.452 OA
ENDROOT
BRANCH   1  12
ATOM     12  C   UNL     1     -36.445 -25.217  21.145  1.00  0.00     0.021 A 
ATOM     13  C   UNL     1     -35.535 -24.149  21.242  1.00  0.00     0.016 A 
ATOM     14  C   UNL     1     -34.581 -23.940  20.241  1.00  0.00     0.047 A 
ATOM     15  C   UNL     1     -34.533 -24.783  19.127  1.00  0.00     0.115 A 
ATOM     16  C   UNL     1     -36.405 -26.047  20.012  1.00  0.00     0.016 A 
ATOM     17  C   UNL     1     -35.450 -25.837  19.013  1.00  0.00     0.047 A 
BRANCH  15  18
ATOM     18  O   UNL     1     -33.577 -24.563  18.138  1.00  0.00    -0.508 OA
ATOM     19  H   UNL     1     -33.842 -24.331  17.188  1.00  0.00     0.293 HD
ENDBRANCH  15  18
ENDBRANCH   1  12
BRANCH   2  20
ATOM     20  O   UNL     1     -35.859 -26.352  23.750  1.00  0.00    -0.502 OA
ATOM     21  H   UNL     1     -35.565 -26.579  24.693  1.00  0.00     0.293 HD
ENDBRANCH   2  20
BRANCH   6  22
ATOM     22  O   UNL     1     -40.441 -26.443  26.208  1.00  0.00    -0.507 OA
ATOM     23  H   UNL     1     -40.947 -27.254  26.544  1.00  0.00     0.293 HD
ENDBRANCH   6  22
BRANCH   8  24
ATOM     24  O   UNL     1     -43.401 -24.753  22.770  1.00  0.00    -0.508 OA
ATOM     25  H   UNL     1     -43.549 -24.022  22.083  1.00  0.00     0.293 HD
ENDBRANCH   8  24
TORSDOF 5
ENDMDL
MODEL 3
REMARK VINA RESULT:    -5.505      2.791      6.687
REMARK INTER + INTRA:          -6.697
REMARK INTER:                  -6.429
REMARK INTRA:                  -0.268
REMARK UNBOUND:                -0.226
REMARK SMILES O=c1c(O)c(-c2ccc(O)cc2)oc2cc(O)cc(O)c12
REMARK SMILES IDX 5 1 3 2 2 3 1 4 21 5 19 6 18 7 16 8 15 9 14 10 13 11 6 12
REMARK SMILES IDX 7 13 8 14 9 15 12 16 11 17 10 18 4 20 20 22 17 24
REMARK H PARENT 10 19 4 21 20 23 17 25
REMARK Flexibility Score: inf
ROOT
ATOM      1  C   UNL     1     -37.586 -24.776  20.945  1.00  0.00     0.180 A 
ATOM      2  C   UNL     1     -36.585 -24.928  19.966  1.00  0.00     0.208 A 
ATOM      3  C   UNL     1     -36.939 -24.817  18.613  1.00  0.00     0.238 A 
ATOM      4  O   UNL     1     -36.053 -24.962  17.726  1.00  0.00    -0.285 OA
ATOM      5  C   UNL     1     -38.275 -24.539  18.261  1.00  0.00     0.111 A 
ATOM      6  C   UNL     1     -38.714 -24.409  16.921  1.00  0.00     0.134 A 
ATOM      7  C   UNL     1     -40.060 -24.122  16.655  1.00  0.00     0.093 A 
ATOM      8  C   UNL     1     -40.976 -23.963  17.701  1.00  0.00     0.123 A 
ATOM      9  C   UNL     1     -40.549 -24.091  19.023  1.00  0.00     0.094 A 
ATOM     10  C   UNL     1     -39.211 -24.378  19.311  1.00  0.00     0.146 A 
ATOM     11  O   UNL     1     -38.834 -24.500  20.578  1.00  0.00    -0.452 OA
ENDROOT
BRANCH   1  12
ATOM     12  C   UNL     1     -37.296 -24.897  22.392  1.00  0.00     0.021 A 
ATOM     13  C   UNL     1     -37.139 -26.153  23.006  1.00  0.00     0.016 A 
ATOM     14  C   UNL     1     -36.889 -26.243  24.379  1.00  0.00     0.047 A 
ATOM     15  C   UNL     1     -36.806 -25.085  25.157  1.00  0.00     0.115 A 
ATOM     16  C   UNL     1     -37.232 -23.738  23.184  1.00  0.00     0.016 A 
ATOM     17  C   UNL     1     -36.982 -23.830  24.556  1.00  0.00     0.047 A 
BRANCH  15  18
ATOM     18  O   UNL     1     -36.556 -25.189  26.523  1.00  0.00    -0.508 OA
ATOM     19  H   UNL     1     -36.457 -26.090  26.976  1.00  0.00     0.293 HD
ENDBRANCH  15  18
ENDBRANCH   1  12
BRANCH   2  20
ATOM     20  O   UNL     1     -35.259 -25.153  20.342  1.00  0.00    -0.502 OA
ATOM     21  H   UNL     1     -34.963 -26.004  20.806  1.00  0.00     0.293 HD
ENDBRANCH   2  20
BRANCH   6  22
ATOM     22  O   UNL     1     -37.824 -24.562  15.857  1.00  0.00    -0.507 OA
ATOM     23  H   UNL     1     -37.241 -23.797  15.536  1.00  0.00     0.293 HD
ENDBRANCH   6  22
BRANCH   8  24
ATOM     24  O   UNL     1     -42.314 -23.677  17.436  1.00  0.00    -0.508 OA
ATOM     25  H   UNL     1     -42.745 -22.818  17.757  1.00  0.00     0.293 HD
ENDBRANCH   8  24
TORSDOF 5
ENDMDL
MODEL 4
REMARK VINA RESULT:    -5.487      3.905      6.912
REMARK INTER + INTRA:          -6.675
REMARK INTER:                  -6.384
REMARK INTRA:                  -0.291
REMARK UNBOUND:                -0.226
REMARK SMILES O=c1c(O)c(-c2ccc(O)cc2)oc2cc(O)cc(O)c12
REMARK SMILES IDX 5 1 3 2 2 3 1 4 21 5 19 6 18 7 16 8 15 9 14 10 13 11 6 12
REMARK SMILES IDX 7 13 8 14 9 15 12 16 11 17 10 18 4 20 20 22 17 24
REMARK H PARENT 10 19 4 21 20 23 17 25
REMARK Flexibility Score: inf
ROOT
ATOM      1  C   UNL     1     -40.912 -23.896  21.690  1.00  0.00     0.180 A 
ATOM      2  C   UNL     1     -40.758 -24.033  20.297  1.00  0.00     0.208 A 
ATOM      3  C   UNL     1     -39.542 -24.519  19.794  1.00  0.00     0.238 A 
ATOM      4  O   UNL     1     -39.388 -24.636  18.547  1.00  0.00    -0.285 OA
ATOM      5  C   UNL     1     -38.510 -24.876  20.686  1.00  0.00     0.111 A 
ATOM      6  C   UNL     1     -37.256 -25.376  20.260  1.00  0.00     0.134 A 
ATOM      7  C   UNL     1     -36.284 -25.719  21.212  1.00  0.00     0.093 A 
ATOM      8  C   UNL     1     -36.543 -25.570  22.580  1.00  0.00     0.123 A 
ATOM      9  C   UNL     1     -37.777 -25.077  23.004  1.00  0.00     0.094 A 
ATOM     10  C   UNL     1     -38.759 -24.729  22.071  1.00  0.00     0.146 A 
ATOM     11  O   UNL     1     -39.922 -24.257  22.503  1.00  0.00    -0.452 OA
ENDROOT
BRANCH   1  12
ATOM     12  C   UNL     1     -42.157 -23.373  22.297  1.00  0.00     0.021 A 
ATOM     13  C   UNL     1     -42.392 -21.992  22.413  1.00  0.00     0.016 A 
ATOM     14  C   UNL     1     -43.566 -21.522  23.012  1.00  0.00     0.047 A 
ATOM     15  C   UNL     1     -44.510 -22.422  23.513  1.00  0.00     0.115 A 
ATOM     16  C   UNL     1     -43.101 -24.273  22.822  1.00  0.00     0.016 A 
ATOM     17  C   UNL     1     -44.273 -23.801  23.419  1.00  0.00     0.047 A 
BRANCH  15  18
ATOM     18  O   UNL     1     -45.675 -21.941  24.105  1.00  0.00    -0.508 OA
ATOM     19  H   UNL     1     -46.254 -21.246  23.646  1.00  0.00     0.293 HD
ENDBRANCH  15  18
ENDBRANCH   1  12
BRANCH   2  20
ATOM     20  O   UNL     1     -41.813 -23.720  19.437  1.00  0.00    -0.502 OA
ATOM     21  H   UNL     1     -41.903 -22.811  18.997  1.00  0.00     0.293 HD
ENDBRANCH   2  20
BRANCH   6  22
ATOM     22  O   UNL     1     -36.970 -25.536  18.904  1.00  0.00    -0.507 OA
ATOM     23  H   UNL     1     -37.207 -26.387  18.406  1.00  0.00     0.293 HD
ENDBRANCH   6  22
BRANCH   8  24
ATOM     24  O   UNL     1     -35.578 -25.910  23.525  1.00  0.00    -0.508 OA
ATOM     25  H   UNL     1     -35.379 -25.312  24.318  1.00  0.00     0.293 HD
ENDBRANCH   8  24
TORSDOF 5
ENDMDL
MODEL 5
REMARK VINA RESULT:    -5.428      3.159      6.955
REMARK INTER + INTRA:          -6.606
REMARK INTER:                  -6.345
REMARK INTRA:                  -0.262
REMARK UNBOUND:                -0.226
REMARK SMILES O=c1c(O)c(-c2ccc(O)cc2)oc2cc(O)cc(O)c12
REMARK SMILES IDX 5 1 3 2 2 3 1 4 21 5 19 6 18 7 16 8 15 9 14 10 13 11 6 12
REMARK SMILES IDX 7 13 8 14 9 15 12 16 11 17 10 18 4 20 20 22 17 24
REMARK H PARENT 10 19 4 21 20 23 17 25
REMARK Flexibility Score: inf
ROOT
ATOM      1  C   UNL     1     -38.103 -26.121  24.749  1.00  0.00     0.180 A 
ATOM      2  C   UNL     1     -37.219 -26.057  23.655  1.00  0.00     0.208 A 
ATOM      3  C   UNL     1     -37.699 -25.587  22.423  1.00  0.00     0.238 A 
ATOM      4  O   UNL     1     -36.920 -25.536  21.432  1.00  0.00    -0.285 OA
ATOM      5  C   UNL     1     -39.042 -25.173  22.309  1.00  0.00     0.111 A 
ATOM      6  C   UNL     1     -39.603 -24.685  21.105  1.00  0.00     0.134 A 
ATOM      7  C   UNL     1     -40.947 -24.283  21.076  1.00  0.00     0.093 A 
ATOM      8  C   UNL     1     -41.739 -24.361  22.227  1.00  0.00     0.123 A 
ATOM      9  C   UNL     1     -41.191 -24.842  23.416  1.00  0.00     0.094 A 
ATOM     10  C   UNL     1     -39.854 -25.249  23.466  1.00  0.00     0.146 A 
ATOM     11  O   UNL     1     -39.360 -25.708  24.610  1.00  0.00    -0.452 OA
ENDROOT
BRANCH   1  12
ATOM     12  C   UNL     1     -37.678 -26.623  26.076  1.00  0.00     0.021 A 
ATOM     13  C   UNL     1     -38.000 -27.922  26.507  1.00  0.00     0.016 A 
ATOM     14  C   UNL     1     -37.607 -28.365  27.774  1.00  0.00     0.047 A 
ATOM     15  C   UNL     1     -36.902 -27.515  28.630  1.00  0.00     0.115 A 
ATOM     16  C   UNL     1     -36.986 -25.767  26.950  1.00  0.00     0.016 A 
ATOM     17  C   UNL     1     -36.594 -26.212  28.215  1.00  0.00     0.047 A 
BRANCH  15  18
ATOM     18  O   UNL     1     -36.516 -27.970  29.888  1.00  0.00    -0.508 OA
ATOM     19  H   UNL     1     -37.000 -28.734  30.346  1.00  0.00     0.293 HD
ENDBRANCH  15  18
ENDBRANCH   1  12
BRANCH   2  20
ATOM     20  O   UNL     1     -35.881 -26.426  23.806  1.00  0.00    -0.502 OA
ATOM     21  H   UNL     1     -35.179 -25.788  24.162  1.00  0.00     0.293 HD
ENDBRANCH   2  20
BRANCH   6  22
ATOM     22  O   UNL     1     -38.838 -24.595  19.941  1.00  0.00    -0.507 OA
ATOM     23  H   UNL     1     -37.836 -24.744  19.950  1.00  0.00     0.293 HD
ENDBRANCH   6  22
BRANCH   8  24
ATOM     24  O   UNL     1     -43.073 -23.961  22.199  1.00  0.00    -0.508 OA
ATOM     25  H   UNL     1     -43.510 -23.517  22.998  1.00  0.00     0.293 HD
ENDBRANCH   8  24
TORSDOF 5
ENDMDL
MODEL 6
REMARK VINA RESULT:    -5.399      1.908      6.852
REMARK INTER + INTRA:          -6.572
REMARK INTER:                  -6.610
REMARK INTRA:                   0.038
REMARK UNBOUND:                -0.226
REMARK SMILES O=c1c(O)c(-c2ccc(O)cc2)oc2cc(O)cc(O)c12
REMARK SMILES IDX 5 1 3 2 2 3 1 4 21 5 19 6 18 7 16 8 15 9 14 10 13 11 6 12
REMARK SMILES IDX 7 13 8 14 9 15 12 16 11 17 10 18 4 20 20 22 17 24
REMARK H PARENT 10 19 4 21 20 23 17 25
REMARK Flexibility Score: inf
ROOT
ATOM      1  C   UNL     1     -37.576 -26.391  24.623  1.00  0.00     0.180 A 
ATOM      2  C   UNL     1     -38.749 -26.644  23.885  1.00  0.00     0.208 A 
ATOM      3  C   UNL     1     -38.787 -26.283  22.530  1.00  0.00     0.238 A 
ATOM      4  O   UNL     1     -39.836 -26.495  21.861  1.00  0.00    -0.285 OA
ATOM      5  C   UNL     1     -37.654 -25.697  21.931  1.00  0.00     0.111 A 
ATOM      6  C   UNL     1     -37.610 -25.308  20.571  1.00  0.00     0.134 A 
ATOM      7  C   UNL     1     -36.440 -24.739  20.047  1.00  0.00     0.093 A 
ATOM      8  C   UNL     1     -35.314 -24.552  20.857  1.00  0.00     0.123 A 
ATOM      9  C   UNL     1     -35.353 -24.933  22.199  1.00  0.00     0.094 A 
ATOM     10  C   UNL     1     -36.510 -25.501  22.741  1.00  0.00     0.146 A 
ATOM     11  O   UNL     1     -36.520 -25.849  24.022  1.00  0.00    -0.452 OA
ENDROOT
BRANCH   1  12
ATOM     12  C   UNL     1     -37.464 -26.724  26.062  1.00  0.00     0.021 A 
ATOM     13  C   UNL     1     -37.015 -25.779  27.001  1.00  0.00     0.016 A 
ATOM     14  C   UNL     1     -36.895 -26.125  28.351  1.00  0.00     0.047 A 
ATOM     15  C   UNL     1     -37.207 -27.419  28.777  1.00  0.00     0.115 A 
ATOM     16  C   UNL     1     -37.756 -28.029  26.494  1.00  0.00     0.016 A 
ATOM     17  C   UNL     1     -37.636 -28.372  27.843  1.00  0.00     0.047 A 
BRANCH  15  18
ATOM     18  O   UNL     1     -37.084 -27.748  30.124  1.00  0.00    -0.508 OA
ATOM     19  H   UNL     1     -37.717 -28.404  30.568  1.00  0.00     0.293 HD
ENDBRANCH  15  18
ENDBRANCH   1  12
BRANCH   2  20
ATOM     20  O   UNL     1     -39.841 -27.271  24.489  1.00  0.00    -0.502 OA
ATOM     21  H   UNL     1     -40.702 -26.780  24.698  1.00  0.00     0.293 HD
ENDBRANCH   2  20
BRANCH   6  22
ATOM     22  O   UNL     1     -38.716 -25.482  19.738  1.00  0.00    -0.507 OA
ATOM     23  H   UNL     1     -39.233 -24.693  19.367  1.00  0.00     0.293 HD
ENDBRANCH   6  22
BRANCH   8  24
ATOM     24  O   UNL     1     -34.151 -23.987  20.338  1.00  0.00    -0.508 OA
ATOM     25  H   UNL     1     -33.928 -23.009  20.480  1.00  0.00     0.293 HD
ENDBRANCH   8  24
TORSDOF 5
ENDMDL
MODEL 7
REMARK VINA RESULT:    -5.240      1.994      2.702
REMARK INTER + INTRA:          -6.385
REMARK INTER:                  -6.104
REMARK INTRA:                  -0.281
REMARK UNBOUND:                -0.226
REMARK SMILES O=c1c(O)c(-c2ccc(O)cc2)oc2cc(O)cc(O)c12
REMARK SMILES IDX 5 1 3 2 2 3 1 4 21 5 19 6 18 7 16 8 15 9 14 10 13 11 6 12
REMARK SMILES IDX 7 13 8 14 9 15 12 16 11 17 10 18 4 20 20 22 17 24
REMARK H PARENT 10 19 4 21 20 23 17 25
REMARK Flexibility Score: inf
ROOT
ATOM      1  C   UNL     1     -38.177 -25.148  21.757  1.00  0.00     0.180 A 
ATOM      2  C   UNL     1     -39.363 -24.565  21.270  1.00  0.00     0.208 A 
ATOM      3  C   UNL     1     -40.546 -24.720  22.008  1.00  0.00     0.238 A 
ATOM      4  O   UNL     1     -41.618 -24.212  21.577  1.00  0.00    -0.285 OA
ATOM      5  C   UNL     1     -40.523 -25.433  23.224  1.00  0.00     0.111 A 
ATOM      6  C   UNL     1     -41.670 -25.632  24.029  1.00  0.00     0.134 A 
ATOM      7  C   UNL     1     -41.562 -26.346  25.231  1.00  0.00     0.093 A 
ATOM      8  C   UNL     1     -40.329 -26.865  25.643  1.00  0.00     0.123 A 
ATOM      9  C   UNL     1     -39.196 -26.673  24.853  1.00  0.00     0.094 A 
ATOM     10  C   UNL     1     -39.282 -25.965  23.650  1.00  0.00     0.146 A 
ATOM     11  O   UNL     1     -38.189 -25.802  22.916  1.00  0.00    -0.452 OA
ENDROOT
BRANCH   1  12
ATOM     12  C   UNL     1     -36.893 -25.046  21.027  1.00  0.00     0.021 A 
ATOM     13  C   UNL     1     -35.963 -24.031  21.318  1.00  0.00     0.016 A 
ATOM     14  C   UNL     1     -34.767 -23.941  20.598  1.00  0.00     0.047 A 
ATOM     15  C   UNL     1     -34.491 -24.851  19.574  1.00  0.00     0.115 A 
ATOM     16  C   UNL     1     -36.618 -25.944  19.982  1.00  0.00     0.016 A 
ATOM     17  C   UNL     1     -35.422 -25.853  19.265  1.00  0.00     0.047 A 
BRANCH  15  18
ATOM     18  O   UNL     1     -33.295 -24.751  18.867  1.00  0.00    -0.508 OA
ATOM     19  H   UNL     1     -33.133 -24.000  18.205  1.00  0.00     0.293 HD
ENDBRANCH  15  18
ENDBRANCH   1  12
BRANCH   2  20
ATOM     20  O   UNL     1     -39.350 -23.821  20.089  1.00  0.00    -0.502 OA
ATOM     21  H   UNL     1     -39.848 -24.115  19.256  1.00  0.00     0.293 HD
ENDBRANCH   2  20
BRANCH   6  22
ATOM     22  O   UNL     1     -42.913 -25.126  23.645  1.00  0.00    -0.507 OA
ATOM     23  H   UNL     1     -43.252 -24.232  23.983  1.00  0.00     0.293 HD
ENDBRANCH   6  22
BRANCH   8  24
ATOM     24  O   UNL     1     -40.221 -27.574  26.837  1.00  0.00    -0.508 OA
ATOM     25  H   UNL     1     -40.289 -27.111  27.736  1.00  0.00     0.293 HD
ENDBRANCH   8  24
TORSDOF 5
ENDMDL
MODEL 8
REMARK VINA RESULT:    -5.233      1.889      6.742
REMARK INTER + INTRA:          -6.377
REMARK INTER:                  -6.101
REMARK INTRA:                  -0.276
REMARK UNBOUND:                -0.226
REMARK SMILES O=c1c(O)c(-c2ccc(O)cc2)oc2cc(O)cc(O)c12
REMARK SMILES IDX 5 1 3 2 2 3 1 4 21 5 19 6 18 7 16 8 15 9 14 10 13 11 6 12
REMARK SMILES IDX 7 13 8 14 9 15 12 16 11 17 10 18 4 20 20 22 17 24
REMARK H PARENT 10 19 4 21 20 23 17 25
REMARK Flexibility Score: inf
ROOT
ATOM      1  C   UNL     1     -36.762 -24.698  20.734  1.00  0.00     0.180 A 
ATOM      2  C   UNL     1     -37.924 -24.713  19.938  1.00  0.00     0.208 A 
ATOM      3  C   UNL     1     -37.789 -24.676  18.542  1.00  0.00     0.238 A 
ATOM      4  O   UNL     1     -38.822 -24.678  17.818  1.00  0.00    -0.285 OA
ATOM      5  C   UNL     1     -36.502 -24.644  17.965  1.00  0.00     0.111 A 
ATOM      6  C   UNL     1     -36.279 -24.609  16.568  1.00  0.00     0.134 A 
ATOM      7  C   UNL     1     -34.967 -24.588  16.073  1.00  0.00     0.093 A 
ATOM      8  C   UNL     1     -33.875 -24.602  16.948  1.00  0.00     0.123 A 
ATOM      9  C   UNL     1     -34.089 -24.635  18.326  1.00  0.00     0.094 A 
ATOM     10  C   UNL     1     -35.390 -24.656  18.840  1.00  0.00     0.146 A 
ATOM     11  O   UNL     1     -35.564 -24.682  20.156  1.00  0.00    -0.452 OA
ENDROOT
BRANCH   1  12
ATOM     12  C   UNL     1     -36.822 -24.715  22.214  1.00  0.00     0.021 A 
ATOM     13  C   UNL     1     -37.092 -23.548  22.951  1.00  0.00     0.016 A 
ATOM     14  C   UNL     1     -37.120 -23.585  24.348  1.00  0.00     0.047 A 
ATOM     15  C   UNL     1     -36.866 -24.781  25.027  1.00  0.00     0.115 A 
ATOM     16  C   UNL     1     -36.547 -25.909  22.903  1.00  0.00     0.016 A 
ATOM     17  C   UNL     1     -36.577 -25.943  24.299  1.00  0.00     0.047 A 
BRANCH  15  18
ATOM     18  O   UNL     1     -36.899 -24.803  26.418  1.00  0.00    -0.508 OA
ATOM     19  H   UNL     1     -36.423 -24.099  26.971  1.00  0.00     0.293 HD
ENDBRANCH  15  18
ENDBRANCH   1  12
BRANCH   2  20
ATOM     20  O   UNL     1     -39.185 -24.795  20.531  1.00  0.00    -0.502 OA
ATOM     21  H   UNL     1     -39.705 -25.664  20.583  1.00  0.00     0.293 HD
ENDBRANCH   2  20
BRANCH   6  22
ATOM     22  O   UNL     1     -37.348 -24.595  15.671  1.00  0.00    -0.507 OA
ATOM     23  H   UNL     1     -37.238 -24.888  14.707  1.00  0.00     0.293 HD
ENDBRANCH   6  22
BRANCH   8  24
ATOM     24  O   UNL     1     -32.572 -24.581  16.456  1.00  0.00    -0.508 OA
ATOM     25  H   UNL     1     -31.801 -24.230  17.013  1.00  0.00     0.293 HD
ENDBRANCH   8  24
TORSDOF 5
ENDMDL
MODEL 9
REMARK VINA RESULT:    -5.146      3.137      6.517
REMARK INTER + INTRA:          -6.275
REMARK INTER:                  -6.017
REMARK INTRA:                  -0.258
REMARK UNBOUND:                -0.226
REMARK SMILES O=c1c(O)c(-c2ccc(O)cc2)oc2cc(O)cc(O)c12
REMARK SMILES IDX 5 1 3 2 2 3 1 4 21 5 19 6 18 7 16 8 15 9 14 10 13 11 6 12
REMARK SMILES IDX 7 13 8 14 9 15 12 16 11 17 10 18 4 20 20 22 17 24
REMARK H PARENT 10 19 4 21 20 23 17 25
REMARK Flexibility Score: inf
ROOT
ATOM      1  C   UNL     1     -39.007 -24.206  22.045  1.00  0.00     0.180 A 
ATOM      2  C   UNL     1     -38.461 -25.280  21.316  1.00  0.00     0.208 A 
ATOM      3  C   UNL     1     -37.136 -25.189  20.866  1.00  0.00     0.238 A 
ATOM      4  O   UNL     1     -36.639 -26.139  20.202  1.00  0.00    -0.285 OA
ATOM      5  C   UNL     1     -36.374 -24.041  21.167  1.00  0.00     0.111 A 
ATOM      6  C   UNL     1     -35.030 -23.872  20.753  1.00  0.00     0.134 A 
ATOM      7  C   UNL     1     -34.337 -22.704  21.102  1.00  0.00     0.093 A 
ATOM      8  C   UNL     1     -34.961 -21.703  21.854  1.00  0.00     0.123 A 
ATOM      9  C   UNL     1     -36.285 -21.864  22.263  1.00  0.00     0.094 A 
ATOM     10  C   UNL     1     -36.994 -23.021  21.926  1.00  0.00     0.146 A 
ATOM     11  O   UNL     1     -38.255 -23.145  22.324  1.00  0.00    -0.452 OA
ENDROOT
BRANCH   1  12
ATOM     12  C   UNL     1     -40.404 -24.218  22.538  1.00  0.00     0.021 A 
ATOM     13  C   UNL     1     -40.770 -24.940  23.688  1.00  0.00     0.016 A 
ATOM     14  C   UNL     1     -42.100 -24.955  24.120  1.00  0.00     0.047 A 
ATOM     15  C   UNL     1     -43.081 -24.264  23.404  1.00  0.00     0.115 A 
ATOM     16  C   UNL     1     -41.399 -23.543  21.811  1.00  0.00     0.016 A 
ATOM     17  C   UNL     1     -42.728 -23.559  22.245  1.00  0.00     0.047 A 
BRANCH  15  18
ATOM     18  O   UNL     1     -44.401 -24.287  23.846  1.00  0.00    -0.508 OA
ATOM     19  H   UNL     1     -44.639 -24.578  24.788  1.00  0.00     0.293 HD
ENDBRANCH  15  18
ENDBRANCH   1  12
BRANCH   2  20
ATOM     20  O   UNL     1     -39.221 -26.427  21.074  1.00  0.00    -0.502 OA
ATOM     21  H   UNL     1     -39.720 -26.574  20.204  1.00  0.00     0.293 HD
ENDBRANCH   2  20
BRANCH   6  22
ATOM     22  O   UNL     1     -34.381 -24.854  20.003  1.00  0.00    -0.507 OA
ATOM     23  H   UNL     1     -34.576 -25.840  20.134  1.00  0.00     0.293 HD
ENDBRANCH   6  22
BRANCH   8  24
ATOM     24  O   UNL     1     -34.272 -20.542  22.201  1.00  0.00    -0.508 OA
ATOM     25  H   UNL     1     -33.692 -20.498  23.031  1.00  0.00     0.293 HD
ENDBRANCH   8  24
TORSDOF 5
ENDMDL
