MODEL 1
REMARK VINA RESULT:    -4.541      0.000      0.000
REMARK INTER + INTRA:          -6.183
REMARK INTER:                  -6.399
REMARK INTRA:                   0.216
REMARK UNBOUND:                 0.216
REMARK SMILES CC1=CCC(=C(C)C)C(=O)CC(C)=CCC1
REMARK SMILES IDX 12 1 14 2 13 3 15 4 16 5 2 6 1 7 3 8 11 10 9 11 10 12 5 13
REMARK SMILES IDX 6 14 7 15 8 16 4 17
REMARK H PARENT
REMARK Flexibility Score: 60.00
ROOT
ATOM      1  C   UNL     1      14.988 -33.928  20.839  1.00  0.00    -0.070 C 
ATOM      2  C   UNL     1      14.102 -33.017  20.360  1.00  0.00    -0.027 C 
ATOM      3  C   UNL     1      15.415 -35.035  19.906  1.00  0.00     0.039 C 
ENDROOT
BRANCH   2   4
ATOM      4  C   UNL     1      13.619 -31.780  21.077  1.00  0.00     0.032 C 
BRANCH   4   5
ATOM      5  C   UNL     1      14.736 -30.766  21.358  1.00  0.00     0.034 C 
BRANCH   5   6
ATOM      6  C   UNL     1      14.731 -30.373  22.823  1.00  0.00    -0.077 C 
ATOM      7  C   UNL     1      13.464 -29.804  23.405  1.00  0.00     0.039 C 
ATOM      8  C   UNL     1      15.829 -30.430  23.613  1.00  0.00    -0.023 CG0
ATOM      9  G   UNL     1      17.176 -30.981  23.212  1.00  0.00     0.000 G0
ENDBRANCH   5   6
ENDBRANCH   4   5
ENDBRANCH   2   4
BRANCH   1  10
ATOM     10  C   UNL     1      15.514 -33.949  22.271  1.00  0.00     0.111 C 
BRANCH  10  11
ATOM     11  C   UNL     1      16.924 -33.432  22.415  1.00  0.00     0.163 C 
ATOM     12  O   UNL     1      17.792 -33.877  21.616  1.00  0.00    -0.294 OA
BRANCH  11  13
ATOM     13  C   UNL     1      17.330 -32.472  23.494  1.00  0.00    -0.002 C 
ATOM     14  C   UNL     1      17.866 -32.927  24.670  1.00  0.00    -0.069 C 
ATOM     15  C   UNL     1      18.373 -31.976  25.733  1.00  0.00     0.039 C 
ATOM     16  C   UNL     1      17.935 -34.402  24.995  1.00  0.00     0.039 C 
BRANCH  13  17
ATOM     17  C   UNL     1      17.189 -30.973  23.234  1.00  0.00     0.066 CG0
ATOM     18  G   UNL     1      15.826 -30.453  23.622  1.00  0.00     0.000 G0
ENDBRANCH  13  17
ENDBRANCH  11  13
ENDBRANCH  10  11
ENDBRANCH   1  10
TORSDOF 0
ENDMDL
MODEL 2
REMARK VINA RESULT:    -4.539      2.256      4.116
REMARK INTER + INTRA:          -6.181
REMARK INTER:                  -6.312
REMARK INTRA:                   0.131
REMARK UNBOUND:                 0.216
REMARK SMILES CC1=CCC(=C(C)C)C(=O)CC(C)=CCC1
REMARK SMILES IDX 12 1 14 2 13 3 15 4 16 5 2 6 1 7 3 8 11 10 9 11 10 12 5 13
REMARK SMILES IDX 6 14 7 15 8 16 4 17
REMARK H PARENT
REMARK Flexibility Score: 60.00
ROOT
ATOM      1  C   UNL     1      18.114 -29.983  21.326  1.00  0.00    -0.070 C 
ATOM      2  C   UNL     1      17.082 -29.234  21.791  1.00  0.00    -0.027 C 
ATOM      3  C   UNL     1      19.511 -29.501  21.632  1.00  0.00     0.039 C 
ENDROOT
BRANCH   2   4
ATOM      4  C   UNL     1      15.616 -29.577  21.690  1.00  0.00     0.032 C 
BRANCH   4   5
ATOM      5  C   UNL     1      15.188 -30.698  22.646  1.00  0.00     0.034 C 
BRANCH   5   6
ATOM      6  C   UNL     1      14.319 -31.706  21.918  1.00  0.00    -0.077 C 
ATOM      7  C   UNL     1      12.977 -31.253  21.404  1.00  0.00     0.039 C 
ATOM      8  C   UNL     1      14.651 -33.011  21.775  1.00  0.00    -0.023 CG0
ATOM      9  G   UNL     1      15.952 -33.642  22.210  1.00  0.00     0.000 G0
ENDBRANCH   5   6
ENDBRANCH   4   5
ENDBRANCH   2   4
BRANCH   1  10
ATOM     10  C   UNL     1      17.956 -31.225  20.453  1.00  0.00     0.111 C 
BRANCH  10  11
ATOM     11  C   UNL     1      18.066 -32.525  21.212  1.00  0.00     0.163 C 
ATOM     12  O   UNL     1      19.107 -32.712  21.899  1.00  0.00    -0.294 OA
BRANCH  11  13
ATOM     13  C   UNL     1      17.028 -33.604  21.127  1.00  0.00    -0.002 C 
ATOM     14  C   UNL     1      17.074 -34.543  20.130  1.00  0.00    -0.069 C 
ATOM     15  C   UNL     1      16.096 -35.697  20.080  1.00  0.00     0.039 C 
ATOM     16  C   UNL     1      18.069 -34.450  18.996  1.00  0.00     0.039 C 
BRANCH  13  17
ATOM     17  C   UNL     1      15.950 -33.673  22.209  1.00  0.00     0.066 CG0
ATOM     18  G   UNL     1      14.661 -33.023  21.770  1.00  0.00     0.000 G0
ENDBRANCH  13  17
ENDBRANCH  11  13
ENDBRANCH  10  11
ENDBRANCH   1  10
TORSDOF 0
ENDMDL
MODEL 3
REMARK VINA RESULT:    -4.534      2.137      4.219
REMARK INTER + INTRA:          -6.173
REMARK INTER:                  -6.464
REMARK INTRA:                   0.291
REMARK UNBOUND:                 0.216
REMARK SMILES CC1=CCC(=C(C)C)C(=O)CC(C)=CCC1
REMARK SMILES IDX 12 1 14 2 13 3 15 4 16 5 2 6 1 7 3 8 11 10 9 11 10 12 5 13
REMARK SMILES IDX 6 14 7 15 8 16 4 17
REMARK H PARENT
REMARK Flexibility Score: 60.00
ROOT
ATOM      1  C   UNL     1      14.500 -33.005  21.044  1.00  0.00    -0.070 C 
ATOM      2  C   UNL     1      14.847 -33.832  20.024  1.00  0.00    -0.027 C 
ATOM      3  C   UNL     1      13.755 -31.743  20.687  1.00  0.00     0.039 C 
ENDROOT
BRANCH   2   4
ATOM      4  C   UNL     1      15.502 -35.185  20.158  1.00  0.00     0.032 C 
BRANCH   4   5
ATOM      5  C   UNL     1      16.948 -35.213  19.646  1.00  0.00     0.034 C 
BRANCH   5   6
ATOM      6  C   UNL     1      17.918 -35.225  20.811  1.00  0.00    -0.077 C 
ATOM      7  C   UNL     1      18.327 -36.556  21.386  1.00  0.00     0.039 C 
ATOM      8  C   UNL     1      18.374 -34.101  21.413  1.00  0.00    -0.023 CG0
ATOM      9  G   UNL     1      18.087 -32.686  20.971  1.00  0.00     0.000 G0
ENDBRANCH   5   6
ENDBRANCH   4   5
ENDBRANCH   2   4
BRANCH   1  10
ATOM     10  C   UNL     1      14.882 -33.228  22.504  1.00  0.00     0.111 C 
BRANCH  10  11
ATOM     11  C   UNL     1      16.278 -32.771  22.850  1.00  0.00     0.163 C 
ATOM     12  O   UNL     1      16.717 -33.054  23.998  1.00  0.00    -0.294 OA
BRANCH  11  13
ATOM     13  C   UNL     1      17.120 -31.956  21.913  1.00  0.00    -0.002 C 
ATOM     14  C   UNL     1      17.059 -30.587  21.929  1.00  0.00    -0.069 C 
ATOM     15  C   UNL     1      17.968 -29.741  21.064  1.00  0.00     0.039 C 
ATOM     16  C   UNL     1      16.047 -29.845  22.773  1.00  0.00     0.039 C 
BRANCH  13  17
ATOM     17  C   UNL     1      18.090 -32.679  20.979  1.00  0.00     0.066 CG0
ATOM     18  G   UNL     1      18.356 -34.097  21.421  1.00  0.00     0.000 G0
ENDBRANCH  13  17
ENDBRANCH  11  13
ENDBRANCH  10  11
ENDBRANCH   1  10
TORSDOF 0
ENDMDL
MODEL 4
REMARK VINA RESULT:    -4.519      2.000      3.173
REMARK INTER + INTRA:          -6.153
REMARK INTER:                  -6.513
REMARK INTRA:                   0.360
REMARK UNBOUND:                 0.216
REMARK SMILES CC1=CCC(=C(C)C)C(=O)CC(C)=CCC1
REMARK SMILES IDX 12 1 14 2 13 3 15 4 16 5 2 6 1 7 3 8 11 10 9 11 10 12 5 13
REMARK SMILES IDX 6 14 7 15 8 16 4 17
REMARK H PARENT
REMARK Flexibility Score: 60.00
ROOT
ATOM      1  C   UNL     1      15.914 -33.659  23.580  1.00  0.00    -0.070 C 
ATOM      2  C   UNL     1      15.172 -32.852  24.382  1.00  0.00    -0.027 C 
ATOM      3  C   UNL     1      17.310 -33.998  24.043  1.00  0.00     0.039 C 
ENDROOT
BRANCH   2   4
ATOM      4  C   UNL     1      13.728 -32.468  24.170  1.00  0.00     0.032 C 
BRANCH   4   5
ATOM      5  C   UNL     1      13.529 -30.967  23.924  1.00  0.00     0.034 C 
BRANCH   5   6
ATOM      6  C   UNL     1      13.273 -30.704  22.453  1.00  0.00    -0.077 C 
ATOM      7  C   UNL     1      11.844 -30.624  21.980  1.00  0.00     0.039 C 
ATOM      8  C   UNL     1      14.259 -30.617  21.529  1.00  0.00    -0.023 CG0
ATOM      9  G   UNL     1      15.740 -30.658  21.814  1.00  0.00     0.000 G0
ENDBRANCH   5   6
ENDBRANCH   4   5
ENDBRANCH   2   4
BRANCH   1  10
ATOM     10  C   UNL     1      15.460 -34.175  22.218  1.00  0.00     0.111 C 
BRANCH  10  11
ATOM     11  C   UNL     1      15.594 -33.165  21.105  1.00  0.00     0.163 C 
ATOM     12  O   UNL     1      15.028 -33.428  20.009  1.00  0.00    -0.294 OA
BRANCH  11  13
ATOM     13  C   UNL     1      16.413 -31.915  21.237  1.00  0.00    -0.002 C 
ATOM     14  C   UNL     1      17.713 -31.881  20.806  1.00  0.00    -0.069 C 
ATOM     15  C   UNL     1      18.528 -30.606  20.839  1.00  0.00     0.039 C 
ATOM     16  C   UNL     1      18.423 -33.125  20.322  1.00  0.00     0.039 C 
BRANCH  13  17
ATOM     17  C   UNL     1      15.752 -30.661  21.809  1.00  0.00     0.066 CG0
ATOM     18  G   UNL     1      14.267 -30.626  21.538  1.00  0.00     0.000 G0
ENDBRANCH  13  17
ENDBRANCH  11  13
ENDBRANCH  10  11
ENDBRANCH   1  10
TORSDOF 0
ENDMDL
MODEL 5
REMARK VINA RESULT:    -4.447      2.157      4.542
REMARK INTER + INTRA:          -6.050
REMARK INTER:                  -6.233
REMARK INTRA:                   0.183
REMARK UNBOUND:                 0.216
REMARK SMILES CC1=CCC(=C(C)C)C(=O)CC(C)=CCC1
REMARK SMILES IDX 12 1 14 2 13 3 15 4 16 5 2 6 1 7 3 8 11 10 9 11 10 12 5 13
REMARK SMILES IDX 6 14 7 15 8 16 4 17
REMARK H PARENT
REMARK Flexibility Score: 60.00
ROOT
ATOM      1  C   UNL     1      18.636 -30.708  21.249  1.00  0.00    -0.070 C 
ATOM      2  C   UNL     1      18.931 -31.888  20.646  1.00  0.00    -0.027 C 
ATOM      3  C   UNL     1      19.781 -29.758  21.506  1.00  0.00     0.039 C 
ENDROOT
BRANCH   2   4
ATOM      4  C   UNL     1      17.939 -32.936  20.205  1.00  0.00     0.032 C 
BRANCH   4   5
ATOM      5  C   UNL     1      17.637 -33.980  21.288  1.00  0.00     0.034 C 
BRANCH   5   6
ATOM      6  C   UNL     1      16.152 -34.284  21.326  1.00  0.00    -0.077 C 
ATOM      7  C   UNL     1      15.545 -35.028  20.166  1.00  0.00     0.039 C 
ATOM      8  C   UNL     1      15.328 -33.852  22.311  1.00  0.00    -0.023 CG0
ATOM      9  G   UNL     1      15.754 -33.109  23.554  1.00  0.00     0.000 G0
ENDBRANCH   5   6
ENDBRANCH   4   5
ENDBRANCH   2   4
BRANCH   1  10
ATOM     10  C   UNL     1      17.249 -30.317  21.749  1.00  0.00     0.111 C 
BRANCH  10  11
ATOM     11  C   UNL     1      16.920 -30.852  23.121  1.00  0.00     0.163 C 
ATOM     12  O   UNL     1      17.780 -30.695  24.030  1.00  0.00    -0.294 OA
BRANCH  11  13
ATOM     13  C   UNL     1      15.654 -31.601  23.417  1.00  0.00    -0.002 C 
ATOM     14  C   UNL     1      14.454 -30.944  23.495  1.00  0.00    -0.069 C 
ATOM     15  C   UNL     1      13.152 -31.689  23.695  1.00  0.00     0.039 C 
ATOM     16  C   UNL     1      14.367 -29.436  23.435  1.00  0.00     0.039 C 
BRANCH  13  17
ATOM     17  C   UNL     1      15.719 -33.120  23.574  1.00  0.00     0.066 CG0
ATOM     18  G   UNL     1      15.333 -33.841  22.305  1.00  0.00     0.000 G0
ENDBRANCH  13  17
ENDBRANCH  11  13
ENDBRANCH  10  11
ENDBRANCH   1  10
TORSDOF 0
ENDMDL
MODEL 6
REMARK VINA RESULT:    -4.418      2.148      4.094
REMARK INTER + INTRA:          -6.010
REMARK INTER:                  -6.147
REMARK INTRA:                   0.137
REMARK UNBOUND:                 0.216
REMARK SMILES CC1=CCC(=C(C)C)C(=O)CC(C)=CCC1
REMARK SMILES IDX 12 1 14 2 13 3 15 4 16 5 2 6 1 7 3 8 11 10 9 11 10 12 5 13
REMARK SMILES IDX 6 14 7 15 8 16 4 17
REMARK H PARENT
REMARK Flexibility Score: 60.00
ROOT
ATOM      1  C   UNL     1      14.486 -32.924  21.347  1.00  0.00    -0.070 C 
ATOM      2  C   UNL     1      14.721 -33.397  20.096  1.00  0.00    -0.027 C 
ATOM      3  C   UNL     1      13.619 -31.694  21.470  1.00  0.00     0.039 C 
ENDROOT
BRANCH   2   4
ATOM      4  C   UNL     1      15.470 -34.660  19.748  1.00  0.00     0.032 C 
BRANCH   4   5
ATOM      5  C   UNL     1      16.990 -34.467  19.683  1.00  0.00     0.034 C 
BRANCH   5   6
ATOM      6  C   UNL     1      17.695 -35.606  20.394  1.00  0.00    -0.077 C 
ATOM      7  C   UNL     1      17.549 -36.997  19.833  1.00  0.00     0.039 C 
ATOM      8  C   UNL     1      18.383 -35.451  21.550  1.00  0.00    -0.023 CG0
ATOM      9  G   UNL     1      18.647 -34.140  22.249  1.00  0.00     0.000 G0
ENDBRANCH   5   6
ENDBRANCH   4   5
ENDBRANCH   2   4
BRANCH   1  10
ATOM     10  C   UNL     1      15.100 -33.502  22.619  1.00  0.00     0.111 C 
BRANCH  10  11
ATOM     11  C   UNL     1      16.457 -32.935  22.956  1.00  0.00     0.163 C 
ATOM     12  O   UNL     1      16.605 -31.685  22.869  1.00  0.00    -0.294 OA
BRANCH  11  13
ATOM     13  C   UNL     1      17.628 -33.797  23.327  1.00  0.00    -0.002 C 
ATOM     14  C   UNL     1      17.740 -34.321  24.588  1.00  0.00    -0.069 C 
ATOM     15  C   UNL     1      18.858 -35.272  24.957  1.00  0.00     0.039 C 
ATOM     16  C   UNL     1      16.783 -33.940  25.695  1.00  0.00     0.039 C 
BRANCH  13  17
ATOM     17  C   UNL     1      18.665 -34.129  22.254  1.00  0.00     0.066 CG0
ATOM     18  G   UNL     1      18.373 -35.440  21.565  1.00  0.00     0.000 G0
ENDBRANCH  13  17
ENDBRANCH  11  13
ENDBRANCH  10  11
ENDBRANCH   1  10
TORSDOF 0
ENDMDL
MODEL 7
REMARK VINA RESULT:    -4.296      2.313      4.343
REMARK INTER + INTRA:          -5.838
REMARK INTER:                  -6.126
REMARK INTRA:                   0.289
REMARK UNBOUND:                 0.216
REMARK SMILES CC1=CCC(=C(C)C)C(=O)CC(C)=CCC1
REMARK SMILES IDX 12 1 14 2 13 3 15 4 16 5 2 6 1 7 3 8 11 10 9 11 10 12 5 13
REMARK SMILES IDX 6 14 7 15 8 16 4 17
REMARK H PARENT
REMARK Flexibility Score: 60.00
ROOT
ATOM      1  C   UNL     1      13.851 -30.560  23.545  1.00  0.00    -0.070 C 
ATOM      2  C   UNL     1      13.410 -31.780  23.943  1.00  0.00    -0.027 C 
ATOM      3  C   UNL     1      12.808 -29.531  23.184  1.00  0.00     0.039 C 
ENDROOT
BRANCH   2   4
ATOM      4  C   UNL     1      14.266 -32.918  24.444  1.00  0.00     0.032 C 
BRANCH   4   5
ATOM      5  C   UNL     1      15.001 -33.663  23.322  1.00  0.00     0.034 C 
BRANCH   5   6
ATOM      6  C   UNL     1      16.494 -33.669  23.586  1.00  0.00    -0.077 C 
ATOM      7  C   UNL     1      16.990 -34.283  24.870  1.00  0.00     0.039 C 
ATOM      8  C   UNL     1      17.398 -33.081  22.767  1.00  0.00    -0.023 CG0
ATOM      9  G   UNL     1      17.093 -32.434  21.438  1.00  0.00     0.000 G0
ENDBRANCH   5   6
ENDBRANCH   4   5
ENDBRANCH   2   4
BRANCH   1  10
ATOM     10  C   UNL     1      15.321 -30.190  23.363  1.00  0.00     0.111 C 
BRANCH  10  11
ATOM     11  C   UNL     1      15.789 -30.225  21.930  1.00  0.00     0.163 C 
ATOM     12  O   UNL     1      15.038 -29.709  21.058  1.00  0.00    -0.294 OA
BRANCH  11  13
ATOM     13  C   UNL     1      17.065 -30.893  21.509  1.00  0.00    -0.002 C 
ATOM     14  C   UNL     1      18.190 -30.154  21.253  1.00  0.00    -0.069 C 
ATOM     15  C   UNL     1      19.514 -30.809  20.923  1.00  0.00     0.039 C 
ATOM     16  C   UNL     1      18.162 -28.642  21.235  1.00  0.00     0.039 C 
BRANCH  13  17
ATOM     17  C   UNL     1      17.104 -32.419  21.428  1.00  0.00     0.066 CG0
ATOM     18  G   UNL     1      17.390 -33.054  22.767  1.00  0.00     0.000 G0
ENDBRANCH  13  17
ENDBRANCH  11  13
ENDBRANCH  10  11
ENDBRANCH   1  10
TORSDOF 0
ENDMDL
MODEL 8
REMARK VINA RESULT:    -4.140      1.460      3.868
REMARK INTER + INTRA:          -5.618
REMARK INTER:                  -5.978
REMARK INTRA:                   0.360
REMARK UNBOUND:                 0.216
REMARK SMILES CC1=CCC(=C(C)C)C(=O)CC(C)=CCC1
REMARK SMILES IDX 12 1 14 2 13 3 15 4 16 5 2 6 1 7 3 8 11 10 9 11 10 12 5 13
REMARK SMILES IDX 6 14 7 15 8 16 4 17
REMARK H PARENT
REMARK Flexibility Score: 60.00
ROOT
ATOM      1  C   UNL     1      16.882 -35.479  20.827  1.00  0.00    -0.070 C 
ATOM      2  C   UNL     1      17.847 -35.841  21.712  1.00  0.00    -0.027 C 
ATOM      3  C   UNL     1      16.881 -36.170  19.485  1.00  0.00     0.039 C 
ENDROOT
BRANCH   2   4
ATOM      4  C   UNL     1      17.976 -35.358  23.136  1.00  0.00     0.032 C 
BRANCH   4   5
ATOM      5  C   UNL     1      18.621 -33.971  23.250  1.00  0.00     0.034 C 
BRANCH   5   6
ATOM      6  C   UNL     1      17.923 -33.153  24.319  1.00  0.00    -0.077 C 
ATOM      7  C   UNL     1      17.894 -33.692  25.726  1.00  0.00     0.039 C 
ATOM      8  C   UNL     1      17.255 -32.003  24.061  1.00  0.00    -0.023 CG0
ATOM      9  G   UNL     1      17.186 -31.306  22.724  1.00  0.00     0.000 G0
ENDBRANCH   5   6
ENDBRANCH   4   5
ENDBRANCH   2   4
BRANCH   1  10
ATOM     10  C   UNL     1      15.859 -34.373  21.069  1.00  0.00     0.111 C 
BRANCH  10  11
ATOM     11  C   UNL     1      16.408 -32.980  20.888  1.00  0.00     0.163 C 
ATOM     12  O   UNL     1      17.217 -32.790  19.939  1.00  0.00    -0.294 OA
BRANCH  11  13
ATOM     13  C   UNL     1      16.076 -31.850  21.818  1.00  0.00    -0.002 C 
ATOM     14  C   UNL     1      14.800 -31.356  21.892  1.00  0.00    -0.069 C 
ATOM     15  C   UNL     1      14.419 -30.285  22.890  1.00  0.00     0.039 C 
ATOM     16  C   UNL     1      13.713 -31.816  20.947  1.00  0.00     0.039 C 
BRANCH  13  17
ATOM     17  C   UNL     1      17.176 -31.298  22.725  1.00  0.00     0.066 CG0
ATOM     18  G   UNL     1      17.229 -32.010  24.055  1.00  0.00     0.000 G0
ENDBRANCH  13  17
ENDBRANCH  11  13
ENDBRANCH  10  11
ENDBRANCH   1  10
TORSDOF 0
ENDMDL
MODEL 9
REMARK VINA RESULT:    -4.121      2.037      4.022
REMARK INTER + INTRA:          -5.591
REMARK INTER:                  -5.823
REMARK INTRA:                   0.232
REMARK UNBOUND:                 0.216
REMARK SMILES CC1=CCC(=C(C)C)C(=O)CC(C)=CCC1
REMARK SMILES IDX 12 1 14 2 13 3 15 4 16 5 2 6 1 7 3 8 11 10 9 11 10 12 5 13
REMARK SMILES IDX 6 14 7 15 8 16 4 17
REMARK H PARENT
REMARK Flexibility Score: 60.00
ROOT
ATOM      1  C   UNL     1      14.276 -31.074  21.523  1.00  0.00    -0.070 C 
ATOM      2  C   UNL     1      15.003 -30.008  21.946  1.00  0.00    -0.027 C 
ATOM      3  C   UNL     1      12.793 -31.053  21.800  1.00  0.00     0.039 C 
ENDROOT
BRANCH   2   4
ATOM      4  C   UNL     1      16.472 -29.773  21.689  1.00  0.00     0.032 C 
BRANCH   4   5
ATOM      5  C   UNL     1      17.386 -30.492  22.690  1.00  0.00     0.034 C 
BRANCH   5   6
ATOM      6  C   UNL     1      18.571 -31.108  21.971  1.00  0.00    -0.077 C 
ATOM      7  C   UNL     1      19.529 -30.189  21.258  1.00  0.00     0.039 C 
ATOM      8  C   UNL     1      18.769 -32.444  21.869  1.00  0.00    -0.023 CG0
ATOM      9  G   UNL     1      17.927 -33.512  22.525  1.00  0.00     0.000 G0
ENDBRANCH   5   6
ENDBRANCH   4   5
ENDBRANCH   2   4
BRANCH   1  10
ATOM     10  C   UNL     1      14.869 -32.316  20.862  1.00  0.00     0.111 C 
BRANCH  10  11
ATOM     11  C   UNL     1      15.423 -33.324  21.839  1.00  0.00     0.163 C 
ATOM     12  O   UNL     1      14.738 -33.577  22.867  1.00  0.00    -0.294 OA
BRANCH  11  13
ATOM     13  C   UNL     1      16.762 -33.976  21.659  1.00  0.00    -0.002 C 
ATOM     14  C   UNL     1      16.951 -34.933  20.696  1.00  0.00    -0.069 C 
ATOM     15  C   UNL     1      18.313 -35.535  20.430  1.00  0.00     0.039 C 
ATOM     16  C   UNL     1      15.800 -35.478  19.880  1.00  0.00     0.039 C 
BRANCH  13  17
ATOM     17  C   UNL     1      17.928 -33.512  22.530  1.00  0.00     0.066 CG0
ATOM     18  G   UNL     1      18.767 -32.459  21.847  1.00  0.00     0.000 G0
ENDBRANCH  13  17
ENDBRANCH  11  13
ENDBRANCH  10  11
ENDBRANCH   1  10
TORSDOF 0
ENDMDL
