MODEL 1
REMARK VINA RESULT:    -0.906      0.000      0.000
REMARK INTER + INTRA:          -1.340
REMARK INTER:                  -1.039
REMARK INTRA:                  -0.301
REMARK UNBOUND:                -0.301
REMARK SMILES O=C1C[C@@H](c2ccc(O)cc2)Oc2cc(O)cc(O)c21
REMARK SMILES IDX 3 1 4 2 12 3 13 4 14 5 15 6 17 7 18 8 20 9 2 10 1 11 5 12
REMARK SMILES IDX 6 13 11 14 7 15 10 16 8 17 9 18 19 20 16 22
REMARK H PARENT 9 19 19 21 16 23
REMARK Flexibility Score: inf
ROOT
ATOM      1  C   UNL     1    -115.939 -98.346  37.017  1.00  0.00     0.131 C 
ATOM      2  C   UNL     1    -116.747 -99.643  37.208  1.00  0.00     0.211 C 
ATOM      3  O   UNL     1    -117.799 -99.725  36.235  1.00  0.00    -0.484 OA
ATOM      4  C   UNL     1    -117.582 -99.427  34.885  1.00  0.00     0.138 A 
ATOM      5  C   UNL     1    -118.492 -99.876  33.927  1.00  0.00     0.093 A 
ATOM      6  C   UNL     1    -118.255 -99.644  32.565  1.00  0.00     0.123 A 
ATOM      7  C   UNL     1    -117.130 -98.910  32.174  1.00  0.00     0.093 A 
ATOM      8  C   UNL     1    -116.241 -98.400  33.135  1.00  0.00     0.133 A 
ATOM      9  C   UNL     1    -116.453 -98.678  34.503  1.00  0.00     0.102 A 
ATOM     10  C   UNL     1    -115.541 -98.193  35.575  1.00  0.00     0.174 C 
ATOM     11  O   UNL     1    -114.460 -97.606  35.300  1.00  0.00    -0.294 OA
ENDROOT
BRANCH   2  12
ATOM     12  C   UNL     1    -117.295 -99.736  38.616  1.00  0.00    -0.007 A 
ATOM     13  C   UNL     1    -118.650-100.029  38.867  1.00  0.00     0.011 A 
ATOM     14  C   UNL     1    -116.433 -99.519  39.706  1.00  0.00     0.011 A 
ATOM     15  C   UNL     1    -119.120-100.125  40.183  1.00  0.00     0.046 A 
ATOM     16  C   UNL     1    -116.907 -99.628  41.018  1.00  0.00     0.046 A 
ATOM     17  C   UNL     1    -118.253 -99.929  41.259  1.00  0.00     0.115 A 
BRANCH  17  18
ATOM     18  O   UNL     1    -118.744-100.026  42.559  1.00  0.00    -0.508 OA
ATOM     19  H   UNL     1    -118.551-100.841  43.130  1.00  0.00     0.293 HD
ENDBRANCH  17  18
ENDBRANCH   2  12
BRANCH   8  20
ATOM     20  O   UNL     1    -115.149 -97.631  32.724  1.00  0.00    -0.507 OA
ATOM     21  H   UNL     1    -115.199 -96.623  32.671  1.00  0.00     0.293 HD
ENDBRANCH   8  20
BRANCH   6  22
ATOM     22  O   UNL     1    -119.125-100.123  31.601  1.00  0.00    -0.508 OA
ATOM     23  H   UNL     1    -118.956-101.001  31.133  1.00  0.00     0.293 HD
ENDBRANCH   6  22
TORSDOF 4
ENDMDL
MODEL 2
REMARK VINA RESULT:    -0.856      4.690     10.502
REMARK INTER + INTRA:          -1.283
REMARK INTER:                  -1.015
REMARK INTRA:                  -0.267
REMARK UNBOUND:                -0.301
REMARK SMILES O=C1C[C@@H](c2ccc(O)cc2)Oc2cc(O)cc(O)c21
REMARK SMILES IDX 3 1 4 2 12 3 13 4 14 5 15 6 17 7 18 8 20 9 2 10 1 11 5 12
REMARK SMILES IDX 6 13 11 14 7 15 10 16 8 17 9 18 19 20 16 22
REMARK H PARENT 9 19 19 21 16 23
REMARK Flexibility Score: inf
ROOT
ATOM      1  C   UNL     1    -118.453 -96.830  43.773  1.00  0.00     0.131 C 
ATOM      2  C   UNL     1    -118.583 -98.355  43.596  1.00  0.00     0.211 C 
ATOM      3  O   UNL     1    -117.738 -99.040  44.532  1.00  0.00    -0.484 OA
ATOM      4  C   UNL     1    -117.668 -98.665  45.878  1.00  0.00     0.138 A 
ATOM      5  C   UNL     1    -117.156 -99.563  46.817  1.00  0.00     0.093 A 
ATOM      6  C   UNL     1    -117.141 -99.227  48.178  1.00  0.00     0.123 A 
ATOM      7  C   UNL     1    -117.590 -97.967  48.586  1.00  0.00     0.093 A 
ATOM      8  C   UNL     1    -118.050 -97.033  47.641  1.00  0.00     0.133 A 
ATOM      9  C   UNL     1    -118.112 -97.390  46.277  1.00  0.00     0.102 A 
ATOM     10  C   UNL     1    -118.610 -96.463  45.223  1.00  0.00     0.174 C 
ATOM     11  O   UNL     1    -119.117 -95.347  45.518  1.00  0.00    -0.294 OA
ENDROOT
BRANCH   2  12
ATOM     12  C   UNL     1    -118.267 -98.762  42.173  1.00  0.00    -0.007 A 
ATOM     13  C   UNL     1    -117.137 -98.266  41.492  1.00  0.00     0.011 A 
ATOM     14  C   UNL     1    -119.124 -99.655  41.507  1.00  0.00     0.011 A 
ATOM     15  C   UNL     1    -116.865 -98.678  40.183  1.00  0.00     0.046 A 
ATOM     16  C   UNL     1    -118.839-100.072  40.201  1.00  0.00     0.046 A 
ATOM     17  C   UNL     1    -117.710 -99.582  39.535  1.00  0.00     0.115 A 
BRANCH  17  18
ATOM     18  O   UNL     1    -117.421 -99.974  38.231  1.00  0.00    -0.508 OA
ATOM     19  H   UNL     1    -118.151-100.032  37.529  1.00  0.00     0.293 HD
ENDBRANCH  17  18
ENDBRANCH   2  12
BRANCH   8  20
ATOM     20  O   UNL     1    -118.450 -95.764  48.067  1.00  0.00    -0.507 OA
ATOM     21  H   UNL     1    -119.048 -95.638  48.872  1.00  0.00     0.293 HD
ENDBRANCH   8  20
BRANCH   6  22
ATOM     22  O   UNL     1    -116.678-100.125  49.125  1.00  0.00    -0.508 OA
ATOM     23  H   UNL     1    -116.759 -99.932  50.112  1.00  0.00     0.293 HD
ENDBRANCH   6  22
TORSDOF 4
ENDMDL
MODEL 3
REMARK VINA RESULT:     0.302      1.111      1.547
REMARK INTER + INTRA:           0.045
REMARK INTER:                   0.335
REMARK INTRA:                  -0.290
REMARK UNBOUND:                -0.301
REMARK SMILES O=C1C[C@@H](c2ccc(O)cc2)Oc2cc(O)cc(O)c21
REMARK SMILES IDX 3 1 4 2 12 3 13 4 14 5 15 6 17 7 18 8 20 9 2 10 1 11 5 12
REMARK SMILES IDX 6 13 11 14 7 15 10 16 8 17 9 18 19 20 16 22
REMARK H PARENT 9 19 19 21 16 23
REMARK Flexibility Score: inf
ROOT
ATOM      1  C   UNL     1    -115.468 -99.652  37.041  1.00  0.00     0.131 C 
ATOM      2  C   UNL     1    -116.946-100.026  37.263  1.00  0.00     0.211 C 
ATOM      3  O   UNL     1    -117.782 -99.342  36.319  1.00  0.00    -0.484 OA
ATOM      4  C   UNL     1    -117.452 -99.260  34.961  1.00  0.00     0.138 A 
ATOM      5  C   UNL     1    -118.442 -98.940  34.031  1.00  0.00     0.093 A 
ATOM      6  C   UNL     1    -118.143 -98.920  32.662  1.00  0.00     0.123 A 
ATOM      7  C   UNL     1    -116.835 -99.168  32.235  1.00  0.00     0.093 A 
ATOM      8  C   UNL     1    -115.817 -99.431  33.169  1.00  0.00     0.133 A 
ATOM      9  C   UNL     1    -116.130 -99.501  34.544  1.00  0.00     0.102 A 
ATOM     10  C   UNL     1    -115.111 -99.799  35.587  1.00  0.00     0.174 C 
ATOM     11  O   UNL     1    -113.933-100.124  35.280  1.00  0.00    -0.294 OA
ENDROOT
BRANCH   2  12
ATOM     12  C   UNL     1    -117.370 -99.730  38.686  1.00  0.00    -0.007 A 
ATOM     13  C   UNL     1    -116.466 -99.218  39.638  1.00  0.00     0.011 A 
ATOM     14  C   UNL     1    -118.699 -99.975  39.073  1.00  0.00     0.011 A 
ATOM     15  C   UNL     1    -116.896 -98.939  40.940  1.00  0.00     0.046 A 
ATOM     16  C   UNL     1    -119.125 -99.681  40.373  1.00  0.00     0.046 A 
ATOM     17  C   UNL     1    -118.223 -99.165  41.311  1.00  0.00     0.115 A 
BRANCH  17  18
ATOM     18  O   UNL     1    -118.628 -98.882  42.614  1.00  0.00    -0.508 OA
ATOM     19  H   UNL     1    -118.430 -99.525  43.372  1.00  0.00     0.293 HD
ENDBRANCH  17  18
ENDBRANCH   2  12
BRANCH   8  20
ATOM     20  O   UNL     1    -114.509 -99.631  32.722  1.00  0.00    -0.507 OA
ATOM     21  H   UNL     1    -114.046-100.524  32.818  1.00  0.00     0.293 HD
ENDBRANCH   8  20
BRANCH   6  22
ATOM     22  O   UNL     1    -119.125 -98.647  31.725  1.00  0.00    -0.508 OA
ATOM     23  H   UNL     1    -119.335 -97.700  31.446  1.00  0.00     0.293 HD
ENDBRANCH   6  22
TORSDOF 4
ENDMDL
