MODEL 1
REMARK VINA RESULT:    -2.962      0.000      0.000
REMARK INTER + INTRA:          -5.213
REMARK INTER:                  -3.654
REMARK INTRA:                  -1.559
REMARK UNBOUND:                -1.559
REMARK SMILES CC(C)=CCC[C@@H](C)c1ccc(C)cc1
REMARK SMILES IDX 6 1 7 2 8 3 9 4 13 5 12 6 11 7 14 8 10 9 15 10 5 11 4 12
REMARK SMILES IDX 2 13 1 14 3 15
REMARK H PARENT
REMARK Flexibility Score: inf
ROOT
ATOM      1  C   UNL     1       5.481  -5.533   6.384  1.00  0.00     0.012 C 
ENDROOT
BRANCH   1   2
ATOM      2  C   UNL     1       5.679  -5.906   7.868  1.00  0.00     0.016 C 
ATOM      3  C   UNL     1       7.171  -5.978   8.217  1.00  0.00     0.013 C 
BRANCH   2   4
ATOM      4  C   UNL     1       4.959  -4.944   8.798  1.00  0.00    -0.045 A 
ATOM      5  C   UNL     1       2.875  -2.212  11.416  1.00  0.00     0.044 C 
ATOM      6  C   UNL     1       3.604  -3.138  10.487  1.00  0.00    -0.051 A 
ATOM      7  C   UNL     1       2.903  -3.846   9.502  1.00  0.00     0.004 A 
ATOM      8  C   UNL     1       4.981  -3.353  10.642  1.00  0.00     0.004 A 
ATOM      9  C   UNL     1       3.575  -4.737   8.660  1.00  0.00     0.004 A 
ATOM     10  C   UNL     1       5.655  -4.243   9.800  1.00  0.00     0.004 A 
ENDBRANCH   2   4
ENDBRANCH   1   2
BRANCH   1  11
ATOM     11  C   UNL     1       5.975  -4.111   6.072  1.00  0.00     0.028 C 
BRANCH  11  12
ATOM     12  C   UNL     1       4.853  -3.265   5.525  1.00  0.00    -0.028 C 
ATOM     13  C   UNL     1       4.413  -2.120   6.091  1.00  0.00    -0.080 C 
ATOM     14  C   UNL     1       5.057  -1.540   7.328  1.00  0.00     0.039 C 
ATOM     15  C   UNL     1       3.253  -1.402   5.452  1.00  0.00     0.039 C 
ENDBRANCH  11  12
ENDBRANCH   1  11
TORSDOF 4
ENDMDL
MODEL 2
REMARK VINA RESULT:    -2.795      1.463      3.999
REMARK INTER + INTRA:          -5.007
REMARK INTER:                  -3.424
REMARK INTRA:                  -1.583
REMARK UNBOUND:                -1.559
REMARK SMILES CC(C)=CCC[C@@H](C)c1ccc(C)cc1
REMARK SMILES IDX 6 1 7 2 8 3 9 4 13 5 12 6 11 7 14 8 10 9 15 10 5 11 4 12
REMARK SMILES IDX 2 13 1 14 3 15
REMARK H PARENT
REMARK Flexibility Score: inf
ROOT
ATOM      1  C   UNL     1       3.633  -5.116   8.613  1.00  0.00     0.012 C 
ENDROOT
BRANCH   1   2
ATOM      2  C   UNL     1       3.189  -3.796   9.278  1.00  0.00     0.016 C 
ATOM      3  C   UNL     1       4.028  -3.507  10.529  1.00  0.00     0.013 C 
BRANCH   2   4
ATOM      4  C   UNL     1       3.247  -2.623   8.313  1.00  0.00    -0.045 A 
ATOM      5  C   UNL     1       3.420   0.736   5.604  1.00  0.00     0.044 C 
ATOM      6  C   UNL     1       3.331  -0.424   6.551  1.00  0.00    -0.051 A 
ATOM      7  C   UNL     1       3.715  -0.273   7.891  1.00  0.00     0.004 A 
ATOM      8  C   UNL     1       2.928  -1.684   6.089  1.00  0.00     0.004 A 
ATOM      9  C   UNL     1       3.668  -1.361   8.767  1.00  0.00     0.004 A 
ATOM     10  C   UNL     1       2.879  -2.774   6.963  1.00  0.00     0.004 A 
ENDBRANCH   2   4
ENDBRANCH   1   2
BRANCH   1  11
ATOM     11  C   UNL     1       5.158  -5.297   8.647  1.00  0.00     0.028 C 
BRANCH  11  12
ATOM     12  C   UNL     1       5.759  -5.018   7.293  1.00  0.00    -0.028 C 
ATOM     13  C   UNL     1       6.525  -3.943   7.003  1.00  0.00    -0.080 C 
ATOM     14  C   UNL     1       6.902  -2.923   8.051  1.00  0.00     0.039 C 
ATOM     15  C   UNL     1       7.023  -3.776   5.591  1.00  0.00     0.039 C 
ENDBRANCH  11  12
ENDBRANCH   1  11
TORSDOF 4
ENDMDL
MODEL 3
REMARK VINA RESULT:    -2.775      1.367      4.898
REMARK INTER + INTRA:          -4.983
REMARK INTER:                  -3.923
REMARK INTRA:                  -1.060
REMARK UNBOUND:                -1.559
REMARK SMILES CC(C)=CCC[C@@H](C)c1ccc(C)cc1
REMARK SMILES IDX 6 1 7 2 8 3 9 4 13 5 12 6 11 7 14 8 10 9 15 10 5 11 4 12
REMARK SMILES IDX 2 13 1 14 3 15
REMARK H PARENT
REMARK Flexibility Score: inf
ROOT
ATOM      1  C   UNL     1       5.617  -5.580   6.345  1.00  0.00     0.012 C 
ENDROOT
BRANCH   1   2
ATOM      2  C   UNL     1       6.212  -4.156   6.347  1.00  0.00     0.016 C 
ATOM      3  C   UNL     1       7.684  -4.180   5.916  1.00  0.00     0.013 C 
BRANCH   2   4
ATOM      4  C   UNL     1       5.414  -3.203   5.473  1.00  0.00    -0.045 A 
ATOM      5  C   UNL     1       3.184  -0.475   2.975  1.00  0.00     0.044 C 
ATOM      6  C   UNL     1       3.960  -1.401   3.864  1.00  0.00    -0.051 A 
ATOM      7  C   UNL     1       5.357  -1.473   3.762  1.00  0.00     0.004 A 
ATOM      8  C   UNL     1       3.291  -2.250   4.756  1.00  0.00     0.004 A 
ATOM      9  C   UNL     1       6.079  -2.362   4.563  1.00  0.00     0.004 A 
ATOM     10  C   UNL     1       4.011  -3.139   5.559  1.00  0.00     0.004 A 
ENDBRANCH   2   4
ENDBRANCH   1   2
BRANCH   1  11
ATOM     11  C   UNL     1       5.098  -5.994   7.731  1.00  0.00     0.028 C 
BRANCH  11  12
ATOM     12  C   UNL     1       5.310  -4.886   8.732  1.00  0.00    -0.028 C 
ATOM     13  C   UNL     1       4.324  -4.105   9.228  1.00  0.00    -0.080 C 
ATOM     14  C   UNL     1       2.875  -4.312   8.854  1.00  0.00     0.039 C 
ATOM     15  C   UNL     1       4.693  -3.009  10.193  1.00  0.00     0.039 C 
ENDBRANCH  11  12
ENDBRANCH   1  11
TORSDOF 4
ENDMDL
MODEL 4
REMARK VINA RESULT:    -2.579      2.172      4.461
REMARK INTER + INTRA:          -4.740
REMARK INTER:                  -3.232
REMARK INTRA:                  -1.509
REMARK UNBOUND:                -1.559
REMARK SMILES CC(C)=CCC[C@@H](C)c1ccc(C)cc1
REMARK SMILES IDX 6 1 7 2 8 3 9 4 13 5 12 6 11 7 14 8 10 9 15 10 5 11 4 12
REMARK SMILES IDX 2 13 1 14 3 15
REMARK H PARENT
REMARK Flexibility Score: inf
ROOT
ATOM      1  C   UNL     1       3.468  -0.700   3.553  1.00  0.00     0.012 C 
ENDROOT
BRANCH   1   2
ATOM      2  C   UNL     1       4.344  -1.947   3.797  1.00  0.00     0.016 C 
ATOM      3  C   UNL     1       5.817  -1.643   3.500  1.00  0.00     0.013 C 
BRANCH   2   4
ATOM      4  C   UNL     1       4.183  -2.490   5.207  1.00  0.00    -0.045 A 
ATOM      5  C   UNL     1       3.761  -4.057   9.209  1.00  0.00     0.044 C 
ATOM      6  C   UNL     1       3.894  -3.538   7.808  1.00  0.00    -0.051 A 
ATOM      7  C   UNL     1       5.068  -3.771   7.077  1.00  0.00     0.004 A 
ATOM      8  C   UNL     1       2.875  -2.759   7.244  1.00  0.00     0.004 A 
ATOM      9  C   UNL     1       5.209  -3.257   5.785  1.00  0.00     0.004 A 
ATOM     10  C   UNL     1       3.014  -2.244   5.951  1.00  0.00     0.004 A 
ENDBRANCH   2   4
ENDBRANCH   1   2
BRANCH   1  11
ATOM     11  C   UNL     1       4.220   0.605   3.856  1.00  0.00     0.028 C 
BRANCH  11  12
ATOM     12  C   UNL     1       3.632   1.292   5.063  1.00  0.00    -0.028 C 
ATOM     13  C   UNL     1       4.166   1.247   6.304  1.00  0.00    -0.080 C 
ATOM     14  C   UNL     1       5.464   0.530   6.591  1.00  0.00     0.039 C 
ATOM     15  C   UNL     1       3.443   1.951   7.423  1.00  0.00     0.039 C 
ENDBRANCH  11  12
ENDBRANCH   1  11
TORSDOF 4
ENDMDL
MODEL 5
REMARK VINA RESULT:    -2.547      5.653      8.500
REMARK INTER + INTRA:          -4.702
REMARK INTER:                  -3.281
REMARK INTRA:                  -1.421
REMARK UNBOUND:                -1.559
REMARK SMILES CC(C)=CCC[C@@H](C)c1ccc(C)cc1
REMARK SMILES IDX 6 1 7 2 8 3 9 4 13 5 12 6 11 7 14 8 10 9 15 10 5 11 4 12
REMARK SMILES IDX 2 13 1 14 3 15
REMARK H PARENT
REMARK Flexibility Score: inf
ROOT
ATOM      1  C   UNL     1       9.010  -3.867   3.176  1.00  0.00     0.012 C 
ENDROOT
BRANCH   1   2
ATOM      2  C   UNL     1      10.356  -3.171   2.882  1.00  0.00     0.016 C 
ATOM      3  C   UNL     1      10.340  -1.722   3.387  1.00  0.00     0.013 C 
BRANCH   2   4
ATOM      4  C   UNL     1      11.532  -3.930   3.472  1.00  0.00    -0.045 A 
ATOM      5  C   UNL     1      14.850  -6.125   5.155  1.00  0.00     0.044 C 
ATOM      6  C   UNL     1      13.686  -5.358   4.599  1.00  0.00    -0.051 A 
ATOM      7  C   UNL     1      12.514  -6.027   4.220  1.00  0.00     0.004 A 
ATOM      8  C   UNL     1      13.787  -3.975   4.390  1.00  0.00     0.004 A 
ATOM      9  C   UNL     1      11.444  -5.320   3.667  1.00  0.00     0.004 A 
ATOM     10  C   UNL     1      12.717  -3.265   3.838  1.00  0.00     0.004 A 
ENDBRANCH   2   4
ENDBRANCH   1   2
BRANCH   1  11
ATOM     11  C   UNL     1       8.275  -3.229   4.365  1.00  0.00     0.028 C 
BRANCH  11  12
ATOM     12  C   UNL     1       8.080  -4.233   5.473  1.00  0.00    -0.028 C 
ATOM     13  C   UNL     1       8.915  -4.381   6.525  1.00  0.00    -0.080 C 
ATOM     14  C   UNL     1      10.122  -3.495   6.720  1.00  0.00     0.039 C 
ATOM     15  C   UNL     1       8.613  -5.457   7.536  1.00  0.00     0.039 C 
ENDBRANCH  11  12
ENDBRANCH   1  11
TORSDOF 4
ENDMDL
MODEL 6
REMARK VINA RESULT:    -2.536      3.135      4.935
REMARK INTER + INTRA:          -4.688
REMARK INTER:                  -3.852
REMARK INTRA:                  -0.836
REMARK UNBOUND:                -1.559
REMARK SMILES CC(C)=CCC[C@@H](C)c1ccc(C)cc1
REMARK SMILES IDX 6 1 7 2 8 3 9 4 13 5 12 6 11 7 14 8 10 9 15 10 5 11 4 12
REMARK SMILES IDX 2 13 1 14 3 15
REMARK H PARENT
REMARK Flexibility Score: inf
ROOT
ATOM      1  C   UNL     1       3.288  -2.547  11.219  1.00  0.00     0.012 C 
ENDROOT
BRANCH   1   2
ATOM      2  C   UNL     1       4.565  -3.237  11.744  1.00  0.00     0.016 C 
ATOM      3  C   UNL     1       5.723  -2.237  11.843  1.00  0.00     0.013 C 
BRANCH   2   4
ATOM      4  C   UNL     1       4.334  -3.922  13.081  1.00  0.00    -0.045 A 
ATOM      5  C   UNL     1       3.641  -5.844  16.886  1.00  0.00     0.044 C 
ATOM      6  C   UNL     1       3.893  -5.152  15.579  1.00  0.00    -0.051 A 
ATOM      7  C   UNL     1       2.887  -4.378  14.984  1.00  0.00     0.004 A 
ATOM      8  C   UNL     1       5.112  -5.329  14.910  1.00  0.00     0.004 A 
ATOM      9  C   UNL     1       3.107  -3.763  13.748  1.00  0.00     0.004 A 
ATOM     10  C   UNL     1       5.334  -4.714  13.674  1.00  0.00     0.004 A 
ENDBRANCH   2   4
ENDBRANCH   1   2
BRANCH   1  11
ATOM     11  C   UNL     1       2.967  -2.947   9.770  1.00  0.00     0.028 C 
BRANCH  11  12
ATOM     12  C   UNL     1       3.569  -4.290   9.442  1.00  0.00    -0.028 C 
ATOM     13  C   UNL     1       4.313  -4.546   8.343  1.00  0.00    -0.080 C 
ATOM     14  C   UNL     1       4.662  -3.467   7.344  1.00  0.00     0.039 C 
ATOM     15  C   UNL     1       4.815  -5.950   8.126  1.00  0.00     0.039 C 
ENDBRANCH  11  12
ENDBRANCH   1  11
TORSDOF 4
ENDMDL
MODEL 7
REMARK VINA RESULT:    -2.494      1.593      5.333
REMARK INTER + INTRA:          -4.636
REMARK INTER:                  -3.065
REMARK INTRA:                  -1.571
REMARK UNBOUND:                -1.559
REMARK SMILES CC(C)=CCC[C@@H](C)c1ccc(C)cc1
REMARK SMILES IDX 6 1 7 2 8 3 9 4 13 5 12 6 11 7 14 8 10 9 15 10 5 11 4 12
REMARK SMILES IDX 2 13 1 14 3 15
REMARK H PARENT
REMARK Flexibility Score: inf
ROOT
ATOM      1  C   UNL     1       3.287  -3.019  11.696  1.00  0.00     0.012 C 
ENDROOT
BRANCH   1   2
ATOM      2  C   UNL     1       2.875  -2.652  10.255  1.00  0.00     0.016 C 
ATOM      3  C   UNL     1       2.959  -1.136  10.034  1.00  0.00     0.013 C 
BRANCH   2   4
ATOM      4  C   UNL     1       3.706  -3.390   9.218  1.00  0.00    -0.045 A 
ATOM      5  C   UNL     1       6.071  -5.450   6.249  1.00  0.00     0.044 C 
ATOM      6  C   UNL     1       5.225  -4.738   7.263  1.00  0.00    -0.051 A 
ATOM      7  C   UNL     1       5.108  -3.341   7.230  1.00  0.00     0.004 A 
ATOM      8  C   UNL     1       4.600  -5.457   8.291  1.00  0.00     0.004 A 
ATOM      9  C   UNL     1       4.350  -2.673   8.195  1.00  0.00     0.004 A 
ATOM     10  C   UNL     1       3.841  -4.790   9.257  1.00  0.00     0.004 A 
ENDBRANCH   2   4
ENDBRANCH   1   2
BRANCH   1  11
ATOM     11  C   UNL     1       4.718  -2.563  12.024  1.00  0.00     0.028 C 
BRANCH  11  12
ATOM     12  C   UNL     1       5.588  -3.745  12.371  1.00  0.00    -0.028 C 
ATOM     13  C   UNL     1       6.673  -4.129  11.664  1.00  0.00    -0.080 C 
ATOM     14  C   UNL     1       7.158  -3.357  10.459  1.00  0.00     0.039 C 
ATOM     15  C   UNL     1       7.423  -5.358  12.109  1.00  0.00     0.039 C 
ENDBRANCH  11  12
ENDBRANCH   1  11
TORSDOF 4
ENDMDL
MODEL 8
REMARK VINA RESULT:    -2.494      1.581      5.339
REMARK INTER + INTRA:          -4.636
REMARK INTER:                  -3.532
REMARK INTRA:                  -1.104
REMARK UNBOUND:                -1.559
REMARK SMILES CC(C)=CCC[C@@H](C)c1ccc(C)cc1
REMARK SMILES IDX 6 1 7 2 8 3 9 4 13 5 12 6 11 7 14 8 10 9 15 10 5 11 4 12
REMARK SMILES IDX 2 13 1 14 3 15
REMARK H PARENT
REMARK Flexibility Score: inf
ROOT
ATOM      1  C   UNL     1       3.703  -1.385   6.752  1.00  0.00     0.012 C 
ENDROOT
BRANCH   1   2
ATOM      2  C   UNL     1       3.768  -2.558   5.751  1.00  0.00     0.016 C 
ATOM      3  C   UNL     1       3.256  -2.125   4.372  1.00  0.00     0.013 C 
BRANCH   2   4
ATOM      4  C   UNL     1       5.167  -3.140   5.644  1.00  0.00    -0.045 A 
ATOM      5  C   UNL     1       9.136  -4.822   5.371  1.00  0.00     0.044 C 
ATOM      6  C   UNL     1       7.766  -4.221   5.490  1.00  0.00    -0.051 A 
ATOM      7  C   UNL     1       6.770  -4.875   6.230  1.00  0.00     0.004 A 
ATOM      8  C   UNL     1       7.452  -3.038   4.808  1.00  0.00     0.004 A 
ATOM      9  C   UNL     1       5.483  -4.336   6.311  1.00  0.00     0.004 A 
ATOM     10  C   UNL     1       6.166  -2.497   4.889  1.00  0.00     0.004 A 
ENDBRANCH   2   4
ENDBRANCH   1   2
BRANCH   1  11
ATOM     11  C   UNL     1       2.875  -1.732   7.999  1.00  0.00     0.028 C 
BRANCH  11  12
ATOM     12  C   UNL     1       3.765  -2.241   9.106  1.00  0.00    -0.028 C 
ATOM     13  C   UNL     1       3.801  -3.524   9.527  1.00  0.00    -0.080 C 
ATOM     14  C   UNL     1       2.972  -4.605   8.875  1.00  0.00     0.039 C 
ATOM     15  C   UNL     1       4.713  -3.878  10.674  1.00  0.00     0.039 C 
ENDBRANCH  11  12
ENDBRANCH   1  11
TORSDOF 4
ENDMDL
MODEL 9
REMARK VINA RESULT:    -2.481      1.749      5.602
REMARK INTER + INTRA:          -4.620
REMARK INTER:                  -3.997
REMARK INTRA:                  -0.624
REMARK UNBOUND:                -1.559
REMARK SMILES CC(C)=CCC[C@@H](C)c1ccc(C)cc1
REMARK SMILES IDX 6 1 7 2 8 3 9 4 13 5 12 6 11 7 14 8 10 9 15 10 5 11 4 12
REMARK SMILES IDX 2 13 1 14 3 15
REMARK H PARENT
REMARK Flexibility Score: inf
ROOT
ATOM      1  C   UNL     1       3.458  -3.310   9.807  1.00  0.00     0.012 C 
ENDROOT
BRANCH   1   2
ATOM      2  C   UNL     1       4.480  -3.682   8.711  1.00  0.00     0.016 C 
ATOM      3  C   UNL     1       4.597  -5.205   8.570  1.00  0.00     0.013 C 
BRANCH   2   4
ATOM      4  C   UNL     1       4.137  -3.046   7.374  1.00  0.00    -0.045 A 
ATOM      5  C   UNL     1       3.131  -1.216   3.593  1.00  0.00     0.044 C 
ATOM      6  C   UNL     1       3.458  -1.872   4.902  1.00  0.00    -0.051 A 
ATOM      7  C   UNL     1       2.876  -1.408   6.090  1.00  0.00     0.004 A 
ATOM      8  C   UNL     1       4.400  -2.909   4.957  1.00  0.00     0.004 A 
ATOM      9  C   UNL     1       3.207  -1.993   7.315  1.00  0.00     0.004 A 
ATOM     10  C   UNL     1       4.732  -3.496   6.181  1.00  0.00     0.004 A 
ENDBRANCH   2   4
ENDBRANCH   1   2
BRANCH   1  11
ATOM     11  C   UNL     1       4.126  -2.641  11.018  1.00  0.00     0.028 C 
BRANCH  11  12
ATOM     12  C   UNL     1       3.626  -3.247  12.306  1.00  0.00    -0.028 C 
ATOM     13  C   UNL     1       4.386  -3.976  13.153  1.00  0.00    -0.080 C 
ATOM     14  C   UNL     1       5.857  -4.212  12.907  1.00  0.00     0.039 C 
ATOM     15  C   UNL     1       3.736  -4.554  14.384  1.00  0.00     0.039 C 
ENDBRANCH  11  12
ENDBRANCH   1  11
TORSDOF 4
ENDMDL
