MODEL 1
REMARK VINA RESULT:    -6.219      0.000      0.000
REMARK INTER + INTRA:          -6.401
REMARK INTER:                  -6.401
REMARK INTRA:                   0.000
REMARK UNBOUND:                 0.000
REMARK SMILES C[C@H]1CC[C@H]2C(C)(C)[C@@H]3C[C@]12CC[C@@]3(C)O
REMARK SMILES IDX 1 1 2 2 3 3 4 4 5 5 11 6 12 7 13 8 14 9 9 10 10 11 6 12 7 13
REMARK SMILES IDX 8 14 15 15 16 16
REMARK H PARENT 16 17
REMARK Flexibility Score: inf
ROOT
ATOM      1  C   UNL     1     181.547 175.958 182.155  1.00  0.00     0.008 C 
ATOM      2  C   UNL     1     182.214 176.779 183.267  1.00  0.00    -0.008 C 
ATOM      3  C   UNL     1     183.644 177.283 182.881  1.00  0.00     0.004 C 
ATOM      4  C   UNL     1     183.823 178.680 183.544  1.00  0.00     0.005 C 
ATOM      5  C   UNL     1     182.632 178.725 184.476  1.00  0.00     0.001 C 
ATOM      6  C   UNL     1     181.502 178.087 183.680  1.00  0.00    -0.023 C 
ATOM      7  C   UNL     1     180.991 178.864 182.402  1.00  0.00     0.010 C 
ATOM      8  C   UNL     1     180.354 180.254 182.622  1.00  0.00     0.036 C 
ATOM      9  C   UNL     1     179.696 180.449 184.013  1.00  0.00     0.065 C 
ATOM     10  C   UNL     1     180.473 179.643 185.117  1.00  0.00     0.027 C 
ATOM     11  C   UNL     1     180.403 178.131 184.723  1.00  0.00     0.014 C 
ATOM     12  C   UNL     1     182.033 179.915 185.268  1.00  0.00    -0.026 C 
ATOM     13  C   UNL     1     182.631 181.267 184.820  1.00  0.00     0.012 C 
ATOM     14  C   UNL     1     182.382 179.788 186.779  1.00  0.00     0.012 C 
ATOM     15  C   UNL     1     179.576 181.958 184.343  1.00  0.00     0.042 C 
ENDROOT
BRANCH   9  16
ATOM     16  O   UNL     1     178.381 179.943 183.924  1.00  0.00    -0.390 OA
ATOM     17  H   UNL     1     177.763 180.614 184.318  1.00  0.00     0.211 HD
ENDBRANCH   9  16
TORSDOF 1
ENDMDL
MODEL 2
REMARK VINA RESULT:    -6.191      1.588      3.906
REMARK INTER + INTRA:          -6.372
REMARK INTER:                  -6.372
REMARK INTRA:                   0.000
REMARK UNBOUND:                 0.000
REMARK SMILES C[C@H]1CC[C@H]2C(C)(C)[C@@H]3C[C@]12CC[C@@]3(C)O
REMARK SMILES IDX 1 1 2 2 3 3 4 4 5 5 11 6 12 7 13 8 14 9 9 10 10 11 6 12 7 13
REMARK SMILES IDX 8 14 15 15 16 16
REMARK H PARENT 16 17
REMARK Flexibility Score: inf
ROOT
ATOM      1  C   UNL     1     178.580 182.615 182.635  1.00  0.00     0.008 C 
ATOM      2  C   UNL     1     179.160 181.197 182.529  1.00  0.00    -0.008 C 
ATOM      3  C   UNL     1     180.105 181.014 181.296  1.00  0.00     0.004 C 
ATOM      4  C   UNL     1     181.226 180.027 181.731  1.00  0.00     0.005 C 
ATOM      5  C   UNL     1     180.677 179.507 183.042  1.00  0.00     0.001 C 
ATOM      6  C   UNL     1     180.050 180.727 183.701  1.00  0.00    -0.023 C 
ATOM      7  C   UNL     1     181.027 181.886 184.152  1.00  0.00     0.010 C 
ATOM      8  C   UNL     1     182.071 181.553 185.241  1.00  0.00     0.036 C 
ATOM      9  C   UNL     1     181.653 180.415 186.208  1.00  0.00     0.065 C 
ATOM     10  C   UNL     1     180.771 179.346 185.467  1.00  0.00     0.027 C 
ATOM     11  C   UNL     1     179.489 180.078 184.951  1.00  0.00     0.014 C 
ATOM     12  C   UNL     1     181.371 178.679 184.152  1.00  0.00    -0.026 C 
ATOM     13  C   UNL     1     182.901 178.606 183.949  1.00  0.00     0.012 C 
ATOM     14  C   UNL     1     180.877 177.204 184.114  1.00  0.00     0.012 C 
ATOM     15  C   UNL     1     182.904 179.799 186.884  1.00  0.00     0.042 C 
ENDROOT
BRANCH   9  16
ATOM     16  O   UNL     1     180.882 181.005 187.233  1.00  0.00    -0.390 OA
ATOM     17  H   UNL     1     180.868 180.383 188.008  1.00  0.00     0.211 HD
ENDBRANCH   9  16
TORSDOF 1
ENDMDL
MODEL 3
REMARK VINA RESULT:    -5.794      1.598      4.113
REMARK INTER + INTRA:          -5.963
REMARK INTER:                  -5.963
REMARK INTRA:                   0.000
REMARK UNBOUND:                 0.000
REMARK SMILES C[C@H]1CC[C@H]2C(C)(C)[C@@H]3C[C@]12CC[C@@]3(C)O
REMARK SMILES IDX 1 1 2 2 3 3 4 4 5 5 11 6 12 7 13 8 14 9 9 10 10 11 6 12 7 13
REMARK SMILES IDX 8 14 15 15 16 16
REMARK H PARENT 16 17
REMARK Flexibility Score: inf
ROOT
ATOM      1  C   UNL     1     182.753 179.833 187.833  1.00  0.00     0.008 C 
ATOM      2  C   UNL     1     181.877 180.482 186.752  1.00  0.00    -0.008 C 
ATOM      3  C   UNL     1     182.454 181.840 186.232  1.00  0.00     0.004 C 
ATOM      4  C   UNL     1     182.099 181.929 184.719  1.00  0.00     0.005 C 
ATOM      5  C   UNL     1     181.115 180.788 184.573  1.00  0.00     0.001 C 
ATOM      6  C   UNL     1     181.687 179.680 185.445  1.00  0.00    -0.023 C 
ATOM      7  C   UNL     1     183.058 179.036 184.989  1.00  0.00     0.010 C 
ATOM      8  C   UNL     1     183.077 178.291 183.635  1.00  0.00     0.036 C 
ATOM      9  C   UNL     1     181.712 177.692 183.209  1.00  0.00     0.065 C 
ATOM     10  C   UNL     1     180.525 178.593 183.709  1.00  0.00     0.027 C 
ATOM     11  C   UNL     1     180.601 178.637 185.270  1.00  0.00     0.014 C 
ATOM     12  C   UNL     1     180.540 180.129 183.295  1.00  0.00    -0.026 C 
ATOM     13  C   UNL     1     181.291 180.581 182.022  1.00  0.00     0.012 C 
ATOM     14  C   UNL     1     179.062 180.566 183.081  1.00  0.00     0.012 C 
ATOM     15  C   UNL     1     181.685 177.456 181.678  1.00  0.00     0.042 C 
ENDROOT
BRANCH   9  16
ATOM     16  O   UNL     1     181.607 176.424 183.820  1.00  0.00    -0.390 OA
ATOM     17  H   UNL     1     181.015 175.857 183.258  1.00  0.00     0.211 HD
ENDBRANCH   9  16
TORSDOF 1
ENDMDL
MODEL 4
REMARK VINA RESULT:    -5.788      1.900      3.212
REMARK INTER + INTRA:          -5.958
REMARK INTER:                  -5.958
REMARK INTRA:                   0.000
REMARK UNBOUND:                 0.000
REMARK SMILES C[C@H]1CC[C@H]2C(C)(C)[C@@H]3C[C@]12CC[C@@]3(C)O
REMARK SMILES IDX 1 1 2 2 3 3 4 4 5 5 11 6 12 7 13 8 14 9 9 10 10 11 6 12 7 13
REMARK SMILES IDX 8 14 15 15 16 16
REMARK H PARENT 16 17
REMARK Flexibility Score: inf
ROOT
ATOM      1  C   UNL     1     180.875 177.370 184.484  1.00  0.00     0.008 C 
ATOM      2  C   UNL     1     180.563 178.755 185.069  1.00  0.00    -0.008 C 
ATOM      3  C   UNL     1     181.663 179.264 186.057  1.00  0.00     0.004 C 
ATOM      4  C   UNL     1     181.751 180.807 185.877  1.00  0.00     0.005 C 
ATOM      5  C   UNL     1     180.518 181.083 185.043  1.00  0.00     0.001 C 
ATOM      6  C   UNL     1     180.456 179.921 184.062  1.00  0.00    -0.023 C 
ATOM      7  C   UNL     1     181.608 179.825 182.982  1.00  0.00     0.010 C 
ATOM      8  C   UNL     1     181.724 180.978 181.961  1.00  0.00     0.036 C 
ATOM      9  C   UNL     1     180.392 181.717 181.669  1.00  0.00     0.065 C 
ATOM     10  C   UNL     1     179.480 181.752 182.949  1.00  0.00     0.027 C 
ATOM     11  C   UNL     1     179.170 180.270 183.340  1.00  0.00     0.014 C 
ATOM     12  C   UNL     1     180.100 182.364 184.280  1.00  0.00    -0.026 C 
ATOM     13  C   UNL     1     181.253 183.390 184.197  1.00  0.00     0.012 C 
ATOM     14  C   UNL     1     178.951 183.092 185.036  1.00  0.00     0.012 C 
ATOM     15  C   UNL     1     180.675 183.127 181.093  1.00  0.00     0.042 C 
ENDROOT
BRANCH   9  16
ATOM     16  O   UNL     1     179.727 180.988 180.659  1.00  0.00    -0.390 OA
ATOM     17  H   UNL     1     179.616 181.582 179.870  1.00  0.00     0.211 HD
ENDBRANCH   9  16
TORSDOF 1
ENDMDL
MODEL 5
REMARK VINA RESULT:    -5.737      2.090      4.770
REMARK INTER + INTRA:          -5.905
REMARK INTER:                  -5.905
REMARK INTRA:                   0.000
REMARK UNBOUND:                 0.000
REMARK SMILES C[C@H]1CC[C@H]2C(C)(C)[C@@H]3C[C@]12CC[C@@]3(C)O
REMARK SMILES IDX 1 1 2 2 3 3 4 4 5 5 11 6 12 7 13 8 14 9 9 10 10 11 6 12 7 13
REMARK SMILES IDX 8 14 15 15 16 16
REMARK H PARENT 16 17
REMARK Flexibility Score: inf
ROOT
ATOM      1  C   UNL     1     177.586 183.983 182.819  1.00  0.00     0.008 C 
ATOM      2  C   UNL     1     178.799 183.241 182.239  1.00  0.00    -0.008 C 
ATOM      3  C   UNL     1     180.014 184.183 181.954  1.00  0.00     0.004 C 
ATOM      4  C   UNL     1     181.301 183.358 182.245  1.00  0.00     0.005 C 
ATOM      5  C   UNL     1     180.738 181.960 182.379  1.00  0.00     0.001 C 
ATOM      6  C   UNL     1     179.429 182.148 183.132  1.00  0.00    -0.023 C 
ATOM      7  C   UNL     1     179.522 182.645 184.630  1.00  0.00     0.010 C 
ATOM      8  C   UNL     1     180.234 181.721 185.643  1.00  0.00     0.036 C 
ATOM      9  C   UNL     1     180.185 180.213 185.286  1.00  0.00     0.065 C 
ATOM     10  C   UNL     1     180.207 180.007 183.727  1.00  0.00     0.027 C 
ATOM     11  C   UNL     1     178.939 180.714 183.147  1.00  0.00     0.014 C 
ATOM     12  C   UNL     1     181.405 180.667 182.913  1.00  0.00    -0.026 C 
ATOM     13  C   UNL     1     182.751 180.956 183.614  1.00  0.00     0.012 C 
ATOM     14  C   UNL     1     181.748 179.710 181.735  1.00  0.00     0.012 C 
ATOM     15  C   UNL     1     181.324 179.453 186.010  1.00  0.00     0.042 C 
ENDROOT
BRANCH   9  16
ATOM     16  O   UNL     1     178.968 179.707 185.791  1.00  0.00    -0.390 OA
ATOM     17  H   UNL     1     178.230 180.287 185.463  1.00  0.00     0.211 HD
ENDBRANCH   9  16
TORSDOF 1
ENDMDL
MODEL 6
REMARK VINA RESULT:    -5.654      1.710      2.730
REMARK INTER + INTRA:          -5.819
REMARK INTER:                  -5.819
REMARK INTRA:                   0.000
REMARK UNBOUND:                 0.000
REMARK SMILES C[C@H]1CC[C@H]2C(C)(C)[C@@H]3C[C@]12CC[C@@]3(C)O
REMARK SMILES IDX 1 1 2 2 3 3 4 4 5 5 11 6 12 7 13 8 14 9 9 10 10 11 6 12 7 13
REMARK SMILES IDX 8 14 15 15 16 16
REMARK H PARENT 16 17
REMARK Flexibility Score: inf
ROOT
ATOM      1  C   UNL     1     182.370 175.832 183.034  1.00  0.00     0.008 C 
ATOM      2  C   UNL     1     182.505 177.294 182.586  1.00  0.00    -0.008 C 
ATOM      3  C   UNL     1     181.532 177.670 181.420  1.00  0.00     0.004 C 
ATOM      4  C   UNL     1     181.108 179.149 181.649  1.00  0.00     0.005 C 
ATOM      5  C   UNL     1     182.081 179.579 182.725  1.00  0.00     0.001 C 
ATOM      6  C   UNL     1     182.186 178.372 183.646  1.00  0.00    -0.023 C 
ATOM      7  C   UNL     1     180.893 177.974 184.465  1.00  0.00     0.010 C 
ATOM      8  C   UNL     1     180.360 178.997 185.493  1.00  0.00     0.036 C 
ATOM      9  C   UNL     1     181.439 179.943 186.080  1.00  0.00     0.065 C 
ATOM     10  C   UNL     1     182.551 180.254 185.013  1.00  0.00     0.027 C 
ATOM     11  C   UNL     1     183.217 178.893 184.627  1.00  0.00     0.014 C 
ATOM     12  C   UNL     1     182.084 180.848 183.613  1.00  0.00    -0.026 C 
ATOM     13  C   UNL     1     180.756 181.632 183.508  1.00  0.00     0.012 C 
ATOM     14  C   UNL     1     183.188 181.837 183.138  1.00  0.00     0.012 C 
ATOM     15  C   UNL     1     180.777 181.223 186.650  1.00  0.00     0.042 C 
ENDROOT
BRANCH   9  16
ATOM     16  O   UNL     1     182.033 179.269 187.169  1.00  0.00    -0.390 OA
ATOM     17  H   UNL     1     181.824 178.301 187.086  1.00  0.00     0.211 HD
ENDBRANCH   9  16
TORSDOF 1
ENDMDL
MODEL 7
REMARK VINA RESULT:    -5.589      1.726      3.198
REMARK INTER + INTRA:          -5.752
REMARK INTER:                  -5.752
REMARK INTRA:                   0.000
REMARK UNBOUND:                 0.000
REMARK SMILES C[C@H]1CC[C@H]2C(C)(C)[C@@H]3C[C@]12CC[C@@]3(C)O
REMARK SMILES IDX 1 1 2 2 3 3 4 4 5 5 11 6 12 7 13 8 14 9 9 10 10 11 6 12 7 13
REMARK SMILES IDX 8 14 15 15 16 16
REMARK H PARENT 16 17
REMARK Flexibility Score: inf
ROOT
ATOM      1  C   UNL     1     180.506 182.044 180.360  1.00  0.00     0.008 C 
ATOM      2  C   UNL     1     180.877 180.739 181.079  1.00  0.00    -0.008 C 
ATOM      3  C   UNL     1     182.378 180.343 180.893  1.00  0.00     0.004 C 
ATOM      4  C   UNL     1     182.833 179.667 182.219  1.00  0.00     0.005 C 
ATOM      5  C   UNL     1     181.509 179.466 182.924  1.00  0.00     0.001 C 
ATOM      6  C   UNL     1     180.720 180.731 182.617  1.00  0.00    -0.023 C 
ATOM      7  C   UNL     1     181.256 182.085 183.233  1.00  0.00     0.010 C 
ATOM      8  C   UNL     1     181.282 182.204 184.773  1.00  0.00     0.036 C 
ATOM      9  C   UNL     1     180.226 181.336 185.505  1.00  0.00     0.065 C 
ATOM     10  C   UNL     1     179.961 179.999 184.722  1.00  0.00     0.027 C 
ATOM     11  C   UNL     1     179.416 180.388 183.309  1.00  0.00     0.014 C 
ATOM     12  C   UNL     1     181.215 179.075 184.394  1.00  0.00    -0.026 C 
ATOM     13  C   UNL     1     182.481 179.146 185.276  1.00  0.00     0.012 C 
ATOM     14  C   UNL     1     180.736 177.597 184.474  1.00  0.00     0.012 C 
ATOM     15  C   UNL     1     180.653 181.098 186.975  1.00  0.00     0.042 C 
ENDROOT
BRANCH   9  16
ATOM     16  O   UNL     1     179.029 182.083 185.542  1.00  0.00    -0.390 OA
ATOM     17  H   UNL     1     178.278 181.479 185.299  1.00  0.00     0.211 HD
ENDBRANCH   9  16
TORSDOF 1
ENDMDL
MODEL 8
REMARK VINA RESULT:    -5.583      2.509      4.202
REMARK INTER + INTRA:          -5.747
REMARK INTER:                  -5.747
REMARK INTRA:                   0.000
REMARK UNBOUND:                 0.000
REMARK SMILES C[C@H]1CC[C@H]2C(C)(C)[C@@H]3C[C@]12CC[C@@]3(C)O
REMARK SMILES IDX 1 1 2 2 3 3 4 4 5 5 11 6 12 7 13 8 14 9 9 10 10 11 6 12 7 13
REMARK SMILES IDX 8 14 15 15 16 16
REMARK H PARENT 16 17
REMARK Flexibility Score: inf
ROOT
ATOM      1  C   UNL     1     182.007 179.847 187.093  1.00  0.00     0.008 C 
ATOM      2  C   UNL     1     181.714 179.653 185.598  1.00  0.00    -0.008 C 
ATOM      3  C   UNL     1     180.551 178.642 185.329  1.00  0.00     0.004 C 
ATOM      4  C   UNL     1     179.793 179.154 184.070  1.00  0.00     0.005 C 
ATOM      5  C   UNL     1     180.741 180.218 183.560  1.00  0.00     0.001 C 
ATOM      6  C   UNL     1     181.253 180.904 184.817  1.00  0.00    -0.023 C 
ATOM      7  C   UNL     1     180.206 181.731 185.668  1.00  0.00     0.010 C 
ATOM      8  C   UNL     1     179.551 182.956 184.993  1.00  0.00     0.036 C 
ATOM      9  C   UNL     1     180.414 183.622 183.889  1.00  0.00     0.065 C 
ATOM     10  C   UNL     1     181.281 182.550 183.134  1.00  0.00     0.027 C 
ATOM     11  C   UNL     1     182.223 181.886 184.191  1.00  0.00     0.014 C 
ATOM     12  C   UNL     1     180.521 181.312 182.485  1.00  0.00    -0.026 C 
ATOM     13  C   UNL     1     179.035 181.439 182.082  1.00  0.00     0.012 C 
ATOM     14  C   UNL     1     181.275 180.940 181.175  1.00  0.00     0.012 C 
ATOM     15  C   UNL     1     179.517 184.451 182.936  1.00  0.00     0.042 C 
ENDROOT
BRANCH   9  16
ATOM     16  O   UNL     1     181.279 184.532 184.533  1.00  0.00    -0.390 OA
ATOM     17  H   UNL     1     181.301 185.371 183.999  1.00  0.00     0.211 HD
ENDBRANCH   9  16
TORSDOF 1
ENDMDL
MODEL 9
REMARK VINA RESULT:    -5.440      2.115      4.923
REMARK INTER + INTRA:          -5.599
REMARK INTER:                  -5.599
REMARK INTRA:                   0.000
REMARK UNBOUND:                 0.000
REMARK SMILES C[C@H]1CC[C@H]2C(C)(C)[C@@H]3C[C@]12CC[C@@]3(C)O
REMARK SMILES IDX 1 1 2 2 3 3 4 4 5 5 11 6 12 7 13 8 14 9 9 10 10 11 6 12 7 13
REMARK SMILES IDX 8 14 15 15 16 16
REMARK H PARENT 16 17
REMARK Flexibility Score: inf
ROOT
ATOM      1  C   UNL     1     179.857 184.613 181.906  1.00  0.00     0.008 C 
ATOM      2  C   UNL     1     180.060 184.134 183.351  1.00  0.00    -0.008 C 
ATOM      3  C   UNL     1     178.813 184.388 184.261  1.00  0.00     0.004 C 
ATOM      4  C   UNL     1     178.740 183.201 185.265  1.00  0.00     0.005 C 
ATOM      5  C   UNL     1     180.085 182.542 185.050  1.00  0.00     0.001 C 
ATOM      6  C   UNL     1     180.312 182.622 183.547  1.00  0.00    -0.023 C 
ATOM      7  C   UNL     1     179.343 181.777 182.624  1.00  0.00     0.010 C 
ATOM      8  C   UNL     1     179.378 180.241 182.776  1.00  0.00     0.036 C 
ATOM      9  C   UNL     1     180.732 179.672 183.274  1.00  0.00     0.065 C 
ATOM     10  C   UNL     1     181.432 180.677 184.259  1.00  0.00     0.027 C 
ATOM     11  C   UNL     1     181.691 182.000 183.466  1.00  0.00     0.014 C 
ATOM     12  C   UNL     1     180.605 181.163 185.529  1.00  0.00    -0.026 C 
ATOM     13  C   UNL     1     179.470 180.282 186.097  1.00  0.00     0.012 C 
ATOM     14  C   UNL     1     181.614 181.344 186.699  1.00  0.00     0.012 C 
ATOM     15  C   UNL     1     180.528 178.267 183.894  1.00  0.00     0.042 C 
ENDROOT
BRANCH   9  16
ATOM     16  O   UNL     1     181.554 179.504 182.139  1.00  0.00    -0.390 OA
ATOM     17  H   UNL     1     181.492 178.555 181.849  1.00  0.00     0.211 HD
ENDBRANCH   9  16
TORSDOF 1
ENDMDL
