MODEL 1
REMARK VINA RESULT:    -6.936      0.000      0.000
REMARK INTER + INTRA:          -9.193
REMARK INTER:                  -8.761
REMARK INTRA:                  -0.432
REMARK UNBOUND:                -0.432
REMARK SMILES Oc1ccc(CCc2cc(O)cc(O)c2)cc1
REMARK SMILES IDX 6 1 5 2 4 3 3 4 2 5 16 6 17 7 1 8 7 10 8 11 15 12 9 13 13 14
REMARK SMILES IDX 10 15 12 16 14 17 11 19
REMARK H PARENT 1 9 14 18 11 20
REMARK Flexibility Score: inf
ROOT
ATOM      1  C   UNL     1      30.365  35.780  27.735  1.00  0.00     0.040 C 
ENDROOT
BRANCH   1   2
ATOM      2  C   UNL     1      30.830  37.211  27.759  1.00  0.00    -0.047 A 
ATOM      3  C   UNL     1      31.877  37.630  26.922  1.00  0.00     0.007 A 
ATOM      4  C   UNL     1      32.286  38.967  26.920  1.00  0.00     0.046 A 
ATOM      5  C   UNL     1      31.648  39.899  27.749  1.00  0.00     0.115 A 
ATOM      6  C   UNL     1      30.185  38.153  28.577  1.00  0.00     0.007 A 
ATOM      7  C   UNL     1      30.596  39.489  28.574  1.00  0.00     0.046 A 
BRANCH   5   8
ATOM      8  O   UNL     1      32.047  41.234  27.756  1.00  0.00    -0.508 OA
ATOM      9  H   UNL     1      32.976  41.507  28.056  1.00  0.00     0.293 HD
ENDBRANCH   5   8
ENDBRANCH   1   2
BRANCH   1  10
ATOM     10  C   UNL     1      29.553  35.499  26.467  1.00  0.00     0.040 C 
BRANCH  10  11
ATOM     11  C   UNL     1      28.488  36.546  26.278  1.00  0.00    -0.040 A 
ATOM     12  C   UNL     1      27.352  36.558  27.103  1.00  0.00     0.050 A 
ATOM     13  C   UNL     1      28.650  37.552  25.312  1.00  0.00     0.050 A 
ATOM     14  C   UNL     1      26.376  37.552  26.948  1.00  0.00     0.119 A 
ATOM     15  C   UNL     1      27.677  38.546  25.156  1.00  0.00     0.119 A 
ATOM     16  C   UNL     1      26.540  38.542  25.973  1.00  0.00     0.092 A 
BRANCH  14  17
ATOM     17  O   UNL     1      25.243  37.566  27.759  1.00  0.00    -0.508 OA
ATOM     18  H   UNL     1      25.289  37.309  28.738  1.00  0.00     0.293 HD
ENDBRANCH  14  17
BRANCH  15  19
ATOM     19  O   UNL     1      27.852  39.532  24.187  1.00  0.00    -0.508 OA
ATOM     20  H   UNL     1      27.289  39.552  23.345  1.00  0.00     0.293 HD
ENDBRANCH  15  19
ENDBRANCH  10  11
ENDBRANCH   1  10
TORSDOF 6
ENDMDL
MODEL 2
REMARK VINA RESULT:    -6.896      0.047      2.036
REMARK INTER + INTRA:          -9.142
REMARK INTER:                  -8.775
REMARK INTRA:                  -0.367
REMARK UNBOUND:                -0.432
REMARK SMILES Oc1ccc(CCc2cc(O)cc(O)c2)cc1
REMARK SMILES IDX 6 1 5 2 4 3 3 4 2 5 16 6 17 7 1 8 7 10 8 11 15 12 9 13 13 14
REMARK SMILES IDX 10 15 12 16 14 17 11 19
REMARK H PARENT 1 9 14 18 11 20
REMARK Flexibility Score: inf
ROOT
ATOM      1  C   UNL     1      30.428  35.775  27.736  1.00  0.00     0.040 C 
ENDROOT
BRANCH   1   2
ATOM      2  C   UNL     1      30.875  37.212  27.746  1.00  0.00    -0.047 A 
ATOM      3  C   UNL     1      31.914  37.636  26.902  1.00  0.00     0.007 A 
ATOM      4  C   UNL     1      32.306  38.978  26.887  1.00  0.00     0.046 A 
ATOM      5  C   UNL     1      31.658  39.909  27.708  1.00  0.00     0.115 A 
ATOM      6  C   UNL     1      30.220  38.152  28.557  1.00  0.00     0.007 A 
ATOM      7  C   UNL     1      30.613  39.493  28.540  1.00  0.00     0.046 A 
BRANCH   5   8
ATOM      8  O   UNL     1      32.040  41.249  27.703  1.00  0.00    -0.508 OA
ATOM      9  H   UNL     1      31.379  41.988  27.484  1.00  0.00     0.293 HD
ENDBRANCH   5   8
ENDBRANCH   1   2
BRANCH   1  10
ATOM     10  C   UNL     1      29.567  35.487  26.503  1.00  0.00     0.040 C 
BRANCH  10  11
ATOM     11  C   UNL     1      28.527  36.560  26.321  1.00  0.00    -0.040 A 
ATOM     12  C   UNL     1      28.677  37.529  25.316  1.00  0.00     0.050 A 
ATOM     13  C   UNL     1      27.372  36.567  27.119  1.00  0.00     0.050 A 
ATOM     14  C   UNL     1      27.693  38.509  25.126  1.00  0.00     0.119 A 
ATOM     15  C   UNL     1      26.388  37.545  26.931  1.00  0.00     0.119 A 
ATOM     16  C   UNL     1      26.552  38.515  25.935  1.00  0.00     0.092 A 
BRANCH  14  17
ATOM     17  O   UNL     1      27.838  39.477  24.134  1.00  0.00    -0.508 OA
ATOM     18  H   UNL     1      27.556  39.301  23.177  1.00  0.00     0.293 HD
ENDBRANCH  14  17
BRANCH  15  19
ATOM     19  O   UNL     1      25.251  37.539  27.737  1.00  0.00    -0.508 OA
ATOM     20  H   UNL     1      24.894  38.392  28.153  1.00  0.00     0.293 HD
ENDBRANCH  15  19
ENDBRANCH  10  11
ENDBRANCH   1  10
TORSDOF 6
ENDMDL
MODEL 3
REMARK VINA RESULT:    -6.540      2.232      3.334
REMARK INTER + INTRA:          -8.692
REMARK INTER:                  -8.230
REMARK INTRA:                  -0.462
REMARK UNBOUND:                -0.432
REMARK SMILES Oc1ccc(CCc2cc(O)cc(O)c2)cc1
REMARK SMILES IDX 6 1 5 2 4 3 3 4 2 5 16 6 17 7 1 8 7 10 8 11 15 12 9 13 13 14
REMARK SMILES IDX 10 15 12 16 14 17 11 19
REMARK H PARENT 1 9 14 18 11 20
REMARK Flexibility Score: inf
ROOT
ATOM      1  C   UNL     1      30.420  39.392  28.034  1.00  0.00     0.040 C 
ENDROOT
BRANCH   1   2
ATOM      2  C   UNL     1      30.856  38.684  26.779  1.00  0.00    -0.047 A 
ATOM      3  C   UNL     1      31.909  37.757  26.818  1.00  0.00     0.007 A 
ATOM      4  C   UNL     1      32.291  37.075  25.658  1.00  0.00     0.046 A 
ATOM      5  C   UNL     1      31.618  37.307  24.452  1.00  0.00     0.115 A 
ATOM      6  C   UNL     1      30.176  38.902  25.570  1.00  0.00     0.007 A 
ATOM      7  C   UNL     1      30.559  38.220  24.412  1.00  0.00     0.046 A 
BRANCH   5   8
ATOM      8  O   UNL     1      31.990  36.634  23.290  1.00  0.00    -0.508 OA
ATOM      9  H   UNL     1      32.713  35.924  23.298  1.00  0.00     0.293 HD
ENDBRANCH   5   8
ENDBRANCH   1   2
BRANCH   1  10
ATOM     10  C   UNL     1      29.620  38.447  28.935  1.00  0.00     0.040 C 
BRANCH  10  11
ATOM     11  C   UNL     1      28.512  37.787  28.159  1.00  0.00    -0.040 A 
ATOM     12  C   UNL     1      27.378  38.523  27.779  1.00  0.00     0.050 A 
ATOM     13  C   UNL     1      28.630  36.446  27.760  1.00  0.00     0.050 A 
ATOM     14  C   UNL     1      26.361  37.917  27.028  1.00  0.00     0.119 A 
ATOM     15  C   UNL     1      27.616  35.839  27.010  1.00  0.00     0.119 A 
ATOM     16  C   UNL     1      26.482  36.577  26.648  1.00  0.00     0.092 A 
BRANCH  14  17
ATOM     17  O   UNL     1      25.230  38.640  26.653  1.00  0.00    -0.508 OA
ATOM     18  H   UNL     1      24.297  38.268  26.784  1.00  0.00     0.293 HD
ENDBRANCH  14  17
BRANCH  15  19
ATOM     19  O   UNL     1      27.748  34.505  26.629  1.00  0.00    -0.508 OA
ATOM     20  H   UNL     1      27.004  33.835  26.785  1.00  0.00     0.293 HD
ENDBRANCH  15  19
ENDBRANCH  10  11
ENDBRANCH   1  10
TORSDOF 6
ENDMDL
MODEL 4
REMARK VINA RESULT:    -6.437      2.215      3.279
REMARK INTER + INTRA:          -8.562
REMARK INTER:                  -8.275
REMARK INTRA:                  -0.287
REMARK UNBOUND:                -0.432
REMARK SMILES Oc1ccc(CCc2cc(O)cc(O)c2)cc1
REMARK SMILES IDX 6 1 5 2 4 3 3 4 2 5 16 6 17 7 1 8 7 10 8 11 15 12 9 13 13 14
REMARK SMILES IDX 10 15 12 16 14 17 11 19
REMARK H PARENT 1 9 14 18 11 20
REMARK Flexibility Score: inf
ROOT
ATOM      1  C   UNL     1      30.501  39.489  28.071  1.00  0.00     0.040 C 
ENDROOT
BRANCH   1   2
ATOM      2  C   UNL     1      30.924  38.737  26.838  1.00  0.00    -0.047 A 
ATOM      3  C   UNL     1      31.981  37.814  26.900  1.00  0.00     0.007 A 
ATOM      4  C   UNL     1      32.352  37.091  25.762  1.00  0.00     0.046 A 
ATOM      5  C   UNL     1      31.664  37.277  24.555  1.00  0.00     0.115 A 
ATOM      6  C   UNL     1      30.230  38.908  25.630  1.00  0.00     0.007 A 
ATOM      7  C   UNL     1      30.603  38.185  24.494  1.00  0.00     0.046 A 
BRANCH   5   8
ATOM      8  O   UNL     1      32.025  36.562  23.415  1.00  0.00    -0.508 OA
ATOM      9  H   UNL     1      32.310  37.033  22.563  1.00  0.00     0.293 HD
ENDBRANCH   5   8
ENDBRANCH   1   2
BRANCH   1  10
ATOM     10  C   UNL     1      29.609  38.613  28.957  1.00  0.00     0.040 C 
BRANCH  10  11
ATOM     11  C   UNL     1      28.555  37.927  28.131  1.00  0.00    -0.040 A 
ATOM     12  C   UNL     1      28.682  36.566  27.808  1.00  0.00     0.050 A 
ATOM     13  C   UNL     1      27.407  38.627  27.726  1.00  0.00     0.050 A 
ATOM     14  C   UNL     1      27.684  35.919  27.067  1.00  0.00     0.119 A 
ATOM     15  C   UNL     1      26.409  37.983  26.985  1.00  0.00     0.119 A 
ATOM     16  C   UNL     1      26.552  36.629  26.656  1.00  0.00     0.092 A 
BRANCH  14  17
ATOM     17  O   UNL     1      27.807  34.570  26.737  1.00  0.00    -0.508 OA
ATOM     18  H   UNL     1      28.650  34.049  26.947  1.00  0.00     0.293 HD
ENDBRANCH  14  17
BRANCH  15  19
ATOM     19  O   UNL     1      25.281  38.697  26.587  1.00  0.00    -0.508 OA
ATOM     20  H   UNL     1      25.294  39.290  25.765  1.00  0.00     0.293 HD
ENDBRANCH  15  19
ENDBRANCH  10  11
ENDBRANCH   1  10
TORSDOF 6
ENDMDL
MODEL 5
REMARK VINA RESULT:    -6.420      2.186      3.354
REMARK INTER + INTRA:          -8.541
REMARK INTER:                  -8.549
REMARK INTRA:                   0.008
REMARK UNBOUND:                -0.432
REMARK SMILES Oc1ccc(CCc2cc(O)cc(O)c2)cc1
REMARK SMILES IDX 6 1 5 2 4 3 3 4 2 5 16 6 17 7 1 8 7 10 8 11 15 12 9 13 13 14
REMARK SMILES IDX 10 15 12 16 14 17 11 19
REMARK H PARENT 1 9 14 18 11 20
REMARK Flexibility Score: inf
ROOT
ATOM      1  C   UNL     1      30.137  38.006  24.745  1.00  0.00     0.040 C 
ENDROOT
BRANCH   1   2
ATOM      2  C   UNL     1      30.684  37.243  25.921  1.00  0.00    -0.047 A 
ATOM      3  C   UNL     1      31.784  37.742  26.638  1.00  0.00     0.007 A 
ATOM      4  C   UNL     1      32.271  37.050  27.752  1.00  0.00     0.046 A 
ATOM      5  C   UNL     1      31.657  35.860  28.164  1.00  0.00     0.115 A 
ATOM      6  C   UNL     1      30.065  36.057  26.347  1.00  0.00     0.007 A 
ATOM      7  C   UNL     1      30.554  35.367  27.460  1.00  0.00     0.046 A 
BRANCH   5   8
ATOM      8  O   UNL     1      32.134  35.161  29.272  1.00  0.00    -0.508 OA
ATOM      9  H   UNL     1      31.511  34.632  29.872  1.00  0.00     0.293 HD
ENDBRANCH   5   8
ENDBRANCH   1   2
BRANCH   1  10
ATOM     10  C   UNL     1      29.276  39.181  25.217  1.00  0.00     0.040 C 
BRANCH  10  11
ATOM     11  C   UNL     1      28.339  38.743  26.311  1.00  0.00    -0.040 A 
ATOM     12  C   UNL     1      27.096  38.172  25.993  1.00  0.00     0.050 A 
ATOM     13  C   UNL     1      28.724  38.849  27.657  1.00  0.00     0.050 A 
ATOM     14  C   UNL     1      26.237  37.734  27.011  1.00  0.00     0.119 A 
ATOM     15  C   UNL     1      27.868  38.413  28.675  1.00  0.00     0.119 A 
ATOM     16  C   UNL     1      26.625  37.858  28.349  1.00  0.00     0.092 A 
BRANCH  14  17
ATOM     17  O   UNL     1      24.999  37.173  26.702  1.00  0.00    -0.508 OA
ATOM     18  H   UNL     1      24.898  36.486  25.964  1.00  0.00     0.293 HD
ENDBRANCH  14  17
BRANCH  15  19
ATOM     19  O   UNL     1      28.266  38.534  30.005  1.00  0.00    -0.508 OA
ATOM     20  H   UNL     1      28.525  39.430  30.400  1.00  0.00     0.293 HD
ENDBRANCH  15  19
ENDBRANCH  10  11
ENDBRANCH   1  10
TORSDOF 6
ENDMDL
MODEL 6
REMARK VINA RESULT:    -6.381      2.203      3.357
REMARK INTER + INTRA:          -8.491
REMARK INTER:                  -8.495
REMARK INTRA:                   0.004
REMARK UNBOUND:                -0.432
REMARK SMILES Oc1ccc(CCc2cc(O)cc(O)c2)cc1
REMARK SMILES IDX 6 1 5 2 4 3 3 4 2 5 16 6 17 7 1 8 7 10 8 11 15 12 9 13 13 14
REMARK SMILES IDX 10 15 12 16 14 17 11 19
REMARK H PARENT 1 9 14 18 11 20
REMARK Flexibility Score: inf
ROOT
ATOM      1  C   UNL     1      30.184  38.007  24.724  1.00  0.00     0.040 C 
ENDROOT
BRANCH   1   2
ATOM      2  C   UNL     1      30.710  37.235  25.904  1.00  0.00    -0.047 A 
ATOM      3  C   UNL     1      31.800  37.724  26.641  1.00  0.00     0.007 A 
ATOM      4  C   UNL     1      32.268  37.024  27.758  1.00  0.00     0.046 A 
ATOM      5  C   UNL     1      31.643  35.833  28.152  1.00  0.00     0.115 A 
ATOM      6  C   UNL     1      30.080  36.049  26.313  1.00  0.00     0.007 A 
ATOM      7  C   UNL     1      30.548  35.350  27.429  1.00  0.00     0.046 A 
BRANCH   5   8
ATOM      8  O   UNL     1      32.100  35.126  29.263  1.00  0.00    -0.508 OA
ATOM      9  H   UNL     1      31.496  34.937  30.055  1.00  0.00     0.293 HD
ENDBRANCH   5   8
ENDBRANCH   1   2
BRANCH   1  10
ATOM     10  C   UNL     1      29.292  39.162  25.190  1.00  0.00     0.040 C 
BRANCH  10  11
ATOM     11  C   UNL     1      28.390  38.715  26.308  1.00  0.00    -0.040 A 
ATOM     12  C   UNL     1      28.766  38.918  27.646  1.00  0.00     0.050 A 
ATOM     13  C   UNL     1      27.139  38.144  26.022  1.00  0.00     0.050 A 
ATOM     14  C   UNL     1      27.910  38.531  28.687  1.00  0.00     0.119 A 
ATOM     15  C   UNL     1      26.284  37.757  27.060  1.00  0.00     0.119 A 
ATOM     16  C   UNL     1      26.673  37.950  28.392  1.00  0.00     0.092 A 
BRANCH  14  17
ATOM     17  O   UNL     1      28.280  38.723  30.017  1.00  0.00    -0.508 OA
ATOM     18  H   UNL     1      27.940  38.118  30.754  1.00  0.00     0.293 HD
ENDBRANCH  14  17
BRANCH  15  19
ATOM     19  O   UNL     1      25.050  37.186  26.757  1.00  0.00    -0.508 OA
ATOM     20  H   UNL     1      24.499  37.506  25.969  1.00  0.00     0.293 HD
ENDBRANCH  15  19
ENDBRANCH  10  11
ENDBRANCH   1  10
TORSDOF 6
ENDMDL
MODEL 7
REMARK VINA RESULT:    -6.346      1.463      2.017
REMARK INTER + INTRA:          -8.447
REMARK INTER:                  -9.329
REMARK INTRA:                   0.882
REMARK UNBOUND:                -0.432
REMARK SMILES Oc1ccc(CCc2cc(O)cc(O)c2)cc1
REMARK SMILES IDX 6 1 5 2 4 3 3 4 2 5 16 6 17 7 1 8 7 10 8 11 15 12 9 13 13 14
REMARK SMILES IDX 10 15 12 16 14 17 11 19
REMARK H PARENT 1 9 14 18 11 20
REMARK Flexibility Score: inf
ROOT
ATOM      1  C   UNL     1      29.545  34.511  26.479  1.00  0.00     0.040 C 
ENDROOT
BRANCH   1   2
ATOM      2  C   UNL     1      30.344  35.773  26.662  1.00  0.00    -0.047 A 
ATOM      3  C   UNL     1      30.796  36.146  27.938  1.00  0.00     0.007 A 
ATOM      4  C   UNL     1      31.567  37.302  28.103  1.00  0.00     0.046 A 
ATOM      5  C   UNL     1      31.899  38.089  26.993  1.00  0.00     0.115 A 
ATOM      6  C   UNL     1      30.692  36.559  25.552  1.00  0.00     0.007 A 
ATOM      7  C   UNL     1      31.462  37.713  25.719  1.00  0.00     0.046 A 
BRANCH   5   8
ATOM      8  O   UNL     1      32.666  39.243  27.144  1.00  0.00    -0.508 OA
ATOM      9  H   UNL     1      32.265  40.101  27.505  1.00  0.00     0.293 HD
ENDBRANCH   5   8
ENDBRANCH   1   2
BRANCH   1  10
ATOM     10  C   UNL     1      28.047  34.797  26.614  1.00  0.00     0.040 C 
BRANCH  10  11
ATOM     11  C   UNL     1      27.797  36.279  26.693  1.00  0.00    -0.040 A 
ATOM     12  C   UNL     1      27.721  36.919  27.941  1.00  0.00     0.050 A 
ATOM     13  C   UNL     1      27.694  37.042  25.519  1.00  0.00     0.050 A 
ATOM     14  C   UNL     1      27.520  38.305  28.013  1.00  0.00     0.119 A 
ATOM     15  C   UNL     1      27.493  38.425  25.589  1.00  0.00     0.119 A 
ATOM     16  C   UNL     1      27.405  39.054  26.838  1.00  0.00     0.092 A 
BRANCH  14  17
ATOM     17  O   UNL     1      27.438  38.945  29.248  1.00  0.00    -0.508 OA
ATOM     18  H   UNL     1      27.198  38.440  30.092  1.00  0.00     0.293 HD
ENDBRANCH  14  17
BRANCH  15  19
ATOM     19  O   UNL     1      27.387  39.165  24.413  1.00  0.00    -0.508 OA
ATOM     20  H   UNL     1      26.729  39.930  24.327  1.00  0.00     0.293 HD
ENDBRANCH  15  19
ENDBRANCH  10  11
ENDBRANCH   1  10
TORSDOF 6
ENDMDL
MODEL 8
REMARK VINA RESULT:    -6.342      1.580      4.833
REMARK INTER + INTRA:          -8.443
REMARK INTER:                  -8.434
REMARK INTRA:                  -0.009
REMARK UNBOUND:                -0.432
REMARK SMILES Oc1ccc(CCc2cc(O)cc(O)c2)cc1
REMARK SMILES IDX 6 1 5 2 4 3 3 4 2 5 16 6 17 7 1 8 7 10 8 11 15 12 9 13 13 14
REMARK SMILES IDX 10 15 12 16 14 17 11 19
REMARK H PARENT 1 9 14 18 11 20
REMARK Flexibility Score: inf
ROOT
ATOM      1  C   UNL     1      29.052  36.179  26.166  1.00  0.00     0.040 C 
ENDROOT
BRANCH   1   2
ATOM      2  C   UNL     1      28.431  37.512  25.850  1.00  0.00    -0.047 A 
ATOM      3  C   UNL     1      27.494  38.082  26.728  1.00  0.00     0.007 A 
ATOM      4  C   UNL     1      26.942  39.337  26.451  1.00  0.00     0.046 A 
ATOM      5  C   UNL     1      27.327  40.036  25.300  1.00  0.00     0.115 A 
ATOM      6  C   UNL     1      28.823  38.224  24.706  1.00  0.00     0.007 A 
ATOM      7  C   UNL     1      28.270  39.478  24.430  1.00  0.00     0.046 A 
BRANCH   5   8
ATOM      8  O   UNL     1      26.783  41.287  25.013  1.00  0.00    -0.508 OA
ATOM      9  H   UNL     1      27.235  41.925  24.367  1.00  0.00     0.293 HD
ENDBRANCH   5   8
ENDBRANCH   1   2
BRANCH   1  10
ATOM     10  C   UNL     1      30.502  36.356  26.629  1.00  0.00     0.040 C 
BRANCH  10  11
ATOM     11  C   UNL     1      30.634  37.582  27.493  1.00  0.00    -0.040 A 
ATOM     12  C   UNL     1      31.310  38.716  27.014  1.00  0.00     0.050 A 
ATOM     13  C   UNL     1      30.034  37.621  28.762  1.00  0.00     0.050 A 
ATOM     14  C   UNL     1      31.405  39.869  27.806  1.00  0.00     0.119 A 
ATOM     15  C   UNL     1      30.128  38.771  29.554  1.00  0.00     0.119 A 
ATOM     16  C   UNL     1      30.816  39.892  29.074  1.00  0.00     0.092 A 
BRANCH  14  17
ATOM     17  O   UNL     1      32.079  40.996  27.340  1.00  0.00    -0.508 OA
ATOM     18  H   UNL     1      32.454  41.690  27.975  1.00  0.00     0.293 HD
ENDBRANCH  14  17
BRANCH  15  19
ATOM     19  O   UNL     1      29.532  38.788  30.814  1.00  0.00    -0.508 OA
ATOM     20  H   UNL     1      29.941  38.295  31.599  1.00  0.00     0.293 HD
ENDBRANCH  15  19
ENDBRANCH  10  11
ENDBRANCH   1  10
TORSDOF 6
ENDMDL
MODEL 9
REMARK VINA RESULT:    -6.160      2.230      4.976
REMARK INTER + INTRA:          -8.212
REMARK INTER:                  -8.492
REMARK INTRA:                   0.280
REMARK UNBOUND:                -0.432
REMARK SMILES Oc1ccc(CCc2cc(O)cc(O)c2)cc1
REMARK SMILES IDX 6 1 5 2 4 3 3 4 2 5 16 6 17 7 1 8 7 10 8 11 15 12 9 13 13 14
REMARK SMILES IDX 10 15 12 16 14 17 11 19
REMARK H PARENT 1 9 14 18 11 20
REMARK Flexibility Score: inf
ROOT
ATOM      1  C   UNL     1      27.730  39.255  25.478  1.00  0.00     0.040 C 
ENDROOT
BRANCH   1   2
ATOM      2  C   UNL     1      27.510  38.744  26.877  1.00  0.00    -0.047 A 
ATOM      3  C   UNL     1      26.594  37.708  27.116  1.00  0.00     0.007 A 
ATOM      4  C   UNL     1      26.414  37.211  28.411  1.00  0.00     0.046 A 
ATOM      5  C   UNL     1      27.155  37.740  29.476  1.00  0.00     0.115 A 
ATOM      6  C   UNL     1      28.260  39.260  27.946  1.00  0.00     0.007 A 
ATOM      7  C   UNL     1      28.079  38.763  29.239  1.00  0.00     0.046 A 
BRANCH   5   8
ATOM      8  O   UNL     1      26.985  37.253  30.771  1.00  0.00    -0.508 OA
ATOM      9  H   UNL     1      27.437  37.692  31.565  1.00  0.00     0.293 HD
ENDBRANCH   5   8
ENDBRANCH   1   2
BRANCH   1  10
ATOM     10  C   UNL     1      28.784  38.410  24.756  1.00  0.00     0.040 C 
BRANCH  10  11
ATOM     11  C   UNL     1      29.862  37.977  25.714  1.00  0.00    -0.040 A 
ATOM     12  C   UNL     1      30.888  38.865  26.075  1.00  0.00     0.050 A 
ATOM     13  C   UNL     1      29.818  36.701  26.297  1.00  0.00     0.050 A 
ATOM     14  C   UNL     1      31.873  38.473  26.992  1.00  0.00     0.119 A 
ATOM     15  C   UNL     1      30.800  36.307  27.213  1.00  0.00     0.119 A 
ATOM     16  C   UNL     1      31.828  37.194  27.557  1.00  0.00     0.092 A 
BRANCH  14  17
ATOM     17  O   UNL     1      32.897  39.347  27.349  1.00  0.00    -0.508 OA
ATOM     18  H   UNL     1      32.740  40.112  27.995  1.00  0.00     0.293 HD
ENDBRANCH  14  17
BRANCH  15  19
ATOM     19  O   UNL     1      30.743  35.034  27.776  1.00  0.00    -0.508 OA
ATOM     20  H   UNL     1      29.985  34.761  28.392  1.00  0.00     0.293 HD
ENDBRANCH  15  19
ENDBRANCH  10  11
ENDBRANCH   1  10
TORSDOF 6
ENDMDL
