MODEL 1
REMARK VINA RESULT:    -3.959      0.000      0.000
REMARK INTER + INTRA:         -12.800
REMARK INTER:                  -9.977
REMARK INTRA:                  -2.823
REMARK UNBOUND:                -2.823
REMARK SMILES CCCCCCCCCCCCCCCCCCCCCCCCCCCC(=O)[O-]
REMARK SMILES IDX 15 1 16 2 17 3 18 4 19 5 20 6 21 7 22 8 23 9 24 10 25 11
REMARK SMILES IDX 26 12 27 13 28 14 29 15 30 16 14 17 13 18 12 19 11 20 10 21
REMARK SMILES IDX 9 22 8 23 7 24 6 25 5 26 4 27 3 28 2 29 1 30
REMARK H PARENT
REMARK Flexibility Score: inf
ROOT
ATOM      1  C   UNL     1     -25.292 -10.365  42.205  1.00  0.00     0.000 C 
ENDROOT
BRANCH   1   2
ATOM      2  C   UNL     1     -25.983  -9.731  43.431  1.00  0.00     0.000 C 
BRANCH   2   3
ATOM      3  C   UNL     1     -26.187 -10.677  44.635  1.00  0.00     0.000 C 
BRANCH   3   4
ATOM      4  C   UNL     1     -25.851 -12.153  44.346  1.00  0.00     0.000 C 
BRANCH   4   5
ATOM      5  C   UNL     1     -26.871 -13.178  44.872  1.00  0.00     0.000 C 
BRANCH   5   6
ATOM      6  C   UNL     1     -28.281 -13.076  44.258  1.00  0.00     0.000 C 
BRANCH   6   7
ATOM      7  C   UNL     1     -29.339 -13.948  44.965  1.00  0.00     0.000 C 
BRANCH   7   8
ATOM      8  C   UNL     1     -28.784 -14.656  46.215  1.00  0.00     0.000 C 
BRANCH   8   9
ATOM      9  C   UNL     1     -29.877 -14.985  47.242  1.00  0.00     0.000 C 
BRANCH   9  10
ATOM     10  C   UNL     1     -29.307 -15.561  48.551  1.00  0.00     0.000 C 
BRANCH  10  11
ATOM     11  C   UNL     1     -27.784 -15.371  48.677  1.00  0.00     0.000 C 
BRANCH  11  12
ATOM     12  C   UNL     1     -27.325 -14.660  49.964  1.00  0.00     0.006 C 
BRANCH  12  13
ATOM     13  C   UNL     1     -27.326 -13.130  49.839  1.00  0.00     0.053 C 
BRANCH  13  14
ATOM     14  C   UNL     1     -28.416 -12.520  50.669  1.00  0.00     0.041 C 
ATOM     15  O   UNL     1     -29.588 -12.442  50.212  1.00  0.00    -0.550 OA
ATOM     16  O   UNL     1     -28.156 -12.094  51.968  1.00  0.00    -0.550 OA
ENDBRANCH  13  14
ENDBRANCH  12  13
ENDBRANCH  11  12
ENDBRANCH  10  11
ENDBRANCH   9  10
ENDBRANCH   8   9
ENDBRANCH   7   8
ENDBRANCH   6   7
ENDBRANCH   5   6
ENDBRANCH   4   5
ENDBRANCH   3   4
ENDBRANCH   2   3
ENDBRANCH   1   2
BRANCH   1  17
ATOM     17  C   UNL     1     -25.392  -9.574  40.887  1.00  0.00     0.000 C 
BRANCH  17  18
ATOM     18  C   UNL     1     -24.109  -9.628  40.042  1.00  0.00     0.000 C 
BRANCH  18  19
ATOM     19  C   UNL     1     -23.642 -11.066  39.750  1.00  0.00     0.000 C 
BRANCH  19  20
ATOM     20  C   UNL     1     -22.230 -11.195  39.142  1.00  0.00     0.000 C 
BRANCH  20  21
ATOM     21  C   UNL     1     -21.074 -11.043  40.148  1.00  0.00     0.000 C 
BRANCH  21  22
ATOM     22  C   UNL     1     -19.671 -11.227  39.542  1.00  0.00    -0.000 C 
BRANCH  22  23
ATOM     23  C   UNL     1     -19.584 -12.396  38.537  1.00  0.00    -0.000 C 
BRANCH  23  24
ATOM     24  C   UNL     1     -19.329 -13.746  39.231  1.00  0.00    -0.000 C 
BRANCH  24  25
ATOM     25  C   UNL     1     -20.483 -14.739  39.032  1.00  0.00    -0.000 C 
BRANCH  25  26
ATOM     26  C   UNL     1     -20.558 -15.791  40.154  1.00  0.00    -0.000 C 
BRANCH  26  27
ATOM     27  C   UNL     1     -21.263 -15.262  41.415  1.00  0.00    -0.000 C 
BRANCH  27  28
ATOM     28  C   UNL     1     -22.464 -14.337  41.141  1.00  0.00    -0.000 C 
BRANCH  28  29
ATOM     29  C   UNL     1     -23.403 -14.160  42.354  1.00  0.00    -0.003 C 
ATOM     30  C   UNL     1     -23.035 -15.084  43.514  1.00  0.00     0.004 C 
ENDBRANCH  28  29
ENDBRANCH  27  28
ENDBRANCH  26  27
ENDBRANCH  25  26
ENDBRANCH  24  25
ENDBRANCH  23  24
ENDBRANCH  22  23
ENDBRANCH  21  22
ENDBRANCH  20  21
ENDBRANCH  19  20
ENDBRANCH  18  19
ENDBRANCH  17  18
ENDBRANCH   1  17
TORSDOF 26
ENDMDL
MODEL 2
REMARK VINA RESULT:    -3.954      9.653     12.467
REMARK INTER + INTRA:         -12.786
REMARK INTER:                 -11.185
REMARK INTRA:                  -1.601
REMARK UNBOUND:                -2.823
REMARK SMILES CCCCCCCCCCCCCCCCCCCCCCCCCCCC(=O)[O-]
REMARK SMILES IDX 15 1 16 2 17 3 18 4 19 5 20 6 21 7 22 8 23 9 24 10 25 11
REMARK SMILES IDX 26 12 27 13 28 14 29 15 30 16 14 17 13 18 12 19 11 20 10 21
REMARK SMILES IDX 9 22 8 23 7 24 6 25 5 26 4 27 3 28 2 29 1 30
REMARK H PARENT
REMARK Flexibility Score: inf
ROOT
ATOM      1  C   UNL     1     -26.463 -11.313  33.144  1.00  0.00     0.000 C 
ENDROOT
BRANCH   1   2
ATOM      2  C   UNL     1     -27.674 -11.738  34.002  1.00  0.00     0.000 C 
BRANCH   2   3
ATOM      3  C   UNL     1     -28.219 -10.651  34.956  1.00  0.00     0.000 C 
BRANCH   3   4
ATOM      4  C   UNL     1     -28.533  -9.306  34.272  1.00  0.00     0.000 C 
BRANCH   4   5
ATOM      5  C   UNL     1     -30.025  -9.021  34.032  1.00  0.00     0.000 C 
BRANCH   5   6
ATOM      6  C   UNL     1     -30.325  -7.903  33.012  1.00  0.00     0.000 C 
BRANCH   6   7
ATOM      7  C   UNL     1     -31.734  -7.292  33.147  1.00  0.00     0.000 C 
BRANCH   7   8
ATOM      8  C   UNL     1     -32.816  -8.351  33.428  1.00  0.00     0.000 C 
BRANCH   8   9
ATOM      9  C   UNL     1     -34.046  -8.196  32.522  1.00  0.00     0.000 C 
BRANCH   9  10
ATOM     10  C   UNL     1     -35.140  -7.316  33.153  1.00  0.00     0.000 C 
BRANCH  10  11
ATOM     11  C   UNL     1     -36.352  -7.107  32.226  1.00  0.00     0.000 C 
BRANCH  11  12
ATOM     12  C   UNL     1     -37.723  -7.219  32.917  1.00  0.00     0.006 C 
BRANCH  12  13
ATOM     13  C   UNL     1     -38.405  -5.860  33.125  1.00  0.00     0.053 C 
BRANCH  13  14
ATOM     14  C   UNL     1     -38.610  -5.575  34.584  1.00  0.00     0.041 C 
ATOM     15  O   UNL     1     -38.750  -4.388  34.981  1.00  0.00    -0.550 OA
ATOM     16  O   UNL     1     -38.708  -6.620  35.497  1.00  0.00    -0.550 OA
ENDBRANCH  13  14
ENDBRANCH  12  13
ENDBRANCH  11  12
ENDBRANCH  10  11
ENDBRANCH   9  10
ENDBRANCH   8   9
ENDBRANCH   7   8
ENDBRANCH   6   7
ENDBRANCH   5   6
ENDBRANCH   4   5
ENDBRANCH   3   4
ENDBRANCH   2   3
ENDBRANCH   1   2
BRANCH   1  17
ATOM     17  C   UNL     1     -25.079 -11.472  33.802  1.00  0.00     0.000 C 
BRANCH  17  18
ATOM     18  C   UNL     1     -23.929 -11.584  32.787  1.00  0.00     0.000 C 
BRANCH  18  19
ATOM     19  C   UNL     1     -24.050 -12.819  31.875  1.00  0.00     0.000 C 
BRANCH  19  20
ATOM     20  C   UNL     1     -22.999 -13.924  32.110  1.00  0.00     0.000 C 
BRANCH  20  21
ATOM     21  C   UNL     1     -21.656 -13.432  32.679  1.00  0.00     0.000 C 
BRANCH  21  22
ATOM     22  C   UNL     1     -21.233 -14.109  33.996  1.00  0.00    -0.000 C 
BRANCH  22  23
ATOM     23  C   UNL     1     -20.940 -13.108  35.135  1.00  0.00    -0.000 C 
BRANCH  23  24
ATOM     24  C   UNL     1     -22.225 -12.508  35.732  1.00  0.00    -0.000 C 
BRANCH  24  25
ATOM     25  C   UNL     1     -22.411 -12.868  37.214  1.00  0.00    -0.000 C 
BRANCH  25  26
ATOM     26  C   UNL     1     -21.494 -14.020  37.661  1.00  0.00    -0.000 C 
BRANCH  26  27
ATOM     27  C   UNL     1     -22.164 -14.943  38.693  1.00  0.00    -0.000 C 
BRANCH  27  28
ATOM     28  C   UNL     1     -23.299 -14.288  39.502  1.00  0.00    -0.000 C 
BRANCH  28  29
ATOM     29  C   UNL     1     -22.805 -13.466  40.712  1.00  0.00    -0.003 C 
ATOM     30  C   UNL     1     -23.030 -14.190  42.039  1.00  0.00     0.004 C 
ENDBRANCH  28  29
ENDBRANCH  27  28
ENDBRANCH  26  27
ENDBRANCH  25  26
ENDBRANCH  24  25
ENDBRANCH  23  24
ENDBRANCH  22  23
ENDBRANCH  21  22
ENDBRANCH  20  21
ENDBRANCH  19  20
ENDBRANCH  18  19
ENDBRANCH  17  18
ENDBRANCH   1  17
TORSDOF 26
ENDMDL
MODEL 3
REMARK VINA RESULT:    -3.954      2.375      4.947
REMARK INTER + INTRA:         -12.786
REMARK INTER:                  -9.313
REMARK INTRA:                  -3.473
REMARK UNBOUND:                -2.823
REMARK SMILES CCCCCCCCCCCCCCCCCCCCCCCCCCCC(=O)[O-]
REMARK SMILES IDX 15 1 16 2 17 3 18 4 19 5 20 6 21 7 22 8 23 9 24 10 25 11
REMARK SMILES IDX 26 12 27 13 28 14 29 15 30 16 14 17 13 18 12 19 11 20 10 21
REMARK SMILES IDX 9 22 8 23 7 24 6 25 5 26 4 27 3 28 2 29 1 30
REMARK H PARENT
REMARK Flexibility Score: inf
ROOT
ATOM      1  C   UNL     1     -24.916 -13.103  46.908  1.00  0.00     0.000 C 
ENDROOT
BRANCH   1   2
ATOM      2  C   UNL     1     -25.798 -13.726  48.012  1.00  0.00     0.000 C 
BRANCH   2   3
ATOM      3  C   UNL     1     -25.347 -13.432  49.460  1.00  0.00     0.000 C 
BRANCH   3   4
ATOM      4  C   UNL     1     -25.820 -12.071  50.008  1.00  0.00     0.000 C 
BRANCH   4   5
ATOM      5  C   UNL     1     -26.677 -12.137  51.284  1.00  0.00     0.000 C 
BRANCH   5   6
ATOM      6  C   UNL     1     -28.155 -11.733  51.104  1.00  0.00     0.000 C 
BRANCH   6   7
ATOM      7  C   UNL     1     -28.987 -12.743  50.288  1.00  0.00     0.000 C 
BRANCH   7   8
ATOM      8  C   UNL     1     -28.766 -14.198  50.743  1.00  0.00     0.000 C 
BRANCH   8   9
ATOM      9  C   UNL     1     -29.009 -15.214  49.617  1.00  0.00     0.000 C 
BRANCH   9  10
ATOM     10  C   UNL     1     -29.415 -14.545  48.292  1.00  0.00     0.000 C 
BRANCH  10  11
ATOM     11  C   UNL     1     -28.689 -15.142  47.072  1.00  0.00     0.000 C 
BRANCH  11  12
ATOM     12  C   UNL     1     -29.429 -14.971  45.732  1.00  0.00     0.006 C 
BRANCH  12  13
ATOM     13  C   UNL     1     -28.992 -13.718  44.959  1.00  0.00     0.053 C 
BRANCH  13  14
ATOM     14  C   UNL     1     -30.177 -12.984  44.404  1.00  0.00     0.041 C 
ATOM     15  O   UNL     1     -30.416 -13.017  43.168  1.00  0.00    -0.550 OA
ATOM     16  O   UNL     1     -31.051 -12.315  45.255  1.00  0.00    -0.550 OA
ENDBRANCH  13  14
ENDBRANCH  12  13
ENDBRANCH  11  12
ENDBRANCH  10  11
ENDBRANCH   9  10
ENDBRANCH   8   9
ENDBRANCH   7   8
ENDBRANCH   6   7
ENDBRANCH   5   6
ENDBRANCH   4   5
ENDBRANCH   3   4
ENDBRANCH   2   3
ENDBRANCH   1   2
BRANCH   1  17
ATOM     17  C   UNL     1     -25.665 -12.431  45.741  1.00  0.00     0.000 C 
BRANCH  17  18
ATOM     18  C   UNL     1     -25.584 -13.222  44.426  1.00  0.00     0.000 C 
BRANCH  18  19
ATOM     19  C   UNL     1     -24.250 -13.971  44.256  1.00  0.00     0.000 C 
BRANCH  19  20
ATOM     20  C   UNL     1     -23.882 -14.353  42.807  1.00  0.00     0.000 C 
BRANCH  20  21
ATOM     21  C   UNL     1     -22.505 -15.020  42.641  1.00  0.00     0.000 C 
BRANCH  21  22
ATOM     22  C   UNL     1     -21.320 -14.038  42.597  1.00  0.00    -0.000 C 
BRANCH  22  23
ATOM     23  C   UNL     1     -20.374 -14.270  41.399  1.00  0.00    -0.000 C 
BRANCH  23  24
ATOM     24  C   UNL     1     -20.912 -15.334  40.426  1.00  0.00    -0.000 C 
BRANCH  24  25
ATOM     25  C   UNL     1     -21.256 -14.752  39.046  1.00  0.00    -0.000 C 
BRANCH  25  26
ATOM     26  C   UNL     1     -22.667 -15.147  38.575  1.00  0.00    -0.000 C 
BRANCH  26  27
ATOM     27  C   UNL     1     -23.755 -14.193  39.097  1.00  0.00    -0.000 C 
BRANCH  27  28
ATOM     28  C   UNL     1     -23.509 -12.704  38.785  1.00  0.00    -0.000 C 
BRANCH  28  29
ATOM     29  C   UNL     1     -23.084 -11.873  40.015  1.00  0.00    -0.003 C 
ATOM     30  C   UNL     1     -21.721 -11.207  39.825  1.00  0.00     0.004 C 
ENDBRANCH  28  29
ENDBRANCH  27  28
ENDBRANCH  26  27
ENDBRANCH  25  26
ENDBRANCH  24  25
ENDBRANCH  23  24
ENDBRANCH  22  23
ENDBRANCH  21  22
ENDBRANCH  20  21
ENDBRANCH  19  20
ENDBRANCH  18  19
ENDBRANCH  17  18
ENDBRANCH   1  17
TORSDOF 26
ENDMDL
MODEL 4
REMARK VINA RESULT:    -3.929      2.937      9.474
REMARK INTER + INTRA:         -12.723
REMARK INTER:                  -9.696
REMARK INTRA:                  -3.027
REMARK UNBOUND:                -2.823
REMARK SMILES CCCCCCCCCCCCCCCCCCCCCCCCCCCC(=O)[O-]
REMARK SMILES IDX 15 1 16 2 17 3 18 4 19 5 20 6 21 7 22 8 23 9 24 10 25 11
REMARK SMILES IDX 26 12 27 13 28 14 29 15 30 16 14 17 13 18 12 19 11 20 10 21
REMARK SMILES IDX 9 22 8 23 7 24 6 25 5 26 4 27 3 28 2 29 1 30
REMARK H PARENT
REMARK Flexibility Score: inf
ROOT
ATOM      1  C   UNL     1     -25.939  -9.775  43.734  1.00  0.00     0.000 C 
ENDROOT
BRANCH   1   2
ATOM      2  C   UNL     1     -25.473 -10.334  42.372  1.00  0.00     0.000 C 
BRANCH   2   3
ATOM      3  C   UNL     1     -25.704  -9.401  41.163  1.00  0.00     0.000 C 
BRANCH   3   4
ATOM      4  C   UNL     1     -24.558  -9.402  40.133  1.00  0.00     0.000 C 
BRANCH   4   5
ATOM      5  C   UNL     1     -23.669 -10.658  40.136  1.00  0.00     0.000 C 
BRANCH   5   6
ATOM      6  C   UNL     1     -22.475 -10.620  39.161  1.00  0.00     0.000 C 
BRANCH   6   7
ATOM      7  C   UNL     1     -21.217 -11.346  39.680  1.00  0.00     0.000 C 
BRANCH   7   8
ATOM      8  C   UNL     1     -20.534 -12.200  38.596  1.00  0.00     0.000 C 
BRANCH   8   9
ATOM      9  C   UNL     1     -21.533 -12.785  37.587  1.00  0.00     0.000 C 
BRANCH   9  10
ATOM     10  C   UNL     1     -21.822 -14.276  37.834  1.00  0.00     0.000 C 
BRANCH  10  11
ATOM     11  C   UNL     1     -22.813 -14.512  38.988  1.00  0.00     0.000 C 
BRANCH  11  12
ATOM     12  C   UNL     1     -22.161 -14.850  40.342  1.00  0.00     0.006 C 
BRANCH  12  13
ATOM     13  C   UNL     1     -22.865 -14.181  41.532  1.00  0.00     0.053 C 
BRANCH  13  14
ATOM     14  C   UNL     1     -22.704 -14.994  42.782  1.00  0.00     0.041 C 
ATOM     15  O   UNL     1     -21.855 -15.925  42.825  1.00  0.00    -0.550 OA
ATOM     16  O   UNL     1     -23.445 -14.689  43.919  1.00  0.00    -0.550 OA
ENDBRANCH  13  14
ENDBRANCH  12  13
ENDBRANCH  11  12
ENDBRANCH  10  11
ENDBRANCH   9  10
ENDBRANCH   8   9
ENDBRANCH   7   8
ENDBRANCH   6   7
ENDBRANCH   5   6
ENDBRANCH   4   5
ENDBRANCH   3   4
ENDBRANCH   2   3
ENDBRANCH   1   2
BRANCH   1  17
ATOM     17  C   UNL     1     -25.974 -10.779  44.902  1.00  0.00     0.000 C 
BRANCH  17  18
ATOM     18  C   UNL     1     -25.781 -12.239  44.459  1.00  0.00     0.000 C 
BRANCH  18  19
ATOM     19  C   UNL     1     -26.834 -13.192  45.055  1.00  0.00     0.000 C 
BRANCH  19  20
ATOM     20  C   UNL     1     -28.213 -13.175  44.362  1.00  0.00     0.000 C 
BRANCH  20  21
ATOM     21  C   UNL     1     -29.228 -14.192  44.912  1.00  0.00     0.000 C 
BRANCH  21  22
ATOM     22  C   UNL     1     -28.891 -14.739  46.312  1.00  0.00    -0.000 C 
BRANCH  22  23
ATOM     23  C   UNL     1     -30.111 -14.807  47.255  1.00  0.00    -0.000 C 
BRANCH  23  24
ATOM     24  C   UNL     1     -29.713 -14.686  48.737  1.00  0.00    -0.000 C 
BRANCH  24  25
ATOM     25  C   UNL     1     -28.407 -15.428  49.059  1.00  0.00    -0.000 C 
BRANCH  25  26
ATOM     26  C   UNL     1     -27.552 -14.691  50.106  1.00  0.00    -0.000 C 
BRANCH  26  27
ATOM     27  C   UNL     1     -26.124 -14.406  49.610  1.00  0.00    -0.000 C 
BRANCH  27  28
ATOM     28  C   UNL     1     -26.037 -13.404  48.443  1.00  0.00    -0.000 C 
BRANCH  28  29
ATOM     29  C   UNL     1     -24.663 -12.709  48.321  1.00  0.00    -0.003 C 
ATOM     30  C   UNL     1     -23.721 -13.444  47.368  1.00  0.00     0.004 C 
ENDBRANCH  28  29
ENDBRANCH  27  28
ENDBRANCH  26  27
ENDBRANCH  25  26
ENDBRANCH  24  25
ENDBRANCH  23  24
ENDBRANCH  22  23
ENDBRANCH  21  22
ENDBRANCH  20  21
ENDBRANCH  19  20
ENDBRANCH  18  19
ENDBRANCH  17  18
ENDBRANCH   1  17
TORSDOF 26
ENDMDL
MODEL 5
REMARK VINA RESULT:    -3.902      2.253      5.423
REMARK INTER + INTRA:         -12.656
REMARK INTER:                  -8.672
REMARK INTRA:                  -3.985
REMARK UNBOUND:                -2.823
REMARK SMILES CCCCCCCCCCCCCCCCCCCCCCCCCCCC(=O)[O-]
REMARK SMILES IDX 15 1 16 2 17 3 18 4 19 5 20 6 21 7 22 8 23 9 24 10 25 11
REMARK SMILES IDX 26 12 27 13 28 14 29 15 30 16 14 17 13 18 12 19 11 20 10 21
REMARK SMILES IDX 9 22 8 23 7 24 6 25 5 26 4 27 3 28 2 29 1 30
REMARK H PARENT
REMARK Flexibility Score: inf
ROOT
ATOM      1  C   UNL     1     -25.982 -12.260  45.012  1.00  0.00     0.000 C 
ENDROOT
BRANCH   1   2
ATOM      2  C   UNL     1     -26.941 -13.412  44.642  1.00  0.00     0.000 C 
BRANCH   2   3
ATOM      3  C   UNL     1     -28.377 -12.980  44.269  1.00  0.00     0.000 C 
BRANCH   3   4
ATOM      4  C   UNL     1     -29.483 -13.866  44.876  1.00  0.00     0.000 C 
BRANCH   4   5
ATOM      5  C   UNL     1     -29.062 -14.705  46.094  1.00  0.00     0.000 C 
BRANCH   5   6
ATOM      6  C   UNL     1     -30.039 -14.667  47.287  1.00  0.00     0.000 C 
BRANCH   6   7
ATOM      7  C   UNL     1     -29.749 -15.727  48.370  1.00  0.00     0.000 C 
BRANCH   7   8
ATOM      8  C   UNL     1     -28.246 -16.030  48.516  1.00  0.00     0.000 C 
BRANCH   8   9
ATOM      9  C   UNL     1     -27.778 -16.011  49.978  1.00  0.00     0.000 C 
BRANCH   9  10
ATOM     10  C   UNL     1     -28.947 -15.926  50.975  1.00  0.00     0.000 C 
BRANCH  10  11
ATOM     11  C   UNL     1     -28.951 -14.617  51.787  1.00  0.00     0.000 C 
BRANCH  11  12
ATOM     12  C   UNL     1     -28.121 -13.474  51.173  1.00  0.00     0.006 C 
BRANCH  12  13
ATOM     13  C   UNL     1     -28.962 -12.506  50.329  1.00  0.00     0.053 C 
BRANCH  13  14
ATOM     14  C   UNL     1     -29.000 -11.141  50.948  1.00  0.00     0.041 C 
ATOM     15  O   UNL     1     -27.953 -10.443  51.001  1.00  0.00    -0.550 OA
ATOM     16  O   UNL     1     -30.201 -10.612  51.411  1.00  0.00    -0.550 OA
ENDBRANCH  13  14
ENDBRANCH  12  13
ENDBRANCH  11  12
ENDBRANCH  10  11
ENDBRANCH   9  10
ENDBRANCH   8   9
ENDBRANCH   7   8
ENDBRANCH   6   7
ENDBRANCH   5   6
ENDBRANCH   4   5
ENDBRANCH   3   4
ENDBRANCH   2   3
ENDBRANCH   1   2
BRANCH   1  17
ATOM     17  C   UNL     1     -25.295 -12.367  46.387  1.00  0.00     0.000 C 
BRANCH  17  18
ATOM     18  C   UNL     1     -25.872 -13.482  47.274  1.00  0.00     0.000 C 
BRANCH  18  19
ATOM     19  C   UNL     1     -25.428 -13.371  48.745  1.00  0.00     0.000 C 
BRANCH  19  20
ATOM     20  C   UNL     1     -24.412 -12.250  49.049  1.00  0.00     0.000 C 
BRANCH  20  21
ATOM     21  C   UNL     1     -22.952 -12.718  49.186  1.00  0.00     0.000 C 
BRANCH  21  22
ATOM     22  C   UNL     1     -22.047 -12.346  47.997  1.00  0.00    -0.000 C 
BRANCH  22  23
ATOM     23  C   UNL     1     -21.414 -13.570  47.301  1.00  0.00    -0.000 C 
BRANCH  23  24
ATOM     24  C   UNL     1     -22.356 -14.787  47.284  1.00  0.00    -0.000 C 
BRANCH  24  25
ATOM     25  C   UNL     1     -22.222 -15.620  46.001  1.00  0.00    -0.000 C 
BRANCH  25  26
ATOM     26  C   UNL     1     -22.191 -14.749  44.733  1.00  0.00    -0.000 C 
BRANCH  26  27
ATOM     27  C   UNL     1     -23.024 -15.346  43.584  1.00  0.00    -0.000 C 
BRANCH  27  28
ATOM     28  C   UNL     1     -23.446 -14.334  42.502  1.00  0.00    -0.000 C 
BRANCH  28  29
ATOM     29  C   UNL     1     -22.259 -13.594  41.847  1.00  0.00    -0.003 C 
ATOM     30  C   UNL     1     -22.712 -12.591  40.786  1.00  0.00     0.004 C 
ENDBRANCH  28  29
ENDBRANCH  27  28
ENDBRANCH  26  27
ENDBRANCH  25  26
ENDBRANCH  24  25
ENDBRANCH  23  24
ENDBRANCH  22  23
ENDBRANCH  21  22
ENDBRANCH  20  21
ENDBRANCH  19  20
ENDBRANCH  18  19
ENDBRANCH  17  18
ENDBRANCH   1  17
TORSDOF 26
ENDMDL
MODEL 6
REMARK VINA RESULT:    -3.890      1.836      4.212
REMARK INTER + INTRA:         -12.625
REMARK INTER:                  -9.301
REMARK INTRA:                  -3.324
REMARK UNBOUND:                -2.823
REMARK SMILES CCCCCCCCCCCCCCCCCCCCCCCCCCCC(=O)[O-]
REMARK SMILES IDX 15 1 16 2 17 3 18 4 19 5 20 6 21 7 22 8 23 9 24 10 25 11
REMARK SMILES IDX 26 12 27 13 28 14 29 15 30 16 14 17 13 18 12 19 11 20 10 21
REMARK SMILES IDX 9 22 8 23 7 24 6 25 5 26 4 27 3 28 2 29 1 30
REMARK H PARENT
REMARK Flexibility Score: inf
ROOT
ATOM      1  C   UNL     1     -23.492 -13.244  47.665  1.00  0.00     0.000 C 
ENDROOT
BRANCH   1   2
ATOM      2  C   UNL     1     -24.855 -12.636  47.268  1.00  0.00     0.000 C 
BRANCH   2   3
ATOM      3  C   UNL     1     -25.467 -13.190  45.962  1.00  0.00     0.000 C 
BRANCH   3   4
ATOM      4  C   UNL     1     -26.019 -12.108  45.013  1.00  0.00     0.000 C 
BRANCH   4   5
ATOM      5  C   UNL     1     -27.461 -12.332  44.525  1.00  0.00     0.000 C 
BRANCH   5   6
ATOM      6  C   UNL     1     -27.956 -13.791  44.588  1.00  0.00     0.000 C 
BRANCH   6   7
ATOM      7  C   UNL     1     -29.194 -13.995  45.486  1.00  0.00     0.000 C 
BRANCH   7   8
ATOM      8  C   UNL     1     -28.921 -14.950  46.663  1.00  0.00     0.000 C 
BRANCH   8   9
ATOM      9  C   UNL     1     -30.156 -15.163  47.551  1.00  0.00     0.000 C 
BRANCH   9  10
ATOM     10  C   UNL     1     -30.891 -13.849  47.870  1.00  0.00     0.000 C 
BRANCH  10  11
ATOM     11  C   UNL     1     -31.253 -13.710  49.361  1.00  0.00     0.000 C 
BRANCH  11  12
ATOM     12  C   UNL     1     -30.231 -12.923  50.203  1.00  0.00     0.006 C 
BRANCH  12  13
ATOM     13  C   UNL     1     -29.091 -13.799  50.739  1.00  0.00     0.053 C 
BRANCH  13  14
ATOM     14  C   UNL     1     -27.787 -13.449  50.086  1.00  0.00     0.041 C 
ATOM     15  O   UNL     1     -27.363 -12.263  50.119  1.00  0.00    -0.550 OA
ATOM     16  O   UNL     1     -27.008 -14.440  49.495  1.00  0.00    -0.550 OA
ENDBRANCH  13  14
ENDBRANCH  12  13
ENDBRANCH  11  12
ENDBRANCH  10  11
ENDBRANCH   9  10
ENDBRANCH   8   9
ENDBRANCH   7   8
ENDBRANCH   6   7
ENDBRANCH   5   6
ENDBRANCH   4   5
ENDBRANCH   3   4
ENDBRANCH   2   3
ENDBRANCH   1   2
BRANCH   1  17
ATOM     17  C   UNL     1     -23.017 -14.447  46.826  1.00  0.00     0.000 C 
BRANCH  17  18
ATOM     18  C   UNL     1     -21.619 -14.254  46.217  1.00  0.00     0.000 C 
BRANCH  18  19
ATOM     19  C   UNL     1     -21.549 -14.662  44.733  1.00  0.00     0.000 C 
BRANCH  19  20
ATOM     20  C   UNL     1     -22.805 -15.364  44.177  1.00  0.00     0.000 C 
BRANCH  20  21
ATOM     21  C   UNL     1     -23.560 -14.577  43.090  1.00  0.00     0.000 C 
BRANCH  21  22
ATOM     22  C   UNL     1     -22.654 -13.795  42.122  1.00  0.00    -0.000 C 
BRANCH  22  23
ATOM     23  C   UNL     1     -22.267 -14.596  40.860  1.00  0.00    -0.000 C 
BRANCH  23  24
ATOM     24  C   UNL     1     -20.774 -14.455  40.512  1.00  0.00    -0.000 C 
BRANCH  24  25
ATOM     25  C   UNL     1     -20.132 -13.219  41.160  1.00  0.00    -0.000 C 
BRANCH  25  26
ATOM     26  C   UNL     1     -19.858 -12.096  40.144  1.00  0.00    -0.000 C 
BRANCH  26  27
ATOM     27  C   UNL     1     -20.969 -11.031  40.124  1.00  0.00    -0.000 C 
BRANCH  27  28
ATOM     28  C   UNL     1     -22.025 -11.224  39.018  1.00  0.00    -0.000 C 
BRANCH  28  29
ATOM     29  C   UNL     1     -23.476 -11.261  39.544  1.00  0.00    -0.003 C 
ATOM     30  C   UNL     1     -23.956  -9.891  40.025  1.00  0.00     0.004 C 
ENDBRANCH  28  29
ENDBRANCH  27  28
ENDBRANCH  26  27
ENDBRANCH  25  26
ENDBRANCH  24  25
ENDBRANCH  23  24
ENDBRANCH  22  23
ENDBRANCH  21  22
ENDBRANCH  20  21
ENDBRANCH  19  20
ENDBRANCH  18  19
ENDBRANCH  17  18
ENDBRANCH   1  17
TORSDOF 26
ENDMDL
MODEL 7
REMARK VINA RESULT:    -3.839      4.036      5.271
REMARK INTER + INTRA:         -12.497
REMARK INTER:                  -9.531
REMARK INTRA:                  -2.966
REMARK UNBOUND:                -2.823
REMARK SMILES CCCCCCCCCCCCCCCCCCCCCCCCCCCC(=O)[O-]
REMARK SMILES IDX 15 1 16 2 17 3 18 4 19 5 20 6 21 7 22 8 23 9 24 10 25 11
REMARK SMILES IDX 26 12 27 13 28 14 29 15 30 16 14 17 13 18 12 19 11 20 10 21
REMARK SMILES IDX 9 22 8 23 7 24 6 25 5 26 4 27 3 28 2 29 1 30
REMARK H PARENT
REMARK Flexibility Score: inf
ROOT
ATOM      1  C   UNL     1     -25.449 -10.212  42.298  1.00  0.00     0.000 C 
ENDROOT
BRANCH   1   2
ATOM      2  C   UNL     1     -25.979  -9.576  43.601  1.00  0.00     0.000 C 
BRANCH   2   3
ATOM      3  C   UNL     1     -25.865 -10.464  44.861  1.00  0.00     0.000 C 
BRANCH   3   4
ATOM      4  C   UNL     1     -26.223 -11.945  44.627  1.00  0.00     0.000 C 
BRANCH   4   5
ATOM      5  C   UNL     1     -25.407 -12.958  45.448  1.00  0.00     0.000 C 
BRANCH   5   6
ATOM      6  C   UNL     1     -25.879 -13.158  46.902  1.00  0.00     0.000 C 
BRANCH   6   7
ATOM      7  C   UNL     1     -24.811 -12.819  47.962  1.00  0.00     0.000 C 
BRANCH   7   8
ATOM      8  C   UNL     1     -23.375 -12.956  47.422  1.00  0.00     0.000 C 
BRANCH   8   9
ATOM      9  C   UNL     1     -22.316 -12.496  48.433  1.00  0.00     0.000 C 
BRANCH   9  10
ATOM     10  C   UNL     1     -21.507 -11.284  47.936  1.00  0.00     0.000 C 
BRANCH  10  11
ATOM     11  C   UNL     1     -21.707 -10.030  48.807  1.00  0.00     0.000 C 
BRANCH  11  12
ATOM     12  C   UNL     1     -21.901 -10.311  50.309  1.00  0.00     0.006 C 
BRANCH  12  13
ATOM     13  C   UNL     1     -21.872  -9.039  51.168  1.00  0.00     0.053 C 
BRANCH  13  14
ATOM     14  C   UNL     1     -20.524  -8.383  51.117  1.00  0.00     0.041 C 
ATOM     15  O   UNL     1     -20.436  -7.129  51.030  1.00  0.00    -0.550 OA
ATOM     16  O   UNL     1     -19.366  -9.147  51.226  1.00  0.00    -0.550 OA
ENDBRANCH  13  14
ENDBRANCH  12  13
ENDBRANCH  11  12
ENDBRANCH  10  11
ENDBRANCH   9  10
ENDBRANCH   8   9
ENDBRANCH   7   8
ENDBRANCH   6   7
ENDBRANCH   5   6
ENDBRANCH   4   5
ENDBRANCH   3   4
ENDBRANCH   2   3
ENDBRANCH   1   2
BRANCH   1  17
ATOM     17  C   UNL     1     -25.645  -9.384  41.013  1.00  0.00     0.000 C 
BRANCH  17  18
ATOM     18  C   UNL     1     -24.457  -9.472  40.041  1.00  0.00     0.000 C 
BRANCH  18  19
ATOM     19  C   UNL     1     -23.603 -10.736  40.250  1.00  0.00     0.000 C 
BRANCH  19  20
ATOM     20  C   UNL     1     -22.652 -11.095  39.089  1.00  0.00     0.000 C 
BRANCH  20  21
ATOM     21  C   UNL     1     -23.277 -11.966  37.984  1.00  0.00     0.000 C 
BRANCH  21  22
ATOM     22  C   UNL     1     -22.447 -13.205  37.601  1.00  0.00    -0.000 C 
BRANCH  22  23
ATOM     23  C   UNL     1     -22.686 -14.416  38.529  1.00  0.00    -0.000 C 
BRANCH  23  24
ATOM     24  C   UNL     1     -21.600 -14.547  39.612  1.00  0.00    -0.000 C 
BRANCH  24  25
ATOM     25  C   UNL     1     -22.157 -14.359  41.031  1.00  0.00    -0.000 C 
BRANCH  25  26
ATOM     26  C   UNL     1     -21.312 -13.386  41.872  1.00  0.00    -0.000 C 
BRANCH  26  27
ATOM     27  C   UNL     1     -20.015 -12.962  41.162  1.00  0.00    -0.000 C 
BRANCH  27  28
ATOM     28  C   UNL     1     -19.691 -11.459  41.258  1.00  0.00    -0.000 C 
BRANCH  28  29
ATOM     29  C   UNL     1     -19.195 -10.844  39.931  1.00  0.00    -0.003 C 
ATOM     30  C   UNL     1     -19.045 -11.889  38.825  1.00  0.00     0.004 C 
ENDBRANCH  28  29
ENDBRANCH  27  28
ENDBRANCH  26  27
ENDBRANCH  25  26
ENDBRANCH  24  25
ENDBRANCH  23  24
ENDBRANCH  22  23
ENDBRANCH  21  22
ENDBRANCH  20  21
ENDBRANCH  19  20
ENDBRANCH  18  19
ENDBRANCH  17  18
ENDBRANCH   1  17
TORSDOF 26
ENDMDL
MODEL 8
REMARK VINA RESULT:    -3.827      4.026      9.710
REMARK INTER + INTRA:         -12.467
REMARK INTER:                  -8.706
REMARK INTRA:                  -3.761
REMARK UNBOUND:                -2.823
REMARK SMILES CCCCCCCCCCCCCCCCCCCCCCCCCCCC(=O)[O-]
REMARK SMILES IDX 15 1 16 2 17 3 18 4 19 5 20 6 21 7 22 8 23 9 24 10 25 11
REMARK SMILES IDX 26 12 27 13 28 14 29 15 30 16 14 17 13 18 12 19 11 20 10 21
REMARK SMILES IDX 9 22 8 23 7 24 6 25 5 26 4 27 3 28 2 29 1 30
REMARK H PARENT
REMARK Flexibility Score: inf
ROOT
ATOM      1  C   UNL     1     -26.880 -13.138  44.638  1.00  0.00     0.000 C 
ENDROOT
BRANCH   1   2
ATOM      2  C   UNL     1     -25.825 -12.117  45.115  1.00  0.00     0.000 C 
BRANCH   2   3
ATOM      3  C   UNL     1     -25.281 -12.350  46.542  1.00  0.00     0.000 C 
BRANCH   3   4
ATOM      4  C   UNL     1     -24.640 -13.735  46.758  1.00  0.00     0.000 C 
BRANCH   4   5
ATOM      5  C   UNL     1     -23.323 -13.735  47.554  1.00  0.00     0.000 C 
BRANCH   5   6
ATOM      6  C   UNL     1     -22.086 -14.229  46.776  1.00  0.00     0.000 C 
BRANCH   6   7
ATOM      7  C   UNL     1     -22.277 -15.600  46.097  1.00  0.00     0.000 C 
BRANCH   7   8
ATOM      8  C   UNL     1     -21.539 -15.703  44.749  1.00  0.00     0.000 C 
BRANCH   8   9
ATOM      9  C   UNL     1     -22.497 -15.881  43.562  1.00  0.00     0.000 C 
BRANCH   9  10
ATOM     10  C   UNL     1     -23.453 -14.688  43.387  1.00  0.00     0.000 C 
BRANCH  10  11
ATOM     11  C   UNL     1     -23.244 -13.941  42.057  1.00  0.00     0.000 C 
BRANCH  11  12
ATOM     12  C   UNL     1     -22.227 -14.594  41.101  1.00  0.00     0.006 C 
BRANCH  12  13
ATOM     13  C   UNL     1     -22.052 -13.817  39.789  1.00  0.00     0.053 C 
BRANCH  13  14
ATOM     14  C   UNL     1     -23.378 -13.519  39.155  1.00  0.00     0.041 C 
ATOM     15  O   UNL     1     -24.170 -14.459  38.877  1.00  0.00    -0.550 OA
ATOM     16  O   UNL     1     -23.768 -12.203  38.927  1.00  0.00    -0.550 OA
ENDBRANCH  13  14
ENDBRANCH  12  13
ENDBRANCH  11  12
ENDBRANCH  10  11
ENDBRANCH   9  10
ENDBRANCH   8   9
ENDBRANCH   7   8
ENDBRANCH   6   7
ENDBRANCH   5   6
ENDBRANCH   4   5
ENDBRANCH   3   4
ENDBRANCH   2   3
ENDBRANCH   1   2
BRANCH   1  17
ATOM     17  C   UNL     1     -28.256 -12.560  44.253  1.00  0.00     0.000 C 
BRANCH  17  18
ATOM     18  C   UNL     1     -29.425 -13.510  44.560  1.00  0.00     0.000 C 
BRANCH  18  19
ATOM     19  C   UNL     1     -29.004 -14.732  45.397  1.00  0.00     0.000 C 
BRANCH  19  20
ATOM     20  C   UNL     1     -29.460 -14.716  46.871  1.00  0.00     0.000 C 
BRANCH  20  21
ATOM     21  C   UNL     1     -28.329 -14.883  47.902  1.00  0.00     0.000 C 
BRANCH  21  22
ATOM     22  C   UNL     1     -28.680 -15.793  49.094  1.00  0.00    -0.000 C 
BRANCH  22  23
ATOM     23  C   UNL     1     -27.524 -15.953  50.105  1.00  0.00    -0.000 C 
BRANCH  23  24
ATOM     24  C   UNL     1     -26.167 -15.529  49.516  1.00  0.00    -0.000 C 
BRANCH  24  25
ATOM     25  C   UNL     1     -25.371 -14.619  50.463  1.00  0.00    -0.000 C 
BRANCH  25  26
ATOM     26  C   UNL     1     -26.258 -13.573  51.161  1.00  0.00    -0.000 C 
BRANCH  26  27
ATOM     27  C   UNL     1     -26.566 -12.363  50.262  1.00  0.00    -0.000 C 
BRANCH  27  28
ATOM     28  C   UNL     1     -26.233 -10.995  50.888  1.00  0.00    -0.000 C 
BRANCH  28  29
ATOM     29  C   UNL     1     -24.718 -10.722  51.014  1.00  0.00    -0.003 C 
ATOM     30  C   UNL     1     -23.980 -10.903  49.688  1.00  0.00     0.004 C 
ENDBRANCH  28  29
ENDBRANCH  27  28
ENDBRANCH  26  27
ENDBRANCH  25  26
ENDBRANCH  24  25
ENDBRANCH  23  24
ENDBRANCH  22  23
ENDBRANCH  21  22
ENDBRANCH  20  21
ENDBRANCH  19  20
ENDBRANCH  18  19
ENDBRANCH  17  18
ENDBRANCH   1  17
TORSDOF 26
ENDMDL
MODEL 9
REMARK VINA RESULT:    -3.752      3.936     10.033
REMARK INTER + INTRA:         -12.277
REMARK INTER:                  -8.671
REMARK INTRA:                  -3.607
REMARK UNBOUND:                -2.823
REMARK SMILES CCCCCCCCCCCCCCCCCCCCCCCCCCCC(=O)[O-]
REMARK SMILES IDX 15 1 16 2 17 3 18 4 19 5 20 6 21 7 22 8 23 9 24 10 25 11
REMARK SMILES IDX 26 12 27 13 28 14 29 15 30 16 14 17 13 18 12 19 11 20 10 21
REMARK SMILES IDX 9 22 8 23 7 24 6 25 5 26 4 27 3 28 2 29 1 30
REMARK H PARENT
REMARK Flexibility Score: inf
ROOT
ATOM      1  C   UNL     1     -27.569 -12.538  44.574  1.00  0.00     0.000 C 
ENDROOT
BRANCH   1   2
ATOM      2  C   UNL     1     -26.159 -13.135  44.772  1.00  0.00     0.000 C 
BRANCH   2   3
ATOM      3  C   UNL     1     -25.313 -12.472  45.883  1.00  0.00     0.000 C 
BRANCH   3   4
ATOM      4  C   UNL     1     -25.149 -13.331  47.152  1.00  0.00     0.000 C 
BRANCH   4   5
ATOM      5  C   UNL     1     -23.698 -13.573  47.601  1.00  0.00     0.000 C 
BRANCH   5   6
ATOM      6  C   UNL     1     -23.382 -15.014  48.053  1.00  0.00     0.000 C 
BRANCH   6   7
ATOM      7  C   UNL     1     -22.499 -15.803  47.064  1.00  0.00     0.000 C 
BRANCH   7   8
ATOM      8  C   UNL     1     -22.029 -14.945  45.874  1.00  0.00     0.000 C 
BRANCH   8   9
ATOM      9  C   UNL     1     -22.406 -15.557  44.517  1.00  0.00     0.000 C 
BRANCH   9  10
ATOM     10  C   UNL     1     -22.088 -14.623  43.336  1.00  0.00     0.000 C 
BRANCH  10  11
ATOM     11  C   UNL     1     -23.318 -14.323  42.460  1.00  0.00     0.000 C 
BRANCH  11  12
ATOM     12  C   UNL     1     -22.998 -13.949  41.001  1.00  0.00     0.006 C 
BRANCH  12  13
ATOM     13  C   UNL     1     -22.339 -12.569  40.865  1.00  0.00     0.053 C 
BRANCH  13  14
ATOM     14  C   UNL     1     -22.984 -11.767  39.773  1.00  0.00     0.041 C 
ATOM     15  O   UNL     1     -23.612 -12.350  38.850  1.00  0.00    -0.550 OA
ATOM     16  O   UNL     1     -22.944 -10.377  39.804  1.00  0.00    -0.550 OA
ENDBRANCH  13  14
ENDBRANCH  12  13
ENDBRANCH  11  12
ENDBRANCH  10  11
ENDBRANCH   9  10
ENDBRANCH   8   9
ENDBRANCH   7   8
ENDBRANCH   6   7
ENDBRANCH   5   6
ENDBRANCH   4   5
ENDBRANCH   3   4
ENDBRANCH   2   3
ENDBRANCH   1   2
BRANCH   1  17
ATOM     17  C   UNL     1     -28.685 -13.541  44.225  1.00  0.00     0.000 C 
BRANCH  17  18
ATOM     18  C   UNL     1     -29.568 -13.917  45.426  1.00  0.00     0.000 C 
BRANCH  18  19
ATOM     19  C   UNL     1     -29.003 -15.093  46.243  1.00  0.00     0.000 C 
BRANCH  19  20
ATOM     20  C   UNL     1     -28.261 -14.707  47.539  1.00  0.00     0.000 C 
BRANCH  20  21
ATOM     21  C   UNL     1     -28.239 -15.798  48.625  1.00  0.00     0.000 C 
BRANCH  21  22
ATOM     22  C   UNL     1     -26.877 -15.982  49.320  1.00  0.00    -0.000 C 
BRANCH  22  23
ATOM     23  C   UNL     1     -26.981 -16.088  50.857  1.00  0.00    -0.000 C 
BRANCH  23  24
ATOM     24  C   UNL     1     -26.916 -14.713  51.544  1.00  0.00    -0.000 C 
BRANCH  24  25
ATOM     25  C   UNL     1     -25.964 -13.741  50.831  1.00  0.00    -0.000 C 
BRANCH  25  26
ATOM     26  C   UNL     1     -26.665 -12.444  50.391  1.00  0.00    -0.000 C 
BRANCH  26  27
ATOM     27  C   UNL     1     -27.599 -11.879  51.475  1.00  0.00    -0.000 C 
BRANCH  27  28
ATOM     28  C   UNL     1     -28.699 -10.937  50.949  1.00  0.00    -0.000 C 
BRANCH  28  29
ATOM     29  C   UNL     1     -30.106 -11.573  50.931  1.00  0.00    -0.003 C 
ATOM     30  C   UNL     1     -30.143 -12.882  50.142  1.00  0.00     0.004 C 
ENDBRANCH  28  29
ENDBRANCH  27  28
ENDBRANCH  26  27
ENDBRANCH  25  26
ENDBRANCH  24  25
ENDBRANCH  23  24
ENDBRANCH  22  23
ENDBRANCH  21  22
ENDBRANCH  20  21
ENDBRANCH  19  20
ENDBRANCH  18  19
ENDBRANCH  17  18
ENDBRANCH   1  17
TORSDOF 26
ENDMDL
