MODEL 1
REMARK VINA RESULT:    -2.414      0.000      0.000
REMARK INTER + INTRA:          -2.414
REMARK INTER:                  -2.414
REMARK INTRA:                   0.000
REMARK UNBOUND:                 0.000
REMARK SMILES CC(=O)[O-]
REMARK SMILES IDX 1 1 2 2 3 3 4 4
REMARK H PARENT
REMARK Flexibility Score: inf
ROOT
ATOM      1  C   UNL     1       2.989  -7.289  11.523  1.00  0.00     0.063 C 
ATOM      2  C   UNL     1       4.242  -7.691  12.223  1.00  0.00     0.038 C 
ATOM      3  O   UNL     1       4.217  -8.606  13.088  1.00  0.00    -0.550 OA
ATOM      4  O   UNL     1       5.431  -7.021  11.964  1.00  0.00    -0.550 OA
ENDROOT
TORSDOF 0
ENDMDL
MODEL 2
REMARK VINA RESULT:    -2.338      1.955      2.311
REMARK INTER + INTRA:          -2.338
REMARK INTER:                  -2.338
REMARK INTRA:                   0.000
REMARK UNBOUND:                 0.000
REMARK SMILES CC(=O)[O-]
REMARK SMILES IDX 1 1 2 2 3 3 4 4
REMARK H PARENT
REMARK Flexibility Score: inf
ROOT
ATOM      1  C   UNL     1       4.640  -7.460  12.392  1.00  0.00     0.063 C 
ATOM      2  C   UNL     1       3.581  -7.906  11.443  1.00  0.00     0.038 C 
ATOM      3  O   UNL     1       3.856  -8.735  10.535  1.00  0.00    -0.550 OA
ATOM      4  O   UNL     1       2.303  -7.371  11.522  1.00  0.00    -0.550 OA
ENDROOT
TORSDOF 0
ENDMDL
MODEL 3
REMARK VINA RESULT:    -2.317      0.121      1.624
REMARK INTER + INTRA:          -2.317
REMARK INTER:                  -2.317
REMARK INTRA:                   0.000
REMARK UNBOUND:                 0.000
REMARK SMILES CC(=O)[O-]
REMARK SMILES IDX 1 1 2 2 3 3 4 4
REMARK H PARENT
REMARK Flexibility Score: inf
ROOT
ATOM      1  C   UNL     1       3.011  -7.108  11.583  1.00  0.00     0.063 C 
ATOM      2  C   UNL     1       4.270  -7.580  12.226  1.00  0.00     0.038 C 
ATOM      3  O   UNL     1       5.369  -7.039  11.934  1.00  0.00    -0.550 OA
ATOM      4  O   UNL     1       4.243  -8.652  13.108  1.00  0.00    -0.550 OA
ENDROOT
TORSDOF 0
ENDMDL
MODEL 4
REMARK VINA RESULT:    -2.192      1.463      1.475
REMARK INTER + INTRA:          -2.192
REMARK INTER:                  -2.192
REMARK INTRA:                   0.000
REMARK UNBOUND:                 0.000
REMARK SMILES CC(=O)[O-]
REMARK SMILES IDX 1 1 2 2 3 3 4 4
REMARK H PARENT
REMARK Flexibility Score: inf
ROOT
ATOM      1  C   UNL     1       2.283  -7.262  11.510  1.00  0.00     0.063 C 
ATOM      2  C   UNL     1       3.659  -7.837  11.496  1.00  0.00     0.038 C 
ATOM      3  O   UNL     1       3.978  -8.690  10.626  1.00  0.00    -0.550 OA
ATOM      4  O   UNL     1       4.576  -7.473  12.472  1.00  0.00    -0.550 OA
ENDROOT
TORSDOF 0
ENDMDL
MODEL 5
REMARK VINA RESULT:    -1.007      3.760      4.071
REMARK INTER + INTRA:          -1.007
REMARK INTER:                  -1.007
REMARK INTRA:                   0.000
REMARK UNBOUND:                 0.000
REMARK SMILES CC(=O)[O-]
REMARK SMILES IDX 1 1 2 2 3 3 4 4
REMARK H PARENT
REMARK Flexibility Score: inf
ROOT
ATOM      1  C   UNL     1       2.201  -7.451  11.319  1.00  0.00     0.063 C 
ATOM      2  C   UNL     1       0.759  -7.830  11.322  1.00  0.00     0.038 C 
ATOM      3  O   UNL     1      -0.038  -7.272  12.122  1.00  0.00    -0.550 OA
ATOM      4  O   UNL     1       0.301  -8.836  10.482  1.00  0.00    -0.550 OA
ENDROOT
TORSDOF 0
ENDMDL
MODEL 6
REMARK VINA RESULT:    -0.117     12.904     13.325
REMARK INTER + INTRA:          -0.117
REMARK INTER:                  -0.117
REMARK INTRA:                   0.000
REMARK UNBOUND:                 0.000
REMARK SMILES CC(=O)[O-]
REMARK SMILES IDX 1 1 2 2 3 3 4 4
REMARK H PARENT
REMARK Flexibility Score: inf
ROOT
ATOM      1  C   UNL     1       3.616  -8.210  24.148  1.00  0.00     0.063 C 
ATOM      2  C   UNL     1       3.840  -7.715  25.536  1.00  0.00     0.038 C 
ATOM      3  O   UNL     1       3.173  -8.191  26.492  1.00  0.00    -0.550 OA
ATOM      4  O   UNL     1       4.747  -6.690  25.773  1.00  0.00    -0.550 OA
ENDROOT
TORSDOF 0
ENDMDL
MODEL 7
REMARK VINA RESULT:    -0.098     20.886     21.259
REMARK INTER + INTRA:          -0.098
REMARK INTER:                  -0.098
REMARK INTRA:                   0.000
REMARK UNBOUND:                 0.000
REMARK SMILES CC(=O)[O-]
REMARK SMILES IDX 1 1 2 2 3 3 4 4
REMARK H PARENT
REMARK Flexibility Score: inf
ROOT
ATOM      1  C   UNL     1      19.059  -4.230  25.633  1.00  0.00     0.063 C 
ATOM      2  C   UNL     1      19.118  -4.662  27.058  1.00  0.00     0.038 C 
ATOM      3  O   UNL     1      19.112  -5.888  27.347  1.00  0.00    -0.550 OA
ATOM      4  O   UNL     1      19.125  -3.715  28.074  1.00  0.00    -0.550 OA
ENDROOT
TORSDOF 0
ENDMDL
MODEL 8
REMARK VINA RESULT:    -0.096     12.848     13.346
REMARK INTER + INTRA:          -0.096
REMARK INTER:                  -0.096
REMARK INTRA:                   0.000
REMARK UNBOUND:                 0.000
REMARK SMILES CC(=O)[O-]
REMARK SMILES IDX 1 1 2 2 3 3 4 4
REMARK H PARENT
REMARK Flexibility Score: inf
ROOT
ATOM      1  C   UNL     1       4.813  -6.721  25.761  1.00  0.00     0.063 C 
ATOM      2  C   UNL     1       3.780  -7.749  25.448  1.00  0.00     0.038 C 
ATOM      3  O   UNL     1       3.076  -8.238  26.370  1.00  0.00    -0.550 OA
ATOM      4  O   UNL     1       3.627  -8.209  24.147  1.00  0.00    -0.550 OA
ENDROOT
TORSDOF 0
ENDMDL
MODEL 9
REMARK VINA RESULT:     0.025     23.680     24.244
REMARK INTER + INTRA:           0.025
REMARK INTER:                   0.025
REMARK INTRA:                   0.000
REMARK UNBOUND:                 0.000
REMARK SMILES CC(=O)[O-]
REMARK SMILES IDX 1 1 2 2 3 3 4 4
REMARK H PARENT
REMARK Flexibility Score: inf
ROOT
ATOM      1  C   UNL     1      19.125   7.086  25.477  1.00  0.00     0.063 C 
ATOM      2  C   UNL     1      18.891   7.442  24.048  1.00  0.00     0.038 C 
ATOM      3  O   UNL     1      19.122   8.612  23.643  1.00  0.00    -0.550 OA
ATOM      4  O   UNL     1      18.368   6.500  23.172  1.00  0.00    -0.550 OA
ENDROOT
TORSDOF 0
ENDMDL
