MODEL 1
REMARK VINA RESULT:    -4.482      0.000      0.000
REMARK INTER + INTRA:          -6.202
REMARK INTER:                  -5.923
REMARK INTRA:                  -0.280
REMARK UNBOUND:                -0.280
REMARK SMILES CCCCC=CC=CCO
REMARK SMILES IDX 5 1 6 2 4 3 3 4 2 5 1 6 7 7 8 8 9 9 10 10
REMARK H PARENT 10 11
REMARK Flexibility Score: inf
ROOT
ATOM      1  C   UNL     1     154.746 134.127 139.582  1.00  0.00    -0.027 C 
ATOM      2  C   UNL     1     154.331 132.863 139.466  1.00  0.00    -0.005 C 
ENDROOT
BRANCH   1   3
ATOM      3  C   UNL     1     155.501 134.813 138.478  1.00  0.00     0.027 C 
BRANCH   3   4
ATOM      4  C   UNL     1     154.716 135.987 137.874  1.00  0.00     0.004 C 
BRANCH   4   5
ATOM      5  C   UNL     1     153.753 136.622 138.888  1.00  0.00    -0.003 C 
ATOM      6  C   UNL     1     152.524 137.198 138.193  1.00  0.00     0.004 C 
ENDBRANCH   4   5
ENDBRANCH   3   4
ENDBRANCH   1   3
BRANCH   2   7
ATOM      7  C   UNL     1     153.587 132.207 140.553  1.00  0.00    -0.002 C 
ATOM      8  C   UNL     1     152.403 131.632 140.327  1.00  0.00     0.001 C 
BRANCH   8   9
ATOM      9  C   UNL     1     151.642 130.952 141.424  1.00  0.00     0.183 C 
BRANCH   9  10
ATOM     10  O   UNL     1     150.264 131.155 141.261  1.00  0.00    -0.392 OA
ATOM     11  H   UNL     1     149.868 130.273 141.036  1.00  0.00     0.210 HD
ENDBRANCH   9  10
ENDBRANCH   8   9
ENDBRANCH   2   7
TORSDOF 6
ENDMDL
MODEL 2
REMARK VINA RESULT:    -4.464      3.659      5.762
REMARK INTER + INTRA:          -6.179
REMARK INTER:                  -5.879
REMARK INTRA:                  -0.300
REMARK UNBOUND:                -0.280
REMARK SMILES CCCCC=CC=CCO
REMARK SMILES IDX 5 1 6 2 4 3 3 4 2 5 1 6 7 7 8 8 9 9 10 10
REMARK H PARENT 10 11
REMARK Flexibility Score: inf
ROOT
ATOM      1  C   UNL     1     154.014 134.903 139.406  1.00  0.00    -0.027 C 
ATOM      2  C   UNL     1     154.000 136.233 139.517  1.00  0.00    -0.005 C 
ENDROOT
BRANCH   1   3
ATOM      3  C   UNL     1     154.617 134.030 140.471  1.00  0.00     0.027 C 
BRANCH   3   4
ATOM      4  C   UNL     1     155.591 134.799 141.377  1.00  0.00     0.004 C 
BRANCH   4   5
ATOM      5  C   UNL     1     154.974 135.122 142.746  1.00  0.00    -0.003 C 
ATOM      6  C   UNL     1     154.981 136.625 143.011  1.00  0.00     0.004 C 
ENDBRANCH   4   5
ENDBRANCH   3   4
ENDBRANCH   1   3
BRANCH   2   7
ATOM      7  C   UNL     1     153.399 137.075 138.469  1.00  0.00    -0.002 C 
ATOM      8  C   UNL     1     154.162 137.800 137.648  1.00  0.00     0.001 C 
BRANCH   8   9
ATOM      9  C   UNL     1     153.561 138.651 136.570  1.00  0.00     0.183 C 
BRANCH   9  10
ATOM     10  O   UNL     1     152.397 139.280 137.037  1.00  0.00    -0.392 OA
ATOM     11  H   UNL     1     151.997 138.678 137.717  1.00  0.00     0.210 HD
ENDBRANCH   9  10
ENDBRANCH   8   9
ENDBRANCH   2   7
TORSDOF 6
ENDMDL
MODEL 3
REMARK VINA RESULT:    -4.348      2.015      2.578
REMARK INTER + INTRA:          -6.025
REMARK INTER:                  -5.722
REMARK INTRA:                  -0.303
REMARK UNBOUND:                -0.280
REMARK SMILES CCCCC=CC=CCO
REMARK SMILES IDX 5 1 6 2 4 3 3 4 2 5 1 6 7 7 8 8 9 9 10 10
REMARK H PARENT 10 11
REMARK Flexibility Score: inf
ROOT
ATOM      1  C   UNL     1     154.932 132.433 138.184  1.00  0.00    -0.027 C 
ATOM      2  C   UNL     1     154.369 133.225 139.101  1.00  0.00    -0.005 C 
ENDROOT
BRANCH   1   3
ATOM      3  C   UNL     1     155.643 132.998 136.985  1.00  0.00     0.027 C 
BRANCH   3   4
ATOM      4  C   UNL     1     155.013 134.311 136.496  1.00  0.00     0.004 C 
BRANCH   4   5
ATOM      5  C   UNL     1     156.074 135.352 136.110  1.00  0.00    -0.003 C 
ATOM      6  C   UNL     1     157.445 134.705 135.948  1.00  0.00     0.004 C 
ENDBRANCH   4   5
ENDBRANCH   3   4
ENDBRANCH   1   3
BRANCH   2   7
ATOM      7  C   UNL     1     153.683 132.657 140.273  1.00  0.00    -0.002 C 
ATOM      8  C   UNL     1     152.725 131.739 140.130  1.00  0.00     0.001 C 
BRANCH   8   9
ATOM      9  C   UNL     1     152.027 131.146 141.318  1.00  0.00     0.183 C 
BRANCH   9  10
ATOM     10  O   UNL     1     150.636 131.200 141.144  1.00  0.00    -0.392 OA
ATOM     11  H   UNL     1     150.425 132.104 140.793  1.00  0.00     0.210 HD
ENDBRANCH   9  10
ENDBRANCH   8   9
ENDBRANCH   2   7
TORSDOF 6
ENDMDL
MODEL 4
REMARK VINA RESULT:    -4.250      3.676      4.315
REMARK INTER + INTRA:          -5.897
REMARK INTER:                  -5.598
REMARK INTRA:                  -0.299
REMARK UNBOUND:                -0.280
REMARK SMILES CCCCC=CC=CCO
REMARK SMILES IDX 5 1 6 2 4 3 3 4 2 5 1 6 7 7 8 8 9 9 10 10
REMARK H PARENT 10 11
REMARK Flexibility Score: inf
ROOT
ATOM      1  C   UNL     1     153.670 136.740 139.193  1.00  0.00    -0.027 C 
ATOM      2  C   UNL     1     153.935 135.441 139.352  1.00  0.00    -0.005 C 
ENDROOT
BRANCH   1   3
ATOM      3  C   UNL     1     152.747 137.229 138.111  1.00  0.00     0.027 C 
BRANCH   3   4
ATOM      4  C   UNL     1     153.451 137.347 136.750  1.00  0.00     0.004 C 
BRANCH   4   5
ATOM      5  C   UNL     1     154.862 137.942 136.879  1.00  0.00    -0.003 C 
ATOM      6  C   UNL     1     154.816 139.466 136.894  1.00  0.00     0.004 C 
ENDBRANCH   4   5
ENDBRANCH   3   4
ENDBRANCH   1   3
BRANCH   2   7
ATOM      7  C   UNL     1     154.836 134.977 140.420  1.00  0.00    -0.002 C 
ATOM      8  C   UNL     1     154.785 135.511 141.642  1.00  0.00     0.001 C 
BRANCH   8   9
ATOM      9  C   UNL     1     155.689 135.037 142.740  1.00  0.00     0.183 C 
BRANCH   9  10
ATOM     10  O   UNL     1     156.870 135.793 142.760  1.00  0.00    -0.392 OA
ATOM     11  H   UNL     1     157.043 136.033 143.707  1.00  0.00     0.210 HD
ENDBRANCH   9  10
ENDBRANCH   8   9
ENDBRANCH   2   7
TORSDOF 6
ENDMDL
MODEL 5
REMARK VINA RESULT:    -4.216      3.944      6.043
REMARK INTER + INTRA:          -5.852
REMARK INTER:                  -5.482
REMARK INTRA:                  -0.370
REMARK UNBOUND:                -0.280
REMARK SMILES CCCCC=CC=CCO
REMARK SMILES IDX 5 1 6 2 4 3 3 4 2 5 1 6 7 7 8 8 9 9 10 10
REMARK H PARENT 10 11
REMARK Flexibility Score: inf
ROOT
ATOM      1  C   UNL     1     154.537 135.560 139.563  1.00  0.00    -0.027 C 
ATOM      2  C   UNL     1     153.516 136.039 138.847  1.00  0.00    -0.005 C 
ENDROOT
BRANCH   1   3
ATOM      3  C   UNL     1     154.479 134.203 140.208  1.00  0.00     0.027 C 
BRANCH   3   4
ATOM      4  C   UNL     1     155.470 133.213 139.578  1.00  0.00     0.004 C 
BRANCH   4   5
ATOM      5  C   UNL     1     154.863 132.470 138.379  1.00  0.00    -0.003 C 
ATOM      6  C   UNL     1     155.465 132.962 137.066  1.00  0.00     0.004 C 
ENDBRANCH   4   5
ENDBRANCH   3   4
ENDBRANCH   1   3
BRANCH   2   7
ATOM      7  C   UNL     1     153.590 137.367 138.216  1.00  0.00    -0.002 C 
ATOM      8  C   UNL     1     154.567 137.666 137.357  1.00  0.00     0.001 C 
BRANCH   8   9
ATOM      9  C   UNL     1     154.645 139.011 136.700  1.00  0.00     0.183 C 
BRANCH   9  10
ATOM     10  O   UNL     1     154.731 140.023 137.668  1.00  0.00    -0.392 OA
ATOM     11  H   UNL     1     154.539 140.880 137.206  1.00  0.00     0.210 HD
ENDBRANCH   9  10
ENDBRANCH   8   9
ENDBRANCH   2   7
TORSDOF 6
ENDMDL
MODEL 6
REMARK VINA RESULT:    -4.210      2.605      3.074
REMARK INTER + INTRA:          -5.844
REMARK INTER:                  -5.455
REMARK INTRA:                  -0.388
REMARK UNBOUND:                -0.280
REMARK SMILES CCCCC=CC=CCO
REMARK SMILES IDX 5 1 6 2 4 3 3 4 2 5 1 6 7 7 8 8 9 9 10 10
REMARK H PARENT 10 11
REMARK Flexibility Score: inf
ROOT
ATOM      1  C   UNL     1     154.489 135.218 139.744  1.00  0.00    -0.027 C 
ATOM      2  C   UNL     1     154.395 134.328 138.753  1.00  0.00    -0.005 C 
ENDROOT
BRANCH   1   3
ATOM      3  C   UNL     1     153.849 136.575 139.647  1.00  0.00     0.027 C 
BRANCH   3   4
ATOM      4  C   UNL     1     153.408 136.913 138.214  1.00  0.00     0.004 C 
BRANCH   4   5
ATOM      5  C   UNL     1     154.371 137.895 137.530  1.00  0.00    -0.003 C 
ATOM      6  C   UNL     1     155.168 137.204 136.427  1.00  0.00     0.004 C 
ENDBRANCH   4   5
ENDBRANCH   3   4
ENDBRANCH   1   3
BRANCH   2   7
ATOM      7  C   UNL     1     155.022 133.000 138.865  1.00  0.00    -0.002 C 
ATOM      8  C   UNL     1     154.417 132.008 139.523  1.00  0.00     0.001 C 
BRANCH   8   9
ATOM      9  C   UNL     1     155.041 130.650 139.633  1.00  0.00     0.183 C 
BRANCH   9  10
ATOM     10  O   UNL     1     156.224 130.593 138.882  1.00  0.00    -0.392 OA
ATOM     11  H   UNL     1     156.733 129.805 139.204  1.00  0.00     0.210 HD
ENDBRANCH   9  10
ENDBRANCH   8   9
ENDBRANCH   2   7
TORSDOF 6
ENDMDL
MODEL 7
REMARK VINA RESULT:    -4.199      5.106      7.325
REMARK INTER + INTRA:          -5.829
REMARK INTER:                  -5.594
REMARK INTRA:                  -0.235
REMARK UNBOUND:                -0.280
REMARK SMILES CCCCC=CC=CCO
REMARK SMILES IDX 5 1 6 2 4 3 3 4 2 5 1 6 7 7 8 8 9 9 10 10
REMARK H PARENT 10 11
REMARK Flexibility Score: inf
ROOT
ATOM      1  C   UNL     1     156.572 134.144 136.557  1.00  0.00    -0.027 C 
ATOM      2  C   UNL     1     157.313 134.331 135.462  1.00  0.00    -0.005 C 
ENDROOT
BRANCH   1   3
ATOM      3  C   UNL     1     155.505 133.086 136.616  1.00  0.00     0.027 C 
BRANCH   3   4
ATOM      4  C   UNL     1     155.113 132.730 138.058  1.00  0.00     0.004 C 
BRANCH   4   5
ATOM      5  C   UNL     1     155.317 133.909 139.021  1.00  0.00    -0.003 C 
ATOM      6  C   UNL     1     154.219 133.950 140.079  1.00  0.00     0.004 C 
ENDBRANCH   4   5
ENDBRANCH   3   4
ENDBRANCH   1   3
BRANCH   2   7
ATOM      7  C   UNL     1     158.358 135.366 135.423  1.00  0.00    -0.002 C 
ATOM      8  C   UNL     1     158.146 136.535 134.814  1.00  0.00     0.001 C 
BRANCH   8   9
ATOM      9  C   UNL     1     159.201 137.600 134.777  1.00  0.00     0.183 C 
BRANCH   9  10
ATOM     10  O   UNL     1     159.739 137.798 136.058  1.00  0.00    -0.392 OA
ATOM     11  H   UNL     1     159.993 136.904 136.404  1.00  0.00     0.210 HD
ENDBRANCH   9  10
ENDBRANCH   8   9
ENDBRANCH   2   7
TORSDOF 6
ENDMDL
MODEL 8
REMARK VINA RESULT:    -4.195      3.502      5.662
REMARK INTER + INTRA:          -5.824
REMARK INTER:                  -5.505
REMARK INTRA:                  -0.319
REMARK UNBOUND:                -0.280
REMARK SMILES CCCCC=CC=CCO
REMARK SMILES IDX 5 1 6 2 4 3 3 4 2 5 1 6 7 7 8 8 9 9 10 10
REMARK H PARENT 10 11
REMARK Flexibility Score: inf
ROOT
ATOM      1  C   UNL     1     154.782 135.819 141.606  1.00  0.00    -0.027 C 
ATOM      2  C   UNL     1     154.446 135.133 140.510  1.00  0.00    -0.005 C 
ENDROOT
BRANCH   1   3
ATOM      3  C   UNL     1     154.910 135.149 142.946  1.00  0.00     0.027 C 
BRANCH   3   4
ATOM      4  C   UNL     1     155.327 133.675 142.826  1.00  0.00     0.004 C 
BRANCH   4   5
ATOM      5  C   UNL     1     154.544 132.773 143.792  1.00  0.00    -0.003 C 
ATOM      6  C   UNL     1     153.232 132.309 143.168  1.00  0.00     0.004 C 
ENDBRANCH   4   5
ENDBRANCH   3   4
ENDBRANCH   1   3
BRANCH   2   7
ATOM      7  C   UNL     1     154.332 135.801 139.204  1.00  0.00    -0.002 C 
ATOM      8  C   UNL     1     153.243 136.504 138.883  1.00  0.00     0.001 C 
BRANCH   8   9
ATOM      9  C   UNL     1     153.122 137.197 137.560  1.00  0.00     0.183 C 
BRANCH   9  10
ATOM     10  O   UNL     1     152.443 138.416 137.708  1.00  0.00    -0.392 OA
ATOM     11  H   UNL     1     152.655 138.755 138.616  1.00  0.00     0.210 HD
ENDBRANCH   9  10
ENDBRANCH   8   9
ENDBRANCH   2   7
TORSDOF 6
ENDMDL
MODEL 9
REMARK VINA RESULT:    -4.187      3.236      5.019
REMARK INTER + INTRA:          -5.813
REMARK INTER:                  -5.440
REMARK INTRA:                  -0.373
REMARK UNBOUND:                -0.280
REMARK SMILES CCCCC=CC=CCO
REMARK SMILES IDX 5 1 6 2 4 3 3 4 2 5 1 6 7 7 8 8 9 9 10 10
REMARK H PARENT 10 11
REMARK Flexibility Score: inf
ROOT
ATOM      1  C   UNL     1     155.036 135.072 140.762  1.00  0.00    -0.027 C 
ATOM      2  C   UNL     1     154.316 135.429 139.696  1.00  0.00    -0.005 C 
ENDROOT
BRANCH   1   3
ATOM      3  C   UNL     1     154.793 135.680 142.116  1.00  0.00     0.027 C 
BRANCH   3   4
ATOM      4  C   UNL     1     154.733 134.623 143.229  1.00  0.00     0.004 C 
BRANCH   4   5
ATOM      5  C   UNL     1     154.606 133.199 142.668  1.00  0.00    -0.003 C 
ATOM      6  C   UNL     1     153.291 132.555 143.098  1.00  0.00     0.004 C 
ENDBRANCH   4   5
ENDBRANCH   3   4
ENDBRANCH   1   3
BRANCH   2   7
ATOM      7  C   UNL     1     154.560 134.820 138.378  1.00  0.00    -0.002 C 
ATOM      8  C   UNL     1     155.218 133.664 138.266  1.00  0.00     0.001 C 
BRANCH   8   9
ATOM      9  C   UNL     1     155.463 133.029 136.930  1.00  0.00     0.183 C 
BRANCH   9  10
ATOM     10  O   UNL     1     154.886 133.801 135.911  1.00  0.00    -0.392 OA
ATOM     11  H   UNL     1     154.295 134.465 136.351  1.00  0.00     0.210 HD
ENDBRANCH   9  10
ENDBRANCH   8   9
ENDBRANCH   2   7
TORSDOF 6
ENDMDL
