MODEL 1
REMARK VINA RESULT:    -2.772      0.000      0.000
REMARK INTER + INTRA:          -3.568
REMARK INTER:                  -3.502
REMARK INTRA:                  -0.066
REMARK UNBOUND:                -0.066
REMARK SMILES CSCC[C@H]([NH3+])C(=O)[O-]
REMARK SMILES IDX 4 1 5 2 6 3 7 7 8 8 9 9 3 10 2 11 1 12
REMARK H PARENT 6 4 6 5 6 6
REMARK Flexibility Score: inf
ROOT
ATOM      1  C   UNL     1     206.068 189.830  -2.779  1.00  0.00     0.082 C 
ENDROOT
BRANCH   1   2
ATOM      2  C   UNL     1     207.169 188.743  -2.806  1.00  0.00     0.228 C 
BRANCH   2   3
ATOM      3  N   UNL     1     208.345 189.227  -3.539  1.00  0.00    -0.350 N 
ATOM      4  H   UNL     1     209.062 189.606  -2.879  1.00  0.00     0.345 HD
ATOM      5  H   UNL     1     208.062 189.979  -4.209  1.00  0.00     0.345 HD
ATOM      6  H   UNL     1     208.766 188.443  -4.089  1.00  0.00     0.345 HD
ENDBRANCH   2   3
BRANCH   2   7
ATOM      7  C   UNL     1     206.660 187.472  -3.434  1.00  0.00     0.099 C 
ATOM      8  O   UNL     1     205.627 186.912  -2.981  1.00  0.00    -0.544 OA
ATOM      9  O   UNL     1     207.323 186.910  -4.519  1.00  0.00    -0.544 OA
ENDBRANCH   2   7
ENDBRANCH   1   2
BRANCH   1  10
ATOM     10  C   UNL     1     206.552 191.181  -2.230  1.00  0.00     0.076 C 
BRANCH  10  11
ATOM     11  S   UNL     1     205.868 192.594  -3.174  1.00  0.00    -0.165 SA
ATOM     12  C   UNL     1     204.312 191.774  -3.652  1.00  0.00     0.085 C 
ENDBRANCH  10  11
ENDBRANCH   1  10
TORSDOF 5
ENDMDL
MODEL 2
REMARK VINA RESULT:    -2.732      3.362      4.579
REMARK INTER + INTRA:          -3.517
REMARK INTER:                  -3.474
REMARK INTRA:                  -0.043
REMARK UNBOUND:                -0.066
REMARK SMILES CSCC[C@H]([NH3+])C(=O)[O-]
REMARK SMILES IDX 4 1 5 2 6 3 7 7 8 8 9 9 3 10 2 11 1 12
REMARK H PARENT 6 4 6 5 6 6
REMARK Flexibility Score: inf
ROOT
ATOM      1  C   UNL     1     208.706 188.179  -3.825  1.00  0.00     0.082 C 
ENDROOT
BRANCH   1   2
ATOM      2  C   UNL     1     207.526 187.203  -4.042  1.00  0.00     0.228 C 
BRANCH   2   3
ATOM      3  N   UNL     1     207.268 187.027  -5.476  1.00  0.00    -0.350 N 
ATOM      4  H   UNL     1     206.413 186.444  -5.629  1.00  0.00     0.345 HD
ATOM      5  H   UNL     1     208.088 186.563  -5.931  1.00  0.00     0.345 HD
ATOM      6  H   UNL     1     207.130 187.961  -5.928  1.00  0.00     0.345 HD
ENDBRANCH   2   3
BRANCH   2   7
ATOM      7  C   UNL     1     206.281 187.696  -3.353  1.00  0.00     0.099 C 
ATOM      8  O   UNL     1     205.438 186.875  -2.906  1.00  0.00    -0.544 OA
ATOM      9  O   UNL     1     206.055 189.060  -3.202  1.00  0.00    -0.544 OA
ENDBRANCH   2   7
ENDBRANCH   1   2
BRANCH   1  10
ATOM     10  C   UNL     1     210.023 187.478  -3.455  1.00  0.00     0.076 C 
BRANCH  10  11
ATOM     11  S   UNL     1     211.034 188.478  -2.299  1.00  0.00    -0.165 SA
ATOM     12  C   UNL     1     211.910 187.071  -1.540  1.00  0.00     0.085 C 
ENDBRANCH  10  11
ENDBRANCH   1  10
TORSDOF 5
ENDMDL
MODEL 3
REMARK VINA RESULT:    -2.728      3.594      4.679
REMARK INTER + INTRA:          -3.513
REMARK INTER:                  -3.469
REMARK INTRA:                  -0.043
REMARK UNBOUND:                -0.066
REMARK SMILES CSCC[C@H]([NH3+])C(=O)[O-]
REMARK SMILES IDX 4 1 5 2 6 3 7 7 8 8 9 9 3 10 2 11 1 12
REMARK H PARENT 6 4 6 5 6 6
REMARK Flexibility Score: inf
ROOT
ATOM      1  C   UNL     1     205.725 189.701  -2.999  1.00  0.00     0.082 C 
ENDROOT
BRANCH   1   2
ATOM      2  C   UNL     1     205.893 191.177  -2.568  1.00  0.00     0.228 C 
BRANCH   2   3
ATOM      3  N   UNL     1     206.206 191.258  -1.136  1.00  0.00    -0.350 N 
ATOM      4  H   UNL     1     206.172 192.249  -0.805  1.00  0.00     0.345 HD
ATOM      5  H   UNL     1     207.161 190.868  -0.958  1.00  0.00     0.345 HD
ATOM      6  H   UNL     1     205.516 190.691  -0.591  1.00  0.00     0.345 HD
ENDBRANCH   2   3
BRANCH   2   7
ATOM      7  C   UNL     1     204.650 191.974  -2.867  1.00  0.00     0.099 C 
ATOM      8  O   UNL     1     204.111 191.903  -4.002  1.00  0.00    -0.544 OA
ATOM      9  O   UNL     1     204.087 192.789  -1.892  1.00  0.00    -0.544 OA
ENDBRANCH   2   7
ENDBRANCH   1   2
BRANCH   1  10
ATOM     10  C   UNL     1     207.035 188.898  -2.966  1.00  0.00     0.076 C 
BRANCH  10  11
ATOM     11  S   UNL     1     206.755 187.110  -3.243  1.00  0.00    -0.165 SA
ATOM     12  C   UNL     1     207.373 187.079  -4.958  1.00  0.00     0.085 C 
ENDBRANCH  10  11
ENDBRANCH   1  10
TORSDOF 5
ENDMDL
MODEL 4
REMARK VINA RESULT:    -2.689     19.969     20.766
REMARK INTER + INTRA:          -3.463
REMARK INTER:                  -3.332
REMARK INTRA:                  -0.131
REMARK UNBOUND:                -0.066
REMARK SMILES CSCC[C@H]([NH3+])C(=O)[O-]
REMARK SMILES IDX 4 1 5 2 6 3 7 7 8 8 9 9 3 10 2 11 1 12
REMARK H PARENT 6 4 6 5 6 6
REMARK Flexibility Score: inf
ROOT
ATOM      1  C   UNL     1     220.628 203.854  -5.349  1.00  0.00     0.082 C 
ENDROOT
BRANCH   1   2
ATOM      2  C   UNL     1     220.715 204.789  -6.579  1.00  0.00     0.228 C 
BRANCH   2   3
ATOM      3  N   UNL     1     221.955 205.573  -6.536  1.00  0.00    -0.350 N 
ATOM      4  H   UNL     1     222.444 205.442  -5.621  1.00  0.00     0.345 HD
ATOM      5  H   UNL     1     221.739 206.588  -6.670  1.00  0.00     0.345 HD
ATOM      6  H   UNL     1     222.592 205.270  -7.310  1.00  0.00     0.345 HD
ENDBRANCH   2   3
BRANCH   2   7
ATOM      7  C   UNL     1     219.527 205.712  -6.643  1.00  0.00     0.099 C 
ATOM      8  O   UNL     1     218.886 205.992  -5.596  1.00  0.00    -0.544 OA
ATOM      9  O   UNL     1     219.131 206.265  -7.856  1.00  0.00    -0.544 OA
ENDBRANCH   2   7
ENDBRANCH   1   2
BRANCH   1  10
ATOM     10  C   UNL     1     220.313 202.393  -5.709  1.00  0.00     0.076 C 
BRANCH  10  11
ATOM     11  S   UNL     1     220.500 202.070  -7.502  1.00  0.00    -0.165 SA
ATOM     12  C   UNL     1     219.240 200.756  -7.595  1.00  0.00     0.085 C 
ENDBRANCH  10  11
ENDBRANCH   1  10
TORSDOF 5
ENDMDL
MODEL 5
REMARK VINA RESULT:    -2.620     20.152     20.914
REMARK INTER + INTRA:          -3.376
REMARK INTER:                  -3.194
REMARK INTRA:                  -0.182
REMARK UNBOUND:                -0.066
REMARK SMILES CSCC[C@H]([NH3+])C(=O)[O-]
REMARK SMILES IDX 4 1 5 2 6 3 7 7 8 8 9 9 3 10 2 11 1 12
REMARK H PARENT 6 4 6 5 6 6
REMARK Flexibility Score: inf
ROOT
ATOM      1  C   UNL     1     220.413 203.541  -6.807  1.00  0.00     0.082 C 
ENDROOT
BRANCH   1   2
ATOM      2  C   UNL     1     220.730 205.028  -7.091  1.00  0.00     0.228 C 
BRANCH   2   3
ATOM      3  N   UNL     1     221.763 205.514  -6.170  1.00  0.00    -0.350 N 
ATOM      4  H   UNL     1     222.657 204.987  -6.305  1.00  0.00     0.345 HD
ATOM      5  H   UNL     1     221.441 205.399  -5.181  1.00  0.00     0.345 HD
ATOM      6  H   UNL     1     221.938 206.533  -6.339  1.00  0.00     0.345 HD
ENDBRANCH   2   3
BRANCH   2   7
ATOM      7  C   UNL     1     219.492 205.878  -6.969  1.00  0.00     0.099 C 
ATOM      8  O   UNL     1     218.927 206.015  -5.852  1.00  0.00    -0.544 OA
ATOM      9  O   UNL     1     218.967 206.520  -8.085  1.00  0.00    -0.544 OA
ENDBRANCH   2   7
ENDBRANCH   1   2
BRANCH   1  10
ATOM     10  C   UNL     1     220.809 203.088  -5.392  1.00  0.00     0.076 C 
BRANCH  10  11
ATOM     11  S   UNL     1     219.375 202.457  -4.444  1.00  0.00    -0.165 SA
ATOM     12  C   UNL     1     219.405 203.751  -3.161  1.00  0.00     0.085 C 
ENDBRANCH  10  11
ENDBRANCH   1  10
TORSDOF 5
ENDMDL
MODEL 6
REMARK VINA RESULT:    -2.617      2.060      2.354
REMARK INTER + INTRA:          -3.372
REMARK INTER:                  -3.332
REMARK INTRA:                  -0.039
REMARK UNBOUND:                -0.066
REMARK SMILES CSCC[C@H]([NH3+])C(=O)[O-]
REMARK SMILES IDX 4 1 5 2 6 3 7 7 8 8 9 9 3 10 2 11 1 12
REMARK H PARENT 6 4 6 5 6 6
REMARK Flexibility Score: inf
ROOT
ATOM      1  C   UNL     1     207.271 189.258  -2.745  1.00  0.00     0.082 C 
ENDROOT
BRANCH   1   2
ATOM      2  C   UNL     1     207.650 188.144  -3.750  1.00  0.00     0.228 C 
BRANCH   2   3
ATOM      3  N   UNL     1     207.021 186.875  -3.365  1.00  0.00    -0.350 N 
ATOM      4  H   UNL     1     206.913 186.249  -4.196  1.00  0.00     0.345 HD
ATOM      5  H   UNL     1     206.079 187.057  -2.946  1.00  0.00     0.345 HD
ATOM      6  H   UNL     1     207.609 186.391  -2.647  1.00  0.00     0.345 HD
ENDBRANCH   2   3
BRANCH   2   7
ATOM      7  C   UNL     1     209.145 187.972  -3.829  1.00  0.00     0.099 C 
ATOM      8  O   UNL     1     209.693 186.962  -3.316  1.00  0.00    -0.544 OA
ATOM      9  O   UNL     1     209.928 188.924  -4.472  1.00  0.00    -0.544 OA
ENDBRANCH   2   7
ENDBRANCH   1   2
BRANCH   1  10
ATOM     10  C   UNL     1     205.797 189.685  -2.829  1.00  0.00     0.076 C 
BRANCH  10  11
ATOM     11  S   UNL     1     205.561 191.440  -2.364  1.00  0.00    -0.165 SA
ATOM     12  C   UNL     1     204.331 191.821  -3.655  1.00  0.00     0.085 C 
ENDBRANCH  10  11
ENDBRANCH   1  10
TORSDOF 5
ENDMDL
MODEL 7
REMARK VINA RESULT:    -2.575     20.090     20.829
REMARK INTER + INTRA:          -3.319
REMARK INTER:                  -3.248
REMARK INTRA:                  -0.071
REMARK UNBOUND:                -0.066
REMARK SMILES CSCC[C@H]([NH3+])C(=O)[O-]
REMARK SMILES IDX 4 1 5 2 6 3 7 7 8 8 9 9 3 10 2 11 1 12
REMARK H PARENT 6 4 6 5 6 6
REMARK Flexibility Score: inf
ROOT
ATOM      1  C   UNL     1     219.136 205.340  -4.773  1.00  0.00     0.082 C 
ENDROOT
BRANCH   1   2
ATOM      2  C   UNL     1     219.726 204.461  -5.901  1.00  0.00     0.228 C 
BRANCH   2   3
ATOM      3  N   UNL     1     220.787 203.596  -5.371  1.00  0.00    -0.350 N 
ATOM      4  H   UNL     1     220.569 202.589  -5.552  1.00  0.00     0.345 HD
ATOM      5  H   UNL     1     220.888 203.747  -4.341  1.00  0.00     0.345 HD
ATOM      6  H   UNL     1     221.699 203.835  -5.826  1.00  0.00     0.345 HD
ENDBRANCH   2   3
BRANCH   2   7
ATOM      7  C   UNL     1     220.267 205.309  -7.022  1.00  0.00     0.099 C 
ATOM      8  O   UNL     1     219.492 206.039  -7.694  1.00  0.00    -0.544 OA
ATOM      9  O   UNL     1     221.625 205.295  -7.321  1.00  0.00    -0.544 OA
ENDBRANCH   2   7
ENDBRANCH   1   2
BRANCH   1  10
ATOM     10  C   UNL     1     217.663 205.032  -4.461  1.00  0.00     0.076 C 
BRANCH  10  11
ATOM     11  S   UNL     1     216.843 206.413  -3.580  1.00  0.00    -0.165 SA
ATOM     12  C   UNL     1     218.351 207.064  -2.790  1.00  0.00     0.085 C 
ENDBRANCH  10  11
ENDBRANCH   1  10
TORSDOF 5
ENDMDL
MODEL 8
REMARK VINA RESULT:    -2.550     19.768     20.600
REMARK INTER + INTRA:          -3.287
REMARK INTER:                  -3.102
REMARK INTRA:                  -0.185
REMARK UNBOUND:                -0.066
REMARK SMILES CSCC[C@H]([NH3+])C(=O)[O-]
REMARK SMILES IDX 4 1 5 2 6 3 7 7 8 8 9 9 3 10 2 11 1 12
REMARK H PARENT 6 4 6 5 6 6
REMARK Flexibility Score: inf
ROOT
ATOM      1  C   UNL     1     220.728 203.245  -5.342  1.00  0.00     0.082 C 
ENDROOT
BRANCH   1   2
ATOM      2  C   UNL     1     220.277 204.714  -5.515  1.00  0.00     0.228 C 
BRANCH   2   3
ATOM      3  N   UNL     1     218.829 204.831  -5.305  1.00  0.00    -0.350 N 
ATOM      4  H   UNL     1     218.607 204.883  -4.284  1.00  0.00     0.345 HD
ATOM      5  H   UNL     1     218.341 204.004  -5.721  1.00  0.00     0.345 HD
ATOM      6  H   UNL     1     218.471 205.693  -5.777  1.00  0.00     0.345 HD
ENDBRANCH   2   3
BRANCH   2   7
ATOM      7  C   UNL     1     220.641 205.235  -6.881  1.00  0.00     0.099 C 
ATOM      8  O   UNL     1     221.845 205.268  -7.245  1.00  0.00    -0.544 OA
ATOM      9  O   UNL     1     219.650 205.679  -7.750  1.00  0.00    -0.544 OA
ENDBRANCH   2   7
ENDBRANCH   1   2
BRANCH   1  10
ATOM     10  C   UNL     1     219.662 202.221  -5.764  1.00  0.00     0.076 C 
BRANCH  10  11
ATOM     11  S   UNL     1     220.327 200.973  -6.928  1.00  0.00    -0.165 SA
ATOM     12  C   UNL     1     219.995 201.926  -8.446  1.00  0.00     0.085 C 
ENDBRANCH  10  11
ENDBRANCH   1  10
TORSDOF 5
ENDMDL
MODEL 9
REMARK VINA RESULT:    -2.503      3.284      4.164
REMARK INTER + INTRA:          -3.228
REMARK INTER:                  -3.011
REMARK INTRA:                  -0.217
REMARK UNBOUND:                -0.066
REMARK SMILES CSCC[C@H]([NH3+])C(=O)[O-]
REMARK SMILES IDX 4 1 5 2 6 3 7 7 8 8 9 9 3 10 2 11 1 12
REMARK H PARENT 6 4 6 5 6 6
REMARK Flexibility Score: inf
ROOT
ATOM      1  C   UNL     1     205.686 189.002  -3.475  1.00  0.00     0.082 C 
ENDROOT
BRANCH   1   2
ATOM      2  C   UNL     1     205.841 190.119  -2.417  1.00  0.00     0.228 C 
BRANCH   2   3
ATOM      3  N   UNL     1     205.138 191.332  -2.850  1.00  0.00    -0.350 N 
ATOM      4  H   UNL     1     204.851 191.908  -2.025  1.00  0.00     0.345 HD
ATOM      5  H   UNL     1     204.287 191.073  -3.401  1.00  0.00     0.345 HD
ATOM      6  H   UNL     1     205.763 191.903  -3.465  1.00  0.00     0.345 HD
ENDBRANCH   2   3
BRANCH   2   7
ATOM      7  C   UNL     1     207.293 190.429  -2.165  1.00  0.00     0.099 C 
ATOM      8  O   UNL     1     207.807 190.182  -1.043  1.00  0.00    -0.544 OA
ATOM      9  O   UNL     1     208.076 190.986  -3.169  1.00  0.00    -0.544 OA
ENDBRANCH   2   7
ENDBRANCH   1   2
BRANCH   1  10
ATOM     10  C   UNL     1     206.510 187.742  -3.164  1.00  0.00     0.076 C 
BRANCH  10  11
ATOM     11  S   UNL     1     207.491 187.187  -4.607  1.00  0.00    -0.165 SA
ATOM     12  C   UNL     1     209.117 187.653  -3.929  1.00  0.00     0.085 C 
ENDBRANCH  10  11
ENDBRANCH   1  10
TORSDOF 5
ENDMDL
