MODEL 1
REMARK VINA RESULT:    -4.387      0.000      0.000
REMARK INTER + INTRA:          -4.737
REMARK INTER:                  -4.643
REMARK INTRA:                  -0.094
REMARK UNBOUND:                -0.094
REMARK SMILES C=C(C)[C@H]1CC=C(C)C(=O)C1
REMARK SMILES IDX 8 1 7 2 6 3 5 4 4 5 11 6 9 7 10 8 2 9 1 10 3 11
REMARK H PARENT
REMARK Flexibility Score: inf
ROOT
ATOM      1  C   UNL     1     -25.290  -8.942  -5.195  1.00  0.00     0.048 C 
ATOM      2  C   UNL     1     -24.309  -9.558  -6.154  1.00  0.00    -0.012 C 
ATOM      3  C   UNL     1     -23.844  -8.846  -7.195  1.00  0.00    -0.019 C 
ATOM      4  C   UNL     1     -22.924  -9.445  -8.227  1.00  0.00     0.036 C 
ATOM      5  C   UNL     1     -22.039 -10.544  -7.610  1.00  0.00     0.025 C 
ATOM      6  C   UNL     1     -22.910 -11.608  -6.918  1.00  0.00     0.089 C 
ATOM      7  C   UNL     1     -23.875 -10.963  -5.960  1.00  0.00     0.158 C 
ATOM      8  O   UNL     1     -24.348 -11.647  -5.013  1.00  0.00    -0.295 OA
ENDROOT
BRANCH   5   9
ATOM      9  C   UNL     1     -21.121 -11.169  -8.652  1.00  0.00    -0.077 C 
ATOM     10  C   UNL     1     -20.134 -11.995  -8.270  1.00  0.00     0.008 C 
ATOM     11  C   UNL     1     -21.292 -10.883 -10.123  1.00  0.00     0.039 C 
ENDBRANCH   5   9
TORSDOF 1
ENDMDL
MODEL 2
REMARK VINA RESULT:    -4.146      1.654      2.418
REMARK INTER + INTRA:          -4.482
REMARK INTER:                  -4.384
REMARK INTRA:                  -0.099
REMARK UNBOUND:                -0.094
REMARK SMILES C=C(C)[C@H]1CC=C(C)C(=O)C1
REMARK SMILES IDX 8 1 7 2 6 3 5 4 4 5 11 6 9 7 10 8 2 9 1 10 3 11
REMARK H PARENT
REMARK Flexibility Score: inf
ROOT
ATOM      1  C   UNL     1     -24.208  -7.732  -8.838  1.00  0.00     0.048 C 
ATOM      2  C   UNL     1     -23.324  -8.948  -8.812  1.00  0.00    -0.012 C 
ATOM      3  C   UNL     1     -22.674  -9.336  -9.923  1.00  0.00    -0.019 C 
ATOM      4  C   UNL     1     -21.843 -10.591  -9.966  1.00  0.00     0.036 C 
ATOM      5  C   UNL     1     -21.229 -10.899  -8.588  1.00  0.00     0.025 C 
ATOM      6  C   UNL     1     -22.329 -10.965  -7.514  1.00  0.00     0.089 C 
ATOM      7  C   UNL     1     -23.192  -9.733  -7.560  1.00  0.00     0.158 C 
ATOM      8  O   UNL     1     -23.839  -9.399  -6.532  1.00  0.00    -0.295 OA
ENDROOT
BRANCH   5   9
ATOM      9  C   UNL     1     -20.404 -12.179  -8.619  1.00  0.00    -0.077 C 
ATOM     10  C   UNL     1     -20.754 -13.224  -7.853  1.00  0.00     0.008 C 
ATOM     11  C   UNL     1     -19.188 -12.308  -9.502  1.00  0.00     0.039 C 
ENDBRANCH   5   9
TORSDOF 1
ENDMDL
MODEL 3
REMARK VINA RESULT:    -4.090      1.776      4.337
REMARK INTER + INTRA:          -4.423
REMARK INTER:                  -4.325
REMARK INTRA:                  -0.098
REMARK UNBOUND:                -0.094
REMARK SMILES C=C(C)[C@H]1CC=C(C)C(=O)C1
REMARK SMILES IDX 8 1 7 2 6 3 5 4 4 5 11 6 9 7 10 8 2 9 1 10 3 11
REMARK H PARENT
REMARK Flexibility Score: inf
ROOT
ATOM      1  C   UNL     1     -20.497 -11.640 -10.089  1.00  0.00     0.048 C 
ATOM      2  C   UNL     1     -21.353 -11.384  -8.879  1.00  0.00    -0.012 C 
ATOM      3  C   UNL     1     -22.017 -10.221  -8.755  1.00  0.00    -0.019 C 
ATOM      4  C   UNL     1     -22.821  -9.887  -7.526  1.00  0.00     0.036 C 
ATOM      5  C   UNL     1     -23.400 -11.158  -6.878  1.00  0.00     0.025 C 
ATOM      6  C   UNL     1     -22.277 -12.168  -6.584  1.00  0.00     0.089 C 
ATOM      7  C   UNL     1     -21.443 -12.410  -7.812  1.00  0.00     0.158 C 
ATOM      8  O   UNL     1     -20.783 -13.479  -7.905  1.00  0.00    -0.295 OA
ENDROOT
BRANCH   5   9
ATOM      9  C   UNL     1     -24.197 -10.830  -5.623  1.00  0.00    -0.077 C 
ATOM     10  C   UNL     1     -24.053 -11.580  -4.518  1.00  0.00     0.008 C 
ATOM     11  C   UNL     1     -25.157  -9.668  -5.583  1.00  0.00     0.039 C 
ENDBRANCH   5   9
TORSDOF 1
ENDMDL
MODEL 4
REMARK VINA RESULT:    -4.089      1.319      2.259
REMARK INTER + INTRA:          -4.422
REMARK INTER:                  -4.329
REMARK INTRA:                  -0.093
REMARK UNBOUND:                -0.094
REMARK SMILES C=C(C)[C@H]1CC=C(C)C(=O)C1
REMARK SMILES IDX 8 1 7 2 6 3 5 4 4 5 11 6 9 7 10 8 2 9 1 10 3 11
REMARK H PARENT
REMARK Flexibility Score: inf
ROOT
ATOM      1  C   UNL     1     -25.584 -10.300  -4.950  1.00  0.00     0.048 C 
ATOM      2  C   UNL     1     -24.402 -10.517  -5.855  1.00  0.00    -0.012 C 
ATOM      3  C   UNL     1     -23.755 -11.695  -5.852  1.00  0.00    -0.019 C 
ATOM      4  C   UNL     1     -22.520 -11.931  -6.680  1.00  0.00     0.036 C 
ATOM      5  C   UNL     1     -22.545 -11.089  -7.968  1.00  0.00     0.025 C 
ATOM      6  C   UNL     1     -22.746  -9.601  -7.632  1.00  0.00     0.089 C 
ATOM      7  C   UNL     1     -23.938  -9.415  -6.733  1.00  0.00     0.158 C 
ATOM      8  O   UNL     1     -24.514  -8.294  -6.701  1.00  0.00    -0.295 OA
ENDROOT
BRANCH   5   9
ATOM      9  C   UNL     1     -21.289 -11.306  -8.801  1.00  0.00    -0.077 C 
ATOM     10  C   UNL     1     -21.253 -10.907 -10.082  1.00  0.00     0.008 C 
ATOM     11  C   UNL     1     -20.065 -11.967  -8.218  1.00  0.00     0.039 C 
ENDBRANCH   5   9
TORSDOF 1
ENDMDL
MODEL 5
REMARK VINA RESULT:    -3.917      1.427      2.639
REMARK INTER + INTRA:          -4.240
REMARK INTER:                  -4.143
REMARK INTRA:                  -0.097
REMARK UNBOUND:                -0.094
REMARK SMILES C=C(C)[C@H]1CC=C(C)C(=O)C1
REMARK SMILES IDX 8 1 7 2 6 3 5 4 4 5 11 6 9 7 10 8 2 9 1 10 3 11
REMARK H PARENT
REMARK Flexibility Score: inf
ROOT
ATOM      1  C   UNL     1     -24.912 -11.525  -3.801  1.00  0.00     0.048 C 
ATOM      2  C   UNL     1     -24.273 -11.034  -5.071  1.00  0.00    -0.012 C 
ATOM      3  C   UNL     1     -23.483 -11.850  -5.790  1.00  0.00    -0.019 C 
ATOM      4  C   UNL     1     -22.757 -11.379  -7.023  1.00  0.00     0.036 C 
ATOM      5  C   UNL     1     -23.546 -10.269  -7.741  1.00  0.00     0.025 C 
ATOM      6  C   UNL     1     -23.854  -9.116  -6.770  1.00  0.00     0.089 C 
ATOM      7  C   UNL     1     -24.499  -9.636  -5.514  1.00  0.00     0.158 C 
ATOM      8  O   UNL     1     -25.200  -8.856  -4.815  1.00  0.00    -0.295 OA
ENDROOT
BRANCH   5   9
ATOM      9  C   UNL     1     -22.809  -9.773  -8.978  1.00  0.00    -0.077 C 
ATOM     10  C   UNL     1     -23.177  -8.623  -9.566  1.00  0.00     0.008 C 
ATOM     11  C   UNL     1     -21.658 -10.547  -9.570  1.00  0.00     0.039 C 
ENDBRANCH   5   9
TORSDOF 1
ENDMDL
MODEL 6
REMARK VINA RESULT:    -3.895      1.210      2.063
REMARK INTER + INTRA:          -4.217
REMARK INTER:                  -4.119
REMARK INTRA:                  -0.098
REMARK UNBOUND:                -0.094
REMARK SMILES C=C(C)[C@H]1CC=C(C)C(=O)C1
REMARK SMILES IDX 8 1 7 2 6 3 5 4 4 5 11 6 9 7 10 8 2 9 1 10 3 11
REMARK H PARENT
REMARK Flexibility Score: inf
ROOT
ATOM      1  C   UNL     1     -25.155  -9.517  -3.436  1.00  0.00     0.048 C 
ATOM      2  C   UNL     1     -24.648  -9.526  -4.852  1.00  0.00    -0.012 C 
ATOM      3  C   UNL     1     -24.542  -8.375  -5.539  1.00  0.00    -0.019 C 
ATOM      4  C   UNL     1     -24.117  -8.343  -6.984  1.00  0.00     0.036 C 
ATOM      5  C   UNL     1     -23.160  -9.505  -7.307  1.00  0.00     0.025 C 
ATOM      6  C   UNL     1     -23.799 -10.850  -6.917  1.00  0.00     0.089 C 
ATOM      7  C   UNL     1     -24.289 -10.813  -5.495  1.00  0.00     0.158 C 
ATOM      8  O   UNL     1     -24.433 -11.896  -4.868  1.00  0.00    -0.295 OA
ENDROOT
BRANCH   5   9
ATOM      9  C   UNL     1     -22.743  -9.491  -8.771  1.00  0.00    -0.077 C 
ATOM     10  C   UNL     1     -23.204  -8.536  -9.595  1.00  0.00     0.008 C 
ATOM     11  C   UNL     1     -21.809 -10.535  -9.332  1.00  0.00     0.039 C 
ENDBRANCH   5   9
TORSDOF 1
ENDMDL
MODEL 7
REMARK VINA RESULT:    -3.880      2.153      4.613
REMARK INTER + INTRA:          -4.200
REMARK INTER:                  -4.102
REMARK INTRA:                  -0.099
REMARK UNBOUND:                -0.094
REMARK SMILES C=C(C)[C@H]1CC=C(C)C(=O)C1
REMARK SMILES IDX 8 1 7 2 6 3 5 4 4 5 11 6 9 7 10 8 2 9 1 10 3 11
REMARK H PARENT
REMARK Flexibility Score: inf
ROOT
ATOM      1  C   UNL     1     -20.491 -13.455  -8.212  1.00  0.00     0.048 C 
ATOM      2  C   UNL     1     -21.426 -12.285  -8.075  1.00  0.00    -0.012 C 
ATOM      3  C   UNL     1     -22.305 -12.238  -7.059  1.00  0.00    -0.019 C 
ATOM      4  C   UNL     1     -23.314 -11.128  -6.926  1.00  0.00     0.036 C 
ATOM      5  C   UNL     1     -22.775  -9.812  -7.517  1.00  0.00     0.025 C 
ATOM      6  C   UNL     1     -22.329 -10.023  -8.975  1.00  0.00     0.089 C 
ATOM      7  C   UNL     1     -21.390 -11.194  -9.079  1.00  0.00     0.158 C 
ATOM      8  O   UNL     1     -20.599 -11.261 -10.059  1.00  0.00    -0.295 OA
ENDROOT
BRANCH   5   9
ATOM      9  C   UNL     1     -23.798  -8.690  -7.405  1.00  0.00    -0.077 C 
ATOM     10  C   UNL     1     -24.143  -7.982  -8.492  1.00  0.00     0.008 C 
ATOM     11  C   UNL     1     -24.446  -8.347  -6.087  1.00  0.00     0.039 C 
ENDBRANCH   5   9
TORSDOF 1
ENDMDL
MODEL 8
REMARK VINA RESULT:    -3.670     13.126     15.436
REMARK INTER + INTRA:          -3.979
REMARK INTER:                  -3.883
REMARK INTRA:                  -0.096
REMARK UNBOUND:                -0.094
REMARK SMILES C=C(C)[C@H]1CC=C(C)C(=O)C1
REMARK SMILES IDX 8 1 7 2 6 3 5 4 4 5 11 6 9 7 10 8 2 9 1 10 3 11
REMARK H PARENT
REMARK Flexibility Score: inf
ROOT
ATOM      1  C   UNL     1     -10.400 -11.850  -6.037  1.00  0.00     0.048 C 
ATOM      2  C   UNL     1      -9.597 -12.533  -4.965  1.00  0.00    -0.012 C 
ATOM      3  C   UNL     1      -9.420 -11.939  -3.771  1.00  0.00    -0.019 C 
ATOM      4  C   UNL     1      -8.558 -12.546  -2.696  1.00  0.00     0.036 C 
ATOM      5  C   UNL     1      -8.567 -14.084  -2.779  1.00  0.00     0.025 C 
ATOM      6  C   UNL     1      -8.156 -14.548  -4.187  1.00  0.00     0.089 C 
ATOM      7  C   UNL     1      -8.980 -13.854  -5.237  1.00  0.00     0.158 C 
ATOM      8  O   UNL     1      -9.105 -14.389  -6.372  1.00  0.00    -0.295 OA
ENDROOT
BRANCH   5   9
ATOM      9  C   UNL     1      -7.682 -14.705  -1.707  1.00  0.00    -0.077 C 
ATOM     10  C   UNL     1      -7.574 -16.040  -1.613  1.00  0.00     0.008 C 
ATOM     11  C   UNL     1      -6.908 -13.850  -0.735  1.00  0.00     0.039 C 
ENDBRANCH   5   9
TORSDOF 1
ENDMDL
MODEL 9
REMARK VINA RESULT:    -3.644     15.640     17.083
REMARK INTER + INTRA:          -3.951
REMARK INTER:                  -3.854
REMARK INTRA:                  -0.097
REMARK UNBOUND:                -0.094
REMARK SMILES C=C(C)[C@H]1CC=C(C)C(=O)C1
REMARK SMILES IDX 8 1 7 2 6 3 5 4 4 5 11 6 9 7 10 8 2 9 1 10 3 11
REMARK H PARENT
REMARK Flexibility Score: inf
ROOT
ATOM      1  C   UNL     1      -9.226 -17.045   1.895  1.00  0.00     0.048 C 
ATOM      2  C   UNL     1      -8.729 -16.284   0.698  1.00  0.00    -0.012 C 
ATOM      3  C   UNL     1      -9.330 -16.432  -0.495  1.00  0.00    -0.019 C 
ATOM      4  C   UNL     1      -8.818 -15.754  -1.739  1.00  0.00     0.036 C 
ATOM      5  C   UNL     1      -8.135 -14.417  -1.401  1.00  0.00     0.025 C 
ATOM      6  C   UNL     1      -7.026 -14.631  -0.355  1.00  0.00     0.089 C 
ATOM      7  C   UNL     1      -7.555 -15.387   0.833  1.00  0.00     0.158 C 
ATOM      8  O   UNL     1      -6.961 -15.285   1.940  1.00  0.00    -0.295 OA
ENDROOT
BRANCH   5   9
ATOM      9  C   UNL     1      -7.596 -13.735  -2.651  1.00  0.00    -0.077 C 
ATOM     10  C   UNL     1      -6.354 -14.006  -3.084  1.00  0.00     0.008 C 
ATOM     11  C   UNL     1      -8.431 -12.750  -3.431  1.00  0.00     0.039 C 
ENDBRANCH   5   9
TORSDOF 1
ENDMDL
