MODEL 1
REMARK VINA RESULT:    -4.035      0.000      0.000
REMARK INTER + INTRA:          -5.409
REMARK INTER:                  -5.215
REMARK INTRA:                  -0.194
REMARK UNBOUND:                -0.194
REMARK SMILES CCCCCCC(=O)[O-]
REMARK SMILES IDX 5 1 6 2 7 3 8 4 9 5 4 6 3 7 2 8 1 9
REMARK H PARENT
REMARK Flexibility Score: inf
ROOT
ATOM      1  C   UNL     1       9.086  11.981 -20.925  1.00  0.00     0.006 C 
ENDROOT
BRANCH   1   2
ATOM      2  C   UNL     1      10.006  10.827 -20.504  1.00  0.00     0.053 C 
BRANCH   2   3
ATOM      3  C   UNL     1      10.374  10.912 -19.056  1.00  0.00     0.041 C 
ATOM      4  O   UNL     1       9.630  11.528 -18.247  1.00  0.00    -0.550 OA
ATOM      5  O   UNL     1      11.520  10.281 -18.590  1.00  0.00    -0.550 OA
ENDBRANCH   2   3
ENDBRANCH   1   2
BRANCH   1   6
ATOM      6  C   UNL     1       7.630  11.520 -21.118  1.00  0.00     0.000 C 
BRANCH   6   7
ATOM      7  C   UNL     1       6.611  12.589 -20.694  1.00  0.00    -0.000 C 
BRANCH   7   8
ATOM      8  C   UNL     1       6.652  12.879 -19.186  1.00  0.00    -0.003 C 
ATOM      9  C   UNL     1       5.875  14.149 -18.850  1.00  0.00     0.004 C 
ENDBRANCH   7   8
ENDBRANCH   6   7
ENDBRANCH   1   6
TORSDOF 5
ENDMDL
MODEL 2
REMARK VINA RESULT:    -4.021     13.132     14.267
REMARK INTER + INTRA:          -5.391
REMARK INTER:                  -5.243
REMARK INTRA:                  -0.148
REMARK UNBOUND:                -0.194
REMARK SMILES CCCCCCC(=O)[O-]
REMARK SMILES IDX 5 1 6 2 7 3 8 4 9 5 4 6 3 7 2 8 1 9
REMARK H PARENT
REMARK Flexibility Score: inf
ROOT
ATOM      1  C   UNL     1       0.724  11.875  -7.675  1.00  0.00     0.006 C 
ENDROOT
BRANCH   1   2
ATOM      2  C   UNL     1       1.002  10.420  -8.079  1.00  0.00     0.053 C 
BRANCH   2   3
ATOM      3  C   UNL     1       2.470  10.150  -8.199  1.00  0.00     0.041 C 
ATOM      4  O   UNL     1       2.928   9.583  -9.226  1.00  0.00    -0.550 OA
ATOM      5  O   UNL     1       3.337  10.555  -7.193  1.00  0.00    -0.550 OA
ENDBRANCH   2   3
ENDBRANCH   1   2
BRANCH   1   6
ATOM      6  C   UNL     1      -0.746  12.268  -7.903  1.00  0.00     0.000 C 
BRANCH   6   7
ATOM      7  C   UNL     1      -1.606  11.087  -8.382  1.00  0.00    -0.000 C 
BRANCH   7   8
ATOM      8  C   UNL     1      -2.761  11.529  -9.293  1.00  0.00    -0.003 C 
ATOM      9  C   UNL     1      -3.612  10.335  -9.718  1.00  0.00     0.004 C 
ENDBRANCH   7   8
ENDBRANCH   6   7
ENDBRANCH   1   6
TORSDOF 5
ENDMDL
MODEL 3
REMARK VINA RESULT:    -4.018     13.441     15.060
REMARK INTER + INTRA:          -5.386
REMARK INTER:                  -5.085
REMARK INTRA:                  -0.301
REMARK UNBOUND:                -0.194
REMARK SMILES CCCCCCC(=O)[O-]
REMARK SMILES IDX 5 1 6 2 7 3 8 4 9 5 4 6 3 7 2 8 1 9
REMARK H PARENT
REMARK Flexibility Score: inf
ROOT
ATOM      1  C   UNL     1       0.680  11.949  -7.642  1.00  0.00     0.006 C 
ENDROOT
BRANCH   1   2
ATOM      2  C   UNL     1       0.085  12.302  -6.272  1.00  0.00     0.053 C 
BRANCH   2   3
ATOM      3  C   UNL     1       1.124  12.277  -5.194  1.00  0.00     0.041 C 
ATOM      4  O   UNL     1       0.788  12.097  -3.994  1.00  0.00    -0.550 OA
ATOM      5  O   UNL     1       2.467  12.418  -5.519  1.00  0.00    -0.550 OA
ENDBRANCH   2   3
ENDBRANCH   1   2
BRANCH   1   6
ATOM      6  C   UNL     1       0.515  10.457  -7.978  1.00  0.00     0.000 C 
BRANCH   6   7
ATOM      7  C   UNL     1       1.805   9.654  -7.749  1.00  0.00    -0.000 C 
BRANCH   7   8
ATOM      8  C   UNL     1       3.043  10.341  -8.345  1.00  0.00    -0.003 C 
ATOM      9  C   UNL     1       3.519   9.621  -9.603  1.00  0.00     0.004 C 
ENDBRANCH   7   8
ENDBRANCH   6   7
ENDBRANCH   1   6
TORSDOF 5
ENDMDL
MODEL 4
REMARK VINA RESULT:    -3.929     12.997     14.223
REMARK INTER + INTRA:          -5.271
REMARK INTER:                  -5.151
REMARK INTRA:                  -0.120
REMARK UNBOUND:                -0.194
REMARK SMILES CCCCCCC(=O)[O-]
REMARK SMILES IDX 5 1 6 2 7 3 8 4 9 5 4 6 3 7 2 8 1 9
REMARK H PARENT
REMARK Flexibility Score: inf
ROOT
ATOM      1  C   UNL     1       0.489  11.210  -7.747  1.00  0.00     0.006 C 
ENDROOT
BRANCH   1   2
ATOM      2  C   UNL     1       1.293   9.917  -7.942  1.00  0.00     0.053 C 
BRANCH   2   3
ATOM      3  C   UNL     1       2.748  10.196  -8.152  1.00  0.00     0.041 C 
ATOM      4  O   UNL     1       3.409  10.815  -7.276  1.00  0.00    -0.550 OA
ATOM      5  O   UNL     1       3.385   9.741  -9.300  1.00  0.00    -0.550 OA
ENDBRANCH   2   3
ENDBRANCH   1   2
BRANCH   1   6
ATOM      6  C   UNL     1      -0.976  11.055  -8.192  1.00  0.00     0.000 C 
BRANCH   6   7
ATOM      7  C   UNL     1      -1.733  12.392  -8.207  1.00  0.00    -0.000 C 
BRANCH   7   8
ATOM      8  C   UNL     1      -3.156  12.259  -8.772  1.00  0.00    -0.003 C 
ATOM      9  C   UNL     1      -3.258  11.073  -9.727  1.00  0.00     0.004 C 
ENDBRANCH   7   8
ENDBRANCH   6   7
ENDBRANCH   1   6
TORSDOF 5
ENDMDL
MODEL 5
REMARK VINA RESULT:    -3.927     13.890     15.533
REMARK INTER + INTRA:          -5.269
REMARK INTER:                  -5.110
REMARK INTRA:                  -0.159
REMARK UNBOUND:                -0.194
REMARK SMILES CCCCCCC(=O)[O-]
REMARK SMILES IDX 5 1 6 2 7 3 8 4 9 5 4 6 3 7 2 8 1 9
REMARK H PARENT
REMARK Flexibility Score: inf
ROOT
ATOM      1  C   UNL     1      -1.298  11.144  -8.321  1.00  0.00     0.006 C 
ENDROOT
BRANCH   1   2
ATOM      2  C   UNL     1      -2.536  11.784  -8.962  1.00  0.00     0.053 C 
BRANCH   2   3
ATOM      3  C   UNL     1      -3.574  10.761  -9.306  1.00  0.00     0.041 C 
ATOM      4  O   UNL     1      -4.003   9.971  -8.424  1.00  0.00    -0.550 OA
ATOM      5  O   UNL     1      -4.093  10.702 -10.593  1.00  0.00    -0.550 OA
ENDBRANCH   2   3
ENDBRANCH   1   2
BRANCH   1   6
ATOM      6  C   UNL     1      -0.317  12.197  -7.775  1.00  0.00     0.000 C 
BRANCH   6   7
ATOM      7  C   UNL     1       1.143  11.717  -7.806  1.00  0.00    -0.000 C 
BRANCH   7   8
ATOM      8  C   UNL     1       1.265  10.214  -8.095  1.00  0.00    -0.003 C 
ATOM      9  C   UNL     1       2.643   9.873  -8.653  1.00  0.00     0.004 C 
ENDBRANCH   7   8
ENDBRANCH   6   7
ENDBRANCH   1   6
TORSDOF 5
ENDMDL
MODEL 6
REMARK VINA RESULT:    -3.903     13.336     15.227
REMARK INTER + INTRA:          -5.238
REMARK INTER:                  -5.148
REMARK INTRA:                  -0.090
REMARK UNBOUND:                -0.194
REMARK SMILES CCCCCCC(=O)[O-]
REMARK SMILES IDX 5 1 6 2 7 3 8 4 9 5 4 6 3 7 2 8 1 9
REMARK H PARENT
REMARK Flexibility Score: inf
ROOT
ATOM      1  C   UNL     1      -0.864  10.886  -8.089  1.00  0.00     0.006 C 
ENDROOT
BRANCH   1   2
ATOM      2  C   UNL     1      -1.732  12.141  -8.259  1.00  0.00     0.053 C 
BRANCH   2   3
ATOM      3  C   UNL     1      -2.994  11.844  -9.007  1.00  0.00     0.041 C 
ATOM      4  O   UNL     1      -2.959  11.163 -10.066  1.00  0.00    -0.550 OA
ATOM      5  O   UNL     1      -4.215  12.291  -8.516  1.00  0.00    -0.550 OA
ENDBRANCH   2   3
ENDBRANCH   1   2
BRANCH   1   6
ATOM      6  C   UNL     1       0.633  11.226  -7.992  1.00  0.00     0.000 C 
BRANCH   6   7
ATOM      7  C   UNL     1       1.516   9.975  -7.864  1.00  0.00    -0.000 C 
BRANCH   7   8
ATOM      8  C   UNL     1       2.992  10.257  -8.182  1.00  0.00    -0.003 C 
ATOM      9  C   UNL     1       3.384   9.670  -9.535  1.00  0.00     0.004 C 
ENDBRANCH   7   8
ENDBRANCH   6   7
ENDBRANCH   1   6
TORSDOF 5
ENDMDL
MODEL 7
REMARK VINA RESULT:    -3.819     13.185     14.736
REMARK INTER + INTRA:          -5.129
REMARK INTER:                  -4.907
REMARK INTRA:                  -0.222
REMARK UNBOUND:                -0.194
REMARK SMILES CCCCCCC(=O)[O-]
REMARK SMILES IDX 5 1 6 2 7 3 8 4 9 5 4 6 3 7 2 8 1 9
REMARK H PARENT
REMARK Flexibility Score: inf
ROOT
ATOM      1  C   UNL     1       0.462  11.368  -7.790  1.00  0.00     0.006 C 
ENDROOT
BRANCH   1   2
ATOM      2  C   UNL     1       1.175  10.011  -7.862  1.00  0.00     0.053 C 
BRANCH   2   3
ATOM      3  C   UNL     1       2.632  10.166  -8.167  1.00  0.00     0.041 C 
ATOM      4  O   UNL     1       3.398  10.725  -7.338  1.00  0.00    -0.550 OA
ATOM      5  O   UNL     1       3.152   9.664  -9.353  1.00  0.00    -0.550 OA
ENDBRANCH   2   3
ENDBRANCH   1   2
BRANCH   1   6
ATOM      6  C   UNL     1      -0.033  11.689  -6.369  1.00  0.00     0.000 C 
BRANCH   6   7
ATOM      7  C   UNL     1       0.426  13.073  -5.882  1.00  0.00    -0.000 C 
BRANCH   7   8
ATOM      8  C   UNL     1       1.821  13.040  -5.239  1.00  0.00    -0.003 C 
ATOM      9  C   UNL     1       2.071  14.294  -4.406  1.00  0.00     0.004 C 
ENDBRANCH   7   8
ENDBRANCH   6   7
ENDBRANCH   1   6
TORSDOF 5
ENDMDL
MODEL 8
REMARK VINA RESULT:    -3.719     11.194     12.317
REMARK INTER + INTRA:          -5.000
REMARK INTER:                  -4.799
REMARK INTRA:                  -0.200
REMARK UNBOUND:                -0.194
REMARK SMILES CCCCCCC(=O)[O-]
REMARK SMILES IDX 5 1 6 2 7 3 8 4 9 5 4 6 3 7 2 8 1 9
REMARK H PARENT
REMARK Flexibility Score: inf
ROOT
ATOM      1  C   UNL     1      -0.256   5.137 -19.263  1.00  0.00     0.006 C 
ENDROOT
BRANCH   1   2
ATOM      2  C   UNL     1      -1.235   5.437 -20.406  1.00  0.00     0.053 C 
BRANCH   2   3
ATOM      3  C   UNL     1      -2.313   6.383 -19.978  1.00  0.00     0.041 C 
ATOM      4  O   UNL     1      -2.655   7.336 -20.727  1.00  0.00    -0.550 OA
ATOM      5  O   UNL     1      -2.966   6.193 -18.766  1.00  0.00    -0.550 OA
ENDBRANCH   2   3
ENDBRANCH   1   2
BRANCH   1   6
ATOM      6  C   UNL     1       1.204   5.088 -19.748  1.00  0.00     0.000 C 
BRANCH   6   7
ATOM      7  C   UNL     1       1.447   3.970 -20.775  1.00  0.00    -0.000 C 
BRANCH   7   8
ATOM      8  C   UNL     1       2.134   2.741 -20.160  1.00  0.00    -0.003 C 
ATOM      9  C   UNL     1       1.118   1.651 -19.831  1.00  0.00     0.004 C 
ENDBRANCH   7   8
ENDBRANCH   6   7
ENDBRANCH   1   6
TORSDOF 5
ENDMDL
MODEL 9
REMARK VINA RESULT:    -3.696     16.015     17.726
REMARK INTER + INTRA:          -4.971
REMARK INTER:                  -4.703
REMARK INTRA:                  -0.268
REMARK UNBOUND:                -0.194
REMARK SMILES CCCCCCC(=O)[O-]
REMARK SMILES IDX 5 1 6 2 7 3 8 4 9 5 4 6 3 7 2 8 1 9
REMARK H PARENT
REMARK Flexibility Score: inf
ROOT
ATOM      1  C   UNL     1      -6.131   8.747  -9.347  1.00  0.00     0.006 C 
ENDROOT
BRANCH   1   2
ATOM      2  C   UNL     1      -6.988   7.501  -9.610  1.00  0.00     0.053 C 
BRANCH   2   3
ATOM      3  C   UNL     1      -6.305   6.544 -10.537  1.00  0.00     0.041 C 
ATOM      4  O   UNL     1      -6.787   5.397 -10.733  1.00  0.00    -0.550 OA
ATOM      5  O   UNL     1      -5.154   6.930 -11.211  1.00  0.00    -0.550 OA
ENDBRANCH   2   3
ENDBRANCH   1   2
BRANCH   1   6
ATOM      6  C   UNL     1      -6.671   9.987 -10.080  1.00  0.00     0.000 C 
BRANCH   6   7
ATOM      7  C   UNL     1      -5.552  10.934 -10.541  1.00  0.00    -0.000 C 
BRANCH   7   8
ATOM      8  C   UNL     1      -4.168  10.268 -10.523  1.00  0.00    -0.003 C 
ATOM      9  C   UNL     1      -3.173  11.090  -9.708  1.00  0.00     0.004 C 
ENDBRANCH   7   8
ENDBRANCH   6   7
ENDBRANCH   1   6
TORSDOF 5
ENDMDL
