MODEL 1
REMARK VINA RESULT:    16.526      0.000      0.000
REMARK INTER + INTRA:          27.483
REMARK INTER:                  26.187
REMARK INTRA:                   1.296
REMARK UNBOUND:                 1.296
REMARK SMILES C[C@H]1O[C@H](O[C@@H]2CC[C@@]3(C)[C@@H](CC[C@]4(C)[C@H]3C=C[C@]35OC[C@@]6(CCC(C)(C)C[C@@H]63)[C@H](O)C[C@@]54C)[C@]2(C)CO)[C@@H](O)[C@H](O[C@@H]2O[C@@H](CO)[C@@H](O)[C@H](O)[C@@H]2O)[C@@H]1O
REMARK SMILES IDX 1 1 2 2 54 3 41 4 39 5 4 6 3 7 55 8 42 10 43 11 52 12 44 13
REMARK SMILES IDX 50 14 45 15 48 16 53 17 51 19 46 21 47 22 49 24 5 26 6 27
REMARK SMILES IDX 7 28 35 29 8 30 11 31 36 32 9 33 12 34 10 35 16 36 13 37
REMARK SMILES IDX 14 38 17 39 15 40 33 41 18 42 19 43 32 44 34 45 29 46 20 47
REMARK SMILES IDX 30 48 22 49 28 50 21 51 23 52 25 53 24 54 26 55 27 56 37 57
REMARK SMILES IDX 38 58 31 60 40 62
REMARK H PARENT 55 9 53 18 51 20 47 23 49 25 38 59 31 61 40 63
REMARK Flexibility Score: inf
ROOT
ATOM      1  C   UNL     1       0.073   0.059   8.341  1.00  0.00     0.041 C 
ATOM      2  C   UNL     1      -0.926   0.523   9.442  1.00  0.00     0.150 C 
ATOM      3  C   UNL     1      -1.894   1.646   9.082  1.00  0.00     0.175 C 
ATOM      4  C   UNL     1      -3.186   1.319   9.846  1.00  0.00     0.186 C 
ATOM      5  C   UNL     1      -2.884   1.301  11.349  1.00  0.00     0.202 C 
ATOM      6  C   UNL     1      -1.434   0.758  11.714  1.00  0.00     0.282 C 
ATOM      7  O   UNL     1      -0.387   0.793  10.714  1.00  0.00    -0.344 OA
ENDROOT
BRANCH   3   8
ATOM      8  O   UNL     1      -2.077   1.836   7.697  1.00  0.00    -0.388 OA
ATOM      9  H   UNL     1      -1.307   2.404   7.375  1.00  0.00     0.211 HD
ENDBRANCH   3   8
BRANCH   4  10
ATOM     10  O   UNL     1      -3.711   0.020   9.500  1.00  0.00    -0.341 OA
BRANCH  10  11
ATOM     11  C   UNL     1      -4.953  -0.395  10.003  1.00  0.00     0.282 C 
ATOM     12  C   UNL     1      -6.080   0.324   9.229  1.00  0.00     0.202 C 
ATOM     13  O   UNL     1      -5.070  -1.811   9.769  1.00  0.00    -0.341 OA
ATOM     14  C   UNL     1      -5.977   0.052   7.681  1.00  0.00     0.179 C 
ATOM     15  C   UNL     1      -4.927  -2.197   8.406  1.00  0.00     0.178 C 
ATOM     16  C   UNL     1      -5.990  -1.491   7.496  1.00  0.00     0.177 C 
BRANCH  12  17
ATOM     17  O   UNL     1      -6.031   1.719   9.567  1.00  0.00    -0.385 OA
ATOM     18  H   UNL     1      -6.978   2.048   9.338  1.00  0.00     0.211 HD
ENDBRANCH  12  17
BRANCH  14  19
ATOM     19  O   UNL     1      -4.838   0.624   7.078  1.00  0.00    -0.387 OA
ATOM     20  H   UNL     1      -4.375   1.190   7.774  1.00  0.00     0.211 HD
ENDBRANCH  14  19
BRANCH  15  21
ATOM     21  C   UNL     1      -5.012  -3.719   8.323  1.00  0.00     0.191 C 
BRANCH  21  22
ATOM     22  O   UNL     1      -5.705  -4.251   9.418  1.00  0.00    -0.394 OA
ATOM     23  H   UNL     1      -6.073  -5.125   9.109  1.00  0.00     0.210 HD
ENDBRANCH  21  22
ENDBRANCH  15  21
BRANCH  16  24
ATOM     24  O   UNL     1      -7.300  -2.008   7.652  1.00  0.00    -0.387 OA
ATOM     25  H   UNL     1      -7.240  -2.831   8.212  1.00  0.00     0.211 HD
ENDBRANCH  16  24
ENDBRANCH  10  11
ENDBRANCH   4  10
BRANCH   6  26
ATOM     26  O   UNL     1      -1.671  -0.592  12.066  1.00  0.00    -0.346 OA
BRANCH  26  27
ATOM     27  C   UNL     1      -2.990  -0.961  12.470  1.00  0.00     0.130 C 
ATOM     28  C   UNL     1      -3.702  -0.100  13.573  1.00  0.00     0.033 C 
ATOM     29  C   UNL     1      -2.904  -2.478  12.815  1.00  0.00     0.020 C 
ATOM     30  C   UNL     1      -4.869  -0.817  14.261  1.00  0.00     0.010 C 
ATOM     31  C   UNL     1      -4.252  -3.051  13.421  1.00  0.00     0.006 C 
ATOM     32  C   UNL     1      -2.524  -3.200  11.469  1.00  0.00     0.017 C 
ATOM     33  C   UNL     1      -5.470  -2.039  13.487  1.00  0.00    -0.022 C 
ATOM     34  C   UNL     1      -4.643  -4.438  12.864  1.00  0.00     0.005 C 
ATOM     35  C   UNL     1      -6.017  -1.550  12.099  1.00  0.00     0.012 C 
ATOM     36  C   UNL     1      -6.684  -2.737  14.277  1.00  0.00     0.024 C 
ATOM     37  C   UNL     1      -5.685  -5.072  13.725  1.00  0.00     0.008 C 
ATOM     38  C   UNL     1      -7.019  -4.245  13.842  1.00  0.00    -0.017 C 
ATOM     39  C   UNL     1      -6.522  -2.579  15.760  1.00  0.00    -0.024 C 
ATOM     40  C   UNL     1      -7.687  -4.263  12.423  1.00  0.00     0.013 C 
ATOM     41  C   UNL     1      -8.027  -4.941  14.913  1.00  0.00     0.009 C 
ATOM     42  C   UNL     1      -6.785  -3.487  16.674  1.00  0.00     0.005 C 
ATOM     43  C   UNL     1      -7.525  -4.767  16.429  1.00  0.00     0.096 C 
ATOM     44  C   UNL     1      -8.225  -6.481  14.595  1.00  0.00     0.043 C 
ATOM     45  C   UNL     1      -9.442  -4.290  14.792  1.00  0.00     0.015 C 
ATOM     46  C   UNL     1      -6.721  -6.011  16.911  1.00  0.00     0.037 C 
ATOM     47  O   UNL     1      -8.651  -4.708  17.301  1.00  0.00    -0.369 OA
ATOM     48  C   UNL     1      -8.555  -7.402  15.799  1.00  0.00     0.124 C 
ATOM     49  C   UNL     1      -7.886  -6.943  17.172  1.00  0.00     0.026 C 
ATOM     50  C   UNL     1      -5.888  -5.686  18.189  1.00  0.00     0.014 C 
ATOM     51  C   UNL     1      -8.861  -5.976  17.860  1.00  0.00     0.171 C 
ATOM     52  C   UNL     1      -7.500  -8.175  18.045  1.00  0.00     0.013 C 
ATOM     53  C   UNL     1      -5.443  -6.932  18.977  1.00  0.00    -0.035 C 
ATOM     54  C   UNL     1      -6.670  -7.840  19.284  1.00  0.00     0.007 C 
ATOM     55  C   UNL     1      -4.356  -7.668  18.171  1.00  0.00     0.011 C 
ATOM     56  C   UNL     1      -4.878  -6.451  20.341  1.00  0.00     0.011 C 
BRANCH  29  57
ATOM     57  C   UNL     1      -1.746  -2.743  13.890  1.00  0.00     0.165 C 
BRANCH  57  58
ATOM     58  O   UNL     1      -1.377  -1.582  14.566  1.00  0.00    -0.396 OA
ATOM     59  H   UNL     1      -2.124  -0.946  14.489  1.00  0.00     0.210 HD
ENDBRANCH  57  58
ENDBRANCH  29  57
BRANCH  48  60
ATOM     60  O   UNL     1      -8.274  -8.750  15.448  1.00  0.00    -0.392 OA
ATOM     61  H   UNL     1      -8.851  -9.331  16.017  1.00  0.00     0.210 HD
ENDBRANCH  48  60
ENDBRANCH  26  27
ENDBRANCH   6  26
BRANCH   5  62
ATOM     62  O   UNL     1      -3.059   2.580  11.914  1.00  0.00    -0.385 OA
ATOM     63  H   UNL     1      -3.160   3.195  11.099  1.00  0.00     0.211 HD
ENDBRANCH   5  62
TORSDOF 14
ENDMDL
MODEL 2
REMARK VINA RESULT:    17.992      1.912      4.293
REMARK INTER + INTRA:          29.807
REMARK INTER:                  28.518
REMARK INTRA:                   1.288
REMARK UNBOUND:                 1.296
REMARK SMILES C[C@H]1O[C@H](O[C@@H]2CC[C@@]3(C)[C@@H](CC[C@]4(C)[C@H]3C=C[C@]35OC[C@@]6(CCC(C)(C)C[C@@H]63)[C@H](O)C[C@@]54C)[C@]2(C)CO)[C@@H](O)[C@H](O[C@@H]2O[C@@H](CO)[C@@H](O)[C@H](O)[C@@H]2O)[C@@H]1O
REMARK SMILES IDX 1 1 2 2 54 3 41 4 39 5 4 6 3 7 55 8 42 10 43 11 52 12 44 13
REMARK SMILES IDX 50 14 45 15 48 16 53 17 51 19 46 21 47 22 49 24 5 26 6 27
REMARK SMILES IDX 7 28 35 29 8 30 11 31 36 32 9 33 12 34 10 35 16 36 13 37
REMARK SMILES IDX 14 38 17 39 15 40 33 41 18 42 19 43 32 44 34 45 29 46 20 47
REMARK SMILES IDX 30 48 22 49 28 50 21 51 23 52 25 53 24 54 26 55 27 56 37 57
REMARK SMILES IDX 38 58 31 60 40 62
REMARK H PARENT 55 9 53 18 51 20 47 23 49 25 38 59 31 61 40 63
REMARK Flexibility Score: inf
ROOT
ATOM      1  C   UNL     1      -2.273   3.496  10.038  1.00  0.00     0.041 C 
ATOM      2  C   UNL     1      -3.140   2.271   9.623  1.00  0.00     0.150 C 
ATOM      3  C   UNL     1      -2.714   1.499   8.377  1.00  0.00     0.175 C 
ATOM      4  C   UNL     1      -3.069   0.034   8.674  1.00  0.00     0.186 C 
ATOM      5  C   UNL     1      -4.581  -0.072   8.909  1.00  0.00     0.202 C 
ATOM      6  C   UNL     1      -5.219   1.196   9.628  1.00  0.00     0.282 C 
ATOM      7  O   UNL     1      -4.533   2.469   9.567  1.00  0.00    -0.344 OA
ENDROOT
BRANCH   3   8
ATOM      8  O   UNL     1      -1.371   1.699   7.999  1.00  0.00    -0.388 OA
ATOM      9  H   UNL     1      -1.382   2.289   7.180  1.00  0.00     0.211 HD
ENDBRANCH   3   8
BRANCH   4  10
ATOM     10  O   UNL     1      -2.417  -0.455   9.865  1.00  0.00    -0.341 OA
BRANCH  10  11
ATOM     11  C   UNL     1      -2.483  -1.817  10.195  1.00  0.00     0.282 C 
ATOM     12  C   UNL     1      -1.551  -2.614   9.255  1.00  0.00     0.202 C 
ATOM     13  O   UNL     1      -2.004  -1.965  11.545  1.00  0.00    -0.341 OA
ATOM     14  C   UNL     1      -0.070  -2.084   9.332  1.00  0.00     0.179 C 
ATOM     15  C   UNL     1      -0.691  -1.460  11.763  1.00  0.00     0.178 C 
ATOM     16  C   UNL     1       0.355  -2.156  10.825  1.00  0.00     0.177 C 
BRANCH  12  17
ATOM     17  O   UNL     1      -2.107  -2.562   7.932  1.00  0.00    -0.385 OA
ATOM     18  H   UNL     1      -3.103  -2.373   8.105  1.00  0.00     0.211 HD
ENDBRANCH  12  17
BRANCH  14  19
ATOM     19  O   UNL     1       0.095  -0.780   8.822  1.00  0.00    -0.387 OA
ATOM     20  H   UNL     1       0.213  -0.157   9.608  1.00  0.00     0.211 HD
ENDBRANCH  14  19
BRANCH  15  21
ATOM     21  C   UNL     1      -0.347  -1.629  13.241  1.00  0.00     0.191 C 
BRANCH  21  22
ATOM     22  O   UNL     1      -1.078  -2.675  13.818  1.00  0.00    -0.394 OA
ATOM     23  H   UNL     1      -0.663  -2.837  14.711  1.00  0.00     0.210 HD
ENDBRANCH  21  22
ENDBRANCH  15  21
BRANCH  16  24
ATOM     24  O   UNL     1       0.652  -3.490  11.202  1.00  0.00    -0.387 OA
ATOM     25  H   UNL     1       1.540  -3.489  11.655  1.00  0.00     0.211 HD
ENDBRANCH  16  24
ENDBRANCH  10  11
ENDBRANCH   4  10
BRANCH   6  26
ATOM     26  O   UNL     1      -5.299   0.795  10.983  1.00  0.00    -0.346 OA
BRANCH  26  27
ATOM     27  C   UNL     1      -5.252  -0.602  11.277  1.00  0.00     0.130 C 
ATOM     28  C   UNL     1      -6.251  -1.555  10.532  1.00  0.00     0.033 C 
ATOM     29  C   UNL     1      -5.332  -0.697  12.830  1.00  0.00     0.020 C 
ATOM     30  C   UNL     1      -6.453  -2.907  11.227  1.00  0.00     0.010 C 
ATOM     31  C   UNL     1      -5.431  -2.190  13.353  1.00  0.00     0.006 C 
ATOM     32  C   UNL     1      -4.036   0.017  13.368  1.00  0.00     0.017 C 
ATOM     33  C   UNL     1      -5.339  -3.321  12.247  1.00  0.00    -0.022 C 
ATOM     34  C   UNL     1      -4.550  -2.474  14.589  1.00  0.00     0.005 C 
ATOM     35  C   UNL     1      -3.964  -3.419  11.496  1.00  0.00     0.012 C 
ATOM     36  C   UNL     1      -5.627  -4.746  12.935  1.00  0.00     0.024 C 
ATOM     37  C   UNL     1      -4.964  -3.751  15.244  1.00  0.00     0.008 C 
ATOM     38  C   UNL     1      -4.855  -5.018  14.316  1.00  0.00    -0.017 C 
ATOM     39  C   UNL     1      -7.100  -5.010  13.028  1.00  0.00    -0.024 C 
ATOM     40  C   UNL     1      -3.328  -5.249  14.045  1.00  0.00     0.013 C 
ATOM     41  C   UNL     1      -5.466  -6.326  15.066  1.00  0.00     0.009 C 
ATOM     42  C   UNL     1      -7.730  -5.571  14.036  1.00  0.00     0.005 C 
ATOM     43  C   UNL     1      -7.067  -6.274  15.182  1.00  0.00     0.096 C 
ATOM     44  C   UNL     1      -4.836  -6.503  16.509  1.00  0.00     0.043 C 
ATOM     45  C   UNL     1      -5.078  -7.610  14.266  1.00  0.00     0.015 C 
ATOM     46  C   UNL     1      -7.522  -5.708  16.559  1.00  0.00     0.037 C 
ATOM     47  O   UNL     1      -7.592  -7.599  15.148  1.00  0.00    -0.369 OA
ATOM     48  C   UNL     1      -5.719  -7.213  17.570  1.00  0.00     0.124 C 
ATOM     49  C   UNL     1      -7.282  -6.945  17.400  1.00  0.00     0.026 C 
ATOM     50  C   UNL     1      -9.017  -5.263  16.524  1.00  0.00     0.014 C 
ATOM     51  C   UNL     1      -7.836  -8.026  16.460  1.00  0.00     0.171 C 
ATOM     52  C   UNL     1      -7.994  -6.891  18.785  1.00  0.00     0.013 C 
ATOM     53  C   UNL     1      -9.661  -5.128  17.915  1.00  0.00    -0.035 C 
ATOM     54  C   UNL     1      -9.452  -6.437  18.733  1.00  0.00     0.007 C 
ATOM     55  C   UNL     1      -9.068  -3.895  18.621  1.00  0.00     0.011 C 
ATOM     56  C   UNL     1     -11.191  -4.956  17.711  1.00  0.00     0.011 C 
BRANCH  29  57
ATOM     57  C   UNL     1      -6.618   0.088  13.374  1.00  0.00     0.165 C 
BRANCH  57  58
ATOM     58  O   UNL     1      -6.437   1.469  13.364  1.00  0.00    -0.396 OA
ATOM     59  H   UNL     1      -7.297   1.882  13.605  1.00  0.00     0.210 HD
ENDBRANCH  57  58
ENDBRANCH  29  57
BRANCH  48  60
ATOM     60  O   UNL     1      -5.225  -6.913  18.868  1.00  0.00    -0.392 OA
ATOM     61  H   UNL     1      -5.508  -5.982  19.085  1.00  0.00     0.210 HD
ENDBRANCH  48  60
ENDBRANCH  26  27
ENDBRANCH   6  26
BRANCH   5  62
ATOM     62  O   UNL     1      -5.263  -0.316   7.700  1.00  0.00    -0.385 OA
ATOM     63  H   UNL     1      -4.552  -0.142   6.980  1.00  0.00     0.211 HD
ENDBRANCH   5  62
TORSDOF 14
ENDMDL
MODEL 3
REMARK VINA RESULT:    18.381      1.868      4.244
REMARK INTER + INTRA:          30.423
REMARK INTER:                  28.899
REMARK INTRA:                   1.524
REMARK UNBOUND:                 1.296
REMARK SMILES C[C@H]1O[C@H](O[C@@H]2CC[C@@]3(C)[C@@H](CC[C@]4(C)[C@H]3C=C[C@]35OC[C@@]6(CCC(C)(C)C[C@@H]63)[C@H](O)C[C@@]54C)[C@]2(C)CO)[C@@H](O)[C@H](O[C@@H]2O[C@@H](CO)[C@@H](O)[C@H](O)[C@@H]2O)[C@@H]1O
REMARK SMILES IDX 1 1 2 2 54 3 41 4 39 5 4 6 3 7 55 8 42 10 43 11 52 12 44 13
REMARK SMILES IDX 50 14 45 15 48 16 53 17 51 19 46 21 47 22 49 24 5 26 6 27
REMARK SMILES IDX 7 28 35 29 8 30 11 31 36 32 9 33 12 34 10 35 16 36 13 37
REMARK SMILES IDX 14 38 17 39 15 40 33 41 18 42 19 43 32 44 34 45 29 46 20 47
REMARK SMILES IDX 30 48 22 49 28 50 21 51 23 52 25 53 24 54 26 55 27 56 37 57
REMARK SMILES IDX 38 58 31 60 40 62
REMARK H PARENT 55 9 53 18 51 20 47 23 49 25 38 59 31 61 40 63
REMARK Flexibility Score: inf
ROOT
ATOM      1  C   UNL     1      -4.004   1.173   6.856  1.00  0.00     0.041 C 
ATOM      2  C   UNL     1      -3.170   0.343   7.876  1.00  0.00     0.150 C 
ATOM      3  C   UNL     1      -1.949   1.017   8.496  1.00  0.00     0.175 C 
ATOM      4  C   UNL     1      -1.875   0.467   9.929  1.00  0.00     0.186 C 
ATOM      5  C   UNL     1      -1.704  -1.056   9.868  1.00  0.00     0.202 C 
ATOM      6  C   UNL     1      -2.462  -1.748   8.652  1.00  0.00     0.282 C 
ATOM      7  O   UNL     1      -2.807  -0.960   7.488  1.00  0.00    -0.344 OA
ENDROOT
BRANCH   3   8
ATOM      8  O   UNL     1      -1.959   2.424   8.421  1.00  0.00    -0.388 OA
ATOM      9  H   UNL     1      -1.545   2.673   7.535  1.00  0.00     0.211 HD
ENDBRANCH   3   8
BRANCH   4  10
ATOM     10  O   UNL     1      -3.080   0.731  10.678  1.00  0.00    -0.341 OA
BRANCH  10  11
ATOM     11  C   UNL     1      -3.120   0.481  12.058  1.00  0.00     0.282 C 
ATOM     12  C   UNL     1      -2.274   1.546  12.793  1.00  0.00     0.202 C 
ATOM     13  O   UNL     1      -4.489   0.610  12.487  1.00  0.00    -0.341 OA
ATOM     14  C   UNL     1      -2.777   3.002  12.466  1.00  0.00     0.179 C 
ATOM     15  C   UNL     1      -5.085   1.868  12.189  1.00  0.00     0.178 C 
ATOM     16  C   UNL     1      -4.285   3.050  12.839  1.00  0.00     0.177 C 
BRANCH  12  17
ATOM     17  O   UNL     1      -0.896   1.328  12.453  1.00  0.00    -0.385 OA
ATOM     18  H   UNL     1      -0.610   0.584  13.103  1.00  0.00     0.211 HD
ENDBRANCH  12  17
BRANCH  14  19
ATOM     19  O   UNL     1      -2.575   3.386  11.125  1.00  0.00    -0.387 OA
ATOM     20  H   UNL     1      -1.643   3.768  11.053  1.00  0.00     0.211 HD
ENDBRANCH  14  19
BRANCH  15  21
ATOM     21  C   UNL     1      -6.541   1.834  12.644  1.00  0.00     0.191 C 
BRANCH  21  22
ATOM     22  O   UNL     1      -6.897   0.566  13.119  1.00  0.00    -0.394 OA
ATOM     23  H   UNL     1      -7.711   0.302  12.606  1.00  0.00     0.210 HD
ENDBRANCH  21  22
ENDBRANCH  15  21
BRANCH  16  24
ATOM     24  O   UNL     1      -4.456   3.143  14.243  1.00  0.00    -0.387 OA
ATOM     25  H   UNL     1      -5.362   3.523  14.416  1.00  0.00     0.211 HD
ENDBRANCH  16  24
ENDBRANCH  10  11
ENDBRANCH   4  10
BRANCH   6  26
ATOM     26  O   UNL     1      -3.658  -2.222   9.242  1.00  0.00    -0.346 OA
BRANCH  26  27
ATOM     27  C   UNL     1      -3.697  -2.371  10.662  1.00  0.00     0.130 C 
ATOM     28  C   UNL     1      -2.540  -3.169  11.361  1.00  0.00     0.033 C 
ATOM     29  C   UNL     1      -5.120  -2.920  10.978  1.00  0.00     0.020 C 
ATOM     30  C   UNL     1      -2.894  -3.671  12.765  1.00  0.00     0.010 C 
ATOM     31  C   UNL     1      -5.315  -3.283  12.509  1.00  0.00     0.006 C 
ATOM     32  C   UNL     1      -6.122  -1.795  10.521  1.00  0.00     0.017 C 
ATOM     33  C   UNL     1      -4.096  -2.949  13.464  1.00  0.00    -0.022 C 
ATOM     34  C   UNL     1      -6.678  -2.838  13.084  1.00  0.00     0.005 C 
ATOM     35  C   UNL     1      -3.759  -1.423  13.618  1.00  0.00     0.012 C 
ATOM     36  C   UNL     1      -4.406  -3.536  14.929  1.00  0.00     0.024 C 
ATOM     37  C   UNL     1      -6.947  -3.524  14.382  1.00  0.00     0.008 C 
ATOM     38  C   UNL     1      -5.875  -3.237  15.499  1.00  0.00    -0.017 C 
ATOM     39  C   UNL     1      -4.028  -4.985  15.017  1.00  0.00    -0.024 C 
ATOM     40  C   UNL     1      -6.011  -1.721  15.875  1.00  0.00     0.013 C 
ATOM     41  C   UNL     1      -6.174  -4.141  16.818  1.00  0.00     0.009 C 
ATOM     42  C   UNL     1      -4.698  -5.929  15.641  1.00  0.00     0.005 C 
ATOM     43  C   UNL     1      -5.839  -5.695  16.585  1.00  0.00     0.096 C 
ATOM     44  C   UNL     1      -7.680  -3.989  17.287  1.00  0.00     0.043 C 
ATOM     45  C   UNL     1      -5.298  -3.629  18.006  1.00  0.00     0.015 C 
ATOM     46  C   UNL     1      -7.110  -6.499  16.179  1.00  0.00     0.037 C 
ATOM     47  O   UNL     1      -5.419  -6.283  17.814  1.00  0.00    -0.369 OA
ATOM     48  C   UNL     1      -8.301  -5.200  18.032  1.00  0.00     0.124 C 
ATOM     49  C   UNL     1      -7.747  -6.615  17.549  1.00  0.00     0.026 C 
ATOM     50  C   UNL     1      -6.733  -7.876  15.551  1.00  0.00     0.014 C 
ATOM     51  C   UNL     1      -6.509  -6.942  18.398  1.00  0.00     0.171 C 
ATOM     52  C   UNL     1      -8.859  -7.704  17.615  1.00  0.00     0.013 C 
ATOM     53  C   UNL     1      -7.886  -8.896  15.548  1.00  0.00    -0.035 C 
ATOM     54  C   UNL     1      -8.479  -9.041  16.980  1.00  0.00     0.007 C 
ATOM     55  C   UNL     1      -8.941  -8.452  14.518  1.00  0.00     0.011 C 
ATOM     56  C   UNL     1      -7.292 -10.277  15.157  1.00  0.00     0.011 C 
BRANCH  29  57
ATOM     57  C   UNL     1      -5.409  -4.247  10.130  1.00  0.00     0.165 C 
BRANCH  57  58
ATOM     58  O   UNL     1      -5.666  -3.971   8.789  1.00  0.00    -0.396 OA
ATOM     59  H   UNL     1      -5.683  -2.993   8.687  1.00  0.00     0.210 HD
ENDBRANCH  57  58
ENDBRANCH  29  57
BRANCH  48  60
ATOM     60  O   UNL     1      -9.717  -5.098  17.995  1.00  0.00    -0.392 OA
ATOM     61  H   UNL     1      -9.955  -4.174  18.286  1.00  0.00     0.210 HD
ENDBRANCH  48  60
ENDBRANCH  26  27
ENDBRANCH   6  26
BRANCH   5  62
ATOM     62  O   UNL     1      -0.341  -1.410   9.830  1.00  0.00    -0.385 OA
ATOM     63  H   UNL     1       0.136  -0.582  10.206  1.00  0.00     0.211 HD
ENDBRANCH   5  62
TORSDOF 14
ENDMDL
MODEL 4
REMARK VINA RESULT:    18.396      1.325      2.752
REMARK INTER + INTRA:          30.446
REMARK INTER:                  24.696
REMARK INTRA:                   5.751
REMARK UNBOUND:                 1.296
REMARK SMILES C[C@H]1O[C@H](O[C@@H]2CC[C@@]3(C)[C@@H](CC[C@]4(C)[C@H]3C=C[C@]35OC[C@@]6(CCC(C)(C)C[C@@H]63)[C@H](O)C[C@@]54C)[C@]2(C)CO)[C@@H](O)[C@H](O[C@@H]2O[C@@H](CO)[C@@H](O)[C@H](O)[C@@H]2O)[C@@H]1O
REMARK SMILES IDX 1 1 2 2 54 3 41 4 39 5 4 6 3 7 55 8 42 10 43 11 52 12 44 13
REMARK SMILES IDX 50 14 45 15 48 16 53 17 51 19 46 21 47 22 49 24 5 26 6 27
REMARK SMILES IDX 7 28 35 29 8 30 11 31 36 32 9 33 12 34 10 35 16 36 13 37
REMARK SMILES IDX 14 38 17 39 15 40 33 41 18 42 19 43 32 44 34 45 29 46 20 47
REMARK SMILES IDX 30 48 22 49 28 50 21 51 23 52 25 53 24 54 26 55 27 56 37 57
REMARK SMILES IDX 38 58 31 60 40 62
REMARK H PARENT 55 9 53 18 51 20 47 23 49 25 38 59 31 61 40 63
REMARK Flexibility Score: inf
ROOT
ATOM      1  C   UNL     1      -3.647  -3.734   9.610  1.00  0.00     0.041 C 
ATOM      2  C   UNL     1      -2.436  -2.759   9.694  1.00  0.00     0.150 C 
ATOM      3  C   UNL     1      -2.113  -1.934   8.451  1.00  0.00     0.175 C 
ATOM      4  C   UNL     1      -1.597  -0.590   8.988  1.00  0.00     0.186 C 
ATOM      5  C   UNL     1      -0.344  -0.841   9.835  1.00  0.00     0.202 C 
ATOM      6  C   UNL     1      -0.371  -2.209  10.647  1.00  0.00     0.282 C 
ATOM      7  O   UNL     1      -1.233  -3.284  10.202  1.00  0.00    -0.344 OA
ENDROOT
BRANCH   3   8
ATOM      8  O   UNL     1      -3.178  -1.817   7.536  1.00  0.00    -0.388 OA
ATOM      9  H   UNL     1      -3.418  -0.838   7.489  1.00  0.00     0.211 HD
ENDBRANCH   3   8
BRANCH   4  10
ATOM     10  O   UNL     1      -2.563   0.065   9.837  1.00  0.00    -0.341 OA
BRANCH  10  11
ATOM     11  C   UNL     1      -2.857   1.424   9.652  1.00  0.00     0.282 C 
ATOM     12  C   UNL     1      -3.990   1.562   8.610  1.00  0.00     0.202 C 
ATOM     13  O   UNL     1      -3.326   1.946  10.909  1.00  0.00    -0.341 OA
ATOM     14  C   UNL     1      -5.272   0.761   9.050  1.00  0.00     0.179 C 
ATOM     15  C   UNL     1      -4.450   1.260  11.450  1.00  0.00     0.178 C 
ATOM     16  C   UNL     1      -5.666   1.282  10.460  1.00  0.00     0.177 C 
BRANCH  12  17
ATOM     17  O   UNL     1      -3.472   1.154   7.335  1.00  0.00    -0.385 OA
ATOM     18  H   UNL     1      -3.709   0.154   7.296  1.00  0.00     0.211 HD
ENDBRANCH  12  17
BRANCH  14  19
ATOM     19  O   UNL     1      -5.094  -0.638   9.060  1.00  0.00    -0.387 OA
ATOM     20  H   UNL     1      -5.433  -0.996   8.178  1.00  0.00     0.211 HD
ENDBRANCH  14  19
BRANCH  15  21
ATOM     21  C   UNL     1      -4.792   1.882  12.802  1.00  0.00     0.191 C 
BRANCH  21  22
ATOM     22  O   UNL     1      -4.481   3.247  12.828  1.00  0.00    -0.394 OA
ATOM     23  H   UNL     1      -4.265   3.458  13.779  1.00  0.00     0.210 HD
ENDBRANCH  21  22
ENDBRANCH  15  21
BRANCH  16  24
ATOM     24  O   UNL     1      -6.301   2.546  10.373  1.00  0.00    -0.387 OA
ATOM     25  H   UNL     1      -6.102   3.047  11.211  1.00  0.00     0.211 HD
ENDBRANCH  16  24
ENDBRANCH  10  11
ENDBRANCH   4  10
BRANCH   6  26
ATOM     26  O   UNL     1      -0.782  -1.812  11.941  1.00  0.00    -0.346 OA
BRANCH  26  27
ATOM     27  C   UNL     1      -2.160  -1.958  12.286  1.00  0.00     0.130 C 
ATOM     28  C   UNL     1      -2.814  -0.881  13.220  1.00  0.00     0.033 C 
ATOM     29  C   UNL     1      -2.297  -3.417  12.816  1.00  0.00     0.020 C 
ATOM     30  C   UNL     1      -4.105  -1.352  13.900  1.00  0.00     0.010 C 
ATOM     31  C   UNL     1      -3.743  -3.735  13.382  1.00  0.00     0.006 C 
ATOM     32  C   UNL     1      -1.938  -4.348  11.598  1.00  0.00     0.017 C 
ATOM     33  C   UNL     1      -4.817  -2.579  13.235  1.00  0.00    -0.022 C 
ATOM     34  C   UNL     1      -4.281  -5.122  12.967  1.00  0.00     0.005 C 
ATOM     35  C   UNL     1      -5.210  -2.208  11.761  1.00  0.00     0.012 C 
ATOM     36  C   UNL     1      -6.158  -3.013  14.009  1.00  0.00     0.024 C 
ATOM     37  C   UNL     1      -5.447  -5.506  13.818  1.00  0.00     0.008 C 
ATOM     38  C   UNL     1      -6.664  -4.510  13.734  1.00  0.00    -0.017 C 
ATOM     39  C   UNL     1      -6.064  -2.687  15.470  1.00  0.00    -0.024 C 
ATOM     40  C   UNL     1      -7.243  -4.627  12.281  1.00  0.00     0.013 C 
ATOM     41  C   UNL     1      -7.817  -4.932  14.802  1.00  0.00     0.009 C 
ATOM     42  C   UNL     1      -6.499  -3.429  16.464  1.00  0.00     0.005 C 
ATOM     43  C   UNL     1      -7.387  -4.628  16.319  1.00  0.00     0.096 C 
ATOM     44  C   UNL     1      -8.199  -6.462  14.656  1.00  0.00     0.043 C 
ATOM     45  C   UNL     1      -9.123  -4.130  14.497  1.00  0.00     0.015 C 
ATOM     46  C   UNL     1      -6.785  -5.890  17.006  1.00  0.00     0.037 C 
ATOM     47  O   UNL     1      -8.545  -4.317  17.091  1.00  0.00    -0.369 OA
ATOM     48  C   UNL     1      -8.719  -7.173  15.934  1.00  0.00     0.124 C 
ATOM     49  C   UNL     1      -8.078  -6.628  17.288  1.00  0.00     0.026 C 
ATOM     50  C   UNL     1      -5.994  -5.510  18.295  1.00  0.00     0.014 C 
ATOM     51  C   UNL     1      -8.954  -5.467  17.780  1.00  0.00     0.171 C 
ATOM     52  C   UNL     1      -7.912  -7.775  18.329  1.00  0.00     0.013 C 
ATOM     53  C   UNL     1      -5.766  -6.690  19.258  1.00  0.00    -0.035 C 
ATOM     54  C   UNL     1      -7.119  -7.390  19.578  1.00  0.00     0.007 C 
ATOM     55  C   UNL     1      -4.741  -7.653  18.631  1.00  0.00     0.011 C 
ATOM     56  C   UNL     1      -5.224  -6.111  20.593  1.00  0.00     0.011 C 
BRANCH  29  57
ATOM     57  C   UNL     1      -1.250  -3.684  13.998  1.00  0.00     0.165 C 
BRANCH  57  58
ATOM     58  O   UNL     1      -0.862  -2.507  14.635  1.00  0.00    -0.396 OA
ATOM     59  H   UNL     1      -1.668  -2.106  15.031  1.00  0.00     0.210 HD
ENDBRANCH  57  58
ENDBRANCH  29  57
BRANCH  48  60
ATOM     60  O   UNL     1      -8.601  -8.579  15.769  1.00  0.00    -0.392 OA
ATOM     61  H   UNL     1      -8.450  -8.753  14.799  1.00  0.00     0.210 HD
ENDBRANCH  48  60
ENDBRANCH  26  27
ENDBRANCH   6  26
BRANCH   5  62
ATOM     62  O   UNL     1       0.819  -0.791   9.042  1.00  0.00    -0.385 OA
ATOM     63  H   UNL     1       0.539  -1.253   8.169  1.00  0.00     0.211 HD
ENDBRANCH   5  62
TORSDOF 14
ENDMDL
MODEL 5
REMARK VINA RESULT:    18.445      1.672      3.319
REMARK INTER + INTRA:          30.524
REMARK INTER:                  24.185
REMARK INTRA:                   6.339
REMARK UNBOUND:                 1.296
REMARK SMILES C[C@H]1O[C@H](O[C@@H]2CC[C@@]3(C)[C@@H](CC[C@]4(C)[C@H]3C=C[C@]35OC[C@@]6(CCC(C)(C)C[C@@H]63)[C@H](O)C[C@@]54C)[C@]2(C)CO)[C@@H](O)[C@H](O[C@@H]2O[C@@H](CO)[C@@H](O)[C@H](O)[C@@H]2O)[C@@H]1O
REMARK SMILES IDX 1 1 2 2 54 3 41 4 39 5 4 6 3 7 55 8 42 10 43 11 52 12 44 13
REMARK SMILES IDX 50 14 45 15 48 16 53 17 51 19 46 21 47 22 49 24 5 26 6 27
REMARK SMILES IDX 7 28 35 29 8 30 11 31 36 32 9 33 12 34 10 35 16 36 13 37
REMARK SMILES IDX 14 38 17 39 15 40 33 41 18 42 19 43 32 44 34 45 29 46 20 47
REMARK SMILES IDX 30 48 22 49 28 50 21 51 23 52 25 53 24 54 26 55 27 56 37 57
REMARK SMILES IDX 38 58 31 60 40 62
REMARK H PARENT 55 9 53 18 51 20 47 23 49 25 38 59 31 61 40 63
REMARK Flexibility Score: inf
ROOT
ATOM      1  C   UNL     1      -3.826  -3.402   9.410  1.00  0.00     0.041 C 
ATOM      2  C   UNL     1      -2.451  -2.684   9.545  1.00  0.00     0.150 C 
ATOM      3  C   UNL     1      -1.827  -2.120   8.272  1.00  0.00     0.175 C 
ATOM      4  C   UNL     1      -1.098  -0.842   8.718  1.00  0.00     0.186 C 
ATOM      5  C   UNL     1      -0.027  -1.216   9.750  1.00  0.00     0.202 C 
ATOM      6  C   UNL     1      -0.433  -2.425  10.700  1.00  0.00     0.282 C 
ATOM      7  O   UNL     1      -1.451  -3.360  10.268  1.00  0.00    -0.344 OA
ENDROOT
BRANCH   3   8
ATOM      8  O   UNL     1      -2.736  -1.923   7.214  1.00  0.00    -0.388 OA
ATOM      9  H   UNL     1      -3.438  -2.645   7.292  1.00  0.00     0.211 HD
ENDBRANCH   3   8
BRANCH   4  10
ATOM     10  O   UNL     1      -1.989   0.102   9.349  1.00  0.00    -0.341 OA
BRANCH  10  11
ATOM     11  C   UNL     1      -2.852   0.885   8.568  1.00  0.00     0.282 C 
ATOM     12  C   UNL     1      -3.471   1.993   9.450  1.00  0.00     0.202 C 
ATOM     13  O   UNL     1      -2.064   1.509   7.536  1.00  0.00    -0.341 OA
ATOM     14  C   UNL     1      -2.356   2.879  10.123  1.00  0.00     0.179 C 
ATOM     15  C   UNL     1      -0.976   2.291   8.017  1.00  0.00     0.178 C 
ATOM     16  C   UNL     1      -1.467   3.431   8.974  1.00  0.00     0.177 C 
BRANCH  12  17
ATOM     17  O   UNL     1      -4.350   1.367  10.396  1.00  0.00    -0.385 OA
ATOM     18  H   UNL     1      -3.701   0.924  11.060  1.00  0.00     0.211 HD
ENDBRANCH  12  17
BRANCH  14  19
ATOM     19  O   UNL     1      -1.579   2.188  11.076  1.00  0.00    -0.387 OA
ATOM     20  H   UNL     1      -2.087   2.196  11.948  1.00  0.00     0.211 HD
ENDBRANCH  14  19
BRANCH  15  21
ATOM     21  C   UNL     1      -0.203   2.833   6.817  1.00  0.00     0.191 C 
BRANCH  21  22
ATOM     22  O   UNL     1      -1.069   3.224   5.788  1.00  0.00    -0.394 OA
ATOM     23  H   UNL     1      -1.796   2.540   5.770  1.00  0.00     0.210 HD
ENDBRANCH  21  22
ENDBRANCH  15  21
BRANCH  16  24
ATOM     24  O   UNL     1      -2.116   4.494   8.299  1.00  0.00    -0.387 OA
ATOM     25  H   UNL     1      -1.416   5.131   7.985  1.00  0.00     0.211 HD
ENDBRANCH  16  24
ENDBRANCH  10  11
ENDBRANCH   4  10
BRANCH   6  26
ATOM     26  O   UNL     1      -0.888  -1.778  11.873  1.00  0.00    -0.346 OA
BRANCH  26  27
ATOM     27  C   UNL     1      -2.261  -1.929  12.238  1.00  0.00     0.130 C 
ATOM     28  C   UNL     1      -2.905  -0.854  13.183  1.00  0.00     0.033 C 
ATOM     29  C   UNL     1      -2.386  -3.389  12.768  1.00  0.00     0.020 C 
ATOM     30  C   UNL     1      -4.184  -1.330  13.881  1.00  0.00     0.010 C 
ATOM     31  C   UNL     1      -3.823  -3.711  13.354  1.00  0.00     0.006 C 
ATOM     32  C   UNL     1      -2.042  -4.317  11.544  1.00  0.00     0.017 C 
ATOM     33  C   UNL     1      -4.902  -2.558  13.224  1.00  0.00    -0.022 C 
ATOM     34  C   UNL     1      -4.363  -5.099  12.945  1.00  0.00     0.005 C 
ATOM     35  C   UNL     1      -5.318  -2.187  11.757  1.00  0.00     0.012 C 
ATOM     36  C   UNL     1      -6.231  -2.997  14.017  1.00  0.00     0.024 C 
ATOM     37  C   UNL     1      -5.516  -5.488  13.812  1.00  0.00     0.008 C 
ATOM     38  C   UNL     1      -6.736  -4.495  13.747  1.00  0.00    -0.017 C 
ATOM     39  C   UNL     1      -6.117  -2.673  15.477  1.00  0.00    -0.024 C 
ATOM     40  C   UNL     1      -7.336  -4.612  12.303  1.00  0.00     0.013 C 
ATOM     41  C   UNL     1      -7.873  -4.922  14.831  1.00  0.00     0.009 C 
ATOM     42  C   UNL     1      -6.535  -3.418  16.476  1.00  0.00     0.005 C 
ATOM     43  C   UNL     1      -7.422  -4.619  16.343  1.00  0.00     0.096 C 
ATOM     44  C   UNL     1      -8.252  -6.454  14.688  1.00  0.00     0.043 C 
ATOM     45  C   UNL     1      -9.185  -4.124  14.546  1.00  0.00     0.015 C 
ATOM     46  C   UNL     1      -6.807  -5.880  17.018  1.00  0.00     0.037 C 
ATOM     47  O   UNL     1      -8.569  -4.313  17.131  1.00  0.00    -0.369 OA
ATOM     48  C   UNL     1      -8.752  -7.167  15.972  1.00  0.00     0.124 C 
ATOM     49  C   UNL     1      -8.093  -6.623  17.318  1.00  0.00     0.026 C 
ATOM     50  C   UNL     1      -5.998  -5.500  18.297  1.00  0.00     0.014 C 
ATOM     51  C   UNL     1      -8.965  -5.464  17.825  1.00  0.00     0.171 C 
ATOM     52  C   UNL     1      -7.909  -7.771  18.355  1.00  0.00     0.013 C 
ATOM     53  C   UNL     1      -5.753  -6.680  19.254  1.00  0.00    -0.035 C 
ATOM     54  C   UNL     1      -7.099  -7.386  19.593  1.00  0.00     0.007 C 
ATOM     55  C   UNL     1      -4.734  -7.640  18.611  1.00  0.00     0.011 C 
ATOM     56  C   UNL     1      -5.193  -6.102  20.582  1.00  0.00     0.011 C 
BRANCH  29  57
ATOM     57  C   UNL     1      -1.321  -3.654  13.935  1.00  0.00     0.165 C 
BRANCH  57  58
ATOM     58  O   UNL     1      -0.947  -2.480  14.584  1.00  0.00    -0.396 OA
ATOM     59  H   UNL     1      -0.089  -2.191  14.200  1.00  0.00     0.210 HD
ENDBRANCH  57  58
ENDBRANCH  29  57
BRANCH  48  60
ATOM     60  O   UNL     1      -8.632  -8.573  15.804  1.00  0.00    -0.392 OA
ATOM     61  H   UNL     1      -9.548  -8.931  15.640  1.00  0.00     0.210 HD
ENDBRANCH  48  60
ENDBRANCH  26  27
ENDBRANCH   6  26
BRANCH   5  62
ATOM     62  O   UNL     1       1.200  -1.508   9.121  1.00  0.00    -0.385 OA
ATOM     63  H   UNL     1       0.953  -1.578   8.127  1.00  0.00     0.211 HD
ENDBRANCH   5  62
TORSDOF 14
ENDMDL
