MODEL 1
REMARK VINA RESULT:    -2.943      0.000      0.000
REMARK INTER + INTRA:          -4.064
REMARK INTER:                  -3.803
REMARK INTRA:                  -0.261
REMARK UNBOUND:                -0.261
REMARK SMILES CCCCCCC=O
REMARK SMILES IDX 4 1 3 2 2 3 1 4 5 5 6 6 7 7 8 8
REMARK H PARENT
REMARK Flexibility Score: inf
ROOT
ATOM      1  C   UNL     1     104.318 105.933 105.165  1.00  0.00     0.000 C 
ENDROOT
BRANCH   1   2
ATOM      2  C   UNL     1     103.424 104.956 104.369  1.00  0.00    -0.000 C 
BRANCH   2   3
ATOM      3  C   UNL     1     103.960 104.662 102.958  1.00  0.00    -0.003 C 
ATOM      4  C   UNL     1     102.883 104.813 101.885  1.00  0.00     0.004 C 
ENDBRANCH   2   3
ENDBRANCH   1   2
BRANCH   1   5
ATOM      5  C   UNL     1     105.390 106.633 104.308  1.00  0.00     0.008 C 
BRANCH   5   6
ATOM      6  C   UNL     1     105.176 108.150 104.157  1.00  0.00     0.072 C 
BRANCH   6   7
ATOM      7  C   UNL     1     104.590 108.517 102.824  1.00  0.00     0.224 C 
ATOM      8  O   UNL     1     103.973 109.562 102.686  1.00  0.00    -0.303 OA
ENDBRANCH   6   7
ENDBRANCH   5   6
ENDBRANCH   1   5
TORSDOF 5
ENDMDL
MODEL 2
REMARK VINA RESULT:    -2.851      3.347      4.508
REMARK INTER + INTRA:          -3.946
REMARK INTER:                  -3.812
REMARK INTRA:                  -0.134
REMARK UNBOUND:                -0.261
REMARK SMILES CCCCCCC=O
REMARK SMILES IDX 4 1 3 2 2 3 1 4 5 5 6 6 7 7 8 8
REMARK H PARENT
REMARK Flexibility Score: inf
ROOT
ATOM      1  C   UNL     1     103.940 105.194 103.078  1.00  0.00     0.000 C 
ENDROOT
BRANCH   1   2
ATOM      2  C   UNL     1     104.079 106.493 102.252  1.00  0.00    -0.000 C 
BRANCH   2   3
ATOM      3  C   UNL     1     104.742 107.637 103.038  1.00  0.00    -0.003 C 
ATOM      4  C   UNL     1     104.360 109.012 102.493  1.00  0.00     0.004 C 
ENDBRANCH   2   3
ENDBRANCH   1   2
BRANCH   1   5
ATOM      5  C   UNL     1     105.282 104.505 103.386  1.00  0.00     0.008 C 
BRANCH   5   6
ATOM      6  C   UNL     1     106.081 104.106 102.132  1.00  0.00     0.072 C 
BRANCH   6   7
ATOM      7  C   UNL     1     107.521 103.809 102.438  1.00  0.00     0.224 C 
ATOM      8  O   UNL     1     107.897 102.658 102.595  1.00  0.00    -0.303 OA
ENDBRANCH   6   7
ENDBRANCH   5   6
ENDBRANCH   1   5
TORSDOF 5
ENDMDL
MODEL 3
REMARK VINA RESULT:    -2.829      2.670      3.205
REMARK INTER + INTRA:          -3.917
REMARK INTER:                  -3.689
REMARK INTRA:                  -0.228
REMARK UNBOUND:                -0.261
REMARK SMILES CCCCCCC=O
REMARK SMILES IDX 4 1 3 2 2 3 1 4 5 5 6 6 7 7 8 8
REMARK H PARENT
REMARK Flexibility Score: inf
ROOT
ATOM      1  C   UNL     1     104.544 107.261 102.583  1.00  0.00     0.000 C 
ENDROOT
BRANCH   1   2
ATOM      2  C   UNL     1     104.293 105.911 101.875  1.00  0.00    -0.000 C 
BRANCH   2   3
ATOM      3  C   UNL     1     104.096 104.744 102.858  1.00  0.00    -0.003 C 
ATOM      4  C   UNL     1     103.803 105.225 104.278  1.00  0.00     0.004 C 
ENDBRANCH   2   3
ENDBRANCH   1   2
BRANCH   1   5
ATOM      5  C   UNL     1     105.896 107.908 102.228  1.00  0.00     0.008 C 
BRANCH   5   6
ATOM      6  C   UNL     1     107.075 107.396 103.074  1.00  0.00     0.072 C 
BRANCH   6   7
ATOM      7  C   UNL     1     108.359 107.340 102.298  1.00  0.00     0.224 C 
ATOM      8  O   UNL     1     109.350 107.931 102.697  1.00  0.00    -0.303 OA
ENDBRANCH   6   7
ENDBRANCH   5   6
ENDBRANCH   1   5
TORSDOF 5
ENDMDL
MODEL 4
REMARK VINA RESULT:    -2.821      3.741      4.914
REMARK INTER + INTRA:          -3.907
REMARK INTER:                  -3.667
REMARK INTRA:                  -0.240
REMARK UNBOUND:                -0.261
REMARK SMILES CCCCCCC=O
REMARK SMILES IDX 4 1 3 2 2 3 1 4 5 5 6 6 7 7 8 8
REMARK H PARENT
REMARK Flexibility Score: inf
ROOT
ATOM      1  C   UNL     1     107.268 107.472 102.640  1.00  0.00     0.000 C 
ENDROOT
BRANCH   1   2
ATOM      2  C   UNL     1     105.879 107.638 101.984  1.00  0.00    -0.000 C 
BRANCH   2   3
ATOM      3  C   UNL     1     104.831 108.240 102.937  1.00  0.00    -0.003 C 
ATOM      4  C   UNL     1     105.277 108.187 104.397  1.00  0.00     0.004 C 
ENDBRANCH   2   3
ENDBRANCH   1   2
BRANCH   1   5
ATOM      5  C   UNL     1     107.911 106.094 102.396  1.00  0.00     0.008 C 
BRANCH   5   6
ATOM      6  C   UNL     1     107.074 104.913 102.920  1.00  0.00     0.072 C 
BRANCH   6   7
ATOM      7  C   UNL     1     107.303 103.653 102.136  1.00  0.00     0.224 C 
ATOM      8  O   UNL     1     107.942 102.731 102.619  1.00  0.00    -0.303 OA
ENDBRANCH   6   7
ENDBRANCH   5   6
ENDBRANCH   1   5
TORSDOF 5
ENDMDL
MODEL 5
REMARK VINA RESULT:    -2.800      3.115      4.624
REMARK INTER + INTRA:          -3.879
REMARK INTER:                  -3.669
REMARK INTRA:                  -0.211
REMARK UNBOUND:                -0.261
REMARK SMILES CCCCCCC=O
REMARK SMILES IDX 4 1 3 2 2 3 1 4 5 5 6 6 7 7 8 8
REMARK H PARENT
REMARK Flexibility Score: inf
ROOT
ATOM      1  C   UNL     1     107.215 104.739 102.983  1.00  0.00     0.000 C 
ENDROOT
BRANCH   1   2
ATOM      2  C   UNL     1     107.878 105.740 102.010  1.00  0.00    -0.000 C 
BRANCH   2   3
ATOM      3  C   UNL     1     108.161 107.108 102.653  1.00  0.00    -0.003 C 
ATOM      4  C   UNL     1     108.341 107.011 104.168  1.00  0.00     0.004 C 
ENDBRANCH   2   3
ENDBRANCH   1   2
BRANCH   1   5
ATOM      5  C   UNL     1     105.827 104.254 102.526  1.00  0.00     0.008 C 
BRANCH   5   6
ATOM      6  C   UNL     1     104.705 105.289 102.728  1.00  0.00     0.072 C 
BRANCH   6   7
ATOM      7  C   UNL     1     103.398 104.842 102.141  1.00  0.00     0.224 C 
ATOM      8  O   UNL     1     102.686 104.053 102.743  1.00  0.00    -0.303 OA
ENDBRANCH   6   7
ENDBRANCH   5   6
ENDBRANCH   1   5
TORSDOF 5
ENDMDL
MODEL 6
REMARK VINA RESULT:    -2.796      2.350      3.134
REMARK INTER + INTRA:          -3.875
REMARK INTER:                  -3.687
REMARK INTRA:                  -0.188
REMARK UNBOUND:                -0.261
REMARK SMILES CCCCCCC=O
REMARK SMILES IDX 4 1 3 2 2 3 1 4 5 5 6 6 7 7 8 8
REMARK H PARENT
REMARK Flexibility Score: inf
ROOT
ATOM      1  C   UNL     1     107.127 107.217 102.402  1.00  0.00     0.000 C 
ENDROOT
BRANCH   1   2
ATOM      2  C   UNL     1     107.797 105.835 102.225  1.00  0.00    -0.000 C 
BRANCH   2   3
ATOM      3  C   UNL     1     106.997 104.691 102.871  1.00  0.00    -0.003 C 
ATOM      4  C   UNL     1     107.590 103.319 102.555  1.00  0.00     0.004 C 
ENDBRANCH   2   3
ENDBRANCH   1   2
BRANCH   1   5
ATOM      5  C   UNL     1     106.630 107.488 103.834  1.00  0.00     0.008 C 
BRANCH   5   6
ATOM      6  C   UNL     1     105.108 107.691 103.939  1.00  0.00     0.072 C 
BRANCH   6   7
ATOM      7  C   UNL     1     104.522 108.301 102.698  1.00  0.00     0.224 C 
ATOM      8  O   UNL     1     104.135 109.460 102.701  1.00  0.00    -0.303 OA
ENDBRANCH   6   7
ENDBRANCH   5   6
ENDBRANCH   1   5
TORSDOF 5
ENDMDL
MODEL 7
REMARK VINA RESULT:    -2.790      2.055      2.751
REMARK INTER + INTRA:          -3.867
REMARK INTER:                  -3.671
REMARK INTRA:                  -0.196
REMARK UNBOUND:                -0.261
REMARK SMILES CCCCCCC=O
REMARK SMILES IDX 4 1 3 2 2 3 1 4 5 5 6 6 7 7 8 8
REMARK H PARENT
REMARK Flexibility Score: inf
ROOT
ATOM      1  C   UNL     1     104.862 104.489 102.421  1.00  0.00     0.000 C 
ENDROOT
BRANCH   1   2
ATOM      2  C   UNL     1     105.520 104.621 103.813  1.00  0.00    -0.000 C 
BRANCH   2   3
ATOM      3  C   UNL     1     106.802 103.783 103.954  1.00  0.00    -0.003 C 
ATOM      4  C   UNL     1     107.435 103.457 102.602  1.00  0.00     0.004 C 
ENDBRANCH   2   3
ENDBRANCH   1   2
BRANCH   1   5
ATOM      5  C   UNL     1     104.172 105.777 101.934  1.00  0.00     0.008 C 
BRANCH   5   6
ATOM      6  C   UNL     1     104.501 107.020 102.781  1.00  0.00     0.072 C 
BRANCH   6   7
ATOM      7  C   UNL     1     104.851 108.213 101.939  1.00  0.00     0.224 C 
ATOM      8  O   UNL     1     104.421 109.320 102.224  1.00  0.00    -0.303 OA
ENDBRANCH   6   7
ENDBRANCH   5   6
ENDBRANCH   1   5
TORSDOF 5
ENDMDL
MODEL 8
REMARK VINA RESULT:    -2.784      2.871      3.489
REMARK INTER + INTRA:          -3.859
REMARK INTER:                  -3.619
REMARK INTRA:                  -0.240
REMARK UNBOUND:                -0.261
REMARK SMILES CCCCCCC=O
REMARK SMILES IDX 4 1 3 2 2 3 1 4 5 5 6 6 7 7 8 8
REMARK H PARENT
REMARK Flexibility Score: inf
ROOT
ATOM      1  C   UNL     1     106.087 103.874 102.118  1.00  0.00     0.000 C 
ENDROOT
BRANCH   1   2
ATOM      2  C   UNL     1     104.896 104.828 101.876  1.00  0.00    -0.000 C 
BRANCH   2   3
ATOM      3  C   UNL     1     103.690 104.527 102.782  1.00  0.00    -0.003 C 
ATOM      4  C   UNL     1     103.845 105.136 104.175  1.00  0.00     0.004 C 
ENDBRANCH   2   3
ENDBRANCH   1   2
BRANCH   1   5
ATOM      5  C   UNL     1     107.459 104.572 102.084  1.00  0.00     0.008 C 
BRANCH   5   6
ATOM      6  C   UNL     1     107.530 105.853 102.935  1.00  0.00     0.072 C 
BRANCH   6   7
ATOM      7  C   UNL     1     107.984 107.045 102.143  1.00  0.00     0.224 C 
ATOM      8  O   UNL     1     108.773 107.844 102.624  1.00  0.00    -0.303 OA
ENDBRANCH   6   7
ENDBRANCH   5   6
ENDBRANCH   1   5
TORSDOF 5
ENDMDL
MODEL 9
REMARK VINA RESULT:    -2.762      2.892      4.455
REMARK INTER + INTRA:          -3.831
REMARK INTER:                  -3.673
REMARK INTRA:                  -0.158
REMARK UNBOUND:                -0.261
REMARK SMILES CCCCCCC=O
REMARK SMILES IDX 4 1 3 2 2 3 1 4 5 5 6 6 7 7 8 8
REMARK H PARENT
REMARK Flexibility Score: inf
ROOT
ATOM      1  C   UNL     1     105.978 107.745 102.307  1.00  0.00     0.000 C 
ENDROOT
BRANCH   1   2
ATOM      2  C   UNL     1     106.787 107.487 103.598  1.00  0.00    -0.000 C 
BRANCH   2   3
ATOM      3  C   UNL     1     108.127 106.778 103.338  1.00  0.00    -0.003 C 
ATOM      4  C   UNL     1     108.969 107.497 102.285  1.00  0.00     0.004 C 
ENDBRANCH   2   3
ENDBRANCH   1   2
BRANCH   1   5
ATOM      5  C   UNL     1     104.503 107.311 102.400  1.00  0.00     0.008 C 
BRANCH   5   6
ATOM      6  C   UNL     1     104.237 105.887 101.880  1.00  0.00     0.072 C 
BRANCH   6   7
ATOM      7  C   UNL     1     103.904 104.925 102.984  1.00  0.00     0.224 C 
ATOM      8  O   UNL     1     102.970 104.147 102.866  1.00  0.00    -0.303 OA
ENDBRANCH   6   7
ENDBRANCH   5   6
ENDBRANCH   1   5
TORSDOF 5
ENDMDL
