MODEL 1
REMARK VINA RESULT:    -3.981      0.000      0.000
REMARK INTER + INTRA:          -9.119
REMARK INTER:                  -7.240
REMARK INTRA:                  -1.880
REMARK UNBOUND:                -1.880
REMARK SMILES CCCCCCCCCCCCCCCC(=O)[O-]
REMARK SMILES IDX 9 1 10 2 11 3 12 4 13 5 14 6 15 7 16 8 17 9 18 10 8 11 7 12
REMARK SMILES IDX 6 13 5 14 4 15 3 16 2 17 1 18
REMARK H PARENT
REMARK Flexibility Score: inf
ROOT
ATOM      1  C   UNL     1       1.066   6.898  -0.250  1.00  0.00     0.000 C 
ENDROOT
BRANCH   1   2
ATOM      2  C   UNL     1       1.207   7.728   1.039  1.00  0.00     0.000 C 
BRANCH   2   3
ATOM      3  C   UNL     1      -0.072   8.502   1.392  1.00  0.00     0.000 C 
BRANCH   3   4
ATOM      4  C   UNL     1      -0.677   7.992   2.706  1.00  0.00     0.000 C 
BRANCH   4   5
ATOM      5  C   UNL     1       0.422   7.684   3.734  1.00  0.00     0.000 C 
BRANCH   5   6
ATOM      6  C   UNL     1       0.359   6.238   4.253  1.00  0.00     0.006 C 
BRANCH   6   7
ATOM      7  C   UNL     1      -0.637   5.374   3.471  1.00  0.00     0.053 C 
BRANCH   7   8
ATOM      8  C   UNL     1       0.069   4.233   2.806  1.00  0.00     0.041 C 
ATOM      9  O   UNL     1       1.319   4.262   2.661  1.00  0.00    -0.550 OA
ATOM     10  O   UNL     1      -0.659   3.161   2.307  1.00  0.00    -0.550 OA
ENDBRANCH   7   8
ENDBRANCH   6   7
ENDBRANCH   5   6
ENDBRANCH   4   5
ENDBRANCH   3   4
ENDBRANCH   2   3
ENDBRANCH   1   2
BRANCH   1  11
ATOM     11  C   UNL     1       0.356   7.617  -1.415  1.00  0.00     0.000 C 
BRANCH  11  12
ATOM     12  C   UNL     1       1.010   7.427  -2.796  1.00  0.00    -0.000 C 
BRANCH  12  13
ATOM     13  C   UNL     1       1.777   6.102  -2.915  1.00  0.00    -0.000 C 
BRANCH  13  14
ATOM     14  C   UNL     1       2.874   6.196  -3.983  1.00  0.00    -0.000 C 
BRANCH  14  15
ATOM     15  C   UNL     1       4.213   6.614  -3.362  1.00  0.00    -0.000 C 
BRANCH  15  16
ATOM     16  C   UNL     1       4.557   5.821  -2.091  1.00  0.00    -0.000 C 
BRANCH  16  17
ATOM     17  C   UNL     1       4.707   6.702  -0.834  1.00  0.00    -0.003 C 
ATOM     18  C   UNL     1       4.506   8.186  -1.137  1.00  0.00     0.004 C 
ENDBRANCH  16  17
ENDBRANCH  15  16
ENDBRANCH  14  15
ENDBRANCH  13  14
ENDBRANCH  12  13
ENDBRANCH  11  12
ENDBRANCH   1  11
TORSDOF 14
ENDMDL
MODEL 2
REMARK VINA RESULT:    -3.908      1.323      1.994
REMARK INTER + INTRA:          -8.986
REMARK INTER:                  -7.149
REMARK INTRA:                  -1.837
REMARK UNBOUND:                -1.880
REMARK SMILES CCCCCCCCCCCCCCCC(=O)[O-]
REMARK SMILES IDX 9 1 10 2 11 3 12 4 13 5 14 6 15 7 16 8 17 9 18 10 8 11 7 12
REMARK SMILES IDX 6 13 5 14 4 15 3 16 2 17 1 18
REMARK H PARENT
REMARK Flexibility Score: inf
ROOT
ATOM      1  C   UNL     1       0.595   9.303  -2.589  1.00  0.00     0.000 C 
ENDROOT
BRANCH   1   2
ATOM      2  C   UNL     1      -0.186   8.266  -1.762  1.00  0.00     0.000 C 
BRANCH   2   3
ATOM      3  C   UNL     1       0.191   8.285  -0.273  1.00  0.00     0.000 C 
BRANCH   3   4
ATOM      4  C   UNL     1       0.927   6.999   0.123  1.00  0.00     0.000 C 
BRANCH   4   5
ATOM      5  C   UNL     1       1.498   7.108   1.545  1.00  0.00     0.000 C 
BRANCH   5   6
ATOM      6  C   UNL     1       1.396   5.788   2.326  1.00  0.00     0.006 C 
BRANCH   6   7
ATOM      7  C   UNL     1      -0.052   5.411   2.663  1.00  0.00     0.053 C 
BRANCH   7   8
ATOM      8  C   UNL     1      -0.142   3.968   3.050  1.00  0.00     0.041 C 
ATOM      9  O   UNL     1      -0.777   3.158   2.325  1.00  0.00    -0.550 OA
ATOM     10  O   UNL     1       0.437   3.527   4.233  1.00  0.00    -0.550 OA
ENDBRANCH   7   8
ENDBRANCH   6   7
ENDBRANCH   5   6
ENDBRANCH   4   5
ENDBRANCH   3   4
ENDBRANCH   2   3
ENDBRANCH   1   2
BRANCH   1  11
ATOM     11  C   UNL     1       1.880   8.773  -3.259  1.00  0.00     0.000 C 
BRANCH  11  12
ATOM     12  C   UNL     1       1.757   7.376  -3.894  1.00  0.00    -0.000 C 
BRANCH  12  13
ATOM     13  C   UNL     1       2.562   6.306  -3.141  1.00  0.00    -0.000 C 
BRANCH  13  14
ATOM     14  C   UNL     1       3.988   6.199  -3.695  1.00  0.00    -0.000 C 
BRANCH  14  15
ATOM     15  C   UNL     1       5.014   6.721  -2.681  1.00  0.00    -0.000 C 
BRANCH  15  16
ATOM     16  C   UNL     1       4.952   5.982  -1.334  1.00  0.00    -0.000 C 
BRANCH  16  17
ATOM     17  C   UNL     1       4.831   6.923  -0.118  1.00  0.00    -0.003 C 
ATOM     18  C   UNL     1       4.420   8.340  -0.517  1.00  0.00     0.004 C 
ENDBRANCH  16  17
ENDBRANCH  15  16
ENDBRANCH  14  15
ENDBRANCH  13  14
ENDBRANCH  12  13
ENDBRANCH  11  12
ENDBRANCH   1  11
TORSDOF 14
ENDMDL
MODEL 3
REMARK VINA RESULT:    -3.907      1.550      3.067
REMARK INTER + INTRA:          -8.984
REMARK INTER:                  -7.365
REMARK INTRA:                  -1.619
REMARK UNBOUND:                -1.880
REMARK SMILES CCCCCCCCCCCCCCCC(=O)[O-]
REMARK SMILES IDX 9 1 10 2 11 3 12 4 13 5 14 6 15 7 16 8 17 9 18 10 8 11 7 12
REMARK SMILES IDX 6 13 5 14 4 15 3 16 2 17 1 18
REMARK H PARENT
REMARK Flexibility Score: inf
ROOT
ATOM      1  C   UNL     1       1.731   6.166  -3.000  1.00  0.00     0.000 C 
ENDROOT
BRANCH   1   2
ATOM      2  C   UNL     1       0.974   7.433  -2.562  1.00  0.00     0.000 C 
BRANCH   2   3
ATOM      3  C   UNL     1       0.536   7.387  -1.091  1.00  0.00     0.000 C 
BRANCH   3   4
ATOM      4  C   UNL     1       1.733   7.120  -0.170  1.00  0.00     0.000 C 
BRANCH   4   5
ATOM      5  C   UNL     1       1.315   7.182   1.307  1.00  0.00     0.000 C 
BRANCH   5   6
ATOM      6  C   UNL     1       1.105   5.788   1.922  1.00  0.00     0.006 C 
BRANCH   6   7
ATOM      7  C   UNL     1      -0.106   5.735   2.861  1.00  0.00     0.053 C 
BRANCH   7   8
ATOM      8  C   UNL     1      -0.412   4.320   3.240  1.00  0.00     0.041 C 
ATOM      9  O   UNL     1      -0.625   3.458   2.348  1.00  0.00    -0.550 OA
ATOM     10  O   UNL     1      -0.508   3.962   4.579  1.00  0.00    -0.550 OA
ENDBRANCH   7   8
ENDBRANCH   6   7
ENDBRANCH   5   6
ENDBRANCH   4   5
ENDBRANCH   3   4
ENDBRANCH   2   3
ENDBRANCH   1   2
BRANCH   1  11
ATOM     11  C   UNL     1       2.836   6.396  -4.052  1.00  0.00     0.000 C 
BRANCH  11  12
ATOM     12  C   UNL     1       4.276   6.252  -3.528  1.00  0.00    -0.000 C 
BRANCH  12  13
ATOM     13  C   UNL     1       4.747   7.480  -2.735  1.00  0.00    -0.000 C 
BRANCH  13  14
ATOM     14  C   UNL     1       5.656   7.066  -1.570  1.00  0.00    -0.000 C 
BRANCH  14  15
ATOM     15  C   UNL     1       5.175   5.755  -0.934  1.00  0.00    -0.000 C 
BRANCH  15  16
ATOM     16  C   UNL     1       5.785   5.505   0.455  1.00  0.00    -0.000 C 
BRANCH  16  17
ATOM     17  C   UNL     1       4.844   5.878   1.619  1.00  0.00    -0.003 C 
ATOM     18  C   UNL     1       4.543   4.687   2.528  1.00  0.00     0.004 C 
ENDBRANCH  16  17
ENDBRANCH  15  16
ENDBRANCH  14  15
ENDBRANCH  13  14
ENDBRANCH  12  13
ENDBRANCH  11  12
ENDBRANCH   1  11
TORSDOF 14
ENDMDL
MODEL 4
REMARK VINA RESULT:    -3.834      1.479      3.698
REMARK INTER + INTRA:          -8.852
REMARK INTER:                  -7.424
REMARK INTRA:                  -1.428
REMARK UNBOUND:                -1.880
REMARK SMILES CCCCCCCCCCCCCCCC(=O)[O-]
REMARK SMILES IDX 9 1 10 2 11 3 12 4 13 5 14 6 15 7 16 8 17 9 18 10 8 11 7 12
REMARK SMILES IDX 6 13 5 14 4 15 3 16 2 17 1 18
REMARK H PARENT
REMARK Flexibility Score: inf
ROOT
ATOM      1  C   UNL     1       5.099   6.411  -2.041  1.00  0.00     0.000 C 
ENDROOT
BRANCH   1   2
ATOM      2  C   UNL     1       4.669   6.365  -0.564  1.00  0.00     0.000 C 
BRANCH   2   3
ATOM      3  C   UNL     1       3.325   7.066  -0.312  1.00  0.00     0.000 C 
BRANCH   3   4
ATOM      4  C   UNL     1       3.123   7.344   1.182  1.00  0.00     0.000 C 
BRANCH   4   5
ATOM      5  C   UNL     1       1.645   7.193   1.575  1.00  0.00     0.000 C 
BRANCH   5   6
ATOM      6  C   UNL     1       1.316   5.792   2.115  1.00  0.00     0.006 C 
BRANCH   6   7
ATOM      7  C   UNL     1      -0.037   5.740   2.835  1.00  0.00     0.053 C 
BRANCH   7   8
ATOM      8  C   UNL     1      -0.338   4.345   3.284  1.00  0.00     0.041 C 
ATOM      9  O   UNL     1      -0.356   4.066   4.512  1.00  0.00    -0.550 OA
ATOM     10  O   UNL     1      -0.552   3.342   2.347  1.00  0.00    -0.550 OA
ENDBRANCH   7   8
ENDBRANCH   6   7
ENDBRANCH   5   6
ENDBRANCH   4   5
ENDBRANCH   3   4
ENDBRANCH   2   3
ENDBRANCH   1   2
BRANCH   1  11
ATOM     11  C   UNL     1       4.165   7.214  -2.969  1.00  0.00     0.000 C 
BRANCH  11  12
ATOM     12  C   UNL     1       3.136   6.374  -3.747  1.00  0.00    -0.000 C 
BRANCH  12  13
ATOM     13  C   UNL     1       1.737   7.009  -3.762  1.00  0.00    -0.000 C 
BRANCH  13  14
ATOM     14  C   UNL     1       1.824   8.533  -3.619  1.00  0.00    -0.000 C 
BRANCH  14  15
ATOM     15  C   UNL     1       0.666   9.073  -2.767  1.00  0.00    -0.000 C 
BRANCH  15  16
ATOM     16  C   UNL     1       0.075   8.014  -1.822  1.00  0.00    -0.000 C 
BRANCH  16  17
ATOM     17  C   UNL     1      -0.985   8.575  -0.852  1.00  0.00    -0.003 C 
ATOM     18  C   UNL     1      -2.082   9.355  -1.577  1.00  0.00     0.004 C 
ENDBRANCH  16  17
ENDBRANCH  15  16
ENDBRANCH  14  15
ENDBRANCH  13  14
ENDBRANCH  12  13
ENDBRANCH  11  12
ENDBRANCH   1  11
TORSDOF 14
ENDMDL
MODEL 5
REMARK VINA RESULT:    -3.820      1.227      2.591
REMARK INTER + INTRA:          -8.827
REMARK INTER:                  -6.487
REMARK INTRA:                  -2.340
REMARK UNBOUND:                -1.880
REMARK SMILES CCCCCCCCCCCCCCCC(=O)[O-]
REMARK SMILES IDX 9 1 10 2 11 3 12 4 13 5 14 6 15 7 16 8 17 9 18 10 8 11 7 12
REMARK SMILES IDX 6 13 5 14 4 15 3 16 2 17 1 18
REMARK H PARENT
REMARK Flexibility Score: inf
ROOT
ATOM      1  C   UNL     1       0.910   6.845  -2.071  1.00  0.00     0.000 C 
ENDROOT
BRANCH   1   2
ATOM      2  C   UNL     1       0.937   8.324  -2.495  1.00  0.00     0.000 C 
BRANCH   2   3
ATOM      3  C   UNL     1      -0.090   9.179  -1.738  1.00  0.00     0.000 C 
BRANCH   3   4
ATOM      4  C   UNL     1       0.407   9.512  -0.326  1.00  0.00     0.000 C 
BRANCH   4   5
ATOM      5  C   UNL     1      -0.284   8.628   0.723  1.00  0.00     0.000 C 
BRANCH   5   6
ATOM      6  C   UNL     1       0.711   7.978   1.698  1.00  0.00     0.006 C 
BRANCH   6   7
ATOM      7  C   UNL     1       0.921   6.485   1.418  1.00  0.00     0.053 C 
BRANCH   7   8
ATOM      8  C   UNL     1       0.238   5.655   2.459  1.00  0.00     0.041 C 
ATOM      9  O   UNL     1      -0.499   6.203   3.321  1.00  0.00    -0.550 OA
ATOM     10  O   UNL     1       0.451   4.283   2.507  1.00  0.00    -0.550 OA
ENDBRANCH   7   8
ENDBRANCH   6   7
ENDBRANCH   5   6
ENDBRANCH   4   5
ENDBRANCH   3   4
ENDBRANCH   2   3
ENDBRANCH   1   2
BRANCH   1  11
ATOM     11  C   UNL     1       1.771   5.901  -2.936  1.00  0.00     0.000 C 
BRANCH  11  12
ATOM     12  C   UNL     1       2.651   6.600  -3.988  1.00  0.00    -0.000 C 
BRANCH  12  13
ATOM     13  C   UNL     1       4.149   6.525  -3.656  1.00  0.00    -0.000 C 
BRANCH  13  14
ATOM     14  C   UNL     1       4.380   5.833  -2.307  1.00  0.00    -0.000 C 
BRANCH  14  15
ATOM     15  C   UNL     1       5.086   6.772  -1.320  1.00  0.00    -0.000 C 
BRANCH  15  16
ATOM     16  C   UNL     1       4.171   7.227  -0.170  1.00  0.00    -0.000 C 
BRANCH  16  17
ATOM     17  C   UNL     1       3.997   8.758  -0.088  1.00  0.00    -0.003 C 
ATOM     18  C   UNL     1       4.323   9.452  -1.411  1.00  0.00     0.004 C 
ENDBRANCH  16  17
ENDBRANCH  15  16
ENDBRANCH  14  15
ENDBRANCH  13  14
ENDBRANCH  12  13
ENDBRANCH  11  12
ENDBRANCH   1  11
TORSDOF 14
ENDMDL
MODEL 6
REMARK VINA RESULT:    -3.805      1.988      5.786
REMARK INTER + INTRA:          -8.799
REMARK INTER:                  -7.126
REMARK INTRA:                  -1.673
REMARK UNBOUND:                -1.880
REMARK SMILES CCCCCCCCCCCCCCCC(=O)[O-]
REMARK SMILES IDX 9 1 10 2 11 3 12 4 13 5 14 6 15 7 16 8 17 9 18 10 8 11 7 12
REMARK SMILES IDX 6 13 5 14 4 15 3 16 2 17 1 18
REMARK H PARENT
REMARK Flexibility Score: inf
ROOT
ATOM      1  C   UNL     1       1.371   8.044  -3.046  1.00  0.00     0.000 C 
ENDROOT
BRANCH   1   2
ATOM      2  C   UNL     1       2.125   6.906  -3.756  1.00  0.00     0.000 C 
BRANCH   2   3
ATOM      3  C   UNL     1       3.499   6.620  -3.130  1.00  0.00     0.000 C 
BRANCH   3   4
ATOM      4  C   UNL     1       4.151   7.913  -2.624  1.00  0.00     0.000 C 
BRANCH   4   5
ATOM      5  C   UNL     1       4.474   7.815  -1.125  1.00  0.00     0.000 C 
BRANCH   5   6
ATOM      6  C   UNL     1       4.438   6.369  -0.604  1.00  0.00     0.006 C 
BRANCH   6   7
ATOM      7  C   UNL     1       5.837   5.809  -0.319  1.00  0.00     0.053 C 
BRANCH   7   8
ATOM      8  C   UNL     1       5.795   4.862   0.839  1.00  0.00     0.041 C 
ATOM      9  O   UNL     1       6.542   3.848   0.854  1.00  0.00    -0.550 OA
ATOM     10  O   UNL     1       4.900   5.074   1.880  1.00  0.00    -0.550 OA
ENDBRANCH   7   8
ENDBRANCH   6   7
ENDBRANCH   5   6
ENDBRANCH   4   5
ENDBRANCH   3   4
ENDBRANCH   2   3
ENDBRANCH   1   2
BRANCH   1  11
ATOM     11  C   UNL     1       0.280   7.588  -2.056  1.00  0.00     0.000 C 
BRANCH  11  12
ATOM     12  C   UNL     1       0.798   7.094  -0.694  1.00  0.00    -0.000 C 
BRANCH  12  13
ATOM     13  C   UNL     1       0.652   8.144   0.416  1.00  0.00    -0.000 C 
BRANCH  13  14
ATOM     14  C   UNL     1       1.028   7.556   1.782  1.00  0.00    -0.000 C 
BRANCH  14  15
ATOM     15  C   UNL     1       1.408   6.074   1.659  1.00  0.00    -0.000 C 
BRANCH  15  16
ATOM     16  C   UNL     1       0.997   5.248   2.888  1.00  0.00    -0.000 C 
BRANCH  16  17
ATOM     17  C   UNL     1      -0.478   4.797   2.865  1.00  0.00    -0.003 C 
ATOM     18  C   UNL     1      -0.621   3.278   2.770  1.00  0.00     0.004 C 
ENDBRANCH  16  17
ENDBRANCH  15  16
ENDBRANCH  14  15
ENDBRANCH  13  14
ENDBRANCH  12  13
ENDBRANCH  11  12
ENDBRANCH   1  11
TORSDOF 14
ENDMDL
MODEL 7
REMARK VINA RESULT:    -3.802      1.847      4.276
REMARK INTER + INTRA:          -8.793
REMARK INTER:                  -6.674
REMARK INTRA:                  -2.119
REMARK UNBOUND:                -1.880
REMARK SMILES CCCCCCCCCCCCCCCC(=O)[O-]
REMARK SMILES IDX 9 1 10 2 11 3 12 4 13 5 14 6 15 7 16 8 17 9 18 10 8 11 7 12
REMARK SMILES IDX 6 13 5 14 4 15 3 16 2 17 1 18
REMARK H PARENT
REMARK Flexibility Score: inf
ROOT
ATOM      1  C   UNL     1       4.741   7.522  -2.686  1.00  0.00     0.000 C 
ENDROOT
BRANCH   1   2
ATOM      2  C   UNL     1       5.280   7.170  -1.287  1.00  0.00     0.000 C 
BRANCH   2   3
ATOM      3  C   UNL     1       5.134   5.678  -0.951  1.00  0.00     0.000 C 
BRANCH   3   4
ATOM      4  C   UNL     1       5.480   5.411   0.519  1.00  0.00     0.000 C 
BRANCH   4   5
ATOM      5  C   UNL     1       4.900   6.505   1.428  1.00  0.00     0.000 C 
BRANCH   5   6
ATOM      6  C   UNL     1       4.479   5.969   2.806  1.00  0.00     0.006 C 
BRANCH   6   7
ATOM      7  C   UNL     1       4.051   4.497   2.760  1.00  0.00     0.053 C 
BRANCH   7   8
ATOM      8  C   UNL     1       2.798   4.292   3.553  1.00  0.00     0.041 C 
ATOM      9  O   UNL     1       2.811   4.434   4.804  1.00  0.00    -0.550 OA
ATOM     10  O   UNL     1       1.628   3.899   2.917  1.00  0.00    -0.550 OA
ENDBRANCH   7   8
ENDBRANCH   6   7
ENDBRANCH   5   6
ENDBRANCH   4   5
ENDBRANCH   3   4
ENDBRANCH   2   3
ENDBRANCH   1   2
BRANCH   1  11
ATOM     11  C   UNL     1       4.291   6.316  -3.536  1.00  0.00     0.000 C 
BRANCH  11  12
ATOM     12  C   UNL     1       2.808   6.326  -3.950  1.00  0.00    -0.000 C 
BRANCH  12  13
ATOM     13  C   UNL     1       1.854   6.217  -2.752  1.00  0.00    -0.000 C 
BRANCH  13  14
ATOM     14  C   UNL     1       0.921   7.432  -2.680  1.00  0.00    -0.000 C 
BRANCH  14  15
ATOM     15  C   UNL     1       0.720   7.887  -1.228  1.00  0.00    -0.000 C 
BRANCH  15  16
ATOM     16  C   UNL     1       1.673   7.186  -0.245  1.00  0.00    -0.000 C 
BRANCH  16  17
ATOM     17  C   UNL     1       0.967   6.626   1.007  1.00  0.00    -0.003 C 
ATOM     18  C   UNL     1       1.179   7.509   2.238  1.00  0.00     0.004 C 
ENDBRANCH  16  17
ENDBRANCH  15  16
ENDBRANCH  14  15
ENDBRANCH  13  14
ENDBRANCH  12  13
ENDBRANCH  11  12
ENDBRANCH   1  11
TORSDOF 14
ENDMDL
MODEL 8
REMARK VINA RESULT:    -3.713      2.380      6.033
REMARK INTER + INTRA:          -8.631
REMARK INTER:                  -7.164
REMARK INTRA:                  -1.467
REMARK UNBOUND:                -1.880
REMARK SMILES CCCCCCCCCCCCCCCC(=O)[O-]
REMARK SMILES IDX 9 1 10 2 11 3 12 4 13 5 14 6 15 7 16 8 17 9 18 10 8 11 7 12
REMARK SMILES IDX 6 13 5 14 4 15 3 16 2 17 1 18
REMARK H PARENT
REMARK Flexibility Score: inf
ROOT
ATOM      1  C   UNL     1       0.411   9.324  -2.626  1.00  0.00     0.000 C 
ENDROOT
BRANCH   1   2
ATOM      2  C   UNL     1       1.455   8.580  -3.477  1.00  0.00     0.000 C 
BRANCH   2   3
ATOM      3  C   UNL     1       1.567   7.091  -3.116  1.00  0.00     0.000 C 
BRANCH   3   4
ATOM      4  C   UNL     1       2.811   6.464  -3.755  1.00  0.00     0.000 C 
BRANCH   4   5
ATOM      5  C   UNL     1       3.895   6.194  -2.700  1.00  0.00     0.000 C 
BRANCH   5   6
ATOM      6  C   UNL     1       4.139   7.400  -1.779  1.00  0.00     0.006 C 
BRANCH   6   7
ATOM      7  C   UNL     1       4.532   6.986  -0.356  1.00  0.00     0.053 C 
BRANCH   7   8
ATOM      8  C   UNL     1       5.810   6.208  -0.371  1.00  0.00     0.041 C 
ATOM      9  O   UNL     1       6.854   6.716  -0.859  1.00  0.00    -0.550 OA
ATOM     10  O   UNL     1       5.838   4.906   0.111  1.00  0.00    -0.550 OA
ENDBRANCH   7   8
ENDBRANCH   6   7
ENDBRANCH   5   6
ENDBRANCH   4   5
ENDBRANCH   3   4
ENDBRANCH   2   3
ENDBRANCH   1   2
BRANCH   1  11
ATOM     11  C   UNL     1      -0.444   8.427  -1.708  1.00  0.00     0.000 C 
BRANCH  11  12
ATOM     12  C   UNL     1      -0.340   8.740  -0.205  1.00  0.00    -0.000 C 
BRANCH  12  13
ATOM     13  C   UNL     1       0.993   8.287   0.407  1.00  0.00    -0.000 C 
BRANCH  13  14
ATOM     14  C   UNL     1       0.995   6.774   0.663  1.00  0.00    -0.000 C 
BRANCH  14  15
ATOM     15  C   UNL     1       1.258   6.466   2.143  1.00  0.00    -0.000 C 
BRANCH  15  16
ATOM     16  C   UNL     1       0.123   5.660   2.797  1.00  0.00    -0.000 C 
BRANCH  16  17
ATOM     17  C   UNL     1       0.401   4.144   2.865  1.00  0.00    -0.003 C 
ATOM     18  C   UNL     1      -0.880   3.314   2.773  1.00  0.00     0.004 C 
ENDBRANCH  16  17
ENDBRANCH  15  16
ENDBRANCH  14  15
ENDBRANCH  13  14
ENDBRANCH  12  13
ENDBRANCH  11  12
ENDBRANCH   1  11
TORSDOF 14
ENDMDL
MODEL 9
REMARK VINA RESULT:    -3.707      1.532      2.667
REMARK INTER + INTRA:          -8.621
REMARK INTER:                  -6.451
REMARK INTRA:                  -2.169
REMARK UNBOUND:                -1.880
REMARK SMILES CCCCCCCCCCCCCCCC(=O)[O-]
REMARK SMILES IDX 9 1 10 2 11 3 12 4 13 5 14 6 15 7 16 8 17 9 18 10 8 11 7 12
REMARK SMILES IDX 6 13 5 14 4 15 3 16 2 17 1 18
REMARK H PARENT
REMARK Flexibility Score: inf
ROOT
ATOM      1  C   UNL     1       1.291   6.909  -2.489  1.00  0.00     0.000 C 
ENDROOT
BRANCH   1   2
ATOM      2  C   UNL     1       0.083   7.609  -1.841  1.00  0.00     0.000 C 
BRANCH   2   3
ATOM      3  C   UNL     1       0.273   7.855  -0.337  1.00  0.00     0.000 C 
BRANCH   3   4
ATOM      4  C   UNL     1       1.761   7.947   0.020  1.00  0.00     0.000 C 
BRANCH   4   5
ATOM      5  C   UNL     1       2.131   6.924   1.104  1.00  0.00     0.000 C 
BRANCH   5   6
ATOM      6  C   UNL     1       0.897   6.279   1.756  1.00  0.00     0.006 C 
BRANCH   6   7
ATOM      7  C   UNL     1       1.258   5.094   2.660  1.00  0.00     0.053 C 
BRANCH   7   8
ATOM      8  C   UNL     1       0.020   4.399   3.132  1.00  0.00     0.041 C 
ATOM      9  O   UNL     1      -0.456   4.656   4.269  1.00  0.00    -0.550 OA
ATOM     10  O   UNL     1      -0.583   3.434   2.336  1.00  0.00    -0.550 OA
ENDBRANCH   7   8
ENDBRANCH   6   7
ENDBRANCH   5   6
ENDBRANCH   4   5
ENDBRANCH   3   4
ENDBRANCH   2   3
ENDBRANCH   1   2
BRANCH   1  11
ATOM     11  C   UNL     1       1.924   7.664  -3.676  1.00  0.00     0.000 C 
BRANCH  11  12
ATOM     12  C   UNL     1       1.526   9.146  -3.795  1.00  0.00    -0.000 C 
BRANCH  12  13
ATOM     13  C   UNL     1       2.471  10.080  -3.025  1.00  0.00    -0.000 C 
BRANCH  13  14
ATOM     14  C   UNL     1       3.894   9.511  -2.983  1.00  0.00    -0.000 C 
BRANCH  14  15
ATOM     15  C   UNL     1       4.502   9.649  -1.580  1.00  0.00    -0.000 C 
BRANCH  15  16
ATOM     16  C   UNL     1       5.301   8.408  -1.150  1.00  0.00    -0.000 C 
BRANCH  16  17
ATOM     17  C   UNL     1       5.185   7.226  -2.134  1.00  0.00    -0.003 C 
ATOM     18  C   UNL     1       4.852   5.912  -1.428  1.00  0.00     0.004 C 
ENDBRANCH  16  17
ENDBRANCH  15  16
ENDBRANCH  14  15
ENDBRANCH  13  14
ENDBRANCH  12  13
ENDBRANCH  11  12
ENDBRANCH   1  11
TORSDOF 14
ENDMDL
