MODEL 1
REMARK VINA RESULT:    36.136      0.000      0.000
REMARK INTER + INTRA:          41.176
REMARK INTER:                  41.417
REMARK INTRA:                  -0.241
REMARK UNBOUND:                -0.241
REMARK SMILES CC1(C)CC[C@@]23CO[C@]4(C=C[C@@H]5[C@]6(C)CC[C@H](O)[C@](C)(CO)[C@H]6CC[C@@]5(C)[C@]4(C)C[C@@H]2O)[C@@H]3C1
REMARK SMILES IDX 1 1 2 2 4 3 5 4 6 5 7 6 8 7 9 8 33 9 34 10 10 11 11 12 12 13
REMARK SMILES IDX 13 14 15 15 16 16 17 17 19 18 23 19 24 20 25 21 26 22 28 23
REMARK SMILES IDX 30 24 31 25 29 26 27 27 20 28 14 29 3 30 32 31 21 33 22 34
REMARK SMILES IDX 18 36
REMARK H PARENT 32 32 22 35 18 37
REMARK Flexibility Score: inf
ROOT
ATOM      1  C   UNL     1     -11.508  -2.961   5.121  1.00  0.00     0.011 C 
ATOM      2  C   UNL     1     -10.419  -2.299   4.244  1.00  0.00    -0.035 C 
ATOM      3  C   UNL     1     -10.618  -0.771   4.157  1.00  0.00     0.007 C 
ATOM      4  C   UNL     1     -10.394  -0.069   5.504  1.00  0.00     0.013 C 
ATOM      5  C   UNL     1      -9.062  -0.449   6.230  1.00  0.00     0.026 C 
ATOM      6  C   UNL     1      -7.831   0.125   5.500  1.00  0.00     0.171 C 
ATOM      7  O   UNL     1      -6.736  -0.747   5.703  1.00  0.00    -0.369 OA
ATOM      8  C   UNL     1      -7.186  -1.820   6.515  1.00  0.00     0.096 C 
ATOM      9  C   UNL     1      -8.716  -1.930   6.182  1.00  0.00     0.037 C 
ATOM     10  C   UNL     1      -9.006  -2.589   4.798  1.00  0.00     0.014 C 
ATOM     11  C   UNL     1      -6.413  -3.066   6.062  1.00  0.00     0.005 C 
ATOM     12  C   UNL     1      -5.514  -3.742   6.798  1.00  0.00    -0.024 C 
ATOM     13  C   UNL     1      -5.131  -3.302   8.197  1.00  0.00     0.024 C 
ATOM     14  C   UNL     1      -4.172  -4.268   9.078  1.00  0.00    -0.022 C 
ATOM     15  C   UNL     1      -3.803  -5.577   8.312  1.00  0.00     0.010 C 
ATOM     16  C   UNL     1      -3.011  -6.603   9.141  1.00  0.00     0.033 C 
ATOM     17  C   UNL     1      -3.739  -7.003  10.440  1.00  0.00     0.123 C 
ATOM     18  C   UNL     1      -4.108  -5.763  11.328  1.00  0.00     0.020 C 
ATOM     19  C   UNL     1      -4.866  -4.695  10.431  1.00  0.00     0.006 C 
ATOM     20  C   UNL     1      -5.477  -3.510  11.229  1.00  0.00     0.005 C 
ATOM     21  C   UNL     1      -5.972  -2.337  10.360  1.00  0.00     0.008 C 
ATOM     22  C   UNL     1      -6.402  -2.726   8.909  1.00  0.00    -0.017 C 
ATOM     23  C   UNL     1      -6.929  -1.439   8.069  1.00  0.00     0.009 C 
ATOM     24  C   UNL     1      -8.245  -0.860   8.700  1.00  0.00     0.043 C 
ATOM     25  C   UNL     1      -9.071   0.047   7.740  1.00  0.00     0.124 C 
ATOM     26  C   UNL     1      -5.902  -0.244   8.153  1.00  0.00     0.015 C 
ATOM     27  C   UNL     1      -7.519  -3.835   8.983  1.00  0.00     0.013 C 
ATOM     28  C   UNL     1      -2.811  -5.216  12.007  1.00  0.00     0.017 C 
ATOM     29  C   UNL     1      -2.856  -3.474   9.347  1.00  0.00     0.012 C 
ATOM     30  C   UNL     1     -10.527  -2.891   2.823  1.00  0.00     0.011 C 
ENDROOT
BRANCH  25  31
ATOM     31  O   UNL     1     -10.383   0.122   8.242  1.00  0.00    -0.392 OA
ATOM     32  H   UNL     1     -10.316   0.289   9.218  1.00  0.00     0.210 HD
ENDBRANCH  25  31
BRANCH  18  33
ATOM     33  C   UNL     1      -5.032  -6.240  12.501  1.00  0.00     0.165 C 
BRANCH  33  34
ATOM     34  O   UNL     1      -4.507  -7.355  13.173  1.00  0.00    -0.396 OA
ATOM     35  H   UNL     1      -3.633  -7.548  12.746  1.00  0.00     0.210 HD
ENDBRANCH  33  34
ENDBRANCH  18  33
BRANCH  17  36
ATOM     36  O   UNL     1      -4.893  -7.734  10.105  1.00  0.00    -0.392 OA
ATOM     37  H   UNL     1      -4.595  -8.540   9.607  1.00  0.00     0.210 HD
ENDBRANCH  17  36
TORSDOF 4
ENDMDL
MODEL 2
REMARK VINA RESULT:    38.302      2.073      8.014
REMARK INTER + INTRA:          43.660
REMARK INTER:                  43.737
REMARK INTRA:                  -0.077
REMARK UNBOUND:                -0.241
REMARK SMILES CC1(C)CC[C@@]23CO[C@]4(C=C[C@@H]5[C@]6(C)CC[C@H](O)[C@](C)(CO)[C@H]6CC[C@@]5(C)[C@]4(C)C[C@@H]2O)[C@@H]3C1
REMARK SMILES IDX 1 1 2 2 4 3 5 4 6 5 7 6 8 7 9 8 33 9 34 10 10 11 11 12 12 13
REMARK SMILES IDX 13 14 15 15 16 16 17 17 19 18 23 19 24 20 25 21 26 22 28 23
REMARK SMILES IDX 30 24 31 25 29 26 27 27 20 28 14 29 3 30 32 31 21 33 22 34
REMARK SMILES IDX 18 36
REMARK H PARENT 32 32 22 35 18 37
REMARK Flexibility Score: inf
ROOT
ATOM      1  C   UNL     1      -4.363  -7.503  10.189  1.00  0.00     0.011 C 
ATOM      2  C   UNL     1      -4.603  -6.541  11.376  1.00  0.00    -0.035 C 
ATOM      3  C   UNL     1      -3.293  -5.859  11.824  1.00  0.00     0.007 C 
ATOM      4  C   UNL     1      -2.735  -4.901  10.762  1.00  0.00     0.013 C 
ATOM      5  C   UNL     1      -3.769  -3.874  10.194  1.00  0.00     0.026 C 
ATOM      6  C   UNL     1      -4.151  -2.809  11.242  1.00  0.00     0.171 C 
ATOM      7  O   UNL     1      -5.481  -2.394  11.004  1.00  0.00    -0.369 OA
ATOM      8  C   UNL     1      -5.960  -3.113   9.878  1.00  0.00     0.096 C 
ATOM      9  C   UNL     1      -5.147  -4.455   9.912  1.00  0.00     0.037 C 
ATOM     10  C   UNL     1      -5.635  -5.451  11.010  1.00  0.00     0.014 C 
ATOM     11  C   UNL     1      -7.459  -3.348  10.113  1.00  0.00     0.005 C 
ATOM     12  C   UNL     1      -8.459  -2.820   9.387  1.00  0.00    -0.024 C 
ATOM     13  C   UNL     1      -8.198  -1.871   8.235  1.00  0.00     0.024 C 
ATOM     14  C   UNL     1      -9.447  -1.419   7.304  1.00  0.00    -0.022 C 
ATOM     15  C   UNL     1     -10.781  -2.093   7.754  1.00  0.00     0.010 C 
ATOM     16  C   UNL     1     -11.980  -1.818   6.830  1.00  0.00     0.033 C 
ATOM     17  C   UNL     1     -11.709  -2.231   5.370  1.00  0.00     0.123 C 
ATOM     18  C   UNL     1     -10.416  -1.561   4.786  1.00  0.00     0.020 C 
ATOM     19  C   UNL     1      -9.212  -1.805   5.791  1.00  0.00     0.006 C 
ATOM     20  C   UNL     1      -7.823  -1.379   5.239  1.00  0.00     0.005 C 
ATOM     21  C   UNL     1      -6.694  -1.352   6.288  1.00  0.00     0.008 C 
ATOM     22  C   UNL     1      -6.893  -2.324   7.495  1.00  0.00    -0.017 C 
ATOM     23  C   UNL     1      -5.651  -2.250   8.542  1.00  0.00     0.009 C 
ATOM     24  C   UNL     1      -4.325  -2.759   7.874  1.00  0.00     0.043 C 
ATOM     25  C   UNL     1      -3.213  -3.165   8.885  1.00  0.00     0.124 C 
ATOM     26  C   UNL     1      -5.333  -0.757   8.944  1.00  0.00     0.015 C 
ATOM     27  C   UNL     1      -7.071  -3.792   6.952  1.00  0.00     0.013 C 
ATOM     28  C   UNL     1     -10.707  -0.053   4.498  1.00  0.00     0.017 C 
ATOM     29  C   UNL     1      -9.600   0.125   7.474  1.00  0.00     0.012 C 
ATOM     30  C   UNL     1      -5.155  -7.369  12.556  1.00  0.00     0.011 C 
ENDROOT
BRANCH  25  31
ATOM     31  O   UNL     1      -2.298  -3.993   8.209  1.00  0.00    -0.392 OA
ATOM     32  H   UNL     1      -1.523  -4.132   8.815  1.00  0.00     0.210 HD
ENDBRANCH  25  31
BRANCH  18  33
ATOM     33  C   UNL     1     -10.099  -2.206   3.393  1.00  0.00     0.165 C 
BRANCH  33  34
ATOM     34  O   UNL     1     -10.414  -1.350   2.327  1.00  0.00    -0.396 OA
ATOM     35  H   UNL     1      -9.851  -0.543   2.444  1.00  0.00     0.210 HD
ENDBRANCH  33  34
ENDBRANCH  18  33
BRANCH  17  36
ATOM     36  O   UNL     1     -11.613  -3.633   5.307  1.00  0.00    -0.392 OA
ATOM     37  H   UNL     1     -11.169  -3.858   4.447  1.00  0.00     0.210 HD
ENDBRANCH  17  36
TORSDOF 4
ENDMDL
