MODEL 1
REMARK VINA RESULT:    -6.425      0.000      0.000
REMARK INTER + INTRA:          -7.108
REMARK INTER:                  -6.988
REMARK INTRA:                  -0.120
REMARK UNBOUND:                -0.120
REMARK SMILES CC(=O)[C@@H]1CC[C@H]2[C@H]3CC=C4C[C@@H](O)CC[C@]4(C)[C@@H]3CC[C@@]12C
REMARK SMILES IDX 4 1 5 2 6 3 7 4 22 5 21 6 20 7 19 8 8 9 9 10 10 11 11 12
REMARK SMILES IDX 17 13 16 14 15 15 13 16 12 17 18 18 23 19 2 20 1 21 3 22
REMARK SMILES IDX 14 23
REMARK H PARENT 14 24
REMARK Flexibility Score: inf
ROOT
ATOM      1  C   UNL     1     -25.308  89.011 -28.452  1.00  0.00     0.062 C 
ATOM      2  C   UNL     1     -23.961  88.377 -28.859  1.00  0.00     0.012 C 
ATOM      3  C   UNL     1     -22.870  89.371 -28.465  1.00  0.00     0.005 C 
ATOM      4  C   UNL     1     -23.586  90.679 -28.073  1.00  0.00    -0.001 C 
ATOM      5  C   UNL     1     -24.952  90.181 -27.491  1.00  0.00    -0.020 C 
ATOM      6  C   UNL     1     -26.080  91.268 -27.425  1.00  0.00     0.008 C 
ATOM      7  C   UNL     1     -25.667  92.630 -27.970  1.00  0.00     0.005 C 
ATOM      8  C   UNL     1     -25.047  92.446 -29.359  1.00  0.00     0.003 C 
ATOM      9  C   UNL     1     -23.658  91.783 -29.218  1.00  0.00     0.000 C 
ATOM     10  C   UNL     1     -23.210  91.359 -30.632  1.00  0.00     0.031 C 
ATOM     11  C   UNL     1     -23.254  92.516 -31.593  1.00  0.00    -0.027 C 
ATOM     12  C   UNL     1     -24.041  93.602 -31.423  1.00  0.00    -0.065 C 
ATOM     13  C   UNL     1     -25.006  93.758 -30.238  1.00  0.00    -0.008 C 
ATOM     14  C   UNL     1     -24.537  94.994 -29.408  1.00  0.00     0.014 C 
ATOM     15  C   UNL     1     -24.283  96.252 -30.265  1.00  0.00     0.033 C 
ATOM     16  C   UNL     1     -23.306  95.975 -31.424  1.00  0.00     0.118 C 
ATOM     17  C   UNL     1     -23.803  94.816 -32.296  1.00  0.00     0.063 C 
ATOM     18  C   UNL     1     -26.434  94.006 -30.796  1.00  0.00     0.016 C 
ATOM     19  C   UNL     1     -24.726  89.646 -26.044  1.00  0.00     0.012 C 
ENDROOT
BRANCH   1  20
ATOM     20  C   UNL     1     -26.362  88.048 -27.912  1.00  0.00     0.133 C 
ATOM     21  C   UNL     1     -26.033  86.684 -27.377  1.00  0.00     0.088 C 
ATOM     22  O   UNL     1     -27.534  88.393 -27.931  1.00  0.00    -0.300 OA
ENDBRANCH   1  20
BRANCH  16  23
ATOM     23  O   UNL     1     -23.172  97.124 -32.219  1.00  0.00    -0.393 OA
ATOM     24  H   UNL     1     -23.140  96.817 -33.162  1.00  0.00     0.210 HD
ENDBRANCH  16  23
TORSDOF 2
ENDMDL
MODEL 2
REMARK VINA RESULT:    -6.307      6.133      9.461
REMARK INTER + INTRA:          -6.980
REMARK INTER:                  -6.864
REMARK INTRA:                  -0.116
REMARK UNBOUND:                -0.120
REMARK SMILES CC(=O)[C@@H]1CC[C@H]2[C@H]3CC=C4C[C@@H](O)CC[C@]4(C)[C@@H]3CC[C@@]12C
REMARK SMILES IDX 4 1 5 2 6 3 7 4 22 5 21 6 20 7 19 8 8 9 9 10 10 11 11 12
REMARK SMILES IDX 17 13 16 14 15 15 13 16 12 17 18 18 23 19 2 20 1 21 3 22
REMARK SMILES IDX 14 23
REMARK H PARENT 14 24
REMARK Flexibility Score: inf
ROOT
ATOM      1  C   UNL     1     -22.085  81.997 -23.551  1.00  0.00     0.062 C 
ATOM      2  C   UNL     1     -20.927  82.551 -22.693  1.00  0.00     0.012 C 
ATOM      3  C   UNL     1     -21.546  83.537 -21.704  1.00  0.00     0.005 C 
ATOM      4  C   UNL     1     -23.005  83.753 -22.151  1.00  0.00    -0.001 C 
ATOM      5  C   UNL     1     -23.390  82.380 -22.798  1.00  0.00    -0.020 C 
ATOM      6  C   UNL     1     -24.639  82.419 -23.744  1.00  0.00     0.008 C 
ATOM      7  C   UNL     1     -25.258  83.803 -23.903  1.00  0.00     0.005 C 
ATOM      8  C   UNL     1     -24.156  84.805 -24.267  1.00  0.00     0.003 C 
ATOM      9  C   UNL     1     -23.260  85.053 -23.033  1.00  0.00     0.000 C 
ATOM     10  C   UNL     1     -22.017  85.826 -23.521  1.00  0.00     0.031 C 
ATOM     11  C   UNL     1     -22.403  87.071 -24.272  1.00  0.00    -0.027 C 
ATOM     12  C   UNL     1     -23.595  87.235 -24.890  1.00  0.00    -0.065 C 
ATOM     13  C   UNL     1     -24.678  86.146 -24.917  1.00  0.00    -0.008 C 
ATOM     14  C   UNL     1     -25.927  86.705 -24.164  1.00  0.00     0.014 C 
ATOM     15  C   UNL     1     -26.349  88.114 -24.630  1.00  0.00     0.033 C 
ATOM     16  C   UNL     1     -25.182  89.118 -24.564  1.00  0.00     0.118 C 
ATOM     17  C   UNL     1     -23.980  88.617 -25.373  1.00  0.00     0.063 C 
ATOM     18  C   UNL     1     -25.042  85.851 -26.398  1.00  0.00     0.016 C 
ATOM     19  C   UNL     1     -23.687  81.348 -21.667  1.00  0.00     0.012 C 
ENDROOT
BRANCH   1  20
ATOM     20  C   UNL     1     -21.984  80.523 -23.934  1.00  0.00     0.133 C 
ATOM     21  C   UNL     1     -21.020  79.569 -23.288  1.00  0.00     0.088 C 
ATOM     22  O   UNL     1     -22.709  80.097 -24.821  1.00  0.00    -0.300 OA
ENDBRANCH   1  20
BRANCH  16  23
ATOM     23  O   UNL     1     -25.593  90.360 -25.074  1.00  0.00    -0.393 OA
ATOM     24  H   UNL     1     -25.652  90.260 -26.059  1.00  0.00     0.210 HD
ENDBRANCH  16  23
TORSDOF 2
ENDMDL
MODEL 3
REMARK VINA RESULT:    -6.281      5.391      8.806
REMARK INTER + INTRA:          -6.952
REMARK INTER:                  -6.857
REMARK INTRA:                  -0.095
REMARK UNBOUND:                -0.120
REMARK SMILES CC(=O)[C@@H]1CC[C@H]2[C@H]3CC=C4C[C@@H](O)CC[C@]4(C)[C@@H]3CC[C@@]12C
REMARK SMILES IDX 4 1 5 2 6 3 7 4 22 5 21 6 20 7 19 8 8 9 9 10 10 11 11 12
REMARK SMILES IDX 17 13 16 14 15 15 13 16 12 17 18 18 23 19 2 20 1 21 3 22
REMARK SMILES IDX 14 23
REMARK H PARENT 14 24
REMARK Flexibility Score: inf
ROOT
ATOM      1  C   UNL     1     -22.920  84.203 -21.563  1.00  0.00     0.062 C 
ATOM      2  C   UNL     1     -23.748  82.930 -21.841  1.00  0.00     0.012 C 
ATOM      3  C   UNL     1     -23.603  82.628 -23.331  1.00  0.00     0.005 C 
ATOM      4  C   UNL     1     -22.916  83.854 -23.965  1.00  0.00    -0.001 C 
ATOM      5  C   UNL     1     -22.009  84.395 -22.809  1.00  0.00    -0.020 C 
ATOM      6  C   UNL     1     -21.532  85.879 -22.979  1.00  0.00     0.008 C 
ATOM      7  C   UNL     1     -22.058  86.562 -24.236  1.00  0.00     0.005 C 
ATOM      8  C   UNL     1     -23.577  86.375 -24.310  1.00  0.00     0.003 C 
ATOM      9  C   UNL     1     -23.896  84.902 -24.653  1.00  0.00     0.000 C 
ATOM     10  C   UNL     1     -25.409  84.700 -24.431  1.00  0.00     0.031 C 
ATOM     11  C   UNL     1     -26.218  85.709 -25.200  1.00  0.00    -0.027 C 
ATOM     12  C   UNL     1     -25.740  86.912 -25.590  1.00  0.00    -0.065 C 
ATOM     13  C   UNL     1     -24.319  87.393 -25.261  1.00  0.00    -0.008 C 
ATOM     14  C   UNL     1     -23.559  87.580 -26.612  1.00  0.00     0.014 C 
ATOM     15  C   UNL     1     -24.346  88.402 -27.654  1.00  0.00     0.033 C 
ATOM     16  C   UNL     1     -25.755  87.830 -27.898  1.00  0.00     0.118 C 
ATOM     17  C   UNL     1     -26.541  87.724 -26.587  1.00  0.00     0.063 C 
ATOM     18  C   UNL     1     -24.420  88.755 -24.519  1.00  0.00     0.016 C 
ATOM     19  C   UNL     1     -20.737  83.501 -22.694  1.00  0.00     0.012 C 
ENDROOT
BRANCH   1  20
ATOM     20  C   UNL     1     -22.182  84.240 -20.227  1.00  0.00     0.133 C 
ATOM     21  C   UNL     1     -21.761  83.003 -19.486  1.00  0.00     0.088 C 
ATOM     22  O   UNL     1     -21.935  85.326 -19.725  1.00  0.00    -0.300 OA
ENDBRANCH   1  20
BRANCH  16  23
ATOM     23  O   UNL     1     -26.458  88.658 -28.789  1.00  0.00    -0.393 OA
ATOM     24  H   UNL     1     -27.104  88.078 -29.269  1.00  0.00     0.210 HD
ENDBRANCH  16  23
TORSDOF 2
ENDMDL
MODEL 4
REMARK VINA RESULT:    -6.133      1.454      6.685
REMARK INTER + INTRA:          -6.791
REMARK INTER:                  -6.690
REMARK INTRA:                  -0.101
REMARK UNBOUND:                -0.120
REMARK SMILES CC(=O)[C@@H]1CC[C@H]2[C@H]3CC=C4C[C@@H](O)CC[C@]4(C)[C@@H]3CC[C@@]12C
REMARK SMILES IDX 4 1 5 2 6 3 7 4 22 5 21 6 20 7 19 8 8 9 9 10 10 11 11 12
REMARK SMILES IDX 17 13 16 14 15 15 13 16 12 17 18 18 23 19 2 20 1 21 3 22
REMARK SMILES IDX 14 23
REMARK H PARENT 14 24
REMARK Flexibility Score: inf
ROOT
ATOM      1  C   UNL     1     -23.904  94.668 -31.179  1.00  0.00     0.062 C 
ATOM      2  C   UNL     1     -22.878  94.184 -32.225  1.00  0.00     0.012 C 
ATOM      3  C   UNL     1     -23.446  92.906 -32.839  1.00  0.00     0.005 C 
ATOM      4  C   UNL     1     -24.661  92.506 -31.979  1.00  0.00    -0.001 C 
ATOM      5  C   UNL     1     -25.212  93.881 -31.473  1.00  0.00    -0.020 C 
ATOM      6  C   UNL     1     -26.157  93.799 -30.224  1.00  0.00     0.008 C 
ATOM      7  C   UNL     1     -26.359  92.387 -29.688  1.00  0.00     0.005 C 
ATOM      8  C   UNL     1     -24.991  91.726 -29.490  1.00  0.00     0.003 C 
ATOM      9  C   UNL     1     -24.374  91.401 -30.869  1.00  0.00     0.000 C 
ATOM     10  C   UNL     1     -22.900  91.013 -30.629  1.00  0.00     0.031 C 
ATOM     11  C   UNL     1     -22.780  89.907 -29.617  1.00  0.00    -0.027 C 
ATOM     12  C   UNL     1     -23.717  89.647 -28.676  1.00  0.00    -0.065 C 
ATOM     13  C   UNL     1     -24.999  90.479 -28.521  1.00  0.00    -0.008 C 
ATOM     14  C   UNL     1     -26.210  89.536 -28.803  1.00  0.00     0.014 C 
ATOM     15  C   UNL     1     -26.150  88.204 -28.026  1.00  0.00     0.033 C 
ATOM     16  C   UNL     1     -24.819  87.461 -28.254  1.00  0.00     0.118 C 
ATOM     17  C   UNL     1     -23.624  88.352 -27.897  1.00  0.00     0.063 C 
ATOM     18  C   UNL     1     -25.068  91.007 -27.062  1.00  0.00     0.016 C 
ATOM     19  C   UNL     1     -26.010  94.567 -32.624  1.00  0.00     0.012 C 
ENDROOT
BRANCH   1  20
ATOM     20  C   UNL     1     -24.084  96.180 -31.072  1.00  0.00     0.133 C 
ATOM     21  C   UNL     1     -23.793  97.125 -32.204  1.00  0.00     0.088 C 
ATOM     22  O   UNL     1     -24.467  96.651 -30.012  1.00  0.00    -0.300 OA
ENDBRANCH   1  20
BRANCH  16  23
ATOM     23  O   UNL     1     -24.780  86.301 -27.464  1.00  0.00    -0.393 OA
ATOM     24  H   UNL     1     -24.325  86.547 -26.617  1.00  0.00     0.210 HD
ENDBRANCH  16  23
TORSDOF 2
ENDMDL
MODEL 5
REMARK VINA RESULT:    -6.056      5.209     10.388
REMARK INTER + INTRA:          -6.707
REMARK INTER:                  -6.591
REMARK INTRA:                  -0.116
REMARK UNBOUND:                -0.120
REMARK SMILES CC(=O)[C@@H]1CC[C@H]2[C@H]3CC=C4C[C@@H](O)CC[C@]4(C)[C@@H]3CC[C@@]12C
REMARK SMILES IDX 4 1 5 2 6 3 7 4 22 5 21 6 20 7 19 8 8 9 9 10 10 11 11 12
REMARK SMILES IDX 17 13 16 14 15 15 13 16 12 17 18 18 23 19 2 20 1 21 3 22
REMARK SMILES IDX 14 23
REMARK H PARENT 14 24
REMARK Flexibility Score: inf
ROOT
ATOM      1  C   UNL     1     -24.592  87.160 -26.956  1.00  0.00     0.062 C 
ATOM      2  C   UNL     1     -26.126  87.012 -26.885  1.00  0.00     0.012 C 
ATOM      3  C   UNL     1     -26.520  87.211 -25.423  1.00  0.00     0.005 C 
ATOM      4  C   UNL     1     -25.211  87.214 -24.609  1.00  0.00    -0.001 C 
ATOM      5  C   UNL     1     -24.167  87.815 -25.611  1.00  0.00    -0.020 C 
ATOM      6  C   UNL     1     -22.667  87.533 -25.254  1.00  0.00     0.008 C 
ATOM      7  C   UNL     1     -22.472  86.690 -23.999  1.00  0.00     0.005 C 
ATOM      8  C   UNL     1     -23.344  85.434 -24.100  1.00  0.00     0.003 C 
ATOM      9  C   UNL     1     -24.830  85.826 -23.930  1.00  0.00     0.000 C 
ATOM     10  C   UNL     1     -25.673  84.595 -24.325  1.00  0.00     0.031 C 
ATOM     11  C   UNL     1     -25.258  83.373 -23.552  1.00  0.00    -0.027 C 
ATOM     12  C   UNL     1     -24.032  83.213 -23.003  1.00  0.00    -0.065 C 
ATOM     13  C   UNL     1     -22.914  84.258 -23.138  1.00  0.00    -0.008 C 
ATOM     14  C   UNL     1     -22.578  84.777 -21.705  1.00  0.00     0.014 C 
ATOM     15  C   UNL     1     -22.353  83.649 -20.677  1.00  0.00     0.033 C 
ATOM     16  C   UNL     1     -23.535  82.661 -20.633  1.00  0.00     0.118 C 
ATOM     17  C   UNL     1     -23.817  82.080 -22.023  1.00  0.00     0.063 C 
ATOM     18  C   UNL     1     -21.668  83.566 -23.756  1.00  0.00     0.016 C 
ATOM     19  C   UNL     1     -24.354  89.361 -25.677  1.00  0.00     0.012 C 
ENDROOT
BRANCH   1  20
ATOM     20  C   UNL     1     -24.046  87.857 -28.199  1.00  0.00     0.133 C 
ATOM     21  C   UNL     1     -24.910  88.628 -29.156  1.00  0.00     0.088 C 
ATOM     22  O   UNL     1     -22.851  87.772 -28.442  1.00  0.00    -0.300 OA
ENDBRANCH   1  20
BRANCH  16  23
ATOM     23  O   UNL     1     -23.247  81.612 -19.746  1.00  0.00    -0.393 OA
ATOM     24  H   UNL     1     -22.349  81.268 -19.991  1.00  0.00     0.210 HD
ENDBRANCH  16  23
TORSDOF 2
ENDMDL
MODEL 6
REMARK VINA RESULT:    -5.974     11.437     13.560
REMARK INTER + INTRA:          -6.618
REMARK INTER:                  -6.499
REMARK INTRA:                  -0.119
REMARK UNBOUND:                -0.120
REMARK SMILES CC(=O)[C@@H]1CC[C@H]2[C@H]3CC=C4C[C@@H](O)CC[C@]4(C)[C@@H]3CC[C@@]12C
REMARK SMILES IDX 4 1 5 2 6 3 7 4 22 5 21 6 20 7 19 8 8 9 9 10 10 11 11 12
REMARK SMILES IDX 17 13 16 14 15 15 13 16 12 17 18 18 23 19 2 20 1 21 3 22
REMARK SMILES IDX 14 23
REMARK H PARENT 14 24
REMARK Flexibility Score: inf
ROOT
ATOM      1  C   UNL     1     -23.280  78.661 -26.059  1.00  0.00     0.062 C 
ATOM      2  C   UNL     1     -21.855  78.069 -26.053  1.00  0.00     0.012 C 
ATOM      3  C   UNL     1     -21.516  77.754 -24.598  1.00  0.00     0.005 C 
ATOM      4  C   UNL     1     -22.623  78.396 -23.738  1.00  0.00    -0.001 C 
ATOM      5  C   UNL     1     -23.883  78.328 -24.665  1.00  0.00    -0.020 C 
ATOM      6  C   UNL     1     -25.051  79.296 -24.270  1.00  0.00     0.008 C 
ATOM      7  C   UNL     1     -24.753  80.170 -23.057  1.00  0.00     0.005 C 
ATOM      8  C   UNL     1     -23.400  80.861 -23.260  1.00  0.00     0.003 C 
ATOM      9  C   UNL     1     -22.266  79.820 -23.123  1.00  0.00     0.000 C 
ATOM     10  C   UNL     1     -20.968  80.493 -23.617  1.00  0.00     0.031 C 
ATOM     11  C   UNL     1     -20.713  81.790 -22.898  1.00  0.00    -0.027 C 
ATOM     12  C   UNL     1     -21.685  82.527 -22.315  1.00  0.00    -0.065 C 
ATOM     13  C   UNL     1     -23.169  82.131 -22.351  1.00  0.00    -0.008 C 
ATOM     14  C   UNL     1     -23.625  81.878 -20.879  1.00  0.00     0.014 C 
ATOM     15  C   UNL     1     -23.233  83.011 -19.908  1.00  0.00     0.033 C 
ATOM     16  C   UNL     1     -21.725  83.324 -19.962  1.00  0.00     0.118 C 
ATOM     17  C   UNL     1     -21.284  83.658 -21.392  1.00  0.00     0.063 C 
ATOM     18  C   UNL     1     -23.977  83.310 -22.959  1.00  0.00     0.016 C 
ATOM     19  C   UNL     1     -24.449  76.875 -24.652  1.00  0.00     0.012 C 
ENDROOT
BRANCH   1  20
ATOM     20  C   UNL     1     -24.161  78.266 -27.241  1.00  0.00     0.133 C 
ATOM     21  C   UNL     1     -23.902  77.055 -28.092  1.00  0.00     0.088 C 
ATOM     22  O   UNL     1     -25.116  78.974 -27.523  1.00  0.00    -0.300 OA
ENDBRANCH   1  20
BRANCH  16  23
ATOM     23  O   UNL     1     -21.434  84.413 -19.125  1.00  0.00    -0.393 OA
ATOM     24  H   UNL     1     -21.620  84.117 -18.196  1.00  0.00     0.210 HD
ENDBRANCH  16  23
TORSDOF 2
ENDMDL
MODEL 7
REMARK VINA RESULT:    -5.955     15.683     17.023
REMARK INTER + INTRA:          -6.597
REMARK INTER:                  -6.476
REMARK INTRA:                  -0.120
REMARK UNBOUND:                -0.120
REMARK SMILES CC(=O)[C@@H]1CC[C@H]2[C@H]3CC=C4C[C@@H](O)CC[C@]4(C)[C@@H]3CC[C@@]12C
REMARK SMILES IDX 4 1 5 2 6 3 7 4 22 5 21 6 20 7 19 8 8 9 9 10 10 11 11 12
REMARK SMILES IDX 17 13 16 14 15 15 13 16 12 17 18 18 23 19 2 20 1 21 3 22
REMARK SMILES IDX 14 23
REMARK H PARENT 14 24
REMARK Flexibility Score: inf
ROOT
ATOM      1  C   UNL     1     -31.233  79.676 -21.868  1.00  0.00     0.062 C 
ATOM      2  C   UNL     1     -29.999  80.030 -21.011  1.00  0.00     0.012 C 
ATOM      3  C   UNL     1     -30.441  79.954 -19.551  1.00  0.00     0.005 C 
ATOM      4  C   UNL     1     -31.976  79.816 -19.561  1.00  0.00    -0.001 C 
ATOM      5  C   UNL     1     -32.258  79.035 -20.889  1.00  0.00    -0.020 C 
ATOM      6  C   UNL     1     -33.732  79.131 -21.416  1.00  0.00     0.008 C 
ATOM      7  C   UNL     1     -34.645  79.998 -20.558  1.00  0.00     0.005 C 
ATOM      8  C   UNL     1     -33.969  81.353 -20.320  1.00  0.00     0.003 C 
ATOM      9  C   UNL     1     -32.783  81.171 -19.347  1.00  0.00     0.000 C 
ATOM     10  C   UNL     1     -31.970  82.483 -19.369  1.00  0.00     0.031 C 
ATOM     11  C   UNL     1     -32.841  83.674 -19.075  1.00  0.00    -0.027 C 
ATOM     12  C   UNL     1     -34.177  83.695 -19.281  1.00  0.00    -0.065 C 
ATOM     13  C   UNL     1     -34.950  82.506 -19.871  1.00  0.00    -0.008 C 
ATOM     14  C   UNL     1     -35.960  82.015 -18.786  1.00  0.00     0.014 C 
ATOM     15  C   UNL     1     -36.801  83.150 -18.167  1.00  0.00     0.033 C 
ATOM     16  C   UNL     1     -35.921  84.287 -17.614  1.00  0.00     0.118 C 
ATOM     17  C   UNL     1     -34.985  84.835 -18.697  1.00  0.00     0.063 C 
ATOM     18  C   UNL     1     -35.721  82.996 -21.128  1.00  0.00     0.016 C 
ATOM     19  C   UNL     1     -31.931  77.525 -20.674  1.00  0.00     0.012 C 
ENDROOT
BRANCH   1  20
ATOM     20  C   UNL     1     -30.959  78.855 -23.125  1.00  0.00     0.133 C 
ATOM     21  C   UNL     1     -29.690  78.080 -23.341  1.00  0.00     0.088 C 
ATOM     22  O   UNL     1     -31.803  78.837 -24.009  1.00  0.00    -0.300 OA
ENDBRANCH   1  20
BRANCH  16  23
ATOM     23  O   UNL     1     -36.732  85.330 -17.137  1.00  0.00    -0.393 OA
ATOM     24  H   UNL     1     -37.307  84.943 -16.427  1.00  0.00     0.210 HD
ENDBRANCH  16  23
TORSDOF 2
ENDMDL
MODEL 8
REMARK VINA RESULT:    -5.855      1.956      6.740
REMARK INTER + INTRA:          -6.488
REMARK INTER:                  -6.369
REMARK INTRA:                  -0.119
REMARK UNBOUND:                -0.120
REMARK SMILES CC(=O)[C@@H]1CC[C@H]2[C@H]3CC=C4C[C@@H](O)CC[C@]4(C)[C@@H]3CC[C@@]12C
REMARK SMILES IDX 4 1 5 2 6 3 7 4 22 5 21 6 20 7 19 8 8 9 9 10 10 11 11 12
REMARK SMILES IDX 17 13 16 14 15 15 13 16 12 17 18 18 23 19 2 20 1 21 3 22
REMARK SMILES IDX 14 23
REMARK H PARENT 14 24
REMARK Flexibility Score: inf
ROOT
ATOM      1  C   UNL     1     -25.643  93.353 -31.406  1.00  0.00     0.062 C 
ATOM      2  C   UNL     1     -25.878  94.499 -30.399  1.00  0.00     0.012 C 
ATOM      3  C   UNL     1     -24.756  94.410 -29.365  1.00  0.00     0.005 C 
ATOM      4  C   UNL     1     -24.029  93.074 -29.615  1.00  0.00    -0.001 C 
ATOM      5  C   UNL     1     -24.189  92.862 -31.159  1.00  0.00    -0.020 C 
ATOM      6  C   UNL     1     -23.960  91.392 -31.653  1.00  0.00     0.008 C 
ATOM      7  C   UNL     1     -23.647  90.401 -30.539  1.00  0.00     0.005 C 
ATOM      8  C   UNL     1     -24.702  90.539 -29.435  1.00  0.00     0.003 C 
ATOM      9  C   UNL     1     -24.482  91.869 -28.679  1.00  0.00     0.000 C 
ATOM     10  C   UNL     1     -25.722  92.097 -27.789  1.00  0.00     0.031 C 
ATOM     11  C   UNL     1     -25.988  90.912 -26.902  1.00  0.00    -0.027 C 
ATOM     12  C   UNL     1     -25.571  89.656 -27.183  1.00  0.00    -0.065 C 
ATOM     13  C   UNL     1     -24.801  89.299 -28.464  1.00  0.00    -0.008 C 
ATOM     14  C   UNL     1     -23.390  88.784 -28.038  1.00  0.00     0.014 C 
ATOM     15  C   UNL     1     -23.433  87.709 -26.932  1.00  0.00     0.033 C 
ATOM     16  C   UNL     1     -24.234  88.177 -25.701  1.00  0.00     0.118 C 
ATOM     17  C   UNL     1     -25.652  88.604 -26.098  1.00  0.00     0.063 C 
ATOM     18  C   UNL     1     -25.575  88.172 -29.202  1.00  0.00     0.016 C 
ATOM     19  C   UNL     1     -23.172  93.776 -31.908  1.00  0.00     0.012 C 
ENDROOT
BRANCH   1  20
ATOM     20  C   UNL     1     -25.964  93.672 -32.864  1.00  0.00     0.133 C 
ATOM     21  C   UNL     1     -26.153  95.071 -33.378  1.00  0.00     0.088 C 
ATOM     22  O   UNL     1     -26.091  92.747 -33.652  1.00  0.00    -0.300 OA
ENDBRANCH   1  20
BRANCH  16  23
ATOM     23  O   UNL     1     -24.314  87.137 -24.761  1.00  0.00    -0.393 OA
ATOM     24  H   UNL     1     -24.530  87.556 -23.888  1.00  0.00     0.210 HD
ENDBRANCH  16  23
TORSDOF 2
ENDMDL
MODEL 9
REMARK VINA RESULT:    -5.809      6.163     10.353
REMARK INTER + INTRA:          -6.438
REMARK INTER:                  -6.345
REMARK INTRA:                  -0.093
REMARK UNBOUND:                -0.120
REMARK SMILES CC(=O)[C@@H]1CC[C@H]2[C@H]3CC=C4C[C@@H](O)CC[C@]4(C)[C@@H]3CC[C@@]12C
REMARK SMILES IDX 4 1 5 2 6 3 7 4 22 5 21 6 20 7 19 8 8 9 9 10 10 11 11 12
REMARK SMILES IDX 17 13 16 14 15 15 13 16 12 17 18 18 23 19 2 20 1 21 3 22
REMARK SMILES IDX 14 23
REMARK H PARENT 14 24
REMARK Flexibility Score: inf
ROOT
ATOM      1  C   UNL     1     -25.543  87.844 -24.456  1.00  0.00     0.062 C 
ATOM      2  C   UNL     1     -24.337  88.806 -24.500  1.00  0.00     0.012 C 
ATOM      3  C   UNL     1     -23.321  88.194 -25.463  1.00  0.00     0.005 C 
ATOM      4  C   UNL     1     -23.813  86.766 -25.773  1.00  0.00    -0.001 C 
ATOM      5  C   UNL     1     -25.370  86.893 -25.674  1.00  0.00    -0.020 C 
ATOM      6  C   UNL     1     -26.136  85.536 -25.489  1.00  0.00     0.008 C 
ATOM      7  C   UNL     1     -25.228  84.315 -25.407  1.00  0.00     0.005 C 
ATOM      8  C   UNL     1     -24.136  84.572 -24.362  1.00  0.00     0.003 C 
ATOM      9  C   UNL     1     -23.134  85.612 -24.913  1.00  0.00     0.000 C 
ATOM     10  C   UNL     1     -22.238  86.048 -23.735  1.00  0.00     0.031 C 
ATOM     11  C   UNL     1     -21.600  84.863 -23.061  1.00  0.00    -0.027 C 
ATOM     12  C   UNL     1     -22.111  83.612 -23.103  1.00  0.00    -0.065 C 
ATOM     13  C   UNL     1     -23.424  83.270 -23.824  1.00  0.00    -0.008 C 
ATOM     14  C   UNL     1     -23.082  82.278 -24.980  1.00  0.00     0.014 C 
ATOM     15  C   UNL     1     -22.205  81.090 -24.535  1.00  0.00     0.033 C 
ATOM     16  C   UNL     1     -20.921  81.553 -23.821  1.00  0.00     0.118 C 
ATOM     17  C   UNL     1     -21.251  82.459 -22.630  1.00  0.00     0.063 C 
ATOM     18  C   UNL     1     -24.379  82.587 -22.806  1.00  0.00     0.016 C 
ATOM     19  C   UNL     1     -25.912  87.568 -26.970  1.00  0.00     0.012 C 
ENDROOT
BRANCH   1  20
ATOM     20  C   UNL     1     -26.917  88.501 -24.355  1.00  0.00     0.133 C 
ATOM     21  C   UNL     1     -28.137  87.782 -23.852  1.00  0.00     0.088 C 
ATOM     22  O   UNL     1     -27.039  89.662 -24.714  1.00  0.00    -0.300 OA
ENDBRANCH   1  20
BRANCH  16  23
ATOM     23  O   UNL     1     -20.200  80.438 -23.364  1.00  0.00    -0.393 OA
ATOM     24  H   UNL     1     -19.347  80.782 -22.991  1.00  0.00     0.210 HD
ENDBRANCH  16  23
TORSDOF 2
ENDMDL
