MODEL 1
REMARK VINA RESULT:    -4.551      0.000      0.000
REMARK INTER + INTRA:          -5.518
REMARK INTER:                  -5.217
REMARK INTRA:                  -0.301
REMARK UNBOUND:                -0.301
REMARK SMILES COC(=O)c1ccccc1O
REMARK SMILES IDX 5 1 6 2 7 3 8 4 9 5 10 6 3 7 4 8 2 9 1 10 11 11
REMARK H PARENT 11 12
REMARK Flexibility Score: inf
ROOT
ATOM      1  C   UNL     1      -0.240  27.323  53.284  1.00  0.00     0.101 A 
ATOM      2  C   UNL     1      -0.868  26.217  52.679  1.00  0.00     0.019 A 
ATOM      3  C   UNL     1      -1.640  26.376  51.527  1.00  0.00     0.001 A 
ATOM      4  C   UNL     1      -1.797  27.639  50.958  1.00  0.00     0.004 A 
ATOM      5  C   UNL     1      -1.184  28.747  51.542  1.00  0.00     0.047 A 
ATOM      6  C   UNL     1      -0.404  28.603  52.700  1.00  0.00     0.130 A 
ENDROOT
BRANCH   1   7
ATOM      7  C   UNL     1       0.576  27.123  54.511  1.00  0.00     0.341 C 
ATOM      8  O   UNL     1       1.775  27.518  54.539  1.00  0.00    -0.246 OA
BRANCH   7   9
ATOM      9  O   UNL     1       0.027  26.499  55.635  1.00  0.00    -0.465 OA
ATOM     10  C   UNL     1       0.557  25.298  56.185  1.00  0.00     0.282 C 
ENDBRANCH   7   9
ENDBRANCH   1   7
BRANCH   6  11
ATOM     11  O   UNL     1       0.197  29.728  53.262  1.00  0.00    -0.507 OA
ATOM     12  H   UNL     1      -0.221  30.648  53.192  1.00  0.00     0.293 HD
ENDBRANCH   6  11
TORSDOF 3
ENDMDL
MODEL 2
REMARK VINA RESULT:    -4.100      1.514      1.635
REMARK INTER + INTRA:          -5.001
REMARK INTER:                  -4.684
REMARK INTRA:                  -0.317
REMARK UNBOUND:                -0.301
REMARK SMILES COC(=O)c1ccccc1O
REMARK SMILES IDX 5 1 6 2 7 3 8 4 9 5 10 6 3 7 4 8 2 9 1 10 11 11
REMARK H PARENT 11 12
REMARK Flexibility Score: inf
ROOT
ATOM      1  C   UNL     1      -0.422  27.067  53.986  1.00  0.00     0.101 A 
ATOM      2  C   UNL     1      -0.568  26.287  52.822  1.00  0.00     0.019 A 
ATOM      3  C   UNL     1      -1.783  26.249  52.136  1.00  0.00     0.001 A 
ATOM      4  C   UNL     1      -2.871  26.988  52.596  1.00  0.00     0.004 A 
ATOM      5  C   UNL     1      -2.748  27.767  53.746  1.00  0.00     0.047 A 
ATOM      6  C   UNL     1      -1.532  27.816  54.448  1.00  0.00     0.130 A 
ENDROOT
BRANCH   1   7
ATOM      7  C   UNL     1       0.884  27.088  54.697  1.00  0.00     0.341 C 
ATOM      8  O   UNL     1       1.905  27.554  54.119  1.00  0.00    -0.246 OA
BRANCH   7   9
ATOM      9  O   UNL     1       0.991  26.596  56.001  1.00  0.00    -0.465 OA
ATOM     10  C   UNL     1       0.539  25.300  56.374  1.00  0.00     0.282 C 
ENDBRANCH   7   9
ENDBRANCH   1   7
BRANCH   6  11
ATOM     11  O   UNL     1      -1.438  28.603  55.594  1.00  0.00    -0.507 OA
ATOM     12  H   UNL     1      -1.600  28.221  56.519  1.00  0.00     0.293 HD
ENDBRANCH   6  11
TORSDOF 3
ENDMDL
MODEL 3
REMARK VINA RESULT:    -4.040      1.753      4.104
REMARK INTER + INTRA:          -4.931
REMARK INTER:                  -4.653
REMARK INTRA:                  -0.279
REMARK UNBOUND:                -0.301
REMARK SMILES COC(=O)c1ccccc1O
REMARK SMILES IDX 5 1 6 2 7 3 8 4 9 5 10 6 3 7 4 8 2 9 1 10 11 11
REMARK H PARENT 11 12
REMARK Flexibility Score: inf
ROOT
ATOM      1  C   UNL     1       0.088  27.927  53.873  1.00  0.00     0.101 A 
ATOM      2  C   UNL     1      -0.785  27.400  54.846  1.00  0.00     0.019 A 
ATOM      3  C   UNL     1      -0.294  26.652  55.916  1.00  0.00     0.001 A 
ATOM      4  C   UNL     1       1.075  26.417  56.037  1.00  0.00     0.004 A 
ATOM      5  C   UNL     1       1.956  26.929  55.086  1.00  0.00     0.047 A 
ATOM      6  C   UNL     1       1.478  27.684  54.003  1.00  0.00     0.130 A 
ENDROOT
BRANCH   1   7
ATOM      7  C   UNL     1      -0.464  28.721  52.744  1.00  0.00     0.341 C 
ATOM      8  O   UNL     1       0.066  29.823  52.433  1.00  0.00    -0.246 OA
BRANCH   7   9
ATOM      9  O   UNL     1      -1.567  28.256  52.021  1.00  0.00    -0.465 OA
ATOM     10  C   UNL     1      -1.605  28.240  50.599  1.00  0.00     0.282 C 
ENDBRANCH   7   9
ENDBRANCH   1   7
BRANCH   6  11
ATOM     11  O   UNL     1       2.382  28.184  53.067  1.00  0.00    -0.507 OA
ATOM     12  H   UNL     1       2.916  27.572  52.462  1.00  0.00     0.293 HD
ENDBRANCH   6  11
TORSDOF 3
ENDMDL
MODEL 4
REMARK VINA RESULT:    -4.012      2.208      4.014
REMARK INTER + INTRA:          -4.900
REMARK INTER:                  -4.551
REMARK INTRA:                  -0.349
REMARK UNBOUND:                -0.301
REMARK SMILES COC(=O)c1ccccc1O
REMARK SMILES IDX 5 1 6 2 7 3 8 4 9 5 10 6 3 7 4 8 2 9 1 10 11 11
REMARK H PARENT 11 12
REMARK Flexibility Score: inf
ROOT
ATOM      1  C   UNL     1      -0.434  27.734  54.292  1.00  0.00     0.101 A 
ATOM      2  C   UNL     1      -0.479  26.896  55.424  1.00  0.00     0.019 A 
ATOM      3  C   UNL     1       0.696  26.419  56.006  1.00  0.00     0.001 A 
ATOM      4  C   UNL     1       1.935  26.771  55.473  1.00  0.00     0.004 A 
ATOM      5  C   UNL     1       2.002  27.600  54.353  1.00  0.00     0.047 A 
ATOM      6  C   UNL     1       0.828  28.087  53.755  1.00  0.00     0.130 A 
ENDROOT
BRANCH   1   7
ATOM      7  C   UNL     1      -1.703  28.226  53.692  1.00  0.00     0.341 C 
ATOM      8  O   UNL     1      -2.627  27.410  53.422  1.00  0.00    -0.246 OA
BRANCH   7   9
ATOM      9  O   UNL     1      -1.881  29.586  53.424  1.00  0.00    -0.465 OA
ATOM     10  C   UNL     1      -2.099  30.551  54.446  1.00  0.00     0.282 C 
ENDBRANCH   7   9
ENDBRANCH   1   7
BRANCH   6  11
ATOM     11  O   UNL     1       0.925  28.913  52.637  1.00  0.00    -0.507 OA
ATOM     12  H   UNL     1       1.789  29.383  52.393  1.00  0.00     0.293 HD
ENDBRANCH   6  11
TORSDOF 3
ENDMDL
MODEL 5
REMARK VINA RESULT:    -3.926      1.980      4.343
REMARK INTER + INTRA:          -4.801
REMARK INTER:                  -4.498
REMARK INTRA:                  -0.303
REMARK UNBOUND:                -0.301
REMARK SMILES COC(=O)c1ccccc1O
REMARK SMILES IDX 5 1 6 2 7 3 8 4 9 5 10 6 3 7 4 8 2 9 1 10 11 11
REMARK H PARENT 11 12
REMARK Flexibility Score: inf
ROOT
ATOM      1  C   UNL     1      -1.264  28.611  51.757  1.00  0.00     0.101 A 
ATOM      2  C   UNL     1      -1.741  27.326  51.429  1.00  0.00     0.019 A 
ATOM      3  C   UNL     1      -1.299  26.201  52.127  1.00  0.00     0.001 A 
ATOM      4  C   UNL     1      -0.378  26.338  53.165  1.00  0.00     0.004 A 
ATOM      5  C   UNL     1       0.105  27.601  53.506  1.00  0.00     0.047 A 
ATOM      6  C   UNL     1      -0.329  28.742  52.812  1.00  0.00     0.130 A 
ENDROOT
BRANCH   1   7
ATOM      7  C   UNL     1      -1.752  29.791  50.995  1.00  0.00     0.341 C 
ATOM      8  O   UNL     1      -2.279  30.760  51.608  1.00  0.00    -0.246 OA
BRANCH   7   9
ATOM      9  O   UNL     1      -1.633  29.837  49.603  1.00  0.00    -0.465 OA
ATOM     10  C   UNL     1      -0.403  29.600  48.927  1.00  0.00     0.282 C 
ENDBRANCH   7   9
ENDBRANCH   1   7
BRANCH   6  11
ATOM     11  O   UNL     1       0.171  29.991  53.174  1.00  0.00    -0.507 OA
ATOM     12  H   UNL     1      -0.295  30.575  53.859  1.00  0.00     0.293 HD
ENDBRANCH   6  11
TORSDOF 3
ENDMDL
MODEL 6
REMARK VINA RESULT:    -3.854      9.215     10.769
REMARK INTER + INTRA:          -4.718
REMARK INTER:                  -4.438
REMARK INTRA:                  -0.281
REMARK UNBOUND:                -0.301
REMARK SMILES COC(=O)c1ccccc1O
REMARK SMILES IDX 5 1 6 2 7 3 8 4 9 5 10 6 3 7 4 8 2 9 1 10 11 11
REMARK H PARENT 11 12
REMARK Flexibility Score: inf
ROOT
ATOM      1  C   UNL     1      -0.634  34.453  60.332  1.00  0.00     0.101 A 
ATOM      2  C   UNL     1       0.135  34.902  61.424  1.00  0.00     0.019 A 
ATOM      3  C   UNL     1       0.424  34.051  62.492  1.00  0.00     0.001 A 
ATOM      4  C   UNL     1      -0.047  32.739  62.489  1.00  0.00     0.004 A 
ATOM      5  C   UNL     1      -0.810  32.275  61.418  1.00  0.00     0.047 A 
ATOM      6  C   UNL     1      -1.109  33.119  60.337  1.00  0.00     0.130 A 
ENDROOT
BRANCH   1   7
ATOM      7  C   UNL     1      -0.926  35.383  59.209  1.00  0.00     0.341 C 
ATOM      8  O   UNL     1      -2.123  35.663  58.921  1.00  0.00    -0.246 OA
BRANCH   7   9
ATOM      9  O   UNL     1       0.115  35.951  58.468  1.00  0.00    -0.465 OA
ATOM     10  C   UNL     1       0.099  37.305  58.031  1.00  0.00     0.282 C 
ENDBRANCH   7   9
ENDBRANCH   1   7
BRANCH   6  11
ATOM     11  O   UNL     1      -1.874  32.629  59.279  1.00  0.00    -0.507 OA
ATOM     12  H   UNL     1      -2.204  33.232  58.535  1.00  0.00     0.293 HD
ENDBRANCH   6  11
TORSDOF 3
ENDMDL
MODEL 7
REMARK VINA RESULT:    -3.853     10.290     11.175
REMARK INTER + INTRA:          -4.717
REMARK INTER:                  -4.422
REMARK INTRA:                  -0.295
REMARK UNBOUND:                -0.301
REMARK SMILES COC(=O)c1ccccc1O
REMARK SMILES IDX 5 1 6 2 7 3 8 4 9 5 10 6 3 7 4 8 2 9 1 10 11 11
REMARK H PARENT 11 12
REMARK Flexibility Score: inf
ROOT
ATOM      1  C   UNL     1      -1.000  34.525  60.783  1.00  0.00     0.101 A 
ATOM      2  C   UNL     1      -2.061  33.679  61.163  1.00  0.00     0.019 A 
ATOM      3  C   UNL     1      -1.959  32.871  62.297  1.00  0.00     0.001 A 
ATOM      4  C   UNL     1      -0.800  32.895  63.071  1.00  0.00     0.004 A 
ATOM      5  C   UNL     1       0.262  33.725  62.712  1.00  0.00     0.047 A 
ATOM      6  C   UNL     1       0.174  34.543  61.574  1.00  0.00     0.130 A 
ENDROOT
BRANCH   1   7
ATOM      7  C   UNL     1      -1.137  35.374  59.570  1.00  0.00     0.341 C 
ATOM      8  O   UNL     1      -2.282  35.753  59.195  1.00  0.00    -0.246 OA
BRANCH   7   9
ATOM      9  O   UNL     1      -0.008  35.756  58.838  1.00  0.00    -0.465 OA
ATOM     10  C   UNL     1       0.087  37.007  58.166  1.00  0.00     0.282 C 
ENDBRANCH   7   9
ENDBRANCH   1   7
BRANCH   6  11
ATOM     11  O   UNL     1       1.250  35.364  61.239  1.00  0.00    -0.507 OA
ATOM     12  H   UNL     1       2.043  35.482  61.859  1.00  0.00     0.293 HD
ENDBRANCH   6  11
TORSDOF 3
ENDMDL
MODEL 8
REMARK VINA RESULT:    -3.847      1.927      4.272
REMARK INTER + INTRA:          -4.710
REMARK INTER:                  -4.393
REMARK INTRA:                  -0.318
REMARK UNBOUND:                -0.301
REMARK SMILES COC(=O)c1ccccc1O
REMARK SMILES IDX 5 1 6 2 7 3 8 4 9 5 10 6 3 7 4 8 2 9 1 10 11 11
REMARK H PARENT 11 12
REMARK Flexibility Score: inf
ROOT
ATOM      1  C   UNL     1      -0.249  28.063  53.980  1.00  0.00     0.101 A 
ATOM      2  C   UNL     1       1.139  28.006  53.743  1.00  0.00     0.019 A 
ATOM      3  C   UNL     1       1.975  27.257  54.573  1.00  0.00     0.001 A 
ATOM      4  C   UNL     1       1.443  26.551  55.650  1.00  0.00     0.004 A 
ATOM      5  C   UNL     1       0.072  26.594  55.902  1.00  0.00     0.047 A 
ATOM      6  C   UNL     1      -0.782  27.343  55.077  1.00  0.00     0.130 A 
ENDROOT
BRANCH   1   7
ATOM      7  C   UNL     1      -1.114  28.869  53.080  1.00  0.00     0.341 C 
ATOM      8  O   UNL     1      -1.920  29.709  53.570  1.00  0.00    -0.246 OA
BRANCH   7   9
ATOM      9  O   UNL     1      -1.044  28.706  51.693  1.00  0.00    -0.465 OA
ATOM     10  C   UNL     1      -1.719  27.659  51.006  1.00  0.00     0.282 C 
ENDBRANCH   7   9
ENDBRANCH   1   7
BRANCH   6  11
ATOM     11  O   UNL     1      -2.148  27.367  55.353  1.00  0.00    -0.507 OA
ATOM     12  H   UNL     1      -2.642  26.544  55.676  1.00  0.00     0.293 HD
ENDBRANCH   6  11
TORSDOF 3
ENDMDL
MODEL 9
REMARK VINA RESULT:    -3.820      1.536      2.518
REMARK INTER + INTRA:          -4.679
REMARK INTER:                  -4.375
REMARK INTRA:                  -0.304
REMARK UNBOUND:                -0.301
REMARK SMILES COC(=O)c1ccccc1O
REMARK SMILES IDX 5 1 6 2 7 3 8 4 9 5 10 6 3 7 4 8 2 9 1 10 11 11
REMARK H PARENT 11 12
REMARK Flexibility Score: inf
ROOT
ATOM      1  C   UNL     1      -0.624  28.049  53.043  1.00  0.00     0.101 A 
ATOM      2  C   UNL     1      -0.250  29.284  52.476  1.00  0.00     0.019 A 
ATOM      3  C   UNL     1      -0.631  29.617  51.175  1.00  0.00     0.001 A 
ATOM      4  C   UNL     1      -1.394  28.728  50.419  1.00  0.00     0.004 A 
ATOM      5  C   UNL     1      -1.775  27.501  50.962  1.00  0.00     0.047 A 
ATOM      6  C   UNL     1      -1.398  27.151  52.269  1.00  0.00     0.130 A 
ENDROOT
BRANCH   1   7
ATOM      7  C   UNL     1      -0.202  27.721  54.431  1.00  0.00     0.341 C 
ATOM      8  O   UNL     1      -1.065  27.655  55.350  1.00  0.00    -0.246 OA
BRANCH   7   9
ATOM      9  O   UNL     1       1.144  27.486  54.727  1.00  0.00    -0.465 OA
ATOM     10  C   UNL     1       1.973  26.650  53.930  1.00  0.00     0.282 C 
ENDBRANCH   7   9
ENDBRANCH   1   7
BRANCH   6  11
ATOM     11  O   UNL     1      -1.793  25.918  52.785  1.00  0.00    -0.507 OA
ATOM     12  H   UNL     1      -1.121  25.246  53.136  1.00  0.00     0.293 HD
ENDBRANCH   6  11
TORSDOF 3
ENDMDL
