MODEL 1
REMARK VINA RESULT:    -4.361      0.000      0.000
REMARK INTER + INTRA:          -7.240
REMARK INTER:                  -6.400
REMARK INTRA:                  -0.840
REMARK UNBOUND:                -0.840
REMARK SMILES O=C([O-])CCCCCCCC(=O)[O-]
REMARK SMILES IDX 7 1 6 2 5 3 4 4 2 5 1 6 3 7 8 8 9 9 10 10 11 11 12 12 13 13
REMARK H PARENT
REMARK Flexibility Score: inf
ROOT
ATOM      1  C   UNL     1      15.872 -13.805  39.556  1.00  0.00     0.000 C 
ENDROOT
BRANCH   1   2
ATOM      2  C   UNL     1      15.363 -15.008  40.370  1.00  0.00     0.000 C 
BRANCH   2   3
ATOM      3  C   UNL     1      14.536 -16.031  39.570  1.00  0.00     0.006 C 
BRANCH   3   4
ATOM      4  C   UNL     1      15.328 -17.298  39.219  1.00  0.00     0.053 C 
BRANCH   4   5
ATOM      5  C   UNL     1      15.802 -17.242  37.801  1.00  0.00     0.041 C 
ATOM      6  O   UNL     1      15.029 -16.843  36.890  1.00  0.00    -0.550 OA
ATOM      7  O   UNL     1      17.113 -17.581  37.492  1.00  0.00    -0.550 OA
ENDBRANCH   4   5
ENDBRANCH   3   4
ENDBRANCH   2   3
ENDBRANCH   1   2
BRANCH   1   8
ATOM      8  C   UNL     1      15.004 -13.502  38.327  1.00  0.00     0.000 C 
BRANCH   8   9
ATOM      9  C   UNL     1      15.870 -13.065  37.135  1.00  0.00     0.006 C 
BRANCH   9  10
ATOM     10  C   UNL     1      17.145 -13.906  37.004  1.00  0.00     0.053 C 
BRANCH  10  11
ATOM     11  C   UNL     1      17.531 -14.109  35.571  1.00  0.00     0.041 C 
ATOM     12  O   UNL     1      16.997 -15.026  34.893  1.00  0.00    -0.550 OA
ATOM     13  O   UNL     1      18.505 -13.304  34.993  1.00  0.00    -0.550 OA
ENDBRANCH  10  11
ENDBRANCH   9  10
ENDBRANCH   8   9
ENDBRANCH   1   8
TORSDOF 8
ENDMDL
MODEL 2
REMARK VINA RESULT:    -4.272      9.787     11.387
REMARK INTER + INTRA:          -7.110
REMARK INTER:                  -6.583
REMARK INTRA:                  -0.527
REMARK UNBOUND:                -0.840
REMARK SMILES O=C([O-])CCCCCCCC(=O)[O-]
REMARK SMILES IDX 7 1 6 2 5 3 4 4 2 5 1 6 3 7 8 8 9 9 10 10 11 11 12 12 13 13
REMARK H PARENT
REMARK Flexibility Score: inf
ROOT
ATOM      1  C   UNL     1      20.571 -24.967  33.021  1.00  0.00     0.000 C 
ENDROOT
BRANCH   1   2
ATOM      2  C   UNL     1      22.044 -24.686  32.672  1.00  0.00     0.000 C 
BRANCH   2   3
ATOM      3  C   UNL     1      23.062 -25.147  33.731  1.00  0.00     0.006 C 
BRANCH   3   4
ATOM      4  C   UNL     1      24.508 -24.780  33.371  1.00  0.00     0.053 C 
BRANCH   4   5
ATOM      5  C   UNL     1      24.640 -23.302  33.183  1.00  0.00     0.041 C 
ATOM      6  O   UNL     1      25.042 -22.837  32.083  1.00  0.00    -0.550 OA
ATOM      7  O   UNL     1      24.271 -22.436  34.203  1.00  0.00    -0.550 OA
ENDBRANCH   4   5
ENDBRANCH   3   4
ENDBRANCH   2   3
ENDBRANCH   1   2
BRANCH   1   8
ATOM      8  C   UNL     1      19.751 -23.687  33.230  1.00  0.00     0.000 C 
BRANCH   8   9
ATOM      9  C   UNL     1      20.658 -22.447  33.244  1.00  0.00     0.006 C 
BRANCH   9  10
ATOM     10  C   UNL     1      19.987 -21.227  32.603  1.00  0.00     0.053 C 
BRANCH  10  11
ATOM     11  C   UNL     1      20.945 -20.449  31.754  1.00  0.00     0.041 C 
ATOM     12  O   UNL     1      20.515 -19.656  30.875  1.00  0.00    -0.550 OA
ATOM     13  O   UNL     1      22.314 -20.625  31.911  1.00  0.00    -0.550 OA
ENDBRANCH  10  11
ENDBRANCH   9  10
ENDBRANCH   8   9
ENDBRANCH   1   8
TORSDOF 8
ENDMDL
MODEL 3
REMARK VINA RESULT:    -4.243      0.648      3.894
REMARK INTER + INTRA:          -7.068
REMARK INTER:                  -6.169
REMARK INTRA:                  -0.899
REMARK UNBOUND:                -0.840
REMARK SMILES O=C([O-])CCCCCCCC(=O)[O-]
REMARK SMILES IDX 7 1 6 2 5 3 4 4 2 5 1 6 3 7 8 8 9 9 10 10 11 11 12 12 13 13
REMARK H PARENT
REMARK Flexibility Score: inf
ROOT
ATOM      1  C   UNL     1      15.919 -13.871  39.647  1.00  0.00     0.000 C 
ENDROOT
BRANCH   1   2
ATOM      2  C   UNL     1      15.092 -13.150  38.567  1.00  0.00     0.000 C 
BRANCH   2   3
ATOM      3  C   UNL     1      15.724 -13.141  37.163  1.00  0.00     0.006 C 
BRANCH   3   4
ATOM      4  C   UNL     1      17.067 -13.880  37.106  1.00  0.00     0.053 C 
BRANCH   4   5
ATOM      5  C   UNL     1      17.496 -14.076  35.687  1.00  0.00     0.041 C 
ATOM      6  O   UNL     1      16.971 -14.981  34.986  1.00  0.00    -0.550 OA
ATOM      7  O   UNL     1      18.439 -13.226  35.122  1.00  0.00    -0.550 OA
ENDBRANCH   4   5
ENDBRANCH   3   4
ENDBRANCH   2   3
ENDBRANCH   1   2
BRANCH   1   8
ATOM      8  C   UNL     1      15.143 -14.999  40.342  1.00  0.00     0.000 C 
BRANCH   8   9
ATOM      9  C   UNL     1      13.928 -15.428  39.506  1.00  0.00     0.006 C 
BRANCH   9  10
ATOM     10  C   UNL     1      14.093 -16.835  38.920  1.00  0.00     0.053 C 
BRANCH  10  11
ATOM     11  C   UNL     1      14.915 -16.823  37.668  1.00  0.00     0.041 C 
ATOM     12  O   UNL     1      14.403 -16.463  36.576  1.00  0.00    -0.550 OA
ATOM     13  O   UNL     1      16.240 -17.241  37.702  1.00  0.00    -0.550 OA
ENDBRANCH  10  11
ENDBRANCH   9  10
ENDBRANCH   8   9
ENDBRANCH   1   8
TORSDOF 8
ENDMDL
MODEL 4
REMARK VINA RESULT:    -4.206      1.874      4.309
REMARK INTER + INTRA:          -7.013
REMARK INTER:                  -6.145
REMARK INTRA:                  -0.868
REMARK UNBOUND:                -0.840
REMARK SMILES O=C([O-])CCCCCCCC(=O)[O-]
REMARK SMILES IDX 7 1 6 2 5 3 4 4 2 5 1 6 3 7 8 8 9 9 10 10 11 11 12 12 13 13
REMARK H PARENT
REMARK Flexibility Score: inf
ROOT
ATOM      1  C   UNL     1      15.571 -17.566  37.761  1.00  0.00     0.000 C 
ENDROOT
BRANCH   1   2
ATOM      2  C   UNL     1      17.037 -17.294  37.375  1.00  0.00     0.000 C 
BRANCH   2   3
ATOM      3  C   UNL     1      17.343 -15.841  36.967  1.00  0.00     0.006 C 
BRANCH   3   4
ATOM      4  C   UNL     1      16.416 -15.323  35.859  1.00  0.00     0.053 C 
BRANCH   4   5
ATOM      5  C   UNL     1      16.698 -13.883  35.572  1.00  0.00     0.041 C 
ATOM      6  O   UNL     1      15.771 -13.032  35.631  1.00  0.00    -0.550 OA
ATOM      7  O   UNL     1      17.995 -13.471  35.292  1.00  0.00    -0.550 OA
ENDBRANCH   4   5
ENDBRANCH   3   4
ENDBRANCH   2   3
ENDBRANCH   1   2
BRANCH   1   8
ATOM      8  C   UNL     1      15.345 -17.583  39.278  1.00  0.00     0.000 C 
BRANCH   8   9
ATOM      9  C   UNL     1      14.334 -16.504  39.696  1.00  0.00     0.006 C 
BRANCH   9  10
ATOM     10  C   UNL     1      15.003 -15.148  39.954  1.00  0.00     0.053 C 
BRANCH  10  11
ATOM     11  C   UNL     1      14.627 -14.137  38.914  1.00  0.00     0.041 C 
ATOM     12  O   UNL     1      13.791 -14.428  38.019  1.00  0.00    -0.550 OA
ATOM     13  O   UNL     1      15.225 -12.883  38.917  1.00  0.00    -0.550 OA
ENDBRANCH  10  11
ENDBRANCH   9  10
ENDBRANCH   8   9
ENDBRANCH   1   8
TORSDOF 8
ENDMDL
MODEL 5
REMARK VINA RESULT:    -4.201      1.628      2.425
REMARK INTER + INTRA:          -7.006
REMARK INTER:                  -6.155
REMARK INTRA:                  -0.851
REMARK UNBOUND:                -0.840
REMARK SMILES O=C([O-])CCCCCCCC(=O)[O-]
REMARK SMILES IDX 7 1 6 2 5 3 4 4 2 5 1 6 3 7 8 8 9 9 10 10 11 11 12 12 13 13
REMARK H PARENT
REMARK Flexibility Score: inf
ROOT
ATOM      1  C   UNL     1      15.073 -13.178  38.349  1.00  0.00     0.000 C 
ENDROOT
BRANCH   1   2
ATOM      2  C   UNL     1      15.925 -13.882  39.422  1.00  0.00     0.000 C 
BRANCH   2   3
ATOM      3  C   UNL     1      15.227 -15.048  40.144  1.00  0.00     0.006 C 
BRANCH   3   4
ATOM      4  C   UNL     1      14.128 -15.705  39.298  1.00  0.00     0.053 C 
BRANCH   4   5
ATOM      5  C   UNL     1      14.393 -17.168  39.141  1.00  0.00     0.041 C 
ATOM      6  O   UNL     1      15.305 -17.722  39.811  1.00  0.00    -0.550 OA
ATOM      7  O   UNL     1      13.600 -17.931  38.294  1.00  0.00    -0.550 OA
ENDBRANCH   4   5
ENDBRANCH   3   4
ENDBRANCH   2   3
ENDBRANCH   1   2
BRANCH   1   8
ATOM      8  C   UNL     1      15.802 -13.030  37.007  1.00  0.00     0.000 C 
BRANCH   8   9
ATOM      9  C   UNL     1      17.048 -13.928  36.956  1.00  0.00     0.006 C 
BRANCH   9  10
ATOM     10  C   UNL     1      17.024 -14.889  35.761  1.00  0.00     0.053 C 
BRANCH  10  11
ATOM     11  C   UNL     1      16.376 -16.193  36.112  1.00  0.00     0.041 C 
ATOM     12  O   UNL     1      15.193 -16.431  35.753  1.00  0.00    -0.550 OA
ATOM     13  O   UNL     1      17.068 -17.133  36.865  1.00  0.00    -0.550 OA
ENDBRANCH  10  11
ENDBRANCH   9  10
ENDBRANCH   8   9
ENDBRANCH   1   8
TORSDOF 8
ENDMDL
MODEL 6
REMARK VINA RESULT:    -4.150      1.645      4.276
REMARK INTER + INTRA:          -6.931
REMARK INTER:                  -6.181
REMARK INTRA:                  -0.749
REMARK UNBOUND:                -0.840
REMARK SMILES O=C([O-])CCCCCCCC(=O)[O-]
REMARK SMILES IDX 7 1 6 2 5 3 4 4 2 5 1 6 3 7 8 8 9 9 10 10 11 11 12 12 13 13
REMARK H PARENT
REMARK Flexibility Score: inf
ROOT
ATOM      1  C   UNL     1      15.055 -13.328  38.341  1.00  0.00     0.000 C 
ENDROOT
BRANCH   1   2
ATOM      2  C   UNL     1      15.862 -13.091  37.051  1.00  0.00     0.000 C 
BRANCH   2   3
ATOM      3  C   UNL     1      17.106 -13.984  36.890  1.00  0.00     0.006 C 
BRANCH   3   4
ATOM      4  C   UNL     1      17.006 -14.937  35.692  1.00  0.00     0.053 C 
BRANCH   4   5
ATOM      5  C   UNL     1      16.333 -16.211  36.091  1.00  0.00     0.041 C 
ATOM      6  O   UNL     1      15.105 -16.378  35.862  1.00  0.00    -0.550 OA
ATOM      7  O   UNL     1      17.071 -17.235  36.671  1.00  0.00    -0.550 OA
ENDBRANCH   4   5
ENDBRANCH   3   4
ENDBRANCH   2   3
ENDBRANCH   1   2
BRANCH   1   8
ATOM      8  C   UNL     1      15.917 -13.844  39.501  1.00  0.00     0.000 C 
BRANCH   8   9
ATOM      9  C   UNL     1      15.213 -14.990  40.243  1.00  0.00     0.006 C 
BRANCH   9  10
ATOM     10  C   UNL     1      14.340 -15.838  39.310  1.00  0.00     0.053 C 
BRANCH  10  11
ATOM     11  C   UNL     1      14.444 -17.298  39.628  1.00  0.00     0.041 C 
ATOM     12  O   UNL     1      15.547 -17.895  39.515  1.00  0.00    -0.550 OA
ATOM     13  O   UNL     1      13.314 -18.007  40.017  1.00  0.00    -0.550 OA
ENDBRANCH  10  11
ENDBRANCH   9  10
ENDBRANCH   8   9
ENDBRANCH   1   8
TORSDOF 8
ENDMDL
MODEL 7
REMARK VINA RESULT:    -4.076     10.385     12.095
REMARK INTER + INTRA:          -6.823
REMARK INTER:                  -6.269
REMARK INTRA:                  -0.554
REMARK UNBOUND:                -0.840
REMARK SMILES O=C([O-])CCCCCCCC(=O)[O-]
REMARK SMILES IDX 7 1 6 2 5 3 4 4 2 5 1 6 3 7 8 8 9 9 10 10 11 11 12 12 13 13
REMARK H PARENT
REMARK Flexibility Score: inf
ROOT
ATOM      1  C   UNL     1      22.334 -25.914  33.970  1.00  0.00     0.000 C 
ENDROOT
BRANCH   1   2
ATOM      2  C   UNL     1      21.075 -25.133  33.552  1.00  0.00     0.000 C 
BRANCH   2   3
ATOM      3  C   UNL     1      21.314 -23.651  33.210  1.00  0.00     0.006 C 
BRANCH   3   4
ATOM      4  C   UNL     1      20.010 -22.861  33.034  1.00  0.00     0.053 C 
BRANCH   4   5
ATOM      5  C   UNL     1      20.306 -21.429  32.721  1.00  0.00     0.041 C 
ATOM      6  O   UNL     1      21.479 -20.984  32.834  1.00  0.00    -0.550 OA
ATOM      7  O   UNL     1      19.297 -20.596  32.254  1.00  0.00    -0.550 OA
ENDBRANCH   4   5
ENDBRANCH   3   4
ENDBRANCH   2   3
ENDBRANCH   1   2
BRANCH   1   8
ATOM      8  C   UNL     1      23.466 -25.825  32.937  1.00  0.00     0.000 C 
BRANCH   8   9
ATOM      9  C   UNL     1      24.802 -25.481  33.613  1.00  0.00     0.006 C 
BRANCH   9  10
ATOM     10  C   UNL     1      25.584 -24.409  32.845  1.00  0.00     0.053 C 
BRANCH  10  11
ATOM     11  C   UNL     1      24.865 -23.095  32.840  1.00  0.00     0.041 C 
ATOM     12  O   UNL     1      24.583 -22.530  31.751  1.00  0.00    -0.550 OA
ATOM     13  O   UNL     1      24.537 -22.478  34.041  1.00  0.00    -0.550 OA
ENDBRANCH  10  11
ENDBRANCH   9  10
ENDBRANCH   8   9
ENDBRANCH   1   8
TORSDOF 8
ENDMDL
MODEL 8
REMARK VINA RESULT:    -4.075      1.337      2.293
REMARK INTER + INTRA:          -6.821
REMARK INTER:                  -6.011
REMARK INTRA:                  -0.810
REMARK UNBOUND:                -0.840
REMARK SMILES O=C([O-])CCCCCCCC(=O)[O-]
REMARK SMILES IDX 7 1 6 2 5 3 4 4 2 5 1 6 3 7 8 8 9 9 10 10 11 11 12 12 13 13
REMARK H PARENT
REMARK Flexibility Score: inf
ROOT
ATOM      1  C   UNL     1      14.080 -15.476  39.434  1.00  0.00     0.000 C 
ENDROOT
BRANCH   1   2
ATOM      2  C   UNL     1      13.852 -16.990  39.598  1.00  0.00     0.000 C 
BRANCH   2   3
ATOM      3  C   UNL     1      14.512 -17.868  38.520  1.00  0.00     0.006 C 
BRANCH   3   4
ATOM      4  C   UNL     1      14.820 -17.098  37.228  1.00  0.00     0.053 C 
BRANCH   4   5
ATOM      5  C   UNL     1      16.271 -17.215  36.884  1.00  0.00     0.041 C 
ATOM      6  O   UNL     1      17.074 -17.744  37.697  1.00  0.00    -0.550 OA
ATOM      7  O   UNL     1      16.728 -16.785  35.645  1.00  0.00    -0.550 OA
ENDBRANCH   4   5
ENDBRANCH   3   4
ENDBRANCH   2   3
ENDBRANCH   1   2
BRANCH   1   8
ATOM      8  C   UNL     1      15.294 -14.964  40.222  1.00  0.00     0.000 C 
BRANCH   8   9
ATOM      9  C   UNL     1      16.002 -13.830  39.466  1.00  0.00     0.006 C 
BRANCH   9  10
ATOM     10  C   UNL     1      15.275 -13.452  38.169  1.00  0.00     0.053 C 
BRANCH  10  11
ATOM     11  C   UNL     1      16.215 -13.388  37.005  1.00  0.00     0.041 C 
ATOM     12  O   UNL     1      17.384 -13.844  37.106  1.00  0.00    -0.550 OA
ATOM     13  O   UNL     1      15.809 -12.794  35.816  1.00  0.00    -0.550 OA
ENDBRANCH  10  11
ENDBRANCH   9  10
ENDBRANCH   8   9
ENDBRANCH   1   8
TORSDOF 8
ENDMDL
MODEL 9
REMARK VINA RESULT:    -4.050      1.964      3.086
REMARK INTER + INTRA:          -6.784
REMARK INTER:                  -6.048
REMARK INTRA:                  -0.736
REMARK UNBOUND:                -0.840
REMARK SMILES O=C([O-])CCCCCCCC(=O)[O-]
REMARK SMILES IDX 7 1 6 2 5 3 4 4 2 5 1 6 3 7 8 8 9 9 10 10 11 11 12 12 13 13
REMARK H PARENT
REMARK Flexibility Score: inf
ROOT
ATOM      1  C   UNL     1      15.271 -17.113  37.065  1.00  0.00     0.000 C 
ENDROOT
BRANCH   1   2
ATOM      2  C   UNL     1      14.546 -17.423  38.388  1.00  0.00     0.000 C 
BRANCH   2   3
ATOM      3  C   UNL     1      15.104 -16.690  39.622  1.00  0.00     0.006 C 
BRANCH   3   4
ATOM      4  C   UNL     1      14.318 -15.419  39.969  1.00  0.00     0.053 C 
BRANCH   4   5
ATOM      5  C   UNL     1      14.858 -14.248  39.212  1.00  0.00     0.041 C 
ATOM      6  O   UNL     1      15.942 -13.711  39.563  1.00  0.00    -0.550 OA
ATOM      7  O   UNL     1      14.191 -13.780  38.086  1.00  0.00    -0.550 OA
ENDBRANCH   4   5
ENDBRANCH   3   4
ENDBRANCH   2   3
ENDBRANCH   1   2
BRANCH   1   8
ATOM      8  C   UNL     1      16.799 -17.092  37.210  1.00  0.00     0.000 C 
BRANCH   8   9
ATOM      9  C   UNL     1      17.354 -15.680  36.972  1.00  0.00     0.006 C 
BRANCH   9  10
ATOM     10  C   UNL     1      16.751 -15.020  35.726  1.00  0.00     0.053 C 
BRANCH  10  11
ATOM     11  C   UNL     1      17.204 -13.600  35.576  1.00  0.00     0.041 C 
ATOM     12  O   UNL     1      16.519 -12.660  36.058  1.00  0.00    -0.550 OA
ATOM     13  O   UNL     1      18.369 -13.312  34.875  1.00  0.00    -0.550 OA
ENDBRANCH  10  11
ENDBRANCH   9  10
ENDBRANCH   8   9
ENDBRANCH   1   8
TORSDOF 8
ENDMDL
