MODEL 1
REMARK VINA RESULT:    -5.130      0.000      0.000
REMARK INTER + INTRA:          -6.521
REMARK INTER:                  -6.180
REMARK INTRA:                  -0.341
REMARK UNBOUND:                -0.341
REMARK SMILES COc1ccc([C@H]2CC(=O)c3c(O)cc(O)cc3O2)cc1O
REMARK SMILES IDX 7 1 8 2 9 3 10 4 11 5 12 6 14 7 15 8 17 9 18 10 19 11 6 12
REMARK SMILES IDX 3 13 21 14 4 15 20 16 5 17 2 18 1 19 22 20 13 22 16 24
REMARK H PARENT 22 21 13 23 16 25
REMARK Flexibility Score: inf
ROOT
ATOM      1  C   UNL     1       8.916  41.506  15.327  1.00  0.00     0.211 C 
ATOM      2  C   UNL     1       9.983  40.950  16.281  1.00  0.00     0.131 C 
ATOM      3  C   UNL     1      11.333  41.430  15.839  1.00  0.00     0.174 C 
ATOM      4  O   UNL     1      12.133  41.897  16.693  1.00  0.00    -0.294 OA
ATOM      5  C   UNL     1      11.666  41.396  14.393  1.00  0.00     0.102 A 
ATOM      6  C   UNL     1      12.988  41.446  13.878  1.00  0.00     0.133 A 
ATOM      7  C   UNL     1      13.188  41.478  12.493  1.00  0.00     0.093 A 
ATOM      8  C   UNL     1      12.107  41.404  11.611  1.00  0.00     0.123 A 
ATOM      9  C   UNL     1      10.806  41.308  12.115  1.00  0.00     0.093 A 
ATOM     10  C   UNL     1      10.582  41.315  13.493  1.00  0.00     0.138 A 
ATOM     11  O   UNL     1       9.265  41.232  13.966  1.00  0.00    -0.484 OA
ENDROOT
BRANCH   1  12
ATOM     12  C   UNL     1       7.561  40.919  15.641  1.00  0.00    -0.003 A 
ATOM     13  C   UNL     1       5.020  39.873  16.278  1.00  0.00     0.160 A 
ATOM     14  C   UNL     1       6.176  39.342  16.877  1.00  0.00     0.158 A 
ATOM     15  C   UNL     1       5.146  40.939  15.367  1.00  0.00     0.051 A 
ATOM     16  C   UNL     1       7.435  39.866  16.562  1.00  0.00     0.057 A 
ATOM     17  C   UNL     1       6.406  41.459  15.057  1.00  0.00     0.011 A 
BRANCH  13  18
ATOM     18  O   UNL     1       3.770  39.325  16.612  1.00  0.00    -0.493 OA
ATOM     19  C   UNL     1       3.108  38.311  15.864  1.00  0.00     0.278 C 
ENDBRANCH  13  18
BRANCH  14  20
ATOM     20  O   UNL     1       6.097  38.291  17.791  1.00  0.00    -0.504 OA
ATOM     21  H   UNL     1       5.214  37.978  18.179  1.00  0.00     0.293 HD
ENDBRANCH  14  20
ENDBRANCH   1  12
BRANCH   6  22
ATOM     22  O   UNL     1      14.125  41.430  14.690  1.00  0.00    -0.507 OA
ATOM     23  H   UNL     1      14.747  42.217  14.805  1.00  0.00     0.293 HD
ENDBRANCH   6  22
BRANCH   8  24
ATOM     24  O   UNL     1      12.338  41.419  10.238  1.00  0.00    -0.508 OA
ATOM     25  H   UNL     1      11.936  40.720   9.625  1.00  0.00     0.293 HD
ENDBRANCH   8  24
TORSDOF 5
ENDMDL
MODEL 2
REMARK VINA RESULT:    -5.110     14.446     16.220
REMARK INTER + INTRA:          -6.497
REMARK INTER:                  -6.137
REMARK INTRA:                  -0.360
REMARK UNBOUND:                -0.341
REMARK SMILES COc1ccc([C@H]2CC(=O)c3c(O)cc(O)cc3O2)cc1O
REMARK SMILES IDX 7 1 8 2 9 3 10 4 11 5 12 6 14 7 15 8 17 9 18 10 19 11 6 12
REMARK SMILES IDX 3 13 21 14 4 15 20 16 5 17 2 18 1 19 22 20 13 22 16 24
REMARK H PARENT 22 21 13 23 16 25
REMARK Flexibility Score: inf
ROOT
ATOM      1  C   UNL     1       8.194  33.165   1.389  1.00  0.00     0.211 C 
ATOM      2  C   UNL     1       9.427  33.292   0.483  1.00  0.00     0.131 C 
ATOM      3  C   UNL     1      10.085  34.616   0.733  1.00  0.00     0.174 C 
ATOM      4  O   UNL     1      11.334  34.665   0.886  1.00  0.00    -0.294 OA
ATOM      5  C   UNL     1       9.235  35.826   0.856  1.00  0.00     0.102 A 
ATOM      6  C   UNL     1       9.714  37.154   0.709  1.00  0.00     0.133 A 
ATOM      7  C   UNL     1       8.839  38.229   0.913  1.00  0.00     0.093 A 
ATOM      8  C   UNL     1       7.491  38.010   1.203  1.00  0.00     0.123 A 
ATOM      9  C   UNL     1       7.005  36.702   1.302  1.00  0.00     0.093 A 
ATOM     10  C   UNL     1       7.869  35.616   1.143  1.00  0.00     0.138 A 
ATOM     11  O   UNL     1       7.355  34.318   1.262  1.00  0.00    -0.484 OA
ENDROOT
BRANCH   1  12
ATOM     12  C   UNL     1       7.412  31.918   1.055  1.00  0.00    -0.003 A 
ATOM     13  C   UNL     1       5.890  29.619   0.456  1.00  0.00     0.160 A 
ATOM     14  C   UNL     1       6.584  29.713   1.676  1.00  0.00     0.158 A 
ATOM     15  C   UNL     1       5.957  30.690  -0.455  1.00  0.00     0.051 A 
ATOM     16  C   UNL     1       7.334  30.856   1.972  1.00  0.00     0.057 A 
ATOM     17  C   UNL     1       6.706  31.830  -0.154  1.00  0.00     0.011 A 
BRANCH  13  18
ATOM     18  O   UNL     1       5.147  28.458   0.185  1.00  0.00    -0.493 OA
ATOM     19  C   UNL     1       3.731  28.362   0.299  1.00  0.00     0.278 C 
ENDBRANCH  13  18
BRANCH  14  20
ATOM     20  O   UNL     1       6.540  28.679   2.611  1.00  0.00    -0.504 OA
ATOM     21  H   UNL     1       7.378  28.221   2.949  1.00  0.00     0.293 HD
ENDBRANCH  14  20
ENDBRANCH   1  12
BRANCH   6  22
ATOM     22  O   UNL     1      11.024  37.457   0.331  1.00  0.00    -0.507 OA
ATOM     23  H   UNL     1      11.827  37.333   0.930  1.00  0.00     0.293 HD
ENDBRANCH   6  22
BRANCH   8  24
ATOM     24  O   UNL     1       6.640  39.098   1.382  1.00  0.00    -0.508 OA
ATOM     25  H   UNL     1       6.977  39.978   1.756  1.00  0.00     0.293 HD
ENDBRANCH   8  24
TORSDOF 5
ENDMDL
MODEL 3
REMARK VINA RESULT:    -5.109     17.780     19.481
REMARK INTER + INTRA:          -6.496
REMARK INTER:                  -6.131
REMARK INTRA:                  -0.364
REMARK UNBOUND:                -0.341
REMARK SMILES COc1ccc([C@H]2CC(=O)c3c(O)cc(O)cc3O2)cc1O
REMARK SMILES IDX 7 1 8 2 9 3 10 4 11 5 12 6 14 7 15 8 17 9 18 10 19 11 6 12
REMARK SMILES IDX 3 13 21 14 4 15 20 16 5 17 2 18 1 19 22 20 13 22 16 24
REMARK H PARENT 22 21 13 23 16 25
REMARK Flexibility Score: inf
ROOT
ATOM      1  C   UNL     1       8.446  26.288   2.568  1.00  0.00     0.211 C 
ATOM      2  C   UNL     1       9.208  25.913   1.288  1.00  0.00     0.131 C 
ATOM      3  C   UNL     1       9.553  24.455   1.333  1.00  0.00     0.174 C 
ATOM      4  O   UNL     1       9.344  23.739   0.318  1.00  0.00    -0.294 OA
ATOM      5  C   UNL     1      10.077  23.883   2.598  1.00  0.00     0.102 A 
ATOM      6  C   UNL     1      10.789  22.658   2.684  1.00  0.00     0.133 A 
ATOM      7  C   UNL     1      11.179  22.173   3.938  1.00  0.00     0.093 A 
ATOM      8  C   UNL     1      10.927  22.907   5.099  1.00  0.00     0.123 A 
ATOM      9  C   UNL     1      10.267  24.137   5.014  1.00  0.00     0.093 A 
ATOM     10  C   UNL     1       9.833  24.619   3.777  1.00  0.00     0.138 A 
ATOM     11  O   UNL     1       9.161  25.848   3.726  1.00  0.00    -0.484 OA
ENDROOT
BRANCH   1  12
ATOM     12  C   UNL     1       8.219  27.779   2.636  1.00  0.00    -0.003 A 
ATOM     13  C   UNL     1       7.829  30.573   2.700  1.00  0.00     0.160 A 
ATOM     14  C   UNL     1       8.928  29.994   3.361  1.00  0.00     0.158 A 
ATOM     15  C   UNL     1       6.935  29.742   1.999  1.00  0.00     0.051 A 
ATOM     16  C   UNL     1       9.121  28.608   3.323  1.00  0.00     0.057 A 
ATOM     17  C   UNL     1       7.133  28.359   1.964  1.00  0.00     0.011 A 
BRANCH  13  18
ATOM     18  O   UNL     1       7.660  31.966   2.757  1.00  0.00    -0.493 OA
ATOM     19  C   UNL     1       7.616  32.820   1.619  1.00  0.00     0.278 C 
ENDBRANCH  13  18
BRANCH  14  20
ATOM     20  O   UNL     1       9.844  30.780   4.061  1.00  0.00    -0.504 OA
ATOM     21  H   UNL     1       9.622  31.198   4.957  1.00  0.00     0.293 HD
ENDBRANCH  14  20
ENDBRANCH   1  12
BRANCH   6  22
ATOM     22  O   UNL     1      11.161  21.910   1.564  1.00  0.00    -0.507 OA
ATOM     23  H   UNL     1      11.125  22.257   0.616  1.00  0.00     0.293 HD
ENDBRANCH   6  22
BRANCH   8  24
ATOM     24  O   UNL     1      11.344  22.409   6.332  1.00  0.00    -0.508 OA
ATOM     25  H   UNL     1      12.227  21.923   6.436  1.00  0.00     0.293 HD
ENDBRANCH   8  24
TORSDOF 5
ENDMDL
MODEL 4
REMARK VINA RESULT:    -5.063     13.964     15.978
REMARK INTER + INTRA:          -6.440
REMARK INTER:                  -6.087
REMARK INTRA:                  -0.353
REMARK UNBOUND:                -0.341
REMARK SMILES COc1ccc([C@H]2CC(=O)c3c(O)cc(O)cc3O2)cc1O
REMARK SMILES IDX 7 1 8 2 9 3 10 4 11 5 12 6 14 7 15 8 17 9 18 10 19 11 6 12
REMARK SMILES IDX 3 13 21 14 4 15 20 16 5 17 2 18 1 19 22 20 13 22 16 24
REMARK H PARENT 22 21 13 23 16 25
REMARK Flexibility Score: inf
ROOT
ATOM      1  C   UNL     1       8.642  34.911   0.740  1.00  0.00     0.211 C 
ATOM      2  C   UNL     1       9.168  35.302  -0.648  1.00  0.00     0.131 C 
ATOM      3  C   UNL     1       9.600  36.738  -0.622  1.00  0.00     0.174 C 
ATOM      4  O   UNL     1      10.710  37.058  -1.125  1.00  0.00    -0.294 OA
ATOM      5  C   UNL     1       8.732  37.734   0.054  1.00  0.00     0.102 A 
ATOM      6  C   UNL     1       8.805  39.134  -0.167  1.00  0.00     0.133 A 
ATOM      7  C   UNL     1       7.985  39.993   0.575  1.00  0.00     0.093 A 
ATOM      8  C   UNL     1       7.057  39.486   1.487  1.00  0.00     0.123 A 
ATOM      9  C   UNL     1       6.949  38.104   1.673  1.00  0.00     0.093 A 
ATOM     10  C   UNL     1       7.785  37.232   0.973  1.00  0.00     0.138 A 
ATOM     11  O   UNL     1       7.663  35.853   1.191  1.00  0.00    -0.484 OA
ENDROOT
BRANCH   1  12
ATOM     12  C   UNL     1       8.049  33.523   0.715  1.00  0.00    -0.003 A 
ATOM     13  C   UNL     1       6.875  30.957   0.677  1.00  0.00     0.160 A 
ATOM     14  C   UNL     1       7.410  31.476   1.870  1.00  0.00     0.158 A 
ATOM     15  C   UNL     1       6.925  31.739  -0.493  1.00  0.00     0.051 A 
ATOM     16  C   UNL     1       7.987  32.751   1.886  1.00  0.00     0.057 A 
ATOM     17  C   UNL     1       7.501  33.011  -0.470  1.00  0.00     0.011 A 
BRANCH  13  18
ATOM     18  O   UNL     1       6.304  29.674   0.690  1.00  0.00    -0.493 OA
ATOM     19  C   UNL     1       4.959  29.386   0.324  1.00  0.00     0.278 C 
ENDBRANCH  13  18
BRANCH  14  20
ATOM     20  O   UNL     1       7.376  30.740   3.055  1.00  0.00    -0.504 OA
ATOM     21  H   UNL     1       7.369  31.183   3.966  1.00  0.00     0.293 HD
ENDBRANCH  14  20
ENDBRANCH   1  12
BRANCH   6  22
ATOM     22  O   UNL     1       9.641  39.714  -1.125  1.00  0.00    -0.507 OA
ATOM     23  H   UNL     1       9.723  40.709  -1.273  1.00  0.00     0.293 HD
ENDBRANCH   6  22
BRANCH   8  24
ATOM     24  O   UNL     1       6.241  40.363   2.198  1.00  0.00    -0.508 OA
ATOM     25  H   UNL     1       5.552  40.027   2.860  1.00  0.00     0.293 HD
ENDBRANCH   8  24
TORSDOF 5
ENDMDL
MODEL 5
REMARK VINA RESULT:    -5.052     14.963     16.054
REMARK INTER + INTRA:          -6.427
REMARK INTER:                  -6.080
REMARK INTRA:                  -0.347
REMARK UNBOUND:                -0.341
REMARK SMILES COc1ccc([C@H]2CC(=O)c3c(O)cc(O)cc3O2)cc1O
REMARK SMILES IDX 7 1 8 2 9 3 10 4 11 5 12 6 14 7 15 8 17 9 18 10 19 11 6 12
REMARK SMILES IDX 3 13 21 14 4 15 20 16 5 17 2 18 1 19 22 20 13 22 16 24
REMARK H PARENT 22 21 13 23 16 25
REMARK Flexibility Score: inf
ROOT
ATOM      1  C   UNL     1       8.472  32.890   0.798  1.00  0.00     0.211 C 
ATOM      2  C   UNL     1       7.498  33.949   1.336  1.00  0.00     0.131 C 
ATOM      3  C   UNL     1       7.903  35.295   0.816  1.00  0.00     0.174 C 
ATOM      4  O   UNL     1       7.025  36.061   0.337  1.00  0.00    -0.294 OA
ATOM      5  C   UNL     1       9.340  35.663   0.825  1.00  0.00     0.102 A 
ATOM      6  C   UNL     1       9.822  36.996   0.734  1.00  0.00     0.133 A 
ATOM      7  C   UNL     1      11.202  37.228   0.682  1.00  0.00     0.093 A 
ATOM      8  C   UNL     1      12.110  36.171   0.775  1.00  0.00     0.123 A 
ATOM      9  C   UNL     1      11.640  34.861   0.912  1.00  0.00     0.093 A 
ATOM     10  C   UNL     1      10.267  34.603   0.925  1.00  0.00     0.138 A 
ATOM     11  O   UNL     1       9.827  33.279   1.049  1.00  0.00    -0.484 OA
ENDROOT
BRANCH   1  12
ATOM     12  C   UNL     1       8.197  31.544   1.425  1.00  0.00    -0.003 A 
ATOM     13  C   UNL     1       7.718  28.997   2.540  1.00  0.00     0.160 A 
ATOM     14  C   UNL     1       6.747  29.610   1.728  1.00  0.00     0.158 A 
ATOM     15  C   UNL     1       8.933  29.666   2.780  1.00  0.00     0.051 A 
ATOM     16  C   UNL     1       6.990  30.872   1.172  1.00  0.00     0.057 A 
ATOM     17  C   UNL     1       9.170  30.925   2.222  1.00  0.00     0.011 A 
BRANCH  13  18
ATOM     18  O   UNL     1       7.445  27.732   3.086  1.00  0.00    -0.493 OA
ATOM     19  C   UNL     1       8.419  26.888   3.691  1.00  0.00     0.278 C 
ENDBRANCH  13  18
BRANCH  14  20
ATOM     20  O   UNL     1       5.532  28.981   1.457  1.00  0.00    -0.504 OA
ATOM     21  H   UNL     1       5.025  29.134   0.593  1.00  0.00     0.293 HD
ENDBRANCH  14  20
ENDBRANCH   1  12
BRANCH   6  22
ATOM     22  O   UNL     1       8.983  38.113   0.729  1.00  0.00    -0.507 OA
ATOM     23  H   UNL     1       9.291  39.048   0.505  1.00  0.00     0.293 HD
ENDBRANCH   6  22
BRANCH   8  24
ATOM     24  O   UNL     1      13.478  36.433   0.739  1.00  0.00    -0.508 OA
ATOM     25  H   UNL     1      13.884  37.034   0.031  1.00  0.00     0.293 HD
ENDBRANCH   8  24
TORSDOF 5
ENDMDL
MODEL 6
REMARK VINA RESULT:    -5.044     13.752     15.773
REMARK INTER + INTRA:          -6.418
REMARK INTER:                  -6.072
REMARK INTRA:                  -0.345
REMARK UNBOUND:                -0.341
REMARK SMILES COc1ccc([C@H]2CC(=O)c3c(O)cc(O)cc3O2)cc1O
REMARK SMILES IDX 7 1 8 2 9 3 10 4 11 5 12 6 14 7 15 8 17 9 18 10 19 11 6 12
REMARK SMILES IDX 3 13 21 14 4 15 20 16 5 17 2 18 1 19 22 20 13 22 16 24
REMARK H PARENT 22 21 13 23 16 25
REMARK Flexibility Score: inf
ROOT
ATOM      1  C   UNL     1       8.811  35.555   0.409  1.00  0.00     0.211 C 
ATOM      2  C   UNL     1      10.308  35.412   0.720  1.00  0.00     0.131 C 
ATOM      3  C   UNL     1      10.703  33.972   0.580  1.00  0.00     0.174 C 
ATOM      4  O   UNL     1      11.747  33.677  -0.059  1.00  0.00    -0.294 OA
ATOM      5  C   UNL     1       9.813  32.929   1.148  1.00  0.00     0.102 A 
ATOM      6  C   UNL     1      10.224  31.599   1.431  1.00  0.00     0.133 A 
ATOM      7  C   UNL     1       9.285  30.673   1.902  1.00  0.00     0.093 A 
ATOM      8  C   UNL     1       7.965  31.055   2.152  1.00  0.00     0.123 A 
ATOM      9  C   UNL     1       7.569  32.376   1.919  1.00  0.00     0.093 A 
ATOM     10  C   UNL     1       8.478  33.305   1.411  1.00  0.00     0.138 A 
ATOM     11  O   UNL     1       8.047  34.618   1.175  1.00  0.00    -0.484 OA
ENDROOT
BRANCH   1  12
ATOM     12  C   UNL     1       8.339  36.960   0.693  1.00  0.00    -0.003 A 
ATOM     13  C   UNL     1       7.406  39.580   1.171  1.00  0.00     0.160 A 
ATOM     14  C   UNL     1       8.492  39.360   0.305  1.00  0.00     0.158 A 
ATOM     15  C   UNL     1       6.785  38.476   1.787  1.00  0.00     0.051 A 
ATOM     16  C   UNL     1       8.949  38.059   0.067  1.00  0.00     0.057 A 
ATOM     17  C   UNL     1       7.246  37.179   1.543  1.00  0.00     0.011 A 
BRANCH  13  18
ATOM     18  O   UNL     1       6.970  40.896   1.394  1.00  0.00    -0.493 OA
ATOM     19  C   UNL     1       5.887  41.255   2.245  1.00  0.00     0.278 C 
ENDBRANCH  13  18
BRANCH  14  20
ATOM     20  O   UNL     1       9.133  40.424  -0.331  1.00  0.00    -0.504 OA
ATOM     21  H   UNL     1       8.877  40.728  -1.264  1.00  0.00     0.293 HD
ENDBRANCH  14  20
ENDBRANCH   1  12
BRANCH   6  22
ATOM     22  O   UNL     1      11.544  31.163   1.296  1.00  0.00    -0.507 OA
ATOM     23  H   UNL     1      11.803  30.241   0.974  1.00  0.00     0.293 HD
ENDBRANCH   6  22
BRANCH   8  24
ATOM     24  O   UNL     1       7.058  30.117   2.638  1.00  0.00    -0.508 OA
ATOM     25  H   UNL     1       6.687  29.382   2.047  1.00  0.00     0.293 HD
ENDBRANCH   8  24
TORSDOF 5
ENDMDL
MODEL 7
REMARK VINA RESULT:    -4.904     15.789     18.124
REMARK INTER + INTRA:          -6.249
REMARK INTER:                  -5.916
REMARK INTRA:                  -0.333
REMARK UNBOUND:                -0.341
REMARK SMILES COc1ccc([C@H]2CC(=O)c3c(O)cc(O)cc3O2)cc1O
REMARK SMILES IDX 7 1 8 2 9 3 10 4 11 5 12 6 14 7 15 8 17 9 18 10 19 11 6 12
REMARK SMILES IDX 3 13 21 14 4 15 20 16 5 17 2 18 1 19 22 20 13 22 16 24
REMARK H PARENT 22 21 13 23 16 25
REMARK Flexibility Score: inf
ROOT
ATOM      1  C   UNL     1       9.122  29.446   1.306  1.00  0.00     0.211 C 
ATOM      2  C   UNL     1      10.597  29.019   1.320  1.00  0.00     0.131 C 
ATOM      3  C   UNL     1      10.675  27.534   1.508  1.00  0.00     0.174 C 
ATOM      4  O   UNL     1      11.441  26.857   0.771  1.00  0.00    -0.294 OA
ATOM      5  C   UNL     1       9.799  26.894   2.520  1.00  0.00     0.102 A 
ATOM      6  C   UNL     1      10.025  25.604   3.069  1.00  0.00     0.133 A 
ATOM      7  C   UNL     1       9.097  25.065   3.968  1.00  0.00     0.093 A 
ATOM      8  C   UNL     1       7.983  25.802   4.375  1.00  0.00     0.123 A 
ATOM      9  C   UNL     1       7.781  27.091   3.872  1.00  0.00     0.093 A 
ATOM     10  C   UNL     1       8.672  27.632   2.943  1.00  0.00     0.138 A 
ATOM     11  O   UNL     1       8.436  28.921   2.447  1.00  0.00    -0.484 OA
ENDROOT
BRANCH   1  12
ATOM     12  C   UNL     1       9.002  30.951   1.279  1.00  0.00    -0.003 A 
ATOM     13  C   UNL     1       8.761  33.759   1.158  1.00  0.00     0.160 A 
ATOM     14  C   UNL     1      10.018  33.148   1.003  1.00  0.00     0.158 A 
ATOM     15  C   UNL     1       7.626  32.952   1.362  1.00  0.00     0.051 A 
ATOM     16  C   UNL     1      10.133  31.754   1.059  1.00  0.00     0.057 A 
ATOM     17  C   UNL     1       7.747  31.561   1.416  1.00  0.00     0.011 A 
BRANCH  13  18
ATOM     18  O   UNL     1       8.676  35.160   1.099  1.00  0.00    -0.493 OA
ATOM     19  C   UNL     1       7.521  35.882   0.683  1.00  0.00     0.278 C 
ENDBRANCH  13  18
BRANCH  14  20
ATOM     20  O   UNL     1      11.169  33.907   0.791  1.00  0.00    -0.504 OA
ATOM     21  H   UNL     1      11.868  33.648   0.105  1.00  0.00     0.293 HD
ENDBRANCH  14  20
ENDBRANCH   1  12
BRANCH   6  22
ATOM     22  O   UNL     1      11.161  24.842   2.785  1.00  0.00    -0.507 OA
ATOM     23  H   UNL     1      12.106  25.188   2.860  1.00  0.00     0.293 HD
ENDBRANCH   6  22
BRANCH   8  24
ATOM     24  O   UNL     1       7.086  25.247   5.285  1.00  0.00    -0.508 OA
ATOM     25  H   UNL     1       6.549  24.417   5.061  1.00  0.00     0.293 HD
ENDBRANCH   8  24
TORSDOF 5
ENDMDL
MODEL 8
REMARK VINA RESULT:    -4.816     20.065     23.329
REMARK INTER + INTRA:          -6.142
REMARK INTER:                  -5.769
REMARK INTRA:                  -0.373
REMARK UNBOUND:                -0.341
REMARK SMILES COc1ccc([C@H]2CC(=O)c3c(O)cc(O)cc3O2)cc1O
REMARK SMILES IDX 7 1 8 2 9 3 10 4 11 5 12 6 14 7 15 8 17 9 18 10 19 11 6 12
REMARK SMILES IDX 3 13 21 14 4 15 20 16 5 17 2 18 1 19 22 20 13 22 16 24
REMARK H PARENT 22 21 13 23 16 25
REMARK Flexibility Score: inf
ROOT
ATOM      1  C   UNL     1      -1.776  26.307   1.489  1.00  0.00     0.211 C 
ATOM      2  C   UNL     1      -2.033  24.850   1.077  1.00  0.00     0.131 C 
ATOM      3  C   UNL     1      -3.377  24.426   1.589  1.00  0.00     0.174 C 
ATOM      4  O   UNL     1      -4.167  23.817   0.820  1.00  0.00    -0.294 OA
ATOM      5  C   UNL     1      -3.762  24.792   2.974  1.00  0.00     0.102 A 
ATOM      6  C   UNL     1      -4.797  24.154   3.709  1.00  0.00     0.133 A 
ATOM      7  C   UNL     1      -5.126  24.624   4.986  1.00  0.00     0.093 A 
ATOM      8  C   UNL     1      -4.413  25.674   5.569  1.00  0.00     0.123 A 
ATOM      9  C   UNL     1      -3.363  26.274   4.867  1.00  0.00     0.093 A 
ATOM     10  C   UNL     1      -3.044  25.848   3.576  1.00  0.00     0.138 A 
ATOM     11  O   UNL     1      -1.995  26.479   2.893  1.00  0.00    -0.484 OA
ENDROOT
BRANCH   1  12
ATOM     12  C   UNL     1      -0.369  26.722   1.132  1.00  0.00    -0.003 A 
ATOM     13  C   UNL     1       2.284  27.469   0.527  1.00  0.00     0.160 A 
ATOM     14  C   UNL     1       1.412  28.385   1.143  1.00  0.00     0.158 A 
ATOM     15  C   UNL     1       1.819  26.175   0.227  1.00  0.00     0.051 A 
ATOM     16  C   UNL     1       0.098  28.009   1.446  1.00  0.00     0.057 A 
ATOM     17  C   UNL     1       0.507  25.805   0.533  1.00  0.00     0.011 A 
BRANCH  13  18
ATOM     18  O   UNL     1       3.596  27.875   0.233  1.00  0.00    -0.493 OA
ATOM     19  C   UNL     1       4.031  28.339  -1.041  1.00  0.00     0.278 C 
ENDBRANCH  13  18
BRANCH  14  20
ATOM     20  O   UNL     1       1.831  29.675   1.465  1.00  0.00    -0.504 OA
ATOM     21  H   UNL     1       1.188  30.386   1.792  1.00  0.00     0.293 HD
ENDBRANCH  14  20
ENDBRANCH   1  12
BRANCH   6  22
ATOM     22  O   UNL     1      -5.495  23.041   3.235  1.00  0.00    -0.507 OA
ATOM     23  H   UNL     1      -6.497  22.933   3.303  1.00  0.00     0.293 HD
ENDBRANCH   6  22
BRANCH   8  24
ATOM     24  O   UNL     1      -4.751  26.108   6.849  1.00  0.00    -0.508 OA
ATOM     25  H   UNL     1      -5.706  26.339   7.095  1.00  0.00     0.293 HD
ENDBRANCH   8  24
TORSDOF 5
ENDMDL
MODEL 9
REMARK VINA RESULT:    -4.683     16.052     17.864
REMARK INTER + INTRA:          -5.983
REMARK INTER:                  -5.654
REMARK INTRA:                  -0.328
REMARK UNBOUND:                -0.341
REMARK SMILES COc1ccc([C@H]2CC(=O)c3c(O)cc(O)cc3O2)cc1O
REMARK SMILES IDX 7 1 8 2 9 3 10 4 11 5 12 6 14 7 15 8 17 9 18 10 19 11 6 12
REMARK SMILES IDX 3 13 21 14 4 15 20 16 5 17 2 18 1 19 22 20 13 22 16 24
REMARK H PARENT 22 21 13 23 16 25
REMARK Flexibility Score: inf
ROOT
ATOM      1  C   UNL     1       8.986  28.461   1.749  1.00  0.00     0.211 C 
ATOM      2  C   UNL     1       7.650  29.099   2.155  1.00  0.00     0.131 C 
ATOM      3  C   UNL     1       7.501  30.414   1.452  1.00  0.00     0.174 C 
ATOM      4  O   UNL     1       6.409  30.694   0.889  1.00  0.00    -0.294 OA
ATOM      5  C   UNL     1       8.669  31.327   1.387  1.00  0.00     0.102 A 
ATOM      6  C   UNL     1       8.581  32.716   1.110  1.00  0.00     0.133 A 
ATOM      7  C   UNL     1       9.753  33.474   1.003  1.00  0.00     0.093 A 
ATOM      8  C   UNL     1      11.004  32.893   1.223  1.00  0.00     0.123 A 
ATOM      9  C   UNL     1      11.092  31.535   1.542  1.00  0.00     0.093 A 
ATOM     10  C   UNL     1       9.939  30.752   1.613  1.00  0.00     0.138 A 
ATOM     11  O   UNL     1      10.060  29.390   1.922  1.00  0.00    -0.484 OA
ENDROOT
BRANCH   1  12
ATOM     12  C   UNL     1       9.248  27.212   2.556  1.00  0.00    -0.003 A 
ATOM     13  C   UNL     1       9.710  24.839   4.010  1.00  0.00     0.160 A 
ATOM     14  C   UNL     1       8.544  25.592   4.233  1.00  0.00     0.158 A 
ATOM     15  C   UNL     1      10.636  25.278   3.045  1.00  0.00     0.051 A 
ATOM     16  C   UNL     1       8.316  26.767   3.507  1.00  0.00     0.057 A 
ATOM     17  C   UNL     1      10.403  26.451   2.322  1.00  0.00     0.011 A 
BRANCH  13  18
ATOM     18  O   UNL     1       9.913  23.665   4.755  1.00  0.00    -0.493 OA
ATOM     19  C   UNL     1      11.188  23.178   5.161  1.00  0.00     0.278 C 
ENDBRANCH  13  18
BRANCH  14  20
ATOM     20  O   UNL     1       7.595  25.191   5.174  1.00  0.00    -0.504 OA
ATOM     21  H   UNL     1       7.808  25.127   6.162  1.00  0.00     0.293 HD
ENDBRANCH  14  20
ENDBRANCH   1  12
BRANCH   6  22
ATOM     22  O   UNL     1       7.366  33.391   0.968  1.00  0.00    -0.507 OA
ATOM     23  H   UNL     1       6.632  33.105   0.337  1.00  0.00     0.293 HD
ENDBRANCH   6  22
BRANCH   8  24
ATOM     24  O   UNL     1      12.152  33.676   1.129  1.00  0.00    -0.508 OA
ATOM     25  H   UNL     1      12.516  34.182   1.928  1.00  0.00     0.293 HD
ENDBRANCH   8  24
TORSDOF 5
ENDMDL
