MODEL 1
REMARK VINA RESULT:    -3.871      0.000      0.000
REMARK INTER + INTRA:          -4.489
REMARK INTER:                  -4.437
REMARK INTRA:                  -0.052
REMARK UNBOUND:                -0.052
REMARK SMILES O=C([O-])c1cc(O)c(O)c(O)c1
REMARK SMILES IDX 4 1 5 2 12 3 6 4 10 5 8 6 2 7 1 8 3 9 7 10 11 12 9 14
REMARK H PARENT 7 11 11 13 9 15
REMARK Flexibility Score: inf
ROOT
ATOM      1  C   UNL     1       0.391  27.788  31.339  1.00  0.00     0.005 A 
ATOM      2  C   UNL     1       0.392  28.750  30.319  1.00  0.00     0.060 A 
ATOM      3  C   UNL     1       0.216  26.437  31.001  1.00  0.00     0.060 A 
ATOM      4  C   UNL     1       0.220  28.374  28.984  1.00  0.00     0.162 A 
ATOM      5  C   UNL     1       0.043  26.043  29.669  1.00  0.00     0.162 A 
ATOM      6  C   UNL     1       0.045  27.020  28.645  1.00  0.00     0.200 A 
ENDROOT
BRANCH   1   7
ATOM      7  C   UNL     1       0.573  28.195  32.750  1.00  0.00     0.072 C 
ATOM      8  O   UNL     1       0.411  29.395  33.098  1.00  0.00    -0.545 OA
ATOM      9  O   UNL     1       0.926  27.257  33.714  1.00  0.00    -0.545 OA
ENDBRANCH   1   7
BRANCH   4  10
ATOM     10  O   UNL     1       0.228  29.367  28.002  1.00  0.00    -0.504 OA
ATOM     11  H   UNL     1       0.950  29.424  27.295  1.00  0.00     0.293 HD
ENDBRANCH   4  10
BRANCH   5  12
ATOM     12  O   UNL     1      -0.125  24.680  29.412  1.00  0.00    -0.504 OA
ATOM     13  H   UNL     1       0.551  23.970  29.655  1.00  0.00     0.293 HD
ENDBRANCH   5  12
BRANCH   6  14
ATOM     14  O   UNL     1      -0.123  26.688  27.297  1.00  0.00    -0.502 OA
ATOM     15  H   UNL     1      -0.783  26.003  26.959  1.00  0.00     0.293 HD
ENDBRANCH   6  14
TORSDOF 4
ENDMDL
MODEL 2
REMARK VINA RESULT:    -3.800      1.585      4.707
REMARK INTER + INTRA:          -4.408
REMARK INTER:                  -4.355
REMARK INTRA:                  -0.052
REMARK UNBOUND:                -0.052
REMARK SMILES O=C([O-])c1cc(O)c(O)c(O)c1
REMARK SMILES IDX 4 1 5 2 12 3 6 4 10 5 8 6 2 7 1 8 3 9 7 10 11 12 9 14
REMARK H PARENT 7 11 11 13 9 15
REMARK Flexibility Score: inf
ROOT
ATOM      1  C   UNL     1       0.238  27.976  31.440  1.00  0.00     0.005 A 
ATOM      2  C   UNL     1       0.114  29.330  31.783  1.00  0.00     0.060 A 
ATOM      3  C   UNL     1       0.239  27.013  32.461  1.00  0.00     0.060 A 
ATOM      4  C   UNL     1      -0.005  29.720  33.120  1.00  0.00     0.162 A 
ATOM      5  C   UNL     1       0.121  27.385  33.805  1.00  0.00     0.162 A 
ATOM      6  C   UNL     1      -0.003  28.755  34.143  1.00  0.00     0.200 A 
ENDROOT
BRANCH   1   7
ATOM      7  C   UNL     1       0.364  27.573  30.022  1.00  0.00     0.072 C 
ATOM      8  O   UNL     1       0.703  26.399  29.716  1.00  0.00    -0.545 OA
ATOM      9  O   UNL     1       0.110  28.487  29.004  1.00  0.00    -0.545 OA
ENDBRANCH   1   7
BRANCH   4  10
ATOM     10  O   UNL     1      -0.125  31.080  33.413  1.00  0.00    -0.504 OA
ATOM     11  H   UNL     1       0.681  31.676  33.558  1.00  0.00     0.293 HD
ENDBRANCH   4  10
BRANCH   5  12
ATOM     12  O   UNL     1       0.130  26.369  34.762  1.00  0.00    -0.504 OA
ATOM     13  H   UNL     1       0.852  26.253  35.460  1.00  0.00     0.293 HD
ENDBRANCH   5  12
BRANCH   6  14
ATOM     14  O   UNL     1      -0.125  29.188  35.467  1.00  0.00    -0.502 OA
ATOM     15  H   UNL     1       0.657  29.402  36.068  1.00  0.00     0.293 HD
ENDBRANCH   6  14
TORSDOF 4
ENDMDL
MODEL 3
REMARK VINA RESULT:    -3.690      1.568      5.277
REMARK INTER + INTRA:          -4.281
REMARK INTER:                  -4.228
REMARK INTRA:                  -0.053
REMARK UNBOUND:                -0.052
REMARK SMILES O=C([O-])c1cc(O)c(O)c(O)c1
REMARK SMILES IDX 4 1 5 2 12 3 6 4 10 5 8 6 2 7 1 8 3 9 7 10 11 12 9 14
REMARK H PARENT 7 11 11 13 9 15
REMARK Flexibility Score: inf
ROOT
ATOM      1  C   UNL     1       0.252  27.910  31.410  1.00  0.00     0.005 A 
ATOM      2  C   UNL     1       0.250  26.954  32.435  1.00  0.00     0.060 A 
ATOM      3  C   UNL     1       0.126  29.267  31.744  1.00  0.00     0.060 A 
ATOM      4  C   UNL     1       0.125  27.341  33.772  1.00  0.00     0.162 A 
ATOM      5  C   UNL     1       0.000  29.673  33.078  1.00  0.00     0.162 A 
ATOM      6  C   UNL     1      -0.000  28.701  34.108  1.00  0.00     0.200 A 
ENDROOT
BRANCH   1   7
ATOM      7  C   UNL     1       0.384  27.490  29.997  1.00  0.00     0.072 C 
ATOM      8  O   UNL     1       0.622  26.289  29.704  1.00  0.00    -0.545 OA
ATOM      9  O   UNL     1       0.246  28.419  28.970  1.00  0.00    -0.545 OA
ENDBRANCH   1   7
BRANCH   4  10
ATOM     10  O   UNL     1       0.128  26.353  34.759  1.00  0.00    -0.504 OA
ATOM     11  H   UNL     1      -0.685  25.782  34.956  1.00  0.00     0.293 HD
ENDBRANCH   4  10
BRANCH   5  12
ATOM     12  O   UNL     1      -0.119  31.042  33.331  1.00  0.00    -0.504 OA
ATOM     13  H   UNL     1      -0.100  31.452  34.254  1.00  0.00     0.293 HD
ENDBRANCH   5  12
BRANCH   6  14
ATOM     14  O   UNL     1      -0.123  29.046  35.457  1.00  0.00    -0.502 OA
ATOM     15  H   UNL     1       0.527  29.638  35.954  1.00  0.00     0.293 HD
ENDBRANCH   6  14
TORSDOF 4
ENDMDL
