MODEL 1
REMARK VINA RESULT:    -3.213      0.000      0.000
REMARK INTER + INTRA:          -7.003
REMARK INTER:                  -5.656
REMARK INTRA:                  -1.348
REMARK UNBOUND:                -1.348
REMARK SMILES CCCCCCCCCCCCCCC(=O)[O-]
REMARK SMILES IDX 9 1 10 2 11 3 12 4 13 5 14 6 15 7 16 8 17 9 8 10 7 11 6 12
REMARK SMILES IDX 5 13 4 14 3 15 2 16 1 17
REMARK H PARENT
REMARK Flexibility Score: inf
ROOT
ATOM      1  C   UNL     1     -14.573  12.884   6.753  1.00  0.00     0.000 C 
ENDROOT
BRANCH   1   2
ATOM      2  C   UNL     1     -15.882  12.293   7.299  1.00  0.00     0.000 C 
BRANCH   2   3
ATOM      3  C   UNL     1     -16.019  10.786   7.012  1.00  0.00     0.000 C 
BRANCH   3   4
ATOM      4  C   UNL     1     -16.453   9.986   8.250  1.00  0.00     0.000 C 
BRANCH   4   5
ATOM      5  C   UNL     1     -15.386   8.979   8.705  1.00  0.00     0.006 C 
BRANCH   5   6
ATOM      6  C   UNL     1     -16.034   7.688   9.214  1.00  0.00     0.053 C 
BRANCH   6   7
ATOM      7  C   UNL     1     -15.595   7.398  10.615  1.00  0.00     0.041 C 
ATOM      8  O   UNL     1     -16.185   7.938  11.588  1.00  0.00    -0.550 OA
ATOM      9  O   UNL     1     -14.569   6.493  10.850  1.00  0.00    -0.550 OA
ENDBRANCH   6   7
ENDBRANCH   5   6
ENDBRANCH   4   5
ENDBRANCH   3   4
ENDBRANCH   2   3
ENDBRANCH   1   2
BRANCH   1  10
ATOM     10  C   UNL     1     -13.752  13.603   7.839  1.00  0.00     0.000 C 
BRANCH  10  11
ATOM     11  C   UNL     1     -14.189  13.216   9.260  1.00  0.00    -0.000 C 
BRANCH  11  12
ATOM     12  C   UNL     1     -14.020  14.368  10.267  1.00  0.00    -0.000 C 
BRANCH  12  13
ATOM     13  C   UNL     1     -13.346  13.917  11.572  1.00  0.00    -0.000 C 
BRANCH  13  14
ATOM     14  C   UNL     1     -14.323  13.217  12.533  1.00  0.00    -0.000 C 
BRANCH  14  15
ATOM     15  C   UNL     1     -15.728  13.853  12.501  1.00  0.00    -0.000 C 
BRANCH  15  16
ATOM     16  C   UNL     1     -16.837  12.873  12.082  1.00  0.00    -0.003 C 
ATOM     17  C   UNL     1     -16.305  11.488  11.719  1.00  0.00     0.004 C 
ENDBRANCH  15  16
ENDBRANCH  14  15
ENDBRANCH  13  14
ENDBRANCH  12  13
ENDBRANCH  11  12
ENDBRANCH  10  11
ENDBRANCH   1  10
TORSDOF 13
ENDMDL
MODEL 2
REMARK VINA RESULT:    -3.114      2.509      5.821
REMARK INTER + INTRA:          -6.829
REMARK INTER:                  -5.795
REMARK INTRA:                  -1.034
REMARK UNBOUND:                -1.348
REMARK SMILES CCCCCCCCCCCCCCC(=O)[O-]
REMARK SMILES IDX 9 1 10 2 11 3 12 4 13 5 14 6 15 7 16 8 17 9 8 10 7 11 6 12
REMARK SMILES IDX 5 13 4 14 3 15 2 16 1 17
REMARK H PARENT
REMARK Flexibility Score: inf
ROOT
ATOM      1  C   UNL     1     -15.584  10.294   7.142  1.00  0.00     0.000 C 
ENDROOT
BRANCH   1   2
ATOM      2  C   UNL     1     -16.066  11.668   7.634  1.00  0.00     0.000 C 
BRANCH   2   3
ATOM      3  C   UNL     1     -15.227  12.829   7.069  1.00  0.00     0.000 C 
BRANCH   3   4
ATOM      4  C   UNL     1     -14.121  13.283   8.034  1.00  0.00     0.000 C 
BRANCH   4   5
ATOM      5  C   UNL     1     -14.538  13.162   9.508  1.00  0.00     0.006 C 
BRANCH   5   6
ATOM      6  C   UNL     1     -13.699  14.089  10.392  1.00  0.00     0.053 C 
BRANCH   6   7
ATOM      7  C   UNL     1     -13.773  13.659  11.823  1.00  0.00     0.041 C 
ATOM      8  O   UNL     1     -12.810  13.883  12.603  1.00  0.00    -0.550 OA
ATOM      9  O   UNL     1     -14.926  13.056  12.309  1.00  0.00    -0.550 OA
ENDBRANCH   6   7
ENDBRANCH   5   6
ENDBRANCH   4   5
ENDBRANCH   3   4
ENDBRANCH   2   3
ENDBRANCH   1   2
BRANCH   1  10
ATOM     10  C   UNL     1     -15.667   9.213   8.235  1.00  0.00     0.000 C 
BRANCH  10  11
ATOM     11  C   UNL     1     -16.369   9.714   9.507  1.00  0.00    -0.000 C 
BRANCH  11  12
ATOM     12  C   UNL     1     -16.687   8.579  10.496  1.00  0.00    -0.000 C 
BRANCH  12  13
ATOM     13  C   UNL     1     -16.580   7.188   9.851  1.00  0.00    -0.000 C 
BRANCH  13  14
ATOM     14  C   UNL     1     -16.441   6.062  10.890  1.00  0.00    -0.000 C 
BRANCH  14  15
ATOM     15  C   UNL     1     -15.472   6.438  12.031  1.00  0.00    -0.000 C 
BRANCH  15  16
ATOM     16  C   UNL     1     -13.999   6.131  11.713  1.00  0.00    -0.003 C 
ATOM     17  C   UNL     1     -13.042   6.586  12.813  1.00  0.00     0.004 C 
ENDBRANCH  15  16
ENDBRANCH  14  15
ENDBRANCH  13  14
ENDBRANCH  12  13
ENDBRANCH  11  12
ENDBRANCH  10  11
ENDBRANCH   1  10
TORSDOF 13
ENDMDL
MODEL 3
REMARK VINA RESULT:    -3.079      1.449      3.550
REMARK INTER + INTRA:          -6.767
REMARK INTER:                  -5.574
REMARK INTRA:                  -1.193
REMARK UNBOUND:                -1.348
REMARK SMILES CCCCCCCCCCCCCCC(=O)[O-]
REMARK SMILES IDX 9 1 10 2 11 3 12 4 13 5 14 6 15 7 16 8 17 9 8 10 7 11 6 12
REMARK SMILES IDX 5 13 4 14 3 15 2 16 1 17
REMARK H PARENT
REMARK Flexibility Score: inf
ROOT
ATOM      1  C   UNL     1     -16.051  10.241   8.333  1.00  0.00     0.000 C 
ENDROOT
BRANCH   1   2
ATOM      2  C   UNL     1     -15.638   8.801   8.675  1.00  0.00     0.000 C 
BRANCH   2   3
ATOM      3  C   UNL     1     -16.819   7.814   8.619  1.00  0.00     0.000 C 
BRANCH   3   4
ATOM      4  C   UNL     1     -16.755   6.755   9.731  1.00  0.00     0.000 C 
BRANCH   4   5
ATOM      5  C   UNL     1     -15.616   7.014  10.727  1.00  0.00     0.006 C 
BRANCH   5   6
ATOM      6  C   UNL     1     -15.340   5.770  11.578  1.00  0.00     0.053 C 
BRANCH   6   7
ATOM      7  C   UNL     1     -13.869   5.595  11.790  1.00  0.00     0.041 C 
ATOM      8  O   UNL     1     -13.331   4.473  11.597  1.00  0.00    -0.550 OA
ATOM      9  O   UNL     1     -13.083   6.681  12.150  1.00  0.00    -0.550 OA
ENDBRANCH   6   7
ENDBRANCH   5   6
ENDBRANCH   4   5
ENDBRANCH   3   4
ENDBRANCH   2   3
ENDBRANCH   1   2
BRANCH   1  10
ATOM     10  C   UNL     1     -17.072  10.815   9.331  1.00  0.00     0.000 C 
BRANCH  10  11
ATOM     11  C   UNL     1     -16.524  10.875  10.766  1.00  0.00    -0.000 C 
BRANCH  11  12
ATOM     12  C   UNL     1     -16.506  12.304  11.336  1.00  0.00    -0.000 C 
BRANCH  12  13
ATOM     13  C   UNL     1     -15.081  12.827  11.573  1.00  0.00    -0.000 C 
BRANCH  13  14
ATOM     14  C   UNL     1     -14.862  14.235  10.992  1.00  0.00    -0.000 C 
BRANCH  14  15
ATOM     15  C   UNL     1     -13.856  14.233   9.822  1.00  0.00    -0.000 C 
BRANCH  15  16
ATOM     16  C   UNL     1     -14.253  13.292   8.672  1.00  0.00    -0.003 C 
ATOM     17  C   UNL     1     -13.538  13.616   7.361  1.00  0.00     0.004 C 
ENDBRANCH  15  16
ENDBRANCH  14  15
ENDBRANCH  13  14
ENDBRANCH  12  13
ENDBRANCH  11  12
ENDBRANCH  10  11
ENDBRANCH   1  10
TORSDOF 13
ENDMDL
MODEL 4
REMARK VINA RESULT:    -3.038      1.293      2.896
REMARK INTER + INTRA:          -6.694
REMARK INTER:                  -5.265
REMARK INTRA:                  -1.429
REMARK UNBOUND:                -1.348
REMARK SMILES CCCCCCCCCCCCCCC(=O)[O-]
REMARK SMILES IDX 9 1 10 2 11 3 12 4 13 5 14 6 15 7 16 8 17 9 8 10 7 11 6 12
REMARK SMILES IDX 5 13 4 14 3 15 2 16 1 17
REMARK H PARENT
REMARK Flexibility Score: inf
ROOT
ATOM      1  C   UNL     1     -15.697  10.264   7.223  1.00  0.00     0.000 C 
ENDROOT
BRANCH   1   2
ATOM      2  C   UNL     1     -15.568   9.145   8.268  1.00  0.00     0.000 C 
BRANCH   2   3
ATOM      3  C   UNL     1     -16.539   9.321   9.451  1.00  0.00     0.000 C 
BRANCH   3   4
ATOM      4  C   UNL     1     -16.157   8.456  10.662  1.00  0.00     0.000 C 
BRANCH   4   5
ATOM      5  C   UNL     1     -15.346   7.213  10.267  1.00  0.00     0.006 C 
BRANCH   5   6
ATOM      6  C   UNL     1     -15.452   6.126  11.341  1.00  0.00     0.053 C 
BRANCH   6   7
ATOM      7  C   UNL     1     -14.091   5.726  11.817  1.00  0.00     0.041 C 
ATOM      8  O   UNL     1     -13.741   4.516  11.789  1.00  0.00    -0.550 OA
ATOM      9  O   UNL     1     -13.191   6.692  12.246  1.00  0.00    -0.550 OA
ENDBRANCH   6   7
ENDBRANCH   5   6
ENDBRANCH   4   5
ENDBRANCH   3   4
ENDBRANCH   2   3
ENDBRANCH   1   2
BRANCH   1  10
ATOM     10  C   UNL     1     -16.864  11.220   7.523  1.00  0.00     0.000 C 
BRANCH  10  11
ATOM     11  C   UNL     1     -16.405  12.678   7.686  1.00  0.00    -0.000 C 
BRANCH  11  12
ATOM     12  C   UNL     1     -14.962  12.903   7.201  1.00  0.00    -0.000 C 
BRANCH  12  13
ATOM     13  C   UNL     1     -14.026  13.366   8.328  1.00  0.00    -0.000 C 
BRANCH  13  14
ATOM     14  C   UNL     1     -14.784  13.727   9.617  1.00  0.00    -0.000 C 
BRANCH  14  15
ATOM     15  C   UNL     1     -14.050  13.234  10.882  1.00  0.00    -0.000 C 
BRANCH  15  16
ATOM     16  C   UNL     1     -14.996  12.847  12.031  1.00  0.00    -0.003 C 
ATOM     17  C   UNL     1     -16.331  12.289  11.543  1.00  0.00     0.004 C 
ENDBRANCH  15  16
ENDBRANCH  14  15
ENDBRANCH  13  14
ENDBRANCH  12  13
ENDBRANCH  11  12
ENDBRANCH  10  11
ENDBRANCH   1  10
TORSDOF 13
ENDMDL
MODEL 5
REMARK VINA RESULT:    -3.032      1.832      3.934
REMARK INTER + INTRA:          -6.684
REMARK INTER:                  -5.930
REMARK INTRA:                  -0.754
REMARK UNBOUND:                -1.348
REMARK SMILES CCCCCCCCCCCCCCC(=O)[O-]
REMARK SMILES IDX 9 1 10 2 11 3 12 4 13 5 14 6 15 7 16 8 17 9 8 10 7 11 6 12
REMARK SMILES IDX 5 13 4 14 3 15 2 16 1 17
REMARK H PARENT
REMARK Flexibility Score: inf
ROOT
ATOM      1  C   UNL     1     -17.030   9.564   7.983  1.00  0.00     0.000 C 
ENDROOT
BRANCH   1   2
ATOM      2  C   UNL     1     -16.243   8.654   8.939  1.00  0.00     0.000 C 
BRANCH   2   3
ATOM      3  C   UNL     1     -16.840   7.237   9.036  1.00  0.00     0.000 C 
BRANCH   3   4
ATOM      4  C   UNL     1     -16.389   6.492  10.302  1.00  0.00     0.000 C 
BRANCH   4   5
ATOM      5  C   UNL     1     -14.947   6.831  10.704  1.00  0.00     0.006 C 
BRANCH   5   6
ATOM      6  C   UNL     1     -14.620   6.274  12.093  1.00  0.00     0.053 C 
BRANCH   6   7
ATOM      7  C   UNL     1     -14.399   4.796  12.027  1.00  0.00     0.041 C 
ATOM      8  O   UNL     1     -13.333   4.336  11.539  1.00  0.00    -0.550 OA
ATOM      9  O   UNL     1     -15.347   3.927  12.551  1.00  0.00    -0.550 OA
ENDBRANCH   6   7
ENDBRANCH   5   6
ENDBRANCH   4   5
ENDBRANCH   3   4
ENDBRANCH   2   3
ENDBRANCH   1   2
BRANCH   1  10
ATOM     10  C   UNL     1     -16.167  10.702   7.409  1.00  0.00     0.000 C 
BRANCH  10  11
ATOM     11  C   UNL     1     -16.993  11.950   7.061  1.00  0.00    -0.000 C 
BRANCH  11  12
ATOM     12  C   UNL     1     -16.153  13.239   7.068  1.00  0.00    -0.000 C 
BRANCH  12  13
ATOM     13  C   UNL     1     -14.662  12.973   6.806  1.00  0.00    -0.000 C 
BRANCH  13  14
ATOM     14  C   UNL     1     -13.749  13.628   7.858  1.00  0.00    -0.000 C 
BRANCH  14  15
ATOM     15  C   UNL     1     -14.231  13.356   9.298  1.00  0.00    -0.000 C 
BRANCH  15  16
ATOM     16  C   UNL     1     -13.857  14.469  10.292  1.00  0.00    -0.003 C 
ATOM     17  C   UNL     1     -13.863  13.999  11.745  1.00  0.00     0.004 C 
ENDBRANCH  15  16
ENDBRANCH  14  15
ENDBRANCH  13  14
ENDBRANCH  12  13
ENDBRANCH  11  12
ENDBRANCH  10  11
ENDBRANCH   1  10
TORSDOF 13
ENDMDL
MODEL 6
REMARK VINA RESULT:    -3.000      2.591      5.900
REMARK INTER + INTRA:          -6.628
REMARK INTER:                  -5.153
REMARK INTRA:                  -1.475
REMARK UNBOUND:                -1.348
REMARK SMILES CCCCCCCCCCCCCCC(=O)[O-]
REMARK SMILES IDX 9 1 10 2 11 3 12 4 13 5 14 6 15 7 16 8 17 9 8 10 7 11 6 12
REMARK SMILES IDX 5 13 4 14 3 15 2 16 1 17
REMARK H PARENT
REMARK Flexibility Score: inf
ROOT
ATOM      1  C   UNL     1     -15.761  13.630  12.759  1.00  0.00     0.000 C 
ENDROOT
BRANCH   1   2
ATOM      2  C   UNL     1     -14.267  13.314  12.929  1.00  0.00     0.000 C 
BRANCH   2   3
ATOM      3  C   UNL     1     -13.409  13.861  11.772  1.00  0.00     0.000 C 
BRANCH   3   4
ATOM      4  C   UNL     1     -14.257  14.350  10.588  1.00  0.00     0.000 C 
BRANCH   4   5
ATOM      5  C   UNL     1     -14.129  13.441   9.356  1.00  0.00     0.006 C 
BRANCH   5   6
ATOM      6  C   UNL     1     -15.503  12.942   8.899  1.00  0.00     0.053 C 
BRANCH   6   7
ATOM      7  C   UNL     1     -15.576  12.900   7.406  1.00  0.00     0.041 C 
ATOM      8  O   UNL     1     -16.632  12.521   6.834  1.00  0.00    -0.550 OA
ATOM      9  O   UNL     1     -14.497  13.326   6.643  1.00  0.00    -0.550 OA
ENDBRANCH   6   7
ENDBRANCH   5   6
ENDBRANCH   4   5
ENDBRANCH   3   4
ENDBRANCH   2   3
ENDBRANCH   1   2
BRANCH   1  10
ATOM     10  C   UNL     1     -16.654  12.397  12.981  1.00  0.00     0.000 C 
BRANCH  10  11
ATOM     11  C   UNL     1     -16.336  11.256  12.002  1.00  0.00    -0.000 C 
BRANCH  11  12
ATOM     12  C   UNL     1     -16.067   9.919  12.716  1.00  0.00    -0.000 C 
BRANCH  12  13
ATOM     13  C   UNL     1     -16.620   8.714  11.940  1.00  0.00    -0.000 C 
BRANCH  13  14
ATOM     14  C   UNL     1     -15.546   7.650  11.653  1.00  0.00    -0.000 C 
BRANCH  14  15
ATOM     15  C   UNL     1     -15.602   7.145  10.195  1.00  0.00    -0.000 C 
BRANCH  15  16
ATOM     16  C   UNL     1     -16.312   8.114   9.235  1.00  0.00    -0.003 C 
ATOM     17  C   UNL     1     -15.354   9.089   8.554  1.00  0.00     0.004 C 
ENDBRANCH  15  16
ENDBRANCH  14  15
ENDBRANCH  13  14
ENDBRANCH  12  13
ENDBRANCH  11  12
ENDBRANCH  10  11
ENDBRANCH   1  10
TORSDOF 13
ENDMDL
MODEL 7
REMARK VINA RESULT:    -2.989      2.814      5.918
REMARK INTER + INTRA:          -6.608
REMARK INTER:                  -5.279
REMARK INTRA:                  -1.329
REMARK UNBOUND:                -1.348
REMARK SMILES CCCCCCCCCCCCCCC(=O)[O-]
REMARK SMILES IDX 9 1 10 2 11 3 12 4 13 5 14 6 15 7 16 8 17 9 8 10 7 11 6 12
REMARK SMILES IDX 5 13 4 14 3 15 2 16 1 17
REMARK H PARENT
REMARK Flexibility Score: inf
ROOT
ATOM      1  C   UNL     1     -15.261  11.694   8.528  1.00  0.00     0.000 C 
ENDROOT
BRANCH   1   2
ATOM      2  C   UNL     1     -16.413  12.675   8.800  1.00  0.00     0.000 C 
BRANCH   2   3
ATOM      3  C   UNL     1     -16.978  12.546  10.227  1.00  0.00     0.000 C 
BRANCH   3   4
ATOM      4  C   UNL     1     -15.966  11.938  11.210  1.00  0.00     0.000 C 
BRANCH   4   5
ATOM      5  C   UNL     1     -15.662  12.869  12.394  1.00  0.00     0.006 C 
BRANCH   5   6
ATOM      6  C   UNL     1     -15.288  14.272  11.905  1.00  0.00     0.053 C 
BRANCH   6   7
ATOM      7  C   UNL     1     -13.909  14.275  11.324  1.00  0.00     0.041 C 
ATOM      8  O   UNL     1     -13.719  14.686  10.148  1.00  0.00    -0.550 OA
ATOM      9  O   UNL     1     -12.828  13.873  12.095  1.00  0.00    -0.550 OA
ENDBRANCH   6   7
ENDBRANCH   5   6
ENDBRANCH   4   5
ENDBRANCH   3   4
ENDBRANCH   2   3
ENDBRANCH   1   2
BRANCH   1  10
ATOM     10  C   UNL     1     -15.730  10.420   7.802  1.00  0.00     0.000 C 
BRANCH  10  11
ATOM     11  C   UNL     1     -15.229   9.136   8.482  1.00  0.00    -0.000 C 
BRANCH  11  12
ATOM     12  C   UNL     1     -16.375   8.190   8.882  1.00  0.00    -0.000 C 
BRANCH  12  13
ATOM     13  C   UNL     1     -15.947   7.159   9.938  1.00  0.00    -0.000 C 
BRANCH  13  14
ATOM     14  C   UNL     1     -15.942   7.738  11.363  1.00  0.00    -0.000 C 
BRANCH  14  15
ATOM     15  C   UNL     1     -14.835   7.116  12.240  1.00  0.00    -0.000 C 
BRANCH  15  16
ATOM     16  C   UNL     1     -13.813   6.286  11.445  1.00  0.00    -0.003 C 
ATOM     17  C   UNL     1     -13.760   4.824  11.883  1.00  0.00     0.004 C 
ENDBRANCH  15  16
ENDBRANCH  14  15
ENDBRANCH  13  14
ENDBRANCH  12  13
ENDBRANCH  11  12
ENDBRANCH  10  11
ENDBRANCH   1  10
TORSDOF 13
ENDMDL
MODEL 8
REMARK VINA RESULT:    -2.900      1.614      5.152
REMARK INTER + INTRA:          -6.452
REMARK INTER:                  -5.368
REMARK INTRA:                  -1.084
REMARK UNBOUND:                -1.348
REMARK SMILES CCCCCCCCCCCCCCC(=O)[O-]
REMARK SMILES IDX 9 1 10 2 11 3 12 4 13 5 14 6 15 7 16 8 17 9 8 10 7 11 6 12
REMARK SMILES IDX 5 13 4 14 3 15 2 16 1 17
REMARK H PARENT
REMARK Flexibility Score: inf
ROOT
ATOM      1  C   UNL     1     -13.730  13.624   7.780  1.00  0.00     0.000 C 
ENDROOT
BRANCH   1   2
ATOM      2  C   UNL     1     -14.117  13.274   9.225  1.00  0.00     0.000 C 
BRANCH   2   3
ATOM      3  C   UNL     1     -13.761  14.392  10.223  1.00  0.00     0.000 C 
BRANCH   3   4
ATOM      4  C   UNL     1     -13.894  13.941  11.686  1.00  0.00     0.000 C 
BRANCH   4   5
ATOM      5  C   UNL     1     -15.192  14.438  12.341  1.00  0.00     0.006 C 
BRANCH   5   6
ATOM      6  C   UNL     1     -15.875  13.313  13.125  1.00  0.00     0.053 C 
BRANCH   6   7
ATOM      7  C   UNL     1     -16.435  12.287  12.191  1.00  0.00     0.041 C 
ATOM      8  O   UNL     1     -16.359  11.063  12.475  1.00  0.00    -0.550 OA
ATOM      9  O   UNL     1     -17.086  12.684  11.030  1.00  0.00    -0.550 OA
ENDBRANCH   6   7
ENDBRANCH   5   6
ENDBRANCH   4   5
ENDBRANCH   3   4
ENDBRANCH   2   3
ENDBRANCH   1   2
BRANCH   1  10
ATOM     10  C   UNL     1     -14.783  13.161   6.758  1.00  0.00     0.000 C 
BRANCH  10  11
ATOM     11  C   UNL     1     -16.041  12.585   7.428  1.00  0.00    -0.000 C 
BRANCH  11  12
ATOM     12  C   UNL     1     -16.262  11.098   7.096  1.00  0.00    -0.000 C 
BRANCH  12  13
ATOM     13  C   UNL     1     -17.105  10.376   8.159  1.00  0.00    -0.000 C 
BRANCH  13  14
ATOM     14  C   UNL     1     -16.245   9.667   9.219  1.00  0.00    -0.000 C 
BRANCH  14  15
ATOM     15  C   UNL     1     -15.978   8.190   8.860  1.00  0.00    -0.000 C 
BRANCH  15  16
ATOM     16  C   UNL     1     -16.190   7.224  10.037  1.00  0.00    -0.003 C 
ATOM     17  C   UNL     1     -14.909   6.943  10.819  1.00  0.00     0.004 C 
ENDBRANCH  15  16
ENDBRANCH  14  15
ENDBRANCH  13  14
ENDBRANCH  12  13
ENDBRANCH  11  12
ENDBRANCH  10  11
ENDBRANCH   1  10
TORSDOF 13
ENDMDL
MODEL 9
REMARK VINA RESULT:    -2.793      3.210      6.444
REMARK INTER + INTRA:          -6.264
REMARK INTER:                  -4.993
REMARK INTRA:                  -1.270
REMARK UNBOUND:                -1.348
REMARK SMILES CCCCCCCCCCCCCCC(=O)[O-]
REMARK SMILES IDX 9 1 10 2 11 3 12 4 13 5 14 6 15 7 16 8 17 9 8 10 7 11 6 12
REMARK SMILES IDX 5 13 4 14 3 15 2 16 1 17
REMARK H PARENT
REMARK Flexibility Score: inf
ROOT
ATOM      1  C   UNL     1     -16.027   9.120   8.313  1.00  0.00     0.000 C 
ENDROOT
BRANCH   1   2
ATOM      2  C   UNL     1     -16.968  10.221   8.828  1.00  0.00     0.000 C 
BRANCH   2   3
ATOM      3  C   UNL     1     -16.757  10.533  10.322  1.00  0.00     0.000 C 
BRANCH   3   4
ATOM      4  C   UNL     1     -15.872  11.768  10.548  1.00  0.00     0.000 C 
BRANCH   4   5
ATOM      5  C   UNL     1     -15.963  12.778   9.394  1.00  0.00     0.006 C 
BRANCH   5   6
ATOM      6  C   UNL     1     -14.570  13.240   8.958  1.00  0.00     0.053 C 
BRANCH   6   7
ATOM      7  C   UNL     1     -14.457  13.235   7.467  1.00  0.00     0.041 C 
ATOM      8  O   UNL     1     -15.496  13.237   6.753  1.00  0.00    -0.550 OA
ATOM      9  O   UNL     1     -13.208  13.280   6.862  1.00  0.00    -0.550 OA
ENDBRANCH   6   7
ENDBRANCH   5   6
ENDBRANCH   4   5
ENDBRANCH   3   4
ENDBRANCH   2   3
ENDBRANCH   1   2
BRANCH   1  10
ATOM     10  C   UNL     1     -15.625   8.125   9.416  1.00  0.00     0.000 C 
BRANCH  10  11
ATOM     11  C   UNL     1     -16.605   6.947   9.533  1.00  0.00    -0.000 C 
BRANCH  11  12
ATOM     12  C   UNL     1     -16.608   6.314  10.936  1.00  0.00    -0.000 C 
BRANCH  12  13
ATOM     13  C   UNL     1     -16.420   7.354  12.052  1.00  0.00    -0.000 C 
BRANCH  13  14
ATOM     14  C   UNL     1     -15.228   7.031  12.969  1.00  0.00    -0.000 C 
BRANCH  14  15
ATOM     15  C   UNL     1     -15.008   5.511  13.125  1.00  0.00    -0.000 C 
BRANCH  15  16
ATOM     16  C   UNL     1     -13.554   5.072  12.886  1.00  0.00    -0.003 C 
ATOM     17  C   UNL     1     -13.390   4.195  11.647  1.00  0.00     0.004 C 
ENDBRANCH  15  16
ENDBRANCH  14  15
ENDBRANCH  13  14
ENDBRANCH  12  13
ENDBRANCH  11  12
ENDBRANCH  10  11
ENDBRANCH   1  10
TORSDOF 13
ENDMDL
