MODEL 1
REMARK VINA RESULT:    -3.284      0.000      0.000
REMARK INTER + INTRA:          -4.086
REMARK INTER:                  -3.860
REMARK INTRA:                  -0.226
REMARK UNBOUND:                -0.226
REMARK SMILES [NH3+][C@H](CO)C(=O)[O-]
REMARK SMILES IDX 3 1 2 2 1 3 5 7 6 8 7 9 4 10
REMARK H PARENT 1 4 1 5 1 6 4 11
REMARK Flexibility Score: inf
ROOT
ATOM      1  C   UNL     1     110.262 136.400 122.367  1.00  0.00     0.227 C 
ENDROOT
BRANCH   1   2
ATOM      2  C   UNL     1     110.130 135.138 121.495  1.00  0.00     0.253 C 
BRANCH   2   3
ATOM      3  N   UNL     1     111.125 134.133 121.887  1.00  0.00    -0.348 N 
ATOM      4  H   UNL     1     111.378 133.525 121.074  1.00  0.00     0.345 HD
ATOM      5  H   UNL     1     111.987 134.607 122.243  1.00  0.00     0.345 HD
ATOM      6  H   UNL     1     110.741 133.535 122.654  1.00  0.00     0.345 HD
ENDBRANCH   2   3
BRANCH   2   7
ATOM      7  C   UNL     1     108.741 134.565 121.599  1.00  0.00     0.102 C 
ATOM      8  O   UNL     1     107.758 135.204 121.142  1.00  0.00    -0.544 OA
ATOM      9  O   UNL     1     108.534 133.335 122.211  1.00  0.00    -0.544 OA
ENDBRANCH   2   7
ENDBRANCH   1   2
BRANCH   1  10
ATOM     10  O   UNL     1     109.434 137.425 121.889  1.00  0.00    -0.390 OA
ATOM     11  H   UNL     1     108.505 137.179 122.136  1.00  0.00     0.210 HD
ENDBRANCH   1  10
TORSDOF 4
ENDMDL
MODEL 2
REMARK VINA RESULT:    -3.283      1.048      2.564
REMARK INTER + INTRA:          -4.085
REMARK INTER:                  -3.876
REMARK INTRA:                  -0.209
REMARK UNBOUND:                -0.226
REMARK SMILES [NH3+][C@H](CO)C(=O)[O-]
REMARK SMILES IDX 3 1 2 2 1 3 5 7 6 8 7 9 4 10
REMARK H PARENT 1 4 1 5 1 6 4 11
REMARK Flexibility Score: inf
ROOT
ATOM      1  C   UNL     1     108.720 134.472 121.412  1.00  0.00     0.227 C 
ENDROOT
BRANCH   1   2
ATOM      2  C   UNL     1     109.876 134.735 122.395  1.00  0.00     0.253 C 
BRANCH   2   3
ATOM      3  N   UNL     1     111.125 134.151 121.891  1.00  0.00    -0.348 N 
ATOM      4  H   UNL     1     111.679 133.732 122.673  1.00  0.00     0.345 HD
ATOM      5  H   UNL     1     110.910 133.409 121.185  1.00  0.00     0.345 HD
ATOM      6  H   UNL     1     111.698 134.891 121.423  1.00  0.00     0.345 HD
ENDBRANCH   2   3
BRANCH   2   7
ATOM      7  C   UNL     1     110.048 136.214 122.625  1.00  0.00     0.102 C 
ATOM      8  O   UNL     1     109.979 137.017 121.658  1.00  0.00    -0.544 OA
ATOM      9  O   UNL     1     110.293 136.701 123.903  1.00  0.00    -0.544 OA
ENDBRANCH   2   7
ENDBRANCH   1   2
BRANCH   1  10
ATOM     10  O   UNL     1     107.755 135.485 121.495  1.00  0.00    -0.390 OA
ATOM     11  H   UNL     1     107.762 135.807 122.434  1.00  0.00     0.210 HD
ENDBRANCH   1  10
TORSDOF 4
ENDMDL
MODEL 3
REMARK VINA RESULT:    -3.139      2.417      3.418
REMARK INTER + INTRA:          -3.916
REMARK INTER:                  -3.688
REMARK INTRA:                  -0.228
REMARK UNBOUND:                -0.226
REMARK SMILES [NH3+][C@H](CO)C(=O)[O-]
REMARK SMILES IDX 3 1 2 2 1 3 5 7 6 8 7 9 4 10
REMARK H PARENT 1 4 1 5 1 6 4 11
REMARK Flexibility Score: inf
ROOT
ATOM      1  C   UNL     1     109.861 134.484 122.166  1.00  0.00     0.227 C 
ENDROOT
BRANCH   1   2
ATOM      2  C   UNL     1     110.128 135.999 122.213  1.00  0.00     0.253 C 
BRANCH   2   3
ATOM      3  N   UNL     1     108.914 136.748 121.870  1.00  0.00    -0.348 N 
ATOM      4  H   UNL     1     109.077 137.357 121.035  1.00  0.00     0.345 HD
ATOM      5  H   UNL     1     108.133 136.083 121.663  1.00  0.00     0.345 HD
ATOM      6  H   UNL     1     108.627 137.347 122.678  1.00  0.00     0.345 HD
ENDBRANCH   2   3
BRANCH   2   7
ATOM      7  C   UNL     1     110.626 136.407 123.575  1.00  0.00     0.102 C 
ATOM      8  O   UNL     1     110.825 137.622 123.838  1.00  0.00    -0.544 OA
ATOM      9  O   UNL     1     110.878 135.446 124.546  1.00  0.00    -0.544 OA
ENDBRANCH   2   7
ENDBRANCH   1   2
BRANCH   1  10
ATOM     10  O   UNL     1     111.066 133.766 122.157  1.00  0.00    -0.390 OA
ATOM     11  H   UNL     1     111.355 133.708 121.210  1.00  0.00     0.210 HD
ENDBRANCH   1  10
TORSDOF 4
ENDMDL
MODEL 4
REMARK VINA RESULT:    -3.079      1.671      1.984
REMARK INTER + INTRA:          -3.845
REMARK INTER:                  -3.462
REMARK INTRA:                  -0.383
REMARK UNBOUND:                -0.226
REMARK SMILES [NH3+][C@H](CO)C(=O)[O-]
REMARK SMILES IDX 3 1 2 2 1 3 5 7 6 8 7 9 4 10
REMARK H PARENT 1 4 1 5 1 6 4 11
REMARK Flexibility Score: inf
ROOT
ATOM      1  C   UNL     1     110.400 137.512 123.297  1.00  0.00     0.227 C 
ENDROOT
BRANCH   1   2
ATOM      2  C   UNL     1     110.899 136.082 123.021  1.00  0.00     0.253 C 
BRANCH   2   3
ATOM      3  N   UNL     1     110.755 135.245 124.217  1.00  0.00    -0.348 N 
ATOM      4  H   UNL     1     111.083 135.756 125.069  1.00  0.00     0.345 HD
ATOM      5  H   UNL     1     109.752 134.976 124.343  1.00  0.00     0.345 HD
ATOM      6  H   UNL     1     111.317 134.369 124.106  1.00  0.00     0.345 HD
ENDBRANCH   2   3
BRANCH   2   7
ATOM      7  C   UNL     1     110.148 135.474 121.865  1.00  0.00     0.102 C 
ATOM      8  O   UNL     1     110.669 135.441 120.720  1.00  0.00    -0.544 OA
ATOM      9  O   UNL     1     108.873 134.955 122.053  1.00  0.00    -0.544 OA
ENDBRANCH   2   7
ENDBRANCH   1   2
BRANCH   1  10
ATOM     10  O   UNL     1     109.630 137.987 122.225  1.00  0.00    -0.390 OA
ATOM     11  H   UNL     1     108.738 137.558 122.305  1.00  0.00     0.210 HD
ENDBRANCH   1  10
TORSDOF 4
ENDMDL
MODEL 5
REMARK VINA RESULT:    -3.077      2.290      2.565
REMARK INTER + INTRA:          -3.843
REMARK INTER:                  -3.828
REMARK INTRA:                  -0.015
REMARK UNBOUND:                -0.226
REMARK SMILES [NH3+][C@H](CO)C(=O)[O-]
REMARK SMILES IDX 3 1 2 2 1 3 5 7 6 8 7 9 4 10
REMARK H PARENT 1 4 1 5 1 6 4 11
REMARK Flexibility Score: inf
ROOT
ATOM      1  C   UNL     1     110.945 136.418 123.740  1.00  0.00     0.227 C 
ENDROOT
BRANCH   1   2
ATOM      2  C   UNL     1     109.777 136.247 122.752  1.00  0.00     0.253 C 
BRANCH   2   3
ATOM      3  N   UNL     1     109.664 137.421 121.878  1.00  0.00    -0.348 N 
ATOM      4  H   UNL     1     109.989 138.283 122.373  1.00  0.00     0.345 HD
ATOM      5  H   UNL     1     110.243 137.279 121.017  1.00  0.00     0.345 HD
ATOM      6  H   UNL     1     108.669 137.549 121.585  1.00  0.00     0.345 HD
ENDBRANCH   2   3
BRANCH   2   7
ATOM      7  C   UNL     1     109.961 134.999 121.928  1.00  0.00     0.102 C 
ATOM      8  O   UNL     1     111.073 134.411 121.909  1.00  0.00    -0.544 OA
ATOM      9  O   UNL     1     108.907 134.496 121.174  1.00  0.00    -0.544 OA
ENDBRANCH   2   7
ENDBRANCH   1   2
BRANCH   1  10
ATOM     10  O   UNL     1     110.473 136.770 125.013  1.00  0.00    -0.390 OA
ATOM     11  H   UNL     1     109.707 137.385 124.871  1.00  0.00     0.210 HD
ENDBRANCH   1  10
TORSDOF 4
ENDMDL
MODEL 6
REMARK VINA RESULT:    -2.882      8.237      8.702
REMARK INTER + INTRA:          -3.613
REMARK INTER:                  -3.411
REMARK INTRA:                  -0.202
REMARK UNBOUND:                -0.226
REMARK SMILES [NH3+][C@H](CO)C(=O)[O-]
REMARK SMILES IDX 3 1 2 2 1 3 5 7 6 8 7 9 4 10
REMARK H PARENT 1 4 1 5 1 6 4 11
REMARK Flexibility Score: inf
ROOT
ATOM      1  C   UNL     1     104.675 127.702 121.190  1.00  0.00     0.227 C 
ENDROOT
BRANCH   1   2
ATOM      2  C   UNL     1     106.001 127.738 121.972  1.00  0.00     0.253 C 
BRANCH   2   3
ATOM      3  N   UNL     1     106.616 129.067 121.886  1.00  0.00    -0.348 N 
ATOM      4  H   UNL     1     105.922 129.813 122.126  1.00  0.00     0.345 HD
ATOM      5  H   UNL     1     107.427 129.127 122.545  1.00  0.00     0.345 HD
ATOM      6  H   UNL     1     106.971 129.231 120.916  1.00  0.00     0.345 HD
ENDBRANCH   2   3
BRANCH   2   7
ATOM      7  C   UNL     1     105.775 127.360 123.413  1.00  0.00     0.102 C 
ATOM      8  O   UNL     1     106.599 126.619 124.009  1.00  0.00    -0.544 OA
ATOM      9  O   UNL     1     104.651 127.817 124.090  1.00  0.00    -0.544 OA
ENDBRANCH   2   7
ENDBRANCH   1   2
BRANCH   1  10
ATOM     10  O   UNL     1     103.812 128.718 121.626  1.00  0.00    -0.390 OA
ATOM     11  H   UNL     1     102.906 128.316 121.681  1.00  0.00     0.210 HD
ENDBRANCH   1  10
TORSDOF 4
ENDMDL
MODEL 7
REMARK VINA RESULT:    -2.821      6.971      8.102
REMARK INTER + INTRA:          -3.541
REMARK INTER:                  -3.166
REMARK INTRA:                  -0.375
REMARK UNBOUND:                -0.226
REMARK SMILES [NH3+][C@H](CO)C(=O)[O-]
REMARK SMILES IDX 3 1 2 2 1 3 5 7 6 8 7 9 4 10
REMARK H PARENT 1 4 1 5 1 6 4 11
REMARK Flexibility Score: inf
ROOT
ATOM      1  C   UNL     1     106.315 129.704 122.299  1.00  0.00     0.227 C 
ENDROOT
BRANCH   1   2
ATOM      2  C   UNL     1     105.374 128.524 122.605  1.00  0.00     0.253 C 
BRANCH   2   3
ATOM      3  N   UNL     1     103.975 128.968 122.612  1.00  0.00    -0.348 N 
ATOM      4  H   UNL     1     103.466 128.578 123.438  1.00  0.00     0.345 HD
ATOM      5  H   UNL     1     103.935 130.014 122.646  1.00  0.00     0.345 HD
ATOM      6  H   UNL     1     103.499 128.651 121.736  1.00  0.00     0.345 HD
ENDBRANCH   2   3
BRANCH   2   7
ATOM      7  C   UNL     1     105.565 127.420 121.599  1.00  0.00     0.102 C 
ATOM      8  O   UNL     1     104.772 127.303 120.629  1.00  0.00    -0.544 OA
ATOM      9  O   UNL     1     106.611 126.516 121.741  1.00  0.00    -0.544 OA
ENDBRANCH   2   7
ENDBRANCH   1   2
BRANCH   1  10
ATOM     10  O   UNL     1     107.142 129.410 121.206  1.00  0.00    -0.390 OA
ATOM     11  H   UNL     1     108.041 129.211 121.576  1.00  0.00     0.210 HD
ENDBRANCH   1  10
TORSDOF 4
ENDMDL
MODEL 8
REMARK VINA RESULT:    -2.782      7.944      8.778
REMARK INTER + INTRA:          -3.496
REMARK INTER:                  -3.129
REMARK INTRA:                  -0.367
REMARK UNBOUND:                -0.226
REMARK SMILES [NH3+][C@H](CO)C(=O)[O-]
REMARK SMILES IDX 3 1 2 2 1 3 5 7 6 8 7 9 4 10
REMARK H PARENT 1 4 1 5 1 6 4 11
REMARK Flexibility Score: inf
ROOT
ATOM      1  C   UNL     1     104.632 127.711 123.907  1.00  0.00     0.227 C 
ENDROOT
BRANCH   1   2
ATOM      2  C   UNL     1     104.693 127.784 122.370  1.00  0.00     0.253 C 
BRANCH   2   3
ATOM      3  N   UNL     1     104.043 129.007 121.885  1.00  0.00    -0.348 N 
ATOM      4  H   UNL     1     103.221 128.775 121.281  1.00  0.00     0.345 HD
ATOM      5  H   UNL     1     103.721 129.584 122.697  1.00  0.00     0.345 HD
ATOM      6  H   UNL     1     104.725 129.575 121.331  1.00  0.00     0.345 HD
ENDBRANCH   2   3
BRANCH   2   7
ATOM      7  C   UNL     1     106.122 127.730 121.895  1.00  0.00     0.102 C 
ATOM      8  O   UNL     1     106.783 128.791 121.756  1.00  0.00    -0.544 OA
ATOM      9  O   UNL     1     106.716 126.509 121.598  1.00  0.00    -0.544 OA
ENDBRANCH   2   7
ENDBRANCH   1   2
BRANCH   1  10
ATOM     10  O   UNL     1     105.852 127.264 124.434  1.00  0.00    -0.390 OA
ATOM     11  H   UNL     1     106.566 127.650 123.863  1.00  0.00     0.210 HD
ENDBRANCH   1  10
TORSDOF 4
ENDMDL
