MODEL 1
REMARK VINA RESULT:    -5.362      0.000      0.000
REMARK INTER + INTRA:         -11.745
REMARK INTER:                  -9.751
REMARK INTRA:                  -1.994
REMARK UNBOUND:                -1.994
REMARK SMILES CCCCCCCCCCCCCC[C@@H](C)C(=O)[O-]
REMARK SMILES IDX 9 1 10 2 11 3 12 4 13 5 14 6 15 7 16 8 17 9 18 10 19 11 8 12
REMARK SMILES IDX 7 13 6 14 5 15 4 16 3 17 2 18 1 19
REMARK H PARENT
REMARK Flexibility Score: inf
ROOT
ATOM      1  C   UNL     1      10.373  16.430 163.205  1.00  0.00     0.000 C 
ENDROOT
BRANCH   1   2
ATOM      2  C   UNL     1      11.067  17.515 162.363  1.00  0.00     0.000 C 
BRANCH   2   3
ATOM      3  C   UNL     1      11.175  17.134 160.879  1.00  0.00     0.000 C 
BRANCH   3   4
ATOM      4  C   UNL     1      11.402  15.626 160.667  1.00  0.00     0.000 C 
BRANCH   4   5
ATOM      5  C   UNL     1      12.872  15.297 160.351  1.00  0.00     0.001 C 
BRANCH   5   6
ATOM      6  C   UNL     1      13.538  14.474 161.472  1.00  0.00     0.009 C 
BRANCH   6   7
ATOM      7  C   UNL     1      14.644  15.230 162.241  1.00  0.00     0.032 C 
ATOM      8  C   UNL     1      14.083  16.322 163.164  1.00  0.00     0.014 C 
BRANCH   7   9
ATOM      9  C   UNL     1      15.553  14.277 162.971  1.00  0.00     0.044 C 
ATOM     10  O   UNL     1      15.148  13.629 163.974  1.00  0.00    -0.550 OA
ATOM     11  O   UNL     1      16.846  14.074 162.507  1.00  0.00    -0.550 OA
ENDBRANCH   7   9
ENDBRANCH   6   7
ENDBRANCH   5   6
ENDBRANCH   4   5
ENDBRANCH   3   4
ENDBRANCH   2   3
ENDBRANCH   1   2
BRANCH   1  12
ATOM     12  C   UNL     1      10.278  16.809 164.692  1.00  0.00     0.000 C 
BRANCH  12  13
ATOM     13  C   UNL     1      10.872  15.732 165.616  1.00  0.00    -0.000 C 
BRANCH  13  14
ATOM     14  C   UNL     1      11.847  14.791 164.884  1.00  0.00    -0.000 C 
BRANCH  14  15
ATOM     15  C   UNL     1      11.410  13.312 164.821  1.00  0.00    -0.000 C 
BRANCH  15  16
ATOM     16  C   UNL     1      11.545  12.652 163.436  1.00  0.00    -0.000 C 
BRANCH  16  17
ATOM     17  C   UNL     1      10.347  12.939 162.518  1.00  0.00    -0.000 C 
BRANCH  17  18
ATOM     18  C   UNL     1      10.351  12.005 161.303  1.00  0.00    -0.003 C 
ATOM     19  C   UNL     1       9.735  10.651 161.648  1.00  0.00     0.004 C 
ENDBRANCH  17  18
ENDBRANCH  16  17
ENDBRANCH  15  16
ENDBRANCH  14  15
ENDBRANCH  13  14
ENDBRANCH  12  13
ENDBRANCH   1  12
TORSDOF 14
ENDMDL
MODEL 2
REMARK VINA RESULT:    -5.358      2.682      4.709
REMARK INTER + INTRA:         -11.736
REMARK INTER:                  -9.121
REMARK INTRA:                  -2.615
REMARK UNBOUND:                -1.994
REMARK SMILES CCCCCCCCCCCCCC[C@@H](C)C(=O)[O-]
REMARK SMILES IDX 9 1 10 2 11 3 12 4 13 5 14 6 15 7 16 8 17 9 18 10 19 11 8 12
REMARK SMILES IDX 7 13 6 14 5 15 4 16 3 17 2 18 1 19
REMARK H PARENT
REMARK Flexibility Score: inf
ROOT
ATOM      1  C   UNL     1      10.580  15.350 160.530  1.00  0.00     0.000 C 
ENDROOT
BRANCH   1   2
ATOM      2  C   UNL     1      11.598  16.421 160.959  1.00  0.00     0.000 C 
BRANCH   2   3
ATOM      3  C   UNL     1      10.962  17.543 161.794  1.00  0.00     0.000 C 
BRANCH   3   4
ATOM      4  C   UNL     1      11.864  18.005 162.954  1.00  0.00     0.000 C 
BRANCH   4   5
ATOM      5  C   UNL     1      12.844  16.906 163.402  1.00  0.00     0.001 C 
BRANCH   5   6
ATOM      6  C   UNL     1      12.508  16.366 164.806  1.00  0.00     0.009 C 
BRANCH   6   7
ATOM      7  C   UNL     1      11.264  15.452 164.853  1.00  0.00     0.032 C 
ATOM      8  C   UNL     1      11.601  14.013 165.270  1.00  0.00     0.014 C 
BRANCH   7   9
ATOM      9  C   UNL     1      10.174  16.051 165.702  1.00  0.00     0.044 C 
ATOM     10  O   UNL     1       9.951  15.629 166.869  1.00  0.00    -0.550 OA
ATOM     11  O   UNL     1       9.431  17.116 165.211  1.00  0.00    -0.550 OA
ENDBRANCH   7   9
ENDBRANCH   6   7
ENDBRANCH   5   6
ENDBRANCH   4   5
ENDBRANCH   3   4
ENDBRANCH   2   3
ENDBRANCH   1   2
BRANCH   1  12
ATOM     12  C   UNL     1       9.711  14.862 161.701  1.00  0.00     0.000 C 
BRANCH  12  13
ATOM     13  C   UNL     1       9.965  13.386 162.051  1.00  0.00    -0.000 C 
BRANCH  13  14
ATOM     14  C   UNL     1      11.122  12.772 161.242  1.00  0.00    -0.000 C 
BRANCH  14  15
ATOM     15  C   UNL     1      12.409  12.490 162.046  1.00  0.00    -0.000 C 
BRANCH  15  16
ATOM     16  C   UNL     1      13.455  13.619 162.020  1.00  0.00    -0.000 C 
BRANCH  16  17
ATOM     17  C   UNL     1      14.536  13.457 163.098  1.00  0.00    -0.000 C 
BRANCH  17  18
ATOM     18  C   UNL     1      15.599  14.554 162.979  1.00  0.00    -0.003 C 
ATOM     19  C   UNL     1      16.958  13.966 162.605  1.00  0.00     0.004 C 
ENDBRANCH  17  18
ENDBRANCH  16  17
ENDBRANCH  15  16
ENDBRANCH  14  15
ENDBRANCH  13  14
ENDBRANCH  12  13
ENDBRANCH   1  12
TORSDOF 14
ENDMDL
MODEL 3
REMARK VINA RESULT:    -5.152      2.566      4.942
REMARK INTER + INTRA:         -11.363
REMARK INTER:                  -8.974
REMARK INTRA:                  -2.389
REMARK UNBOUND:                -1.994
REMARK SMILES CCCCCCCCCCCCCC[C@@H](C)C(=O)[O-]
REMARK SMILES IDX 9 1 10 2 11 3 12 4 13 5 14 6 15 7 16 8 17 9 18 10 19 11 8 12
REMARK SMILES IDX 7 13 6 14 5 15 4 16 3 17 2 18 1 19
REMARK H PARENT
REMARK Flexibility Score: inf
ROOT
ATOM      1  C   UNL     1      13.635  13.308 162.531  1.00  0.00     0.000 C 
ENDROOT
BRANCH   1   2
ATOM      2  C   UNL     1      12.196  12.897 162.888  1.00  0.00     0.000 C 
BRANCH   2   3
ATOM      3  C   UNL     1      11.489  12.156 161.743  1.00  0.00     0.000 C 
BRANCH   3   4
ATOM      4  C   UNL     1      10.232  12.892 161.244  1.00  0.00     0.000 C 
BRANCH   4   5
ATOM      5  C   UNL     1      10.024  14.238 161.960  1.00  0.00     0.001 C 
BRANCH   5   6
ATOM      6  C   UNL     1      10.070  15.429 160.982  1.00  0.00     0.009 C 
BRANCH   6   7
ATOM      7  C   UNL     1      11.434  16.149 160.926  1.00  0.00     0.032 C 
ATOM      8  C   UNL     1      12.418  15.481 159.953  1.00  0.00     0.014 C 
BRANCH   7   9
ATOM      9  C   UNL     1      11.268  17.620 160.647  1.00  0.00     0.044 C 
ATOM     10  O   UNL     1      11.157  18.453 161.586  1.00  0.00    -0.550 OA
ATOM     11  O   UNL     1      11.281  18.072 159.334  1.00  0.00    -0.550 OA
ENDBRANCH   7   9
ENDBRANCH   6   7
ENDBRANCH   5   6
ENDBRANCH   4   5
ENDBRANCH   3   4
ENDBRANCH   2   3
ENDBRANCH   1   2
BRANCH   1  12
ATOM     12  C   UNL     1      14.265  14.229 163.589  1.00  0.00     0.000 C 
BRANCH  12  13
ATOM     13  C   UNL     1      14.107  15.720 163.244  1.00  0.00    -0.000 C 
BRANCH  13  14
ATOM     14  C   UNL     1      12.968  16.397 164.027  1.00  0.00    -0.000 C 
BRANCH  14  15
ATOM     15  C   UNL     1      12.322  15.529 165.128  1.00  0.00    -0.000 C 
BRANCH  15  16
ATOM     16  C   UNL     1      10.861  15.882 165.462  1.00  0.00    -0.000 C 
BRANCH  16  17
ATOM     17  C   UNL     1      10.252  16.896 164.482  1.00  0.00    -0.000 C 
BRANCH  17  18
ATOM     18  C   UNL     1       9.095  17.662 165.132  1.00  0.00    -0.003 C 
ATOM     19  C   UNL     1       8.631  16.975 166.413  1.00  0.00     0.004 C 
ENDBRANCH  17  18
ENDBRANCH  16  17
ENDBRANCH  15  16
ENDBRANCH  14  15
ENDBRANCH  13  14
ENDBRANCH  12  13
ENDBRANCH   1  12
TORSDOF 14
ENDMDL
MODEL 4
REMARK VINA RESULT:    -5.140      2.979      5.324
REMARK INTER + INTRA:         -11.340
REMARK INTER:                  -9.305
REMARK INTRA:                  -2.035
REMARK UNBOUND:                -1.994
REMARK SMILES CCCCCCCCCCCCCC[C@@H](C)C(=O)[O-]
REMARK SMILES IDX 9 1 10 2 11 3 12 4 13 5 14 6 15 7 16 8 17 9 18 10 19 11 8 12
REMARK SMILES IDX 7 13 6 14 5 15 4 16 3 17 2 18 1 19
REMARK H PARENT
REMARK Flexibility Score: inf
ROOT
ATOM      1  C   UNL     1       9.791  14.210 161.966  1.00  0.00     0.000 C 
ENDROOT
BRANCH   1   2
ATOM      2  C   UNL     1       9.777  15.317 160.898  1.00  0.00     0.000 C 
BRANCH   2   3
ATOM      3  C   UNL     1      11.135  16.023 160.759  1.00  0.00     0.000 C 
BRANCH   3   4
ATOM      4  C   UNL     1      11.129  17.443 161.355  1.00  0.00     0.000 C 
BRANCH   4   5
ATOM      5  C   UNL     1      11.598  17.460 162.821  1.00  0.00     0.001 C 
BRANCH   5   6
ATOM      6  C   UNL     1      10.454  17.814 163.792  1.00  0.00     0.009 C 
BRANCH   6   7
ATOM      7  C   UNL     1       9.978  16.633 164.666  1.00  0.00     0.032 C 
ATOM      8  C   UNL     1      11.142  15.801 165.224  1.00  0.00     0.014 C 
BRANCH   7   9
ATOM      9  C   UNL     1       9.038  17.095 165.748  1.00  0.00     0.044 C 
ATOM     10  O   UNL     1       8.862  16.413 166.794  1.00  0.00    -0.550 OA
ATOM     11  O   UNL     1       8.387  18.315 165.615  1.00  0.00    -0.550 OA
ENDBRANCH   7   9
ENDBRANCH   6   7
ENDBRANCH   5   6
ENDBRANCH   4   5
ENDBRANCH   3   4
ENDBRANCH   2   3
ENDBRANCH   1   2
BRANCH   1  12
ATOM     12  C   UNL     1      10.113  12.826 161.378  1.00  0.00     0.000 C 
BRANCH  12  13
ATOM     13  C   UNL     1      11.498  12.310 161.806  1.00  0.00    -0.000 C 
BRANCH  13  14
ATOM     14  C   UNL     1      12.067  13.066 163.021  1.00  0.00    -0.000 C 
BRANCH  14  15
ATOM     15  C   UNL     1      13.574  13.386 162.949  1.00  0.00    -0.000 C 
BRANCH  15  16
ATOM     16  C   UNL     1      13.914  14.839 162.569  1.00  0.00    -0.000 C 
BRANCH  16  17
ATOM     17  C   UNL     1      15.375  15.209 162.866  1.00  0.00    -0.000 C 
BRANCH  17  18
ATOM     18  C   UNL     1      16.225  13.953 163.086  1.00  0.00    -0.003 C 
ATOM     19  C   UNL     1      17.548  14.044 162.330  1.00  0.00     0.004 C 
ENDBRANCH  17  18
ENDBRANCH  16  17
ENDBRANCH  15  16
ENDBRANCH  14  15
ENDBRANCH  13  14
ENDBRANCH  12  13
ENDBRANCH   1  12
TORSDOF 14
ENDMDL
MODEL 5
REMARK VINA RESULT:    -5.109      2.274      5.025
REMARK INTER + INTRA:         -11.283
REMARK INTER:                  -9.212
REMARK INTRA:                  -2.071
REMARK UNBOUND:                -1.994
REMARK SMILES CCCCCCCCCCCCCC[C@@H](C)C(=O)[O-]
REMARK SMILES IDX 9 1 10 2 11 3 12 4 13 5 14 6 15 7 16 8 17 9 18 10 19 11 8 12
REMARK SMILES IDX 7 13 6 14 5 15 4 16 3 17 2 18 1 19
REMARK H PARENT
REMARK Flexibility Score: inf
ROOT
ATOM      1  C   UNL     1      11.613  17.450 163.168  1.00  0.00     0.000 C 
ENDROOT
BRANCH   1   2
ATOM      2  C   UNL     1      10.421  17.068 164.063  1.00  0.00     0.000 C 
BRANCH   2   3
ATOM      3  C   UNL     1      10.781  16.000 165.107  1.00  0.00     0.000 C 
BRANCH   3   4
ATOM      4  C   UNL     1      11.876  15.034 164.616  1.00  0.00     0.000 C 
BRANCH   4   5
ATOM      5  C   UNL     1      11.388  13.575 164.572  1.00  0.00     0.001 C 
BRANCH   5   6
ATOM      6  C   UNL     1      11.411  12.998 163.143  1.00  0.00     0.009 C 
BRANCH   6   7
ATOM      7  C   UNL     1      10.012  12.774 162.528  1.00  0.00     0.032 C 
ATOM      8  C   UNL     1       9.387  14.070 161.989  1.00  0.00     0.014 C 
BRANCH   7   9
ATOM      9  C   UNL     1      10.037  11.680 161.493  1.00  0.00     0.044 C 
ATOM     10  O   UNL     1      10.519  11.879 160.345  1.00  0.00    -0.550 OA
ATOM     11  O   UNL     1       9.561  10.417 161.821  1.00  0.00    -0.550 OA
ENDBRANCH   7   9
ENDBRANCH   6   7
ENDBRANCH   5   6
ENDBRANCH   4   5
ENDBRANCH   3   4
ENDBRANCH   2   3
ENDBRANCH   1   2
BRANCH   1  12
ATOM     12  C   UNL     1      11.221  18.429 162.050  1.00  0.00     0.000 C 
BRANCH  12  13
ATOM     13  C   UNL     1      11.267  17.782 160.655  1.00  0.00    -0.000 C 
BRANCH  13  14
ATOM     14  C   UNL     1      11.340  16.246 160.712  1.00  0.00    -0.000 C 
BRANCH  14  15
ATOM     15  C   UNL     1      12.524  15.615 159.948  1.00  0.00    -0.000 C 
BRANCH  15  16
ATOM     16  C   UNL     1      13.282  14.517 160.715  1.00  0.00    -0.000 C 
BRANCH  16  17
ATOM     17  C   UNL     1      14.142  15.072 161.860  1.00  0.00    -0.000 C 
BRANCH  17  18
ATOM     18  C   UNL     1      14.810  13.938 162.645  1.00  0.00    -0.003 C 
ATOM     19  C   UNL     1      16.275  14.255 162.931  1.00  0.00     0.004 C 
ENDBRANCH  17  18
ENDBRANCH  16  17
ENDBRANCH  15  16
ENDBRANCH  14  15
ENDBRANCH  13  14
ENDBRANCH  12  13
ENDBRANCH   1  12
TORSDOF 14
ENDMDL
MODEL 6
REMARK VINA RESULT:    -5.063      3.800      6.212
REMARK INTER + INTRA:         -11.201
REMARK INTER:                  -9.300
REMARK INTRA:                  -1.901
REMARK UNBOUND:                -1.994
REMARK SMILES CCCCCCCCCCCCCC[C@@H](C)C(=O)[O-]
REMARK SMILES IDX 9 1 10 2 11 3 12 4 13 5 14 6 15 7 16 8 17 9 18 10 19 11 8 12
REMARK SMILES IDX 7 13 6 14 5 15 4 16 3 17 2 18 1 19
REMARK H PARENT
REMARK Flexibility Score: inf
ROOT
ATOM      1  C   UNL     1      12.869  16.555 163.432  1.00  0.00     0.000 C 
ENDROOT
BRANCH   1   2
ATOM      2  C   UNL     1      12.345  15.968 164.753  1.00  0.00     0.000 C 
BRANCH   2   3
ATOM      3  C   UNL     1      10.822  16.111 164.902  1.00  0.00     0.000 C 
BRANCH   3   4
ATOM      4  C   UNL     1      10.295  17.453 164.359  1.00  0.00     0.000 C 
BRANCH   4   5
ATOM      5  C   UNL     1       9.087  17.970 165.159  1.00  0.00     0.001 C 
BRANCH   5   6
ATOM      6  C   UNL     1       8.486  16.883 166.071  1.00  0.00     0.009 C 
BRANCH   6   7
ATOM      7  C   UNL     1       7.920  17.417 167.405  1.00  0.00     0.032 C 
ATOM      8  C   UNL     1       7.234  18.783 167.254  1.00  0.00     0.014 C 
BRANCH   7   9
ATOM      9  C   UNL     1       7.028  16.401 168.069  1.00  0.00     0.044 C 
ATOM     10  O   UNL     1       5.800  16.334 167.795  1.00  0.00    -0.550 OA
ATOM     11  O   UNL     1       7.575  15.493 168.966  1.00  0.00    -0.550 OA
ENDBRANCH   7   9
ENDBRANCH   6   7
ENDBRANCH   5   6
ENDBRANCH   4   5
ENDBRANCH   3   4
ENDBRANCH   2   3
ENDBRANCH   1   2
BRANCH   1  12
ATOM     12  C   UNL     1      14.190  15.909 162.982  1.00  0.00     0.000 C 
BRANCH  12  13
ATOM     13  C   UNL     1      13.975  14.761 161.980  1.00  0.00    -0.000 C 
BRANCH  13  14
ATOM     14  C   UNL     1      13.687  13.415 162.668  1.00  0.00    -0.000 C 
BRANCH  14  15
ATOM     15  C   UNL     1      12.545  12.587 162.040  1.00  0.00    -0.000 C 
BRANCH  15  16
ATOM     16  C   UNL     1      11.173  12.749 162.720  1.00  0.00    -0.000 C 
BRANCH  16  17
ATOM     17  C   UNL     1      10.064  13.151 161.737  1.00  0.00    -0.000 C 
BRANCH  17  18
ATOM     18  C   UNL     1       9.681  14.624 161.912  1.00  0.00    -0.003 C 
ATOM     19  C   UNL     1      10.350  15.496 160.852  1.00  0.00     0.004 C 
ENDBRANCH  17  18
ENDBRANCH  16  17
ENDBRANCH  15  16
ENDBRANCH  14  15
ENDBRANCH  13  14
ENDBRANCH  12  13
ENDBRANCH   1  12
TORSDOF 14
ENDMDL
MODEL 7
REMARK VINA RESULT:    -5.032      1.175      4.098
REMARK INTER + INTRA:         -11.145
REMARK INTER:                  -8.922
REMARK INTRA:                  -2.223
REMARK UNBOUND:                -1.994
REMARK SMILES CCCCCCCCCCCCCC[C@@H](C)C(=O)[O-]
REMARK SMILES IDX 9 1 10 2 11 3 12 4 13 5 14 6 15 7 16 8 17 9 18 10 19 11 8 12
REMARK SMILES IDX 7 13 6 14 5 15 4 16 3 17 2 18 1 19
REMARK H PARENT
REMARK Flexibility Score: inf
ROOT
ATOM      1  C   UNL     1       9.888  14.589 161.558  1.00  0.00     0.000 C 
ENDROOT
BRANCH   1   2
ATOM      2  C   UNL     1      10.398  13.231 161.045  1.00  0.00     0.000 C 
BRANCH   2   3
ATOM      3  C   UNL     1      11.034  12.379 162.155  1.00  0.00     0.000 C 
BRANCH   3   4
ATOM      4  C   UNL     1      11.265  13.173 163.455  1.00  0.00     0.000 C 
BRANCH   4   5
ATOM      5  C   UNL     1      12.760  13.405 163.736  1.00  0.00     0.001 C 
BRANCH   5   6
ATOM      6  C   UNL     1      13.591  13.473 162.439  1.00  0.00     0.009 C 
BRANCH   6   7
ATOM      7  C   UNL     1      14.622  14.623 162.407  1.00  0.00     0.032 C 
ATOM      8  C   UNL     1      14.121  15.887 163.123  1.00  0.00     0.014 C 
BRANCH   7   9
ATOM      9  C   UNL     1      15.963  14.171 162.921  1.00  0.00     0.044 C 
ATOM     10  O   UNL     1      16.071  13.571 164.024  1.00  0.00    -0.550 OA
ATOM     11  O   UNL     1      17.097  14.379 162.146  1.00  0.00    -0.550 OA
ENDBRANCH   7   9
ENDBRANCH   6   7
ENDBRANCH   5   6
ENDBRANCH   4   5
ENDBRANCH   3   4
ENDBRANCH   2   3
ENDBRANCH   1   2
BRANCH   1  12
ATOM     12  C   UNL     1      10.143  15.730 160.559  1.00  0.00     0.000 C 
BRANCH  12  13
ATOM     13  C   UNL     1      11.419  16.526 160.883  1.00  0.00    -0.000 C 
BRANCH  13  14
ATOM     14  C   UNL     1      11.128  17.983 161.287  1.00  0.00    -0.000 C 
BRANCH  14  15
ATOM     15  C   UNL     1      11.534  18.360 162.727  1.00  0.00    -0.000 C 
BRANCH  15  16
ATOM     16  C   UNL     1      10.362  18.697 163.667  1.00  0.00    -0.000 C 
BRANCH  16  17
ATOM     17  C   UNL     1       9.832  17.472 164.425  1.00  0.00    -0.000 C 
BRANCH  17  18
ATOM     18  C   UNL     1      10.953  16.461 164.687  1.00  0.00    -0.003 C 
ATOM     19  C   UNL     1      10.748  15.744 166.019  1.00  0.00     0.004 C 
ENDBRANCH  17  18
ENDBRANCH  16  17
ENDBRANCH  15  16
ENDBRANCH  14  15
ENDBRANCH  13  14
ENDBRANCH  12  13
ENDBRANCH   1  12
TORSDOF 14
ENDMDL
MODEL 8
REMARK VINA RESULT:    -4.993      2.871      5.346
REMARK INTER + INTRA:         -11.073
REMARK INTER:                  -8.660
REMARK INTRA:                  -2.413
REMARK UNBOUND:                -1.994
REMARK SMILES CCCCCCCCCCCCCC[C@@H](C)C(=O)[O-]
REMARK SMILES IDX 9 1 10 2 11 3 12 4 13 5 14 6 15 7 16 8 17 9 18 10 19 11 8 12
REMARK SMILES IDX 7 13 6 14 5 15 4 16 3 17 2 18 1 19
REMARK H PARENT
REMARK Flexibility Score: inf
ROOT
ATOM      1  C   UNL     1      13.141  13.526 161.772  1.00  0.00     0.000 C 
ENDROOT
BRANCH   1   2
ATOM      2  C   UNL     1      14.040  13.511 163.021  1.00  0.00     0.000 C 
BRANCH   2   3
ATOM      3  C   UNL     1      14.738  14.858 163.264  1.00  0.00     0.000 C 
BRANCH   3   4
ATOM      4  C   UNL     1      13.864  16.061 162.866  1.00  0.00     0.000 C 
BRANCH   4   5
ATOM      5  C   UNL     1      13.242  16.759 164.089  1.00  0.00     0.001 C 
BRANCH   5   6
ATOM      6  C   UNL     1      11.726  16.983 163.921  1.00  0.00     0.009 C 
BRANCH   6   7
ATOM      7  C   UNL     1      10.848  15.977 164.697  1.00  0.00     0.032 C 
ATOM      8  C   UNL     1      11.675  15.006 165.553  1.00  0.00     0.014 C 
BRANCH   7   9
ATOM      9  C   UNL     1       9.786  16.681 165.499  1.00  0.00     0.044 C 
ATOM     10  O   UNL     1       9.234  17.730 165.072  1.00  0.00    -0.550 OA
ATOM     11  O   UNL     1       9.373  16.140 166.710  1.00  0.00    -0.550 OA
ENDBRANCH   7   9
ENDBRANCH   6   7
ENDBRANCH   5   6
ENDBRANCH   4   5
ENDBRANCH   3   4
ENDBRANCH   2   3
ENDBRANCH   1   2
BRANCH   1  12
ATOM     12  C   UNL     1      12.048  12.446 161.820  1.00  0.00     0.000 C 
BRANCH  12  13
ATOM     13  C   UNL     1      10.825  12.880 162.646  1.00  0.00    -0.000 C 
BRANCH  13  14
ATOM     14  C   UNL     1       9.717  13.513 161.785  1.00  0.00    -0.000 C 
BRANCH  14  15
ATOM     15  C   UNL     1       9.752  15.053 161.697  1.00  0.00    -0.000 C 
BRANCH  15  16
ATOM     16  C   UNL     1      10.064  15.619 160.300  1.00  0.00    -0.000 C 
BRANCH  16  17
ATOM     17  C   UNL     1      11.417  16.344 160.238  1.00  0.00    -0.000 C 
BRANCH  17  18
ATOM     18  C   UNL     1      11.248  17.782 159.738  1.00  0.00    -0.003 C 
ATOM     19  C   UNL     1      11.178  18.766 160.904  1.00  0.00     0.004 C 
ENDBRANCH  17  18
ENDBRANCH  16  17
ENDBRANCH  15  16
ENDBRANCH  14  15
ENDBRANCH  13  14
ENDBRANCH  12  13
ENDBRANCH   1  12
TORSDOF 14
ENDMDL
MODEL 9
REMARK VINA RESULT:    -4.975      3.595      6.044
REMARK INTER + INTRA:         -11.040
REMARK INTER:                  -8.828
REMARK INTRA:                  -2.212
REMARK UNBOUND:                -1.994
REMARK SMILES CCCCCCCCCCCCCC[C@@H](C)C(=O)[O-]
REMARK SMILES IDX 9 1 10 2 11 3 12 4 13 5 14 6 15 7 16 8 17 9 18 10 19 11 8 12
REMARK SMILES IDX 7 13 6 14 5 15 4 16 3 17 2 18 1 19
REMARK H PARENT
REMARK Flexibility Score: inf
ROOT
ATOM      1  C   UNL     1      11.349  16.900 161.234  1.00  0.00     0.000 C 
ENDROOT
BRANCH   1   2
ATOM      2  C   UNL     1      10.888  17.222 162.666  1.00  0.00     0.000 C 
BRANCH   2   3
ATOM      3  C   UNL     1      11.948  16.875 163.723  1.00  0.00     0.000 C 
BRANCH   3   4
ATOM      4  C   UNL     1      11.365  16.097 164.917  1.00  0.00     0.000 C 
BRANCH   4   5
ATOM      5  C   UNL     1       9.906  16.488 165.209  1.00  0.00     0.001 C 
BRANCH   5   6
ATOM      6  C   UNL     1       9.477  16.104 166.639  1.00  0.00     0.009 C 
BRANCH   6   7
ATOM      7  C   UNL     1       8.267  16.901 167.173  1.00  0.00     0.032 C 
ATOM      8  C   UNL     1       7.640  17.812 166.106  1.00  0.00     0.014 C 
BRANCH   7   9
ATOM      9  C   UNL     1       7.251  15.993 167.814  1.00  0.00     0.044 C 
ATOM     10  O   UNL     1       6.139  15.767 167.264  1.00  0.00    -0.550 OA
ATOM     11  O   UNL     1       7.560  15.358 169.010  1.00  0.00    -0.550 OA
ENDBRANCH   7   9
ENDBRANCH   6   7
ENDBRANCH   5   6
ENDBRANCH   4   5
ENDBRANCH   3   4
ENDBRANCH   2   3
ENDBRANCH   1   2
BRANCH   1  12
ATOM     12  C   UNL     1      10.836  15.536 160.743  1.00  0.00     0.000 C 
BRANCH  12  13
ATOM     13  C   UNL     1       9.670  15.002 161.593  1.00  0.00    -0.000 C 
BRANCH  13  14
ATOM     14  C   UNL     1       9.892  13.554 162.067  1.00  0.00    -0.000 C 
BRANCH  14  15
ATOM     15  C   UNL     1      11.320  13.007 161.862  1.00  0.00    -0.000 C 
BRANCH  15  16
ATOM     16  C   UNL     1      12.200  12.994 163.125  1.00  0.00    -0.000 C 
BRANCH  16  17
ATOM     17  C   UNL     1      13.701  13.072 162.808  1.00  0.00    -0.000 C 
BRANCH  17  18
ATOM     18  C   UNL     1      14.040  14.371 162.070  1.00  0.00    -0.003 C 
ATOM     19  C   UNL     1      14.993  15.237 162.889  1.00  0.00     0.004 C 
ENDBRANCH  17  18
ENDBRANCH  16  17
ENDBRANCH  15  16
ENDBRANCH  14  15
ENDBRANCH  13  14
ENDBRANCH  12  13
ENDBRANCH   1  12
TORSDOF 14
ENDMDL
