MODEL 1
REMARK VINA RESULT:    -4.842      0.000      0.000
REMARK INTER + INTRA:          -8.033
REMARK INTER:                  -7.389
REMARK INTRA:                  -0.644
REMARK UNBOUND:                -0.644
REMARK SMILES CCCCCCCCCCC(=O)[O-]
REMARK SMILES IDX 7 1 8 2 9 3 10 4 11 5 12 6 13 7 6 8 5 9 4 10 3 11 2 12 1 13
REMARK H PARENT
REMARK Flexibility Score: inf
ROOT
ATOM      1  C   UNL     1      15.871  18.163  36.185  1.00  0.00     0.000 C 
ENDROOT
BRANCH   1   2
ATOM      2  C   UNL     1      16.073  18.100  37.709  1.00  0.00     0.000 C 
BRANCH   2   3
ATOM      3  C   UNL     1      15.178  17.046  38.380  1.00  0.00     0.006 C 
BRANCH   3   4
ATOM      4  C   UNL     1      15.773  15.634  38.309  1.00  0.00     0.053 C 
BRANCH   4   5
ATOM      5  C   UNL     1      14.761  14.669  37.776  1.00  0.00     0.041 C 
ATOM      6  O   UNL     1      14.697  13.499  38.236  1.00  0.00    -0.550 OA
ATOM      7  O   UNL     1      13.921  15.046  36.736  1.00  0.00    -0.550 OA
ENDBRANCH   4   5
ENDBRANCH   3   4
ENDBRANCH   2   3
ENDBRANCH   1   2
BRANCH   1   8
ATOM      8  C   UNL     1      17.197  18.120  35.404  1.00  0.00     0.000 C 
BRANCH   8   9
ATOM      9  C   UNL     1      18.035  16.842  35.608  1.00  0.00    -0.000 C 
BRANCH   9  10
ATOM     10  C   UNL     1      19.234  16.683  34.653  1.00  0.00    -0.000 C 
BRANCH  10  11
ATOM     11  C   UNL     1      20.345  17.735  34.825  1.00  0.00    -0.000 C 
BRANCH  11  12
ATOM     12  C   UNL     1      20.402  18.735  33.663  1.00  0.00    -0.003 C 
ATOM     13  C   UNL     1      20.012  18.072  32.346  1.00  0.00     0.004 C 
ENDBRANCH  11  12
ENDBRANCH  10  11
ENDBRANCH   9  10
ENDBRANCH   8   9
ENDBRANCH   1   8
TORSDOF 9
ENDMDL
MODEL 2
REMARK VINA RESULT:    -4.836      1.137      1.800
REMARK INTER + INTRA:          -8.024
REMARK INTER:                  -7.341
REMARK INTRA:                  -0.683
REMARK UNBOUND:                -0.644
REMARK SMILES CCCCCCCCCCC(=O)[O-]
REMARK SMILES IDX 7 1 8 2 9 3 10 4 11 5 12 6 13 7 6 8 5 9 4 10 3 11 2 12 1 13
REMARK H PARENT
REMARK Flexibility Score: inf
ROOT
ATOM      1  C   UNL     1      16.588  17.101  35.179  1.00  0.00     0.000 C 
ENDROOT
BRANCH   1   2
ATOM      2  C   UNL     1      16.529  18.123  36.327  1.00  0.00     0.000 C 
BRANCH   2   3
ATOM      3  C   UNL     1      16.022  17.505  37.640  1.00  0.00     0.006 C 
BRANCH   3   4
ATOM      4  C   UNL     1      16.054  15.971  37.623  1.00  0.00     0.053 C 
BRANCH   4   5
ATOM      5  C   UNL     1      14.831  15.417  38.282  1.00  0.00     0.041 C 
ATOM      6  O   UNL     1      13.918  16.189  38.676  1.00  0.00    -0.550 OA
ATOM      7  O   UNL     1      14.720  14.051  38.507  1.00  0.00    -0.550 OA
ENDBRANCH   4   5
ENDBRANCH   3   4
ENDBRANCH   2   3
ENDBRANCH   1   2
BRANCH   1   8
ATOM      8  C   UNL     1      17.990  16.989  34.551  1.00  0.00     0.000 C 
BRANCH   8   9
ATOM      9  C   UNL     1      19.084  17.830  35.239  1.00  0.00    -0.000 C 
BRANCH   9  10
ATOM     10  C   UNL     1      20.088  18.509  34.286  1.00  0.00    -0.000 C 
BRANCH  10  11
ATOM     11  C   UNL     1      19.552  18.786  32.870  1.00  0.00    -0.000 C 
BRANCH  11  12
ATOM     12  C   UNL     1      20.258  17.952  31.793  1.00  0.00    -0.003 C 
ATOM     13  C   UNL     1      21.515  17.287  32.348  1.00  0.00     0.004 C 
ENDBRANCH  11  12
ENDBRANCH  10  11
ENDBRANCH   9  10
ENDBRANCH   8   9
ENDBRANCH   1   8
TORSDOF 9
ENDMDL
MODEL 3
REMARK VINA RESULT:    -4.833      3.250      6.122
REMARK INTER + INTRA:          -8.019
REMARK INTER:                  -7.053
REMARK INTRA:                  -0.966
REMARK UNBOUND:                -0.644
REMARK SMILES CCCCCCCCCCC(=O)[O-]
REMARK SMILES IDX 7 1 8 2 9 3 10 4 11 5 12 6 13 7 6 8 5 9 4 10 3 11 2 12 1 13
REMARK H PARENT
REMARK Flexibility Score: inf
ROOT
ATOM      1  C   UNL     1      16.319  17.043  35.273  1.00  0.00     0.000 C 
ENDROOT
BRANCH   1   2
ATOM      2  C   UNL     1      17.530  16.291  35.851  1.00  0.00     0.000 C 
BRANCH   2   3
ATOM      3  C   UNL     1      18.608  16.005  34.792  1.00  0.00     0.006 C 
BRANCH   3   4
ATOM      4  C   UNL     1      18.938  17.237  33.938  1.00  0.00     0.053 C 
BRANCH   4   5
ATOM      5  C   UNL     1      19.995  18.062  34.602  1.00  0.00     0.041 C 
ATOM      6  O   UNL     1      19.876  19.314  34.664  1.00  0.00    -0.550 OA
ATOM      7  O   UNL     1      21.135  17.453  35.110  1.00  0.00    -0.550 OA
ENDBRANCH   4   5
ENDBRANCH   3   4
ENDBRANCH   2   3
ENDBRANCH   1   2
BRANCH   1   8
ATOM      8  C   UNL     1      15.726  18.067  36.259  1.00  0.00     0.000 C 
BRANCH   8   9
ATOM      9  C   UNL     1      16.249  17.960  37.705  1.00  0.00    -0.000 C 
BRANCH   9  10
ATOM     10  C   UNL     1      15.161  17.815  38.788  1.00  0.00    -0.000 C 
BRANCH  10  11
ATOM     11  C   UNL     1      14.099  16.738  38.500  1.00  0.00    -0.000 C 
BRANCH  11  12
ATOM     12  C   UNL     1      14.698  15.332  38.371  1.00  0.00    -0.003 C 
ATOM     13  C   UNL     1      14.150  14.611  37.144  1.00  0.00     0.004 C 
ENDBRANCH  11  12
ENDBRANCH  10  11
ENDBRANCH   9  10
ENDBRANCH   8   9
ENDBRANCH   1   8
TORSDOF 9
ENDMDL
MODEL 4
REMARK VINA RESULT:    -4.794      3.158      5.755
REMARK INTER + INTRA:          -7.960
REMARK INTER:                  -6.933
REMARK INTRA:                  -1.027
REMARK UNBOUND:                -0.644
REMARK SMILES CCCCCCCCCCC(=O)[O-]
REMARK SMILES IDX 7 1 8 2 9 3 10 4 11 5 12 6 13 7 6 8 5 9 4 10 3 11 2 12 1 13
REMARK H PARENT
REMARK Flexibility Score: inf
ROOT
ATOM      1  C   UNL     1      16.425  18.260  36.593  1.00  0.00     0.000 C 
ENDROOT
BRANCH   1   2
ATOM      2  C   UNL     1      17.631  17.329  36.381  1.00  0.00     0.000 C 
BRANCH   2   3
ATOM      3  C   UNL     1      17.408  16.327  35.237  1.00  0.00     0.006 C 
BRANCH   3   4
ATOM      4  C   UNL     1      18.724  15.829  34.624  1.00  0.00     0.053 C 
BRANCH   4   5
ATOM      5  C   UNL     1      19.534  16.982  34.121  1.00  0.00     0.041 C 
ATOM      6  O   UNL     1      20.664  17.227  34.618  1.00  0.00    -0.550 OA
ATOM      7  O   UNL     1      19.019  17.817  33.138  1.00  0.00    -0.550 OA
ENDBRANCH   4   5
ENDBRANCH   3   4
ENDBRANCH   2   3
ENDBRANCH   1   2
BRANCH   1   8
ATOM      8  C   UNL     1      15.810  18.130  37.999  1.00  0.00     0.000 C 
BRANCH   8   9
ATOM      9  C   UNL     1      15.455  16.693  38.427  1.00  0.00    -0.000 C 
BRANCH   9  10
ATOM     10  C   UNL     1      14.016  16.246  38.100  1.00  0.00    -0.000 C 
BRANCH  10  11
ATOM     11  C   UNL     1      13.876  15.401  36.820  1.00  0.00    -0.000 C 
BRANCH  11  12
ATOM     12  C   UNL     1      13.625  16.253  35.569  1.00  0.00    -0.003 C 
ATOM     13  C   UNL     1      12.624  17.369  35.855  1.00  0.00     0.004 C 
ENDBRANCH  11  12
ENDBRANCH  10  11
ENDBRANCH   9  10
ENDBRANCH   8   9
ENDBRANCH   1   8
TORSDOF 9
ENDMDL
MODEL 5
REMARK VINA RESULT:    -4.687      3.666      6.582
REMARK INTER + INTRA:          -7.796
REMARK INTER:                  -7.231
REMARK INTRA:                  -0.565
REMARK UNBOUND:                -0.644
REMARK SMILES CCCCCCCCCCC(=O)[O-]
REMARK SMILES IDX 7 1 8 2 9 3 10 4 11 5 12 6 13 7 6 8 5 9 4 10 3 11 2 12 1 13
REMARK H PARENT
REMARK Flexibility Score: inf
ROOT
ATOM      1  C   UNL     1      17.794  17.476  34.318  1.00  0.00     0.000 C 
ENDROOT
BRANCH   1   2
ATOM      2  C   UNL     1      19.102  16.753  34.681  1.00  0.00     0.000 C 
BRANCH   2   3
ATOM      3  C   UNL     1      20.278  17.724  34.878  1.00  0.00     0.006 C 
BRANCH   3   4
ATOM      4  C   UNL     1      20.502  18.634  33.662  1.00  0.00     0.053 C 
BRANCH   4   5
ATOM      5  C   UNL     1      20.955  17.829  32.486  1.00  0.00     0.041 C 
ATOM      6  O   UNL     1      22.101  17.306  32.478  1.00  0.00    -0.550 OA
ATOM      7  O   UNL     1      20.131  17.696  31.375  1.00  0.00    -0.550 OA
ENDBRANCH   4   5
ENDBRANCH   3   4
ENDBRANCH   2   3
ENDBRANCH   1   2
BRANCH   1   8
ATOM      8  C   UNL     1      17.267  18.367  35.457  1.00  0.00     0.000 C 
BRANCH   8   9
ATOM      9  C   UNL     1      17.175  17.682  36.835  1.00  0.00    -0.000 C 
BRANCH   9  10
ATOM     10  C   UNL     1      15.894  17.986  37.636  1.00  0.00    -0.000 C 
BRANCH  10  11
ATOM     11  C   UNL     1      15.295  16.781  38.385  1.00  0.00    -0.000 C 
BRANCH  11  12
ATOM     12  C   UNL     1      15.685  15.437  37.757  1.00  0.00    -0.003 C 
ATOM     13  C   UNL     1      14.879  14.292  38.363  1.00  0.00     0.004 C 
ENDBRANCH  11  12
ENDBRANCH  10  11
ENDBRANCH   9  10
ENDBRANCH   8   9
ENDBRANCH   1   8
TORSDOF 9
ENDMDL
MODEL 6
REMARK VINA RESULT:    -4.650      1.891      2.646
REMARK INTER + INTRA:          -7.741
REMARK INTER:                  -7.150
REMARK INTRA:                  -0.592
REMARK UNBOUND:                -0.644
REMARK SMILES CCCCCCCCCCC(=O)[O-]
REMARK SMILES IDX 7 1 8 2 9 3 10 4 11 5 12 6 13 7 6 8 5 9 4 10 3 11 2 12 1 13
REMARK H PARENT
REMARK Flexibility Score: inf
ROOT
ATOM      1  C   UNL     1      18.192  16.425  35.540  1.00  0.00     0.000 C 
ENDROOT
BRANCH   1   2
ATOM      2  C   UNL     1      16.981  16.413  36.489  1.00  0.00     0.000 C 
BRANCH   2   3
ATOM      3  C   UNL     1      16.604  17.820  36.981  1.00  0.00     0.006 C 
BRANCH   3   4
ATOM      4  C   UNL     1      15.739  17.790  38.249  1.00  0.00     0.053 C 
BRANCH   4   5
ATOM      5  C   UNL     1      14.309  17.525  37.897  1.00  0.00     0.041 C 
ATOM      6  O   UNL     1      13.552  16.943  38.717  1.00  0.00    -0.550 OA
ATOM      7  O   UNL     1      13.825  17.877  36.644  1.00  0.00    -0.550 OA
ENDBRANCH   4   5
ENDBRANCH   3   4
ENDBRANCH   2   3
ENDBRANCH   1   2
BRANCH   1   8
ATOM      8  C   UNL     1      18.422  17.798  34.883  1.00  0.00     0.000 C 
BRANCH   8   9
ATOM      9  C   UNL     1      18.387  17.800  33.342  1.00  0.00    -0.000 C 
BRANCH   9  10
ATOM     10  C   UNL     1      19.664  18.324  32.656  1.00  0.00    -0.000 C 
BRANCH  10  11
ATOM     11  C   UNL     1      20.560  17.236  32.037  1.00  0.00    -0.000 C 
BRANCH  11  12
ATOM     12  C   UNL     1      21.904  17.090  32.763  1.00  0.00    -0.003 C 
ATOM     13  C   UNL     1      21.757  16.251  34.029  1.00  0.00     0.004 C 
ENDBRANCH  11  12
ENDBRANCH  10  11
ENDBRANCH   9  10
ENDBRANCH   8   9
ENDBRANCH   1   8
TORSDOF 9
ENDMDL
MODEL 7
REMARK VINA RESULT:    -4.623      3.654      6.243
REMARK INTER + INTRA:          -7.699
REMARK INTER:                  -6.914
REMARK INTRA:                  -0.785
REMARK UNBOUND:                -0.644
REMARK SMILES CCCCCCCCCCC(=O)[O-]
REMARK SMILES IDX 7 1 8 2 9 3 10 4 11 5 12 6 13 7 6 8 5 9 4 10 3 11 2 12 1 13
REMARK H PARENT
REMARK Flexibility Score: inf
ROOT
ATOM      1  C   UNL     1      16.547  17.410  35.066  1.00  0.00     0.000 C 
ENDROOT
BRANCH   1   2
ATOM      2  C   UNL     1      17.882  17.580  34.321  1.00  0.00     0.000 C 
BRANCH   2   3
ATOM      3  C   UNL     1      19.078  17.720  35.277  1.00  0.00     0.006 C 
BRANCH   3   4
ATOM      4  C   UNL     1      20.272  18.434  34.629  1.00  0.00     0.053 C 
BRANCH   4   5
ATOM      5  C   UNL     1      21.372  17.460  34.351  1.00  0.00     0.041 C 
ATOM      6  O   UNL     1      21.123  16.229  34.269  1.00  0.00    -0.550 OA
ATOM      7  O   UNL     1      22.682  17.906  34.229  1.00  0.00    -0.550 OA
ENDBRANCH   4   5
ENDBRANCH   3   4
ENDBRANCH   2   3
ENDBRANCH   1   2
BRANCH   1   8
ATOM      8  C   UNL     1      16.310  18.504  36.123  1.00  0.00     0.000 C 
BRANCH   8   9
ATOM      9  C   UNL     1      16.126  17.991  37.565  1.00  0.00    -0.000 C 
BRANCH   9  10
ATOM     10  C   UNL     1      15.881  16.474  37.697  1.00  0.00    -0.000 C 
BRANCH  10  11
ATOM     11  C   UNL     1      14.407  16.068  37.876  1.00  0.00    -0.000 C 
BRANCH  11  12
ATOM     12  C   UNL     1      13.789  15.492  36.595  1.00  0.00    -0.003 C 
ATOM     13  C   UNL     1      13.061  16.573  35.801  1.00  0.00     0.004 C 
ENDBRANCH  11  12
ENDBRANCH  10  11
ENDBRANCH   9  10
ENDBRANCH   8   9
ENDBRANCH   1   8
TORSDOF 9
ENDMDL
MODEL 8
REMARK VINA RESULT:    -4.616      1.238      1.520
REMARK INTER + INTRA:          -7.689
REMARK INTER:                  -7.113
REMARK INTRA:                  -0.576
REMARK UNBOUND:                -0.644
REMARK SMILES CCCCCCCCCCC(=O)[O-]
REMARK SMILES IDX 7 1 8 2 9 3 10 4 11 5 12 6 13 7 6 8 5 9 4 10 3 11 2 12 1 13
REMARK H PARENT
REMARK Flexibility Score: inf
ROOT
ATOM      1  C   UNL     1      17.186  17.726  36.517  1.00  0.00     0.000 C 
ENDROOT
BRANCH   1   2
ATOM      2  C   UNL     1      16.106  17.963  37.586  1.00  0.00     0.000 C 
BRANCH   2   3
ATOM      3  C   UNL     1      15.681  16.666  38.293  1.00  0.00     0.006 C 
BRANCH   3   4
ATOM      4  C   UNL     1      14.157  16.536  38.424  1.00  0.00     0.053 C 
BRANCH   4   5
ATOM      5  C   UNL     1      13.559  16.096  37.125  1.00  0.00     0.041 C 
ATOM      6  O   UNL     1      13.929  15.019  36.589  1.00  0.00    -0.550 OA
ATOM      7  O   UNL     1      12.627  16.900  36.481  1.00  0.00    -0.550 OA
ENDBRANCH   4   5
ENDBRANCH   3   4
ENDBRANCH   2   3
ENDBRANCH   1   2
BRANCH   1   8
ATOM      8  C   UNL     1      17.250  16.261  36.047  1.00  0.00     0.000 C 
BRANCH   8   9
ATOM      9  C   UNL     1      18.402  15.935  35.076  1.00  0.00    -0.000 C 
BRANCH   9  10
ATOM     10  C   UNL     1      19.091  17.159  34.441  1.00  0.00    -0.000 C 
BRANCH  10  11
ATOM     11  C   UNL     1      20.630  17.139  34.499  1.00  0.00    -0.000 C 
BRANCH  11  12
ATOM     12  C   UNL     1      21.280  17.335  33.123  1.00  0.00    -0.003 C 
ATOM     13  C   UNL     1      20.225  17.520  32.037  1.00  0.00     0.004 C 
ENDBRANCH  11  12
ENDBRANCH  10  11
ENDBRANCH   9  10
ENDBRANCH   8   9
ENDBRANCH   1   8
TORSDOF 9
ENDMDL
MODEL 9
REMARK VINA RESULT:    -4.566      8.433      9.809
REMARK INTER + INTRA:          -7.612
REMARK INTER:                  -6.755
REMARK INTRA:                  -0.856
REMARK UNBOUND:                -0.644
REMARK SMILES CCCCCCCCCCC(=O)[O-]
REMARK SMILES IDX 7 1 8 2 9 3 10 4 11 5 12 6 13 7 6 8 5 9 4 10 3 11 2 12 1 13
REMARK H PARENT
REMARK Flexibility Score: inf
ROOT
ATOM      1  C   UNL     1       9.848  18.973  32.157  1.00  0.00     0.000 C 
ENDROOT
BRANCH   1   2
ATOM      2  C   UNL     1       9.453  18.044  33.318  1.00  0.00     0.000 C 
BRANCH   2   3
ATOM      3  C   UNL     1       8.297  18.609  34.159  1.00  0.00     0.006 C 
BRANCH   3   4
ATOM      4  C   UNL     1       7.875  17.666  35.294  1.00  0.00     0.053 C 
BRANCH   4   5
ATOM      5  C   UNL     1       8.474  18.111  36.591  1.00  0.00     0.041 C 
ATOM      6  O   UNL     1       9.424  17.465  37.105  1.00  0.00    -0.550 OA
ATOM      7  O   UNL     1       7.949  19.211  37.257  1.00  0.00    -0.550 OA
ENDBRANCH   4   5
ENDBRANCH   3   4
ENDBRANCH   2   3
ENDBRANCH   1   2
BRANCH   1   8
ATOM      8  C   UNL     1       9.001  18.742  30.892  1.00  0.00     0.000 C 
BRANCH   8   9
ATOM      9  C   UNL     1       8.355  20.008  30.297  1.00  0.00    -0.000 C 
BRANCH   9  10
ATOM     10  C   UNL     1       7.970  21.094  31.322  1.00  0.00    -0.000 C 
BRANCH  10  11
ATOM     11  C   UNL     1       8.511  22.501  31.011  1.00  0.00    -0.000 C 
BRANCH  11  12
ATOM     12  C   UNL     1       9.247  23.133  32.200  1.00  0.00    -0.003 C 
ATOM     13  C   UNL     1       9.032  22.321  33.474  1.00  0.00     0.004 C 
ENDBRANCH  11  12
ENDBRANCH  10  11
ENDBRANCH   9  10
ENDBRANCH   8   9
ENDBRANCH   1   8
TORSDOF 9
ENDMDL
