MODEL 1
REMARK VINA RESULT:    -4.572      0.000      0.000
REMARK INTER + INTRA:          -6.779
REMARK INTER:                  -5.641
REMARK INTRA:                  -1.137
REMARK UNBOUND:                -1.137
REMARK SMILES CC(C)=CCC[C@H](C)c1ccc(C)cc1
REMARK SMILES IDX 6 1 7 2 8 3 9 4 13 5 12 6 11 7 14 8 10 9 15 10 5 11 4 12
REMARK SMILES IDX 2 13 1 14 3 15
REMARK H PARENT
REMARK Flexibility Score: inf
ROOT
ATOM      1  C   UNL     1      -5.233 -10.125  12.046  1.00  0.00     0.012 C 
ENDROOT
BRANCH   1   2
ATOM      2  C   UNL     1      -4.489  -9.222  13.059  1.00  0.00     0.016 C 
ATOM      3  C   UNL     1      -4.848  -7.737  12.901  1.00  0.00     0.013 C 
BRANCH   2   4
ATOM      4  C   UNL     1      -2.989  -9.419  12.933  1.00  0.00    -0.045 A 
ATOM      5  C   UNL     1       1.283  -9.977  12.608  1.00  0.00     0.044 C 
ATOM      6  C   UNL     1      -0.204  -9.814  12.721  1.00  0.00    -0.051 A 
ATOM      7  C   UNL     1      -0.993  -9.710  11.567  1.00  0.00     0.004 A 
ATOM      8  C   UNL     1      -0.809  -9.697  13.980  1.00  0.00     0.004 A 
ATOM      9  C   UNL     1      -2.375  -9.522  11.670  1.00  0.00     0.004 A 
ATOM     10  C   UNL     1      -2.190  -9.508  14.087  1.00  0.00     0.004 A 
ENDBRANCH   2   4
ENDBRANCH   1   2
BRANCH   1  11
ATOM     11  C   UNL     1      -5.988  -9.343  10.951  1.00  0.00     0.028 C 
BRANCH  11  12
ATOM     12  C   UNL     1      -5.530  -9.715   9.560  1.00  0.00    -0.028 C 
ATOM     13  C   UNL     1      -4.792  -8.915   8.759  1.00  0.00    -0.080 C 
ATOM     14  C   UNL     1      -4.303  -7.558   9.209  1.00  0.00     0.039 C 
ATOM     15  C   UNL     1      -4.425  -9.418   7.386  1.00  0.00     0.039 C 
ENDBRANCH  11  12
ENDBRANCH   1  11
TORSDOF 4
ENDMDL
MODEL 2
REMARK VINA RESULT:    -4.538      1.076      2.097
REMARK INTER + INTRA:          -6.737
REMARK INTER:                  -5.790
REMARK INTRA:                  -0.947
REMARK UNBOUND:                -1.137
REMARK SMILES CC(C)=CCC[C@H](C)c1ccc(C)cc1
REMARK SMILES IDX 6 1 7 2 8 3 9 4 13 5 12 6 11 7 14 8 10 9 15 10 5 11 4 12
REMARK SMILES IDX 2 13 1 14 3 15
REMARK H PARENT
REMARK Flexibility Score: inf
ROOT
ATOM      1  C   UNL     1      -4.689  -7.933  10.927  1.00  0.00     0.012 C 
ENDROOT
BRANCH   1   2
ATOM      2  C   UNL     1      -4.401  -9.414  11.271  1.00  0.00     0.016 C 
ATOM      3  C   UNL     1      -5.532 -10.061  12.085  1.00  0.00     0.013 C 
BRANCH   2   4
ATOM      4  C   UNL     1      -3.082  -9.532  12.013  1.00  0.00    -0.045 A 
ATOM      5  C   UNL     1       0.687  -9.874  14.097  1.00  0.00     0.044 C 
ATOM      6  C   UNL     1      -0.619  -9.724  13.374  1.00  0.00    -0.051 A 
ATOM      7  C   UNL     1      -1.820  -9.647  14.094  1.00  0.00     0.004 A 
ATOM      8  C   UNL     1      -0.655  -9.729  11.973  1.00  0.00     0.004 A 
ATOM      9  C   UNL     1      -3.041  -9.544  13.421  1.00  0.00     0.004 A 
ATOM     10  C   UNL     1      -1.876  -9.626  11.298  1.00  0.00     0.004 A 
ENDBRANCH   2   4
ENDBRANCH   1   2
BRANCH   1  11
ATOM     11  C   UNL     1      -4.320  -7.546   9.480  1.00  0.00     0.028 C 
BRANCH  11  12
ATOM     12  C   UNL     1      -5.156  -8.279   8.458  1.00  0.00    -0.028 C 
ATOM     13  C   UNL     1      -4.698  -9.276   7.667  1.00  0.00    -0.080 C 
ATOM     14  C   UNL     1      -3.282  -9.794   7.768  1.00  0.00     0.039 C 
ATOM     15  C   UNL     1      -5.650  -9.902   6.680  1.00  0.00     0.039 C 
ENDBRANCH  11  12
ENDBRANCH   1  11
TORSDOF 4
ENDMDL
MODEL 3
REMARK VINA RESULT:    -4.337      1.011      5.122
REMARK INTER + INTRA:          -6.489
REMARK INTER:                  -5.646
REMARK INTRA:                  -0.843
REMARK UNBOUND:                -1.137
REMARK SMILES CC(C)=CCC[C@H](C)c1ccc(C)cc1
REMARK SMILES IDX 6 1 7 2 8 3 9 4 13 5 12 6 11 7 14 8 10 9 15 10 5 11 4 12
REMARK SMILES IDX 2 13 1 14 3 15
REMARK H PARENT
REMARK Flexibility Score: inf
ROOT
ATOM      1  C   UNL     1      -4.048  -8.195  13.782  1.00  0.00     0.012 C 
ENDROOT
BRANCH   1   2
ATOM      2  C   UNL     1      -5.427  -7.986  13.110  1.00  0.00     0.016 C 
ATOM      3  C   UNL     1      -6.540  -8.807  13.777  1.00  0.00     0.013 C 
BRANCH   2   4
ATOM      4  C   UNL     1      -5.343  -8.315  11.630  1.00  0.00    -0.045 A 
ATOM      5  C   UNL     1      -5.123  -9.278   7.424  1.00  0.00     0.044 C 
ATOM      6  C   UNL     1      -5.224  -8.924   8.878  1.00  0.00    -0.051 A 
ATOM      7  C   UNL     1      -4.476  -7.859   9.399  1.00  0.00     0.004 A 
ATOM      8  C   UNL     1      -6.013  -9.697   9.740  1.00  0.00     0.004 A 
ATOM      9  C   UNL     1      -4.539  -7.551  10.762  1.00  0.00     0.004 A 
ATOM     10  C   UNL     1      -6.078  -9.392  11.104  1.00  0.00     0.004 A 
ENDBRANCH   2   4
ENDBRANCH   1   2
BRANCH   1  11
ATOM     11  C   UNL     1      -3.507  -9.634  13.659  1.00  0.00     0.028 C 
BRANCH  11  12
ATOM     12  C   UNL     1      -2.278  -9.714  12.783  1.00  0.00    -0.028 C 
ATOM     13  C   UNL     1      -1.008  -9.703  13.246  1.00  0.00    -0.080 C 
ATOM     14  C   UNL     1      -0.691  -9.657  14.723  1.00  0.00     0.039 C 
ATOM     15  C   UNL     1       0.118  -9.771  12.247  1.00  0.00     0.039 C 
ENDBRANCH  11  12
ENDBRANCH   1  11
TORSDOF 4
ENDMDL
MODEL 4
REMARK VINA RESULT:    -4.331      1.306      5.131
REMARK INTER + INTRA:          -6.481
REMARK INTER:                  -5.225
REMARK INTRA:                  -1.255
REMARK UNBOUND:                -1.137
REMARK SMILES CC(C)=CCC[C@H](C)c1ccc(C)cc1
REMARK SMILES IDX 6 1 7 2 8 3 9 4 13 5 12 6 11 7 14 8 10 9 15 10 5 11 4 12
REMARK SMILES IDX 2 13 1 14 3 15
REMARK H PARENT
REMARK Flexibility Score: inf
ROOT
ATOM      1  C   UNL     1      -2.624  -8.872   9.826  1.00  0.00     0.012 C 
ENDROOT
BRANCH   1   2
ATOM      2  C   UNL     1      -4.159  -8.768   9.662  1.00  0.00     0.016 C 
ATOM      3  C   UNL     1      -4.590  -7.494   8.921  1.00  0.00     0.013 C 
BRANCH   2   4
ATOM      4  C   UNL     1      -4.837  -8.844  11.019  1.00  0.00    -0.045 A 
ATOM      5  C   UNL     1      -6.749  -9.033  14.888  1.00  0.00     0.044 C 
ATOM      6  C   UNL     1      -6.110  -8.952  13.534  1.00  0.00    -0.051 A 
ATOM      7  C   UNL     1      -6.291  -9.987  12.604  1.00  0.00     0.004 A 
ATOM      8  C   UNL     1      -5.273  -7.876  13.210  1.00  0.00     0.004 A 
ATOM      9  C   UNL     1      -5.667  -9.931  11.355  1.00  0.00     0.004 A 
ATOM     10  C   UNL     1      -4.647  -7.818  11.961  1.00  0.00     0.004 A 
ENDBRANCH   2   4
ENDBRANCH   1   2
BRANCH   1  11
ATOM     11  C   UNL     1      -2.165 -10.108  10.628  1.00  0.00     0.028 C 
BRANCH  11  12
ATOM     12  C   UNL     1      -0.999  -9.801  11.539  1.00  0.00    -0.028 C 
ATOM     13  C   UNL     1      -1.069  -9.781  12.888  1.00  0.00    -0.080 C 
ATOM     14  C   UNL     1      -2.341 -10.119  13.632  1.00  0.00     0.039 C 
ATOM     15  C   UNL     1       0.177  -9.440  13.665  1.00  0.00     0.039 C 
ENDBRANCH  11  12
ENDBRANCH   1  11
TORSDOF 4
ENDMDL
MODEL 5
REMARK VINA RESULT:    -4.225      1.869      5.512
REMARK INTER + INTRA:          -6.350
REMARK INTER:                  -5.555
REMARK INTRA:                  -0.795
REMARK UNBOUND:                -1.137
REMARK SMILES CC(C)=CCC[C@H](C)c1ccc(C)cc1
REMARK SMILES IDX 6 1 7 2 8 3 9 4 13 5 12 6 11 7 14 8 10 9 15 10 5 11 4 12
REMARK SMILES IDX 2 13 1 14 3 15
REMARK H PARENT
REMARK Flexibility Score: inf
ROOT
ATOM      1  C   UNL     1      -4.180  -8.513  12.131  1.00  0.00     0.012 C 
ENDROOT
BRANCH   1   2
ATOM      2  C   UNL     1      -3.609  -9.717  11.344  1.00  0.00     0.016 C 
ATOM      3  C   UNL     1      -2.073  -9.740  11.331  1.00  0.00     0.013 C 
BRANCH   2   4
ATOM      4  C   UNL     1      -4.149  -9.719   9.925  1.00  0.00    -0.045 A 
ATOM      5  C   UNL     1      -5.715  -9.719   5.898  1.00  0.00     0.044 C 
ATOM      6  C   UNL     1      -5.163  -9.689   7.293  1.00  0.00    -0.051 A 
ATOM      7  C   UNL     1      -3.828 -10.043   7.532  1.00  0.00     0.004 A 
ATOM      8  C   UNL     1      -5.995  -9.372   8.376  1.00  0.00     0.004 A 
ATOM      9  C   UNL     1      -3.322 -10.052   8.835  1.00  0.00     0.004 A 
ATOM     10  C   UNL     1      -5.491  -9.380   9.681  1.00  0.00     0.004 A 
ENDBRANCH   2   4
ENDBRANCH   1   2
BRANCH   1  11
ATOM     11  C   UNL     1      -4.615  -8.859  13.571  1.00  0.00     0.028 C 
BRANCH  11  12
ATOM     12  C   UNL     1      -5.926  -8.210  13.946  1.00  0.00    -0.028 C 
ATOM     13  C   UNL     1      -7.143  -8.735  13.679  1.00  0.00    -0.080 C 
ATOM     14  C   UNL     1      -7.308 -10.077  13.004  1.00  0.00     0.039 C 
ATOM     15  C   UNL     1      -8.365  -7.961  14.102  1.00  0.00     0.039 C 
ENDBRANCH  11  12
ENDBRANCH   1  11
TORSDOF 4
ENDMDL
MODEL 6
REMARK VINA RESULT:    -4.207     15.170     16.426
REMARK INTER + INTRA:          -6.329
REMARK INTER:                  -5.571
REMARK INTRA:                  -0.758
REMARK UNBOUND:                -1.137
REMARK SMILES CC(C)=CCC[C@H](C)c1ccc(C)cc1
REMARK SMILES IDX 6 1 7 2 8 3 9 4 13 5 12 6 11 7 14 8 10 9 15 10 5 11 4 12
REMARK SMILES IDX 2 13 1 14 3 15
REMARK H PARENT
REMARK Flexibility Score: inf
ROOT
ATOM      1  C   UNL     1       1.053   7.262   9.955  1.00  0.00     0.012 C 
ENDROOT
BRANCH   1   2
ATOM      2  C   UNL     1       2.015   7.036   8.764  1.00  0.00     0.016 C 
ATOM      3  C   UNL     1       1.271   6.806   7.440  1.00  0.00     0.013 C 
BRANCH   2   4
ATOM      4  C   UNL     1       2.946   5.873   9.056  1.00  0.00    -0.045 A 
ATOM      5  C   UNL     1       5.601   2.575   9.915  1.00  0.00     0.044 C 
ATOM      6  C   UNL     1       4.655   3.703   9.625  1.00  0.00    -0.051 A 
ATOM      7  C   UNL     1       4.133   3.872   8.335  1.00  0.00     0.004 A 
ATOM      8  C   UNL     1       4.338   4.634  10.623  1.00  0.00     0.004 A 
ATOM      9  C   UNL     1       3.280   4.943   8.053  1.00  0.00     0.004 A 
ATOM     10  C   UNL     1       3.485   5.707  10.344  1.00  0.00     0.004 A 
ENDBRANCH   2   4
ENDBRANCH   1   2
BRANCH   1  11
ATOM     11  C   UNL     1      -0.301   6.535   9.810  1.00  0.00     0.028 C 
BRANCH  11  12
ATOM     12  C   UNL     1      -1.475   7.476   9.942  1.00  0.00    -0.028 C 
ATOM     13  C   UNL     1      -2.451   7.615   9.017  1.00  0.00    -0.080 C 
ATOM     14  C   UNL     1      -2.484   6.787   7.753  1.00  0.00     0.039 C 
ATOM     15  C   UNL     1      -3.552   8.610   9.282  1.00  0.00     0.039 C 
ENDBRANCH  11  12
ENDBRANCH   1  11
TORSDOF 4
ENDMDL
MODEL 7
REMARK VINA RESULT:    -4.181     10.300     12.884
REMARK INTER + INTRA:          -6.296
REMARK INTER:                  -5.507
REMARK INTRA:                  -0.790
REMARK UNBOUND:                -1.137
REMARK SMILES CC(C)=CCC[C@H](C)c1ccc(C)cc1
REMARK SMILES IDX 6 1 7 2 8 3 9 4 13 5 12 6 11 7 14 8 10 9 15 10 5 11 4 12
REMARK SMILES IDX 2 13 1 14 3 15
REMARK H PARENT
REMARK Flexibility Score: inf
ROOT
ATOM      1  C   UNL     1      -5.659  -5.464  22.399  1.00  0.00     0.012 C 
ENDROOT
BRANCH   1   2
ATOM      2  C   UNL     1      -7.121  -5.479  21.891  1.00  0.00     0.016 C 
ATOM      3  C   UNL     1      -7.292  -6.306  20.608  1.00  0.00     0.013 C 
BRANCH   2   4
ATOM      4  C   UNL     1      -7.614  -4.060  21.674  1.00  0.00    -0.045 A 
ATOM      5  C   UNL     1      -9.001  -0.011  21.081  1.00  0.00     0.044 C 
ATOM      6  C   UNL     1      -8.498  -1.412  21.265  1.00  0.00    -0.051 A 
ATOM      7  C   UNL     1      -9.059  -2.466  20.530  1.00  0.00     0.004 A 
ATOM      8  C   UNL     1      -7.511  -1.689  22.220  1.00  0.00     0.004 A 
ATOM      9  C   UNL     1      -8.617  -3.778  20.726  1.00  0.00     0.004 A 
ATOM     10  C   UNL     1      -7.067  -3.000  22.418  1.00  0.00     0.004 A 
ENDBRANCH   2   4
ENDBRANCH   1   2
BRANCH   1  11
ATOM     11  C   UNL     1      -5.316  -6.633  23.346  1.00  0.00     0.028 C 
BRANCH  11  12
ATOM     12  C   UNL     1      -4.535  -7.724  22.653  1.00  0.00    -0.028 C 
ATOM     13  C   UNL     1      -5.033  -8.942  22.344  1.00  0.00    -0.080 C 
ATOM     14  C   UNL     1      -6.468  -9.320  22.629  1.00  0.00     0.039 C 
ATOM     15  C   UNL     1      -4.124  -9.936  21.666  1.00  0.00     0.039 C 
ENDBRANCH  11  12
ENDBRANCH   1  11
TORSDOF 4
ENDMDL
MODEL 8
REMARK VINA RESULT:    -4.081     11.139     13.728
REMARK INTER + INTRA:          -6.173
REMARK INTER:                  -5.070
REMARK INTRA:                  -1.103
REMARK UNBOUND:                -1.137
REMARK SMILES CC(C)=CCC[C@H](C)c1ccc(C)cc1
REMARK SMILES IDX 6 1 7 2 8 3 9 4 13 5 12 6 11 7 14 8 10 9 15 10 5 11 4 12
REMARK SMILES IDX 2 13 1 14 3 15
REMARK H PARENT
REMARK Flexibility Score: inf
ROOT
ATOM      1  C   UNL     1      -8.019  -0.554  21.132  1.00  0.00     0.012 C 
ENDROOT
BRANCH   1   2
ATOM      2  C   UNL     1      -7.681  -1.516  22.296  1.00  0.00     0.016 C 
ATOM      3  C   UNL     1      -6.391  -1.123  23.032  1.00  0.00     0.013 C 
BRANCH   2   4
ATOM      4  C   UNL     1      -7.583  -2.942  21.784  1.00  0.00    -0.045 A 
ATOM      5  C   UNL     1      -7.328  -6.995  20.307  1.00  0.00     0.044 C 
ATOM      6  C   UNL     1      -7.394  -5.579  20.800  1.00  0.00    -0.051 A 
ATOM      7  C   UNL     1      -6.615  -5.175  21.894  1.00  0.00     0.004 A 
ATOM      8  C   UNL     1      -8.283  -4.668  20.215  1.00  0.00     0.004 A 
ATOM      9  C   UNL     1      -6.702  -3.867  22.378  1.00  0.00     0.004 A 
ATOM     10  C   UNL     1      -8.372  -3.358  20.697  1.00  0.00     0.004 A 
ENDBRANCH   2   4
ENDBRANCH   1   2
BRANCH   1  11
ATOM     11  C   UNL     1      -9.418   0.089  21.242  1.00  0.00     0.028 C 
BRANCH  11  12
ATOM     12  C   UNL     1     -10.226  -0.483  22.383  1.00  0.00    -0.028 C 
ATOM     13  C   UNL     1     -11.284  -1.310  22.230  1.00  0.00    -0.080 C 
ATOM     14  C   UNL     1     -11.741  -1.788  20.871  1.00  0.00     0.039 C 
ATOM     15  C   UNL     1     -12.004  -1.787  23.466  1.00  0.00     0.039 C 
ENDBRANCH  11  12
ENDBRANCH   1  11
TORSDOF 4
ENDMDL
