MODEL 1
REMARK VINA RESULT:    -6.888      0.000      0.000
REMARK INTER + INTRA:         -11.828
REMARK INTER:                 -10.109
REMARK INTRA:                  -1.720
REMARK UNBOUND:                -1.720
REMARK SMILES O=c1c(O[C@@H]2O[C@@H](CO)[C@@H](O)[C@H](O)[C@H]2O)c(-c2ccc(O)c(O)c2)oc2cc(O)cc(O)c12
REMARK SMILES IDX 4 1 3 2 16 3 25 4 2 5 26 6 1 7 33 8 27 9 31 10 28 11 30 12
REMARK SMILES IDX 17 13 18 14 19 15 20 16 24 17 22 18 21 19 23 21 32 23 29 25
REMARK SMILES IDX 5 27 14 28 6 29 12 30 7 31 10 32 15 33 13 35 8 37 9 38 11 40
REMARK H PARENT 21 20 23 22 32 24 29 26 15 34 13 36 9 39 11 41
REMARK Flexibility Score: inf
ROOT
ATOM      1  O   UNL     1     -38.040   5.328  81.435  1.00  0.00    -0.454 OA
ENDROOT
BRANCH   1   2
ATOM      2  C   UNL     1     -38.926   4.814  80.456  1.00  0.00     0.214 A 
ATOM      3  C   UNL     1     -38.478   4.717  79.117  1.00  0.00     0.180 A 
ATOM      4  O   UNL     1     -39.239   4.134  78.196  1.00  0.00    -0.452 OA
ATOM      5  C   UNL     1     -40.227   4.337  80.759  1.00  0.00     0.239 A 
ATOM      6  C   UNL     1     -40.455   3.663  78.447  1.00  0.00     0.146 A 
ATOM      7  O   UNL     1     -40.632   4.331  81.946  1.00  0.00    -0.285 OA
ATOM      8  C   UNL     1     -41.037   3.796  79.732  1.00  0.00     0.111 A 
ATOM      9  C   UNL     1     -41.148   3.036  77.406  1.00  0.00     0.094 A 
ATOM     10  C   UNL     1     -42.377   3.333  79.922  1.00  0.00     0.134 A 
ATOM     11  C   UNL     1     -42.421   2.517  77.622  1.00  0.00     0.123 A 
ATOM     12  C   UNL     1     -43.032   2.669  78.872  1.00  0.00     0.093 A 
BRANCH   3  13
ATOM     13  C   UNL     1     -37.184   5.269  78.670  1.00  0.00     0.025 A 
ATOM     14  C   UNL     1     -37.135   6.537  78.074  1.00  0.00     0.016 A 
ATOM     15  C   UNL     1     -35.908   7.143  77.798  1.00  0.00     0.051 A 
ATOM     16  C   UNL     1     -34.709   6.496  78.137  1.00  0.00     0.157 A 
ATOM     17  C   UNL     1     -35.981   4.629  79.007  1.00  0.00     0.062 A 
ATOM     18  C   UNL     1     -34.751   5.234  78.742  1.00  0.00     0.158 A 
BRANCH  16  19
ATOM     19  O   UNL     1     -33.486   7.114  77.895  1.00  0.00    -0.504 OA
ATOM     20  H   UNL     1     -33.109   7.814  78.520  1.00  0.00     0.293 HD
ENDBRANCH  16  19
BRANCH  18  21
ATOM     21  O   UNL     1     -33.581   4.568  79.114  1.00  0.00    -0.504 OA
ATOM     22  H   UNL     1     -33.346   4.387  80.077  1.00  0.00     0.293 HD
ENDBRANCH  18  21
ENDBRANCH   3  13
BRANCH  10  23
ATOM     23  O   UNL     1     -43.127   3.543  81.084  1.00  0.00    -0.507 OA
ATOM     24  H   UNL     1     -44.123   3.694  81.109  1.00  0.00     0.293 HD
ENDBRANCH  10  23
BRANCH  11  25
ATOM     25  O   UNL     1     -43.077   1.852  76.591  1.00  0.00    -0.508 OA
ATOM     26  H   UNL     1     -44.043   2.069  76.360  1.00  0.00     0.293 HD
ENDBRANCH  11  25
ENDBRANCH   1   2
BRANCH   1  27
ATOM     27  C   UNL     1     -38.108   6.618  82.065  1.00  0.00     0.339 C 
ATOM     28  C   UNL     1     -38.047   6.528  83.593  1.00  0.00     0.214 C 
ATOM     29  O   UNL     1     -37.106   7.493  81.587  1.00  0.00    -0.332 OA
ATOM     30  C   UNL     1     -36.701   5.952  84.034  1.00  0.00     0.180 C 
ATOM     31  C   UNL     1     -35.790   7.025  81.857  1.00  0.00     0.179 C 
ATOM     32  C   UNL     1     -35.525   6.695  83.366  1.00  0.00     0.177 C 
BRANCH  28  33
ATOM     33  O   UNL     1     -38.177   7.828  84.114  1.00  0.00    -0.384 OA
ATOM     34  H   UNL     1     -37.271   8.229  84.160  1.00  0.00     0.211 HD
ENDBRANCH  28  33
BRANCH  30  35
ATOM     35  O   UNL     1     -36.661   4.580  83.732  1.00  0.00    -0.387 OA
ATOM     36  H   UNL     1     -35.799   4.227  84.070  1.00  0.00     0.211 HD
ENDBRANCH  30  35
BRANCH  31  37
ATOM     37  C   UNL     1     -34.782   8.067  81.294  1.00  0.00     0.191 C 
BRANCH  37  38
ATOM     38  O   UNL     1     -33.445   7.629  81.414  1.00  0.00    -0.394 OA
ATOM     39  H   UNL     1     -33.319   6.867  80.793  1.00  0.00     0.210 HD
ENDBRANCH  37  38
ENDBRANCH  31  37
BRANCH  32  40
ATOM     40  O   UNL     1     -35.260   7.863  84.103  1.00  0.00    -0.387 OA
ATOM     41  H   UNL     1     -35.105   8.594  83.448  1.00  0.00     0.211 HD
ENDBRANCH  32  40
ENDBRANCH   1  27
TORSDOF 12
ENDMDL
MODEL 2
REMARK VINA RESULT:    -6.381     10.834     14.690
REMARK INTER + INTRA:         -11.085
REMARK INTER:                  -9.797
REMARK INTRA:                  -1.288
REMARK UNBOUND:                -1.720
REMARK SMILES O=c1c(O[C@@H]2O[C@@H](CO)[C@@H](O)[C@H](O)[C@H]2O)c(-c2ccc(O)c(O)c2)oc2cc(O)cc(O)c12
REMARK SMILES IDX 4 1 3 2 16 3 25 4 2 5 26 6 1 7 33 8 27 9 31 10 28 11 30 12
REMARK SMILES IDX 17 13 18 14 19 15 20 16 24 17 22 18 21 19 23 21 32 23 29 25
REMARK SMILES IDX 5 27 14 28 6 29 12 30 7 31 10 32 15 33 13 35 8 37 9 38 11 40
REMARK H PARENT 21 20 23 22 32 24 29 26 15 34 13 36 9 39 11 41
REMARK Flexibility Score: inf
ROOT
ATOM      1  O   UNL     1     -48.037   3.560  70.495  1.00  0.00    -0.454 OA
ENDROOT
BRANCH   1   2
ATOM      2  C   UNL     1     -48.027   2.297  69.855  1.00  0.00     0.214 A 
ATOM      3  C   UNL     1     -47.645   1.158  70.603  1.00  0.00     0.180 A 
ATOM      4  O   UNL     1     -47.735  -0.056  70.069  1.00  0.00    -0.452 OA
ATOM      5  C   UNL     1     -48.437   2.104  68.511  1.00  0.00     0.239 A 
ATOM      6  C   UNL     1     -48.127  -0.275  68.820  1.00  0.00     0.146 A 
ATOM      7  O   UNL     1     -48.858   3.075  67.838  1.00  0.00    -0.285 OA
ATOM      8  C   UNL     1     -48.441   0.802  67.955  1.00  0.00     0.111 A 
ATOM      9  C   UNL     1     -48.219  -1.600  68.378  1.00  0.00     0.094 A 
ATOM     10  C   UNL     1     -48.789   0.506  66.599  1.00  0.00     0.134 A 
ATOM     11  C   UNL     1     -48.635  -1.882  67.081  1.00  0.00     0.123 A 
ATOM     12  C   UNL     1     -48.915  -0.833  66.197  1.00  0.00     0.093 A 
BRANCH   3  13
ATOM     13  C   UNL     1     -47.111   1.251  71.976  1.00  0.00     0.025 A 
ATOM     14  C   UNL     1     -45.756   1.551  72.179  1.00  0.00     0.016 A 
ATOM     15  C   UNL     1     -45.272   1.807  73.463  1.00  0.00     0.051 A 
ATOM     16  C   UNL     1     -46.144   1.789  74.563  1.00  0.00     0.157 A 
ATOM     17  C   UNL     1     -47.977   1.236  73.080  1.00  0.00     0.062 A 
ATOM     18  C   UNL     1     -47.500   1.500  74.366  1.00  0.00     0.158 A 
BRANCH  16  19
ATOM     19  O   UNL     1     -45.670   2.078  75.838  1.00  0.00    -0.504 OA
ATOM     20  H   UNL     1     -45.111   1.418  76.363  1.00  0.00     0.293 HD
ENDBRANCH  16  19
BRANCH  18  21
ATOM     21  O   UNL     1     -48.402   1.494  75.431  1.00  0.00    -0.504 OA
ATOM     22  H   UNL     1     -48.589   0.666  75.976  1.00  0.00     0.293 HD
ENDBRANCH  18  21
ENDBRANCH   3  13
BRANCH  10  23
ATOM     23  O   UNL     1     -48.965   1.471  65.601  1.00  0.00    -0.507 OA
ATOM     24  H   UNL     1     -49.417   1.309  64.715  1.00  0.00     0.293 HD
ENDBRANCH  10  23
BRANCH  11  25
ATOM     25  O   UNL     1     -48.770  -3.205  66.674  1.00  0.00    -0.508 OA
ATOM     26  H   UNL     1     -49.614  -3.525  66.207  1.00  0.00     0.293 HD
ENDBRANCH  11  25
ENDBRANCH   1   2
BRANCH   1  27
ATOM     27  C   UNL     1     -46.892   4.348  70.863  1.00  0.00     0.339 C 
ATOM     28  C   UNL     1     -46.659   5.525  69.912  1.00  0.00     0.214 C 
ATOM     29  O   UNL     1     -46.974   4.807  72.199  1.00  0.00    -0.332 OA
ATOM     30  C   UNL     1     -47.837   6.498  69.980  1.00  0.00     0.180 C 
ATOM     31  C   UNL     1     -48.090   5.661  72.420  1.00  0.00     0.179 C 
ATOM     32  C   UNL     1     -48.169   6.879  71.437  1.00  0.00     0.177 C 
BRANCH  28  33
ATOM     33  O   UNL     1     -45.493   6.195  70.321  1.00  0.00    -0.384 OA
ATOM     34  H   UNL     1     -45.366   6.977  69.724  1.00  0.00     0.211 HD
ENDBRANCH  28  33
BRANCH  30  35
ATOM     35  O   UNL     1     -48.953   5.923  69.348  1.00  0.00    -0.387 OA
ATOM     36  H   UNL     1     -48.659   5.061  68.955  1.00  0.00     0.211 HD
ENDBRANCH  30  35
BRANCH  31  37
ATOM     37  C   UNL     1     -48.069   6.104  73.912  1.00  0.00     0.191 C 
BRANCH  37  38
ATOM     38  O   UNL     1     -47.705   5.045  74.773  1.00  0.00    -0.394 OA
ATOM     39  H   UNL     1     -46.993   4.521  74.325  1.00  0.00     0.210 HD
ENDBRANCH  37  38
ENDBRANCH  31  37
BRANCH  32  40
ATOM     40  O   UNL     1     -47.300   7.912  71.837  1.00  0.00    -0.387 OA
ATOM     41  H   UNL     1     -47.250   7.885  72.828  1.00  0.00     0.211 HD
ENDBRANCH  32  40
ENDBRANCH   1  27
TORSDOF 12
ENDMDL
MODEL 3
REMARK VINA RESULT:    -6.370      2.900      7.562
REMARK INTER + INTRA:         -11.069
REMARK INTER:                 -10.575
REMARK INTRA:                  -0.493
REMARK UNBOUND:                -1.720
REMARK SMILES O=c1c(O[C@@H]2O[C@@H](CO)[C@@H](O)[C@H](O)[C@H]2O)c(-c2ccc(O)c(O)c2)oc2cc(O)cc(O)c12
REMARK SMILES IDX 4 1 3 2 16 3 25 4 2 5 26 6 1 7 33 8 27 9 31 10 28 11 30 12
REMARK SMILES IDX 17 13 18 14 19 15 20 16 24 17 22 18 21 19 23 21 32 23 29 25
REMARK SMILES IDX 5 27 14 28 6 29 12 30 7 31 10 32 15 33 13 35 8 37 9 38 11 40
REMARK H PARENT 21 20 23 22 32 24 29 26 15 34 13 36 9 39 11 41
REMARK Flexibility Score: inf
ROOT
ATOM      1  O   UNL     1     -38.793   5.182  78.141  1.00  0.00    -0.454 OA
ENDROOT
BRANCH   1   2
ATOM      2  C   UNL     1     -37.717   6.090  78.299  1.00  0.00     0.214 A 
ATOM      3  C   UNL     1     -37.982   7.478  78.225  1.00  0.00     0.180 A 
ATOM      4  O   UNL     1     -37.020   8.359  78.483  1.00  0.00    -0.452 OA
ATOM      5  C   UNL     1     -36.390   5.680  78.585  1.00  0.00     0.239 A 
ATOM      6  C   UNL     1     -35.771   8.012  78.767  1.00  0.00     0.146 A 
ATOM      7  O   UNL     1     -36.128   4.463  78.737  1.00  0.00    -0.285 OA
ATOM      8  C   UNL     1     -35.377   6.651  78.773  1.00  0.00     0.111 A 
ATOM      9  C   UNL     1     -34.853   9.027  79.058  1.00  0.00     0.094 A 
ATOM     10  C   UNL     1     -34.001   6.343  79.017  1.00  0.00     0.134 A 
ATOM     11  C   UNL     1     -33.534   8.713  79.372  1.00  0.00     0.123 A 
ATOM     12  C   UNL     1     -33.112   7.378  79.348  1.00  0.00     0.093 A 
BRANCH   3  13
ATOM     13  C   UNL     1     -39.302   8.016  77.839  1.00  0.00     0.025 A 
ATOM     14  C   UNL     1     -40.298   8.184  78.811  1.00  0.00     0.016 A 
ATOM     15  C   UNL     1     -41.488   8.844  78.499  1.00  0.00     0.051 A 
ATOM     16  C   UNL     1     -41.689   9.367  77.212  1.00  0.00     0.157 A 
ATOM     17  C   UNL     1     -39.509   8.543  76.554  1.00  0.00     0.062 A 
ATOM     18  C   UNL     1     -40.693   9.211  76.239  1.00  0.00     0.158 A 
BRANCH  16  19
ATOM     19  O   UNL     1     -42.859  10.055  76.909  1.00  0.00    -0.504 OA
ATOM     20  H   UNL     1     -42.852  11.033  76.651  1.00  0.00     0.293 HD
ENDBRANCH  16  19
BRANCH  18  21
ATOM     21  O   UNL     1     -40.847   9.736  74.955  1.00  0.00    -0.504 OA
ATOM     22  H   UNL     1     -41.747   9.817  74.508  1.00  0.00     0.293 HD
ENDBRANCH  18  21
ENDBRANCH   3  13
BRANCH  10  23
ATOM     23  O   UNL     1     -33.445   5.065  78.895  1.00  0.00    -0.507 OA
ATOM     24  H   UNL     1     -33.824   4.322  78.331  1.00  0.00     0.293 HD
ENDBRANCH  10  23
BRANCH  11  25
ATOM     25  O   UNL     1     -32.647   9.729  79.708  1.00  0.00    -0.508 OA
ATOM     26  H   UNL     1     -32.968  10.569  80.182  1.00  0.00     0.293 HD
ENDBRANCH  11  25
ENDBRANCH   1   2
BRANCH   1  27
ATOM     27  C   UNL     1     -38.840   3.817  78.590  1.00  0.00     0.339 C 
ATOM     28  C   UNL     1     -39.031   3.704  80.105  1.00  0.00     0.214 C 
ATOM     29  O   UNL     1     -39.837   3.073  77.915  1.00  0.00    -0.332 OA
ATOM     30  C   UNL     1     -40.382   4.293  80.512  1.00  0.00     0.180 C 
ATOM     31  C   UNL     1     -41.147   3.577  78.141  1.00  0.00     0.179 C 
ATOM     32  C   UNL     1     -41.528   3.716  79.655  1.00  0.00     0.177 C 
BRANCH  28  33
ATOM     33  O   UNL     1     -39.008   2.341  80.449  1.00  0.00    -0.384 OA
ATOM     34  H   UNL     1     -39.927   1.984  80.339  1.00  0.00     0.211 HD
ENDBRANCH  28  33
BRANCH  30  35
ATOM     35  O   UNL     1     -40.332   5.693  80.402  1.00  0.00    -0.387 OA
ATOM     36  H   UNL     1     -41.031   5.965  79.754  1.00  0.00     0.211 HD
ENDBRANCH  30  35
BRANCH  31  37
ATOM     37  C   UNL     1     -42.150   2.680  77.359  1.00  0.00     0.191 C 
BRANCH  37  38
ATOM     38  O   UNL     1     -43.491   2.967  77.696  1.00  0.00    -0.394 OA
ATOM     39  H   UNL     1     -43.939   3.319  76.885  1.00  0.00     0.210 HD
ENDBRANCH  37  38
ENDBRANCH  31  37
BRANCH  32  40
ATOM     40  O   UNL     1     -41.912   2.477  80.199  1.00  0.00    -0.387 OA
ATOM     41  H   UNL     1     -42.878   2.540  80.420  1.00  0.00     0.211 HD
ENDBRANCH  32  40
ENDBRANCH   1  27
TORSDOF 12
ENDMDL
MODEL 4
REMARK VINA RESULT:    -6.196      1.290      2.031
REMARK INTER + INTRA:         -10.814
REMARK INTER:                  -9.691
REMARK INTRA:                  -1.123
REMARK UNBOUND:                -1.720
REMARK SMILES O=c1c(O[C@@H]2O[C@@H](CO)[C@@H](O)[C@H](O)[C@H]2O)c(-c2ccc(O)c(O)c2)oc2cc(O)cc(O)c12
REMARK SMILES IDX 4 1 3 2 16 3 25 4 2 5 26 6 1 7 33 8 27 9 31 10 28 11 30 12
REMARK SMILES IDX 17 13 18 14 19 15 20 16 24 17 22 18 21 19 23 21 32 23 29 25
REMARK SMILES IDX 5 27 14 28 6 29 12 30 7 31 10 32 15 33 13 35 8 37 9 38 11 40
REMARK H PARENT 21 20 23 22 32 24 29 26 15 34 13 36 9 39 11 41
REMARK Flexibility Score: inf
ROOT
ATOM      1  O   UNL     1     -38.175   5.478  81.329  1.00  0.00    -0.454 OA
ENDROOT
BRANCH   1   2
ATOM      2  C   UNL     1     -39.039   4.902  80.365  1.00  0.00     0.214 A 
ATOM      3  C   UNL     1     -38.574   4.760  79.036  1.00  0.00     0.180 A 
ATOM      4  O   UNL     1     -39.312   4.119  78.133  1.00  0.00    -0.452 OA
ATOM      5  C   UNL     1     -40.330   4.405  80.676  1.00  0.00     0.239 A 
ATOM      6  C   UNL     1     -40.518   3.629  78.393  1.00  0.00     0.146 A 
ATOM      7  O   UNL     1     -40.747   4.440  81.859  1.00  0.00    -0.285 OA
ATOM      8  C   UNL     1     -41.116   3.801  79.666  1.00  0.00     0.111 A 
ATOM      9  C   UNL     1     -41.185   2.941  77.373  1.00  0.00     0.094 A 
ATOM     10  C   UNL     1     -42.446   3.313  79.863  1.00  0.00     0.134 A 
ATOM     11  C   UNL     1     -42.447   2.401  77.599  1.00  0.00     0.123 A 
ATOM     12  C   UNL     1     -43.074   2.590  78.837  1.00  0.00     0.093 A 
BRANCH   3  13
ATOM     13  C   UNL     1     -37.290   5.324  78.577  1.00  0.00     0.025 A 
ATOM     14  C   UNL     1     -37.250   6.616  78.033  1.00  0.00     0.016 A 
ATOM     15  C   UNL     1     -36.028   7.228  77.749  1.00  0.00     0.051 A 
ATOM     16  C   UNL     1     -34.823   6.562  78.029  1.00  0.00     0.157 A 
ATOM     17  C   UNL     1     -36.082   4.665  78.855  1.00  0.00     0.062 A 
ATOM     18  C   UNL     1     -34.856   5.276  78.582  1.00  0.00     0.158 A 
BRANCH  16  19
ATOM     19  O   UNL     1     -33.604   7.184  77.780  1.00  0.00    -0.504 OA
ATOM     20  H   UNL     1     -32.828   6.691  77.360  1.00  0.00     0.293 HD
ENDBRANCH  16  19
BRANCH  18  21
ATOM     21  O   UNL     1     -33.681   4.591  78.895  1.00  0.00    -0.504 OA
ATOM     22  H   UNL     1     -33.060   4.890  79.631  1.00  0.00     0.293 HD
ENDBRANCH  18  21
ENDBRANCH   3  13
BRANCH  10  23
ATOM     23  O   UNL     1     -43.213   3.554  81.009  1.00  0.00    -0.507 OA
ATOM     24  H   UNL     1     -43.645   4.434  81.240  1.00  0.00     0.293 HD
ENDBRANCH  10  23
BRANCH  11  25
ATOM     25  O   UNL     1     -43.076   1.676  76.593  1.00  0.00    -0.508 OA
ATOM     26  H   UNL     1     -42.534   1.185  75.886  1.00  0.00     0.293 HD
ENDBRANCH  11  25
ENDBRANCH   1   2
BRANCH   1  27
ATOM     27  C   UNL     1     -38.537   6.416  82.356  1.00  0.00     0.339 C 
ATOM     28  C   UNL     1     -37.319   6.958  83.112  1.00  0.00     0.214 C 
ATOM     29  O   UNL     1     -39.311   7.485  81.848  1.00  0.00    -0.332 OA
ATOM     30  C   UNL     1     -36.420   7.750  82.162  1.00  0.00     0.180 C 
ATOM     31  C   UNL     1     -38.614   8.258  80.878  1.00  0.00     0.179 C 
ATOM     32  C   UNL     1     -37.226   8.798  81.367  1.00  0.00     0.177 C 
BRANCH  28  33
ATOM     33  O   UNL     1     -37.778   7.817  84.125  1.00  0.00    -0.384 OA
ATOM     34  H   UNL     1     -37.023   7.990  84.744  1.00  0.00     0.211 HD
ENDBRANCH  28  33
BRANCH  30  35
ATOM     35  O   UNL     1     -35.762   6.862  81.294  1.00  0.00    -0.387 OA
ATOM     36  H   UNL     1     -36.392   6.644  80.560  1.00  0.00     0.211 HD
ENDBRANCH  30  35
BRANCH  31  37
ATOM     37  C   UNL     1     -39.559   9.399  80.402  1.00  0.00     0.191 C 
BRANCH  37  38
ATOM     38  O   UNL     1     -40.128  10.102  81.486  1.00  0.00    -0.394 OA
ATOM     39  H   UNL     1     -40.896  10.624  81.139  1.00  0.00     0.210 HD
ENDBRANCH  37  38
ENDBRANCH  31  37
BRANCH  32  40
ATOM     40  O   UNL     1     -37.380   9.944  82.169  1.00  0.00    -0.387 OA
ATOM     41  H   UNL     1     -36.661  10.580  81.912  1.00  0.00     0.211 HD
ENDBRANCH  32  40
ENDBRANCH   1  27
TORSDOF 12
ENDMDL
MODEL 5
REMARK VINA RESULT:    -6.138      2.594      7.001
REMARK INTER + INTRA:         -10.728
REMARK INTER:                  -9.411
REMARK INTRA:                  -1.317
REMARK UNBOUND:                -1.720
REMARK SMILES O=c1c(O[C@@H]2O[C@@H](CO)[C@@H](O)[C@H](O)[C@H]2O)c(-c2ccc(O)c(O)c2)oc2cc(O)cc(O)c12
REMARK SMILES IDX 4 1 3 2 16 3 25 4 2 5 26 6 1 7 33 8 27 9 31 10 28 11 30 12
REMARK SMILES IDX 17 13 18 14 19 15 20 16 24 17 22 18 21 19 23 21 32 23 29 25
REMARK SMILES IDX 5 27 14 28 6 29 12 30 7 31 10 32 15 33 13 35 8 37 9 38 11 40
REMARK H PARENT 21 20 23 22 32 24 29 26 15 34 13 36 9 39 11 41
REMARK Flexibility Score: inf
ROOT
ATOM      1  O   UNL     1     -38.413   6.961  79.015  1.00  0.00    -0.454 OA
ENDROOT
BRANCH   1   2
ATOM      2  C   UNL     1     -37.615   6.245  79.941  1.00  0.00     0.214 A 
ATOM      3  C   UNL     1     -37.922   4.888  80.196  1.00  0.00     0.180 A 
ATOM      4  O   UNL     1     -37.126   4.154  80.969  1.00  0.00    -0.452 OA
ATOM      5  C   UNL     1     -36.483   6.805  80.587  1.00  0.00     0.239 A 
ATOM      6  C   UNL     1     -36.051   4.641  81.578  1.00  0.00     0.146 A 
ATOM      7  O   UNL     1     -36.131   7.981  80.328  1.00  0.00    -0.285 OA
ATOM      8  C   UNL     1     -35.708   6.011  81.466  1.00  0.00     0.111 A 
ATOM      9  C   UNL     1     -35.268   3.764  82.337  1.00  0.00     0.094 A 
ATOM     10  C   UNL     1     -34.580   6.491  82.202  1.00  0.00     0.134 A 
ATOM     11  C   UNL     1     -34.126   4.225  82.986  1.00  0.00     0.123 A 
ATOM     12  C   UNL     1     -33.788   5.581  82.921  1.00  0.00     0.093 A 
BRANCH   3  13
ATOM     13  C   UNL     1     -39.128   4.230  79.656  1.00  0.00     0.025 A 
ATOM     14  C   UNL     1     -39.022   3.384  78.543  1.00  0.00     0.016 A 
ATOM     15  C   UNL     1     -40.116   2.626  78.122  1.00  0.00     0.051 A 
ATOM     16  C   UNL     1     -41.329   2.686  78.828  1.00  0.00     0.157 A 
ATOM     17  C   UNL     1     -40.343   4.283  80.357  1.00  0.00     0.062 A 
ATOM     18  C   UNL     1     -41.438   3.520  79.947  1.00  0.00     0.158 A 
BRANCH  16  19
ATOM     19  O   UNL     1     -42.409   1.904  78.431  1.00  0.00    -0.504 OA
ATOM     20  H   UNL     1     -43.341   2.056  78.795  1.00  0.00     0.293 HD
ENDBRANCH  16  19
BRANCH  18  21
ATOM     21  O   UNL     1     -42.620   3.590  80.686  1.00  0.00    -0.504 OA
ATOM     22  H   UNL     1     -43.509   3.810  80.265  1.00  0.00     0.293 HD
ENDBRANCH  18  21
ENDBRANCH   3  13
BRANCH  10  23
ATOM     23  O   UNL     1     -34.225   7.841  82.312  1.00  0.00    -0.507 OA
ATOM     24  H   UNL     1     -34.188   8.359  83.175  1.00  0.00     0.293 HD
ENDBRANCH  10  23
BRANCH  11  25
ATOM     25  O   UNL     1     -33.331   3.331  83.695  1.00  0.00    -0.508 OA
ATOM     26  H   UNL     1     -33.530   2.334  83.687  1.00  0.00     0.293 HD
ENDBRANCH  11  25
ENDBRANCH   1   2
BRANCH   1  27
ATOM     27  C   UNL     1     -38.295   6.944  77.583  1.00  0.00     0.339 C 
ATOM     28  C   UNL     1     -39.535   7.508  76.884  1.00  0.00     0.214 C 
ATOM     29  O   UNL     1     -37.134   7.622  77.140  1.00  0.00    -0.332 OA
ATOM     30  C   UNL     1     -39.715   8.985  77.241  1.00  0.00     0.180 C 
ATOM     31  C   UNL     1     -37.134   9.000  77.489  1.00  0.00     0.179 C 
ATOM     32  C   UNL     1     -38.411   9.779  77.020  1.00  0.00     0.177 C 
BRANCH  28  33
ATOM     33  O   UNL     1     -39.345   7.397  75.496  1.00  0.00    -0.384 OA
ATOM     34  H   UNL     1     -39.805   8.162  75.063  1.00  0.00     0.211 HD
ENDBRANCH  28  33
BRANCH  30  35
ATOM     35  O   UNL     1     -40.146   9.092  78.574  1.00  0.00    -0.387 OA
ATOM     36  H   UNL     1     -41.093   9.383  78.556  1.00  0.00     0.211 HD
ENDBRANCH  30  35
BRANCH  31  37
ATOM     37  C   UNL     1     -35.821   9.635  76.947  1.00  0.00     0.191 C 
BRANCH  37  38
ATOM     38  O   UNL     1     -34.738   9.448  77.834  1.00  0.00    -0.394 OA
ATOM     39  H   UNL     1     -33.966   9.119  77.304  1.00  0.00     0.210 HD
ENDBRANCH  37  38
ENDBRANCH  31  37
BRANCH  32  40
ATOM     40  O   UNL     1     -38.324  10.125  75.659  1.00  0.00    -0.387 OA
ATOM     41  H   UNL     1     -37.381   9.985  75.381  1.00  0.00     0.211 HD
ENDBRANCH  32  40
ENDBRANCH   1  27
TORSDOF 12
ENDMDL
MODEL 6
REMARK VINA RESULT:    -6.138      3.001      7.281
REMARK INTER + INTRA:         -10.728
REMARK INTER:                 -10.060
REMARK INTRA:                  -0.668
REMARK UNBOUND:                -1.720
REMARK SMILES O=c1c(O[C@@H]2O[C@@H](CO)[C@@H](O)[C@H](O)[C@H]2O)c(-c2ccc(O)c(O)c2)oc2cc(O)cc(O)c12
REMARK SMILES IDX 4 1 3 2 16 3 25 4 2 5 26 6 1 7 33 8 27 9 31 10 28 11 30 12
REMARK SMILES IDX 17 13 18 14 19 15 20 16 24 17 22 18 21 19 23 21 32 23 29 25
REMARK SMILES IDX 5 27 14 28 6 29 12 30 7 31 10 32 15 33 13 35 8 37 9 38 11 40
REMARK H PARENT 21 20 23 22 32 24 29 26 15 34 13 36 9 39 11 41
REMARK Flexibility Score: inf
ROOT
ATOM      1  O   UNL     1     -38.789   7.150  78.980  1.00  0.00    -0.454 OA
ENDROOT
BRANCH   1   2
ATOM      2  C   UNL     1     -37.984   6.356  79.832  1.00  0.00     0.214 A 
ATOM      3  C   UNL     1     -38.320   4.992  80.008  1.00  0.00     0.180 A 
ATOM      4  O   UNL     1     -37.522   4.190  80.707  1.00  0.00    -0.452 OA
ATOM      5  C   UNL     1     -36.820   6.843  80.479  1.00  0.00     0.239 A 
ATOM      6  C   UNL     1     -36.418   4.608  81.313  1.00  0.00     0.146 A 
ATOM      7  O   UNL     1     -36.443   8.024  80.286  1.00  0.00    -0.285 OA
ATOM      8  C   UNL     1     -36.041   5.974  81.281  1.00  0.00     0.111 A 
ATOM      9  C   UNL     1     -35.637   3.664  81.989  1.00  0.00     0.094 A 
ATOM     10  C   UNL     1     -34.880   6.376  82.012  1.00  0.00     0.134 A 
ATOM     11  C   UNL     1     -34.465   4.052  82.632  1.00  0.00     0.123 A 
ATOM     12  C   UNL     1     -34.092   5.401  82.645  1.00  0.00     0.093 A 
BRANCH   3  13
ATOM     13  C   UNL     1     -39.558   4.401  79.463  1.00  0.00     0.025 A 
ATOM     14  C   UNL     1     -39.540   3.778  78.208  1.00  0.00     0.016 A 
ATOM     15  C   UNL     1     -40.655   3.071  77.752  1.00  0.00     0.051 A 
ATOM     16  C   UNL     1     -41.798   2.958  78.559  1.00  0.00     0.157 A 
ATOM     17  C   UNL     1     -40.704   4.283  80.266  1.00  0.00     0.062 A 
ATOM     18  C   UNL     1     -41.818   3.569  79.819  1.00  0.00     0.158 A 
BRANCH  16  19
ATOM     19  O   UNL     1     -42.895   2.223  78.122  1.00  0.00    -0.504 OA
ATOM     20  H   UNL     1     -43.612   2.632  77.537  1.00  0.00     0.293 HD
ENDBRANCH  16  19
BRANCH  18  21
ATOM     21  O   UNL     1     -42.927   3.461  80.660  1.00  0.00    -0.504 OA
ATOM     22  H   UNL     1     -43.219   4.209  81.268  1.00  0.00     0.293 HD
ENDBRANCH  18  21
ENDBRANCH   3  13
BRANCH  10  23
ATOM     23  O   UNL     1     -34.486   7.706  82.198  1.00  0.00    -0.507 OA
ATOM     24  H   UNL     1     -33.654   7.999  82.685  1.00  0.00     0.293 HD
ENDBRANCH  10  23
BRANCH  11  25
ATOM     25  O   UNL     1     -33.674   3.094  83.257  1.00  0.00    -0.508 OA
ATOM     26  H   UNL     1     -32.804   2.779  82.835  1.00  0.00     0.293 HD
ENDBRANCH  11  25
ENDBRANCH   1   2
BRANCH   1  27
ATOM     27  C   UNL     1     -38.510   8.487  78.532  1.00  0.00     0.339 C 
ATOM     28  C   UNL     1     -37.877   8.519  77.137  1.00  0.00     0.214 C 
ATOM     29  O   UNL     1     -39.662   9.307  78.564  1.00  0.00    -0.332 OA
ATOM     30  C   UNL     1     -38.854   7.959  76.103  1.00  0.00     0.180 C 
ATOM     31  C   UNL     1     -40.693   8.842  77.702  1.00  0.00     0.179 C 
ATOM     32  C   UNL     1     -40.239   8.629  76.217  1.00  0.00     0.177 C 
BRANCH  28  33
ATOM     33  O   UNL     1     -37.592   9.857  76.815  1.00  0.00    -0.384 OA
ATOM     34  H   UNL     1     -37.198   9.875  75.905  1.00  0.00     0.211 HD
ENDBRANCH  28  33
BRANCH  30  35
ATOM     35  O   UNL     1     -38.957   6.567  76.265  1.00  0.00    -0.387 OA
ATOM     36  H   UNL     1     -39.352   6.402  77.159  1.00  0.00     0.211 HD
ENDBRANCH  30  35
BRANCH  31  37
ATOM     37  C   UNL     1     -41.896   9.821  77.818  1.00  0.00     0.191 C 
BRANCH  37  38
ATOM     38  O   UNL     1     -43.097   9.149  78.136  1.00  0.00    -0.394 OA
ATOM     39  H   UNL     1     -43.322   9.361  79.079  1.00  0.00     0.210 HD
ENDBRANCH  37  38
ENDBRANCH  31  37
BRANCH  32  40
ATOM     40  O   UNL     1     -40.204   9.848  75.516  1.00  0.00    -0.387 OA
ATOM     41  H   UNL     1     -40.020  10.563  76.181  1.00  0.00     0.211 HD
ENDBRANCH  32  40
ENDBRANCH   1  27
TORSDOF 12
ENDMDL
MODEL 7
REMARK VINA RESULT:    -6.012      2.684      4.653
REMARK INTER + INTRA:         -10.544
REMARK INTER:                  -9.169
REMARK INTRA:                  -1.375
REMARK UNBOUND:                -1.720
REMARK SMILES O=c1c(O[C@@H]2O[C@@H](CO)[C@@H](O)[C@H](O)[C@H]2O)c(-c2ccc(O)c(O)c2)oc2cc(O)cc(O)c12
REMARK SMILES IDX 4 1 3 2 16 3 25 4 2 5 26 6 1 7 33 8 27 9 31 10 28 11 30 12
REMARK SMILES IDX 17 13 18 14 19 15 20 16 24 17 22 18 21 19 23 21 32 23 29 25
REMARK SMILES IDX 5 27 14 28 6 29 12 30 7 31 10 32 15 33 13 35 8 37 9 38 11 40
REMARK H PARENT 21 20 23 22 32 24 29 26 15 34 13 36 9 39 11 41
REMARK Flexibility Score: inf
ROOT
ATOM      1  O   UNL     1     -36.809   6.021  79.720  1.00  0.00    -0.454 OA
ENDROOT
BRANCH   1   2
ATOM      2  C   UNL     1     -37.892   5.440  80.424  1.00  0.00     0.214 A 
ATOM      3  C   UNL     1     -39.210   5.825  80.081  1.00  0.00     0.180 A 
ATOM      4  O   UNL     1     -40.253   5.216  80.638  1.00  0.00    -0.452 OA
ATOM      5  C   UNL     1     -37.727   4.446  81.421  1.00  0.00     0.239 A 
ATOM      6  C   UNL     1     -40.135   4.272  81.564  1.00  0.00     0.146 A 
ATOM      7  O   UNL     1     -36.580   4.020  81.699  1.00  0.00    -0.285 OA
ATOM      8  C   UNL     1     -38.863   3.880  82.048  1.00  0.00     0.111 A 
ATOM      9  C   UNL     1     -41.304   3.676  82.052  1.00  0.00     0.094 A 
ATOM     10  C   UNL     1     -38.805   2.908  83.097  1.00  0.00     0.134 A 
ATOM     11  C   UNL     1     -41.233   2.675  83.016  1.00  0.00     0.123 A 
ATOM     12  C   UNL     1     -39.990   2.297  83.537  1.00  0.00     0.093 A 
BRANCH   3  13
ATOM     13  C   UNL     1     -39.498   6.915  79.129  1.00  0.00     0.025 A 
ATOM     14  C   UNL     1     -39.656   8.227  79.598  1.00  0.00     0.016 A 
ATOM     15  C   UNL     1     -39.762   9.292  78.701  1.00  0.00     0.051 A 
ATOM     16  C   UNL     1     -39.688   9.061  77.318  1.00  0.00     0.157 A 
ATOM     17  C   UNL     1     -39.423   6.692  77.745  1.00  0.00     0.062 A 
ATOM     18  C   UNL     1     -39.519   7.754  76.844  1.00  0.00     0.158 A 
BRANCH  16  19
ATOM     19  O   UNL     1     -39.758  10.125  76.425  1.00  0.00    -0.504 OA
ATOM     20  H   UNL     1     -39.611  11.081  76.721  1.00  0.00     0.293 HD
ENDBRANCH  16  19
BRANCH  18  21
ATOM     21  O   UNL     1     -39.418   7.487  75.477  1.00  0.00    -0.504 OA
ATOM     22  H   UNL     1     -39.549   6.562  75.097  1.00  0.00     0.293 HD
ENDBRANCH  18  21
ENDBRANCH   3  13
BRANCH  10  23
ATOM     23  O   UNL     1     -37.635   2.549  83.776  1.00  0.00    -0.507 OA
ATOM     24  H   UNL     1     -37.290   2.998  84.609  1.00  0.00     0.293 HD
ENDBRANCH  10  23
BRANCH  11  25
ATOM     25  O   UNL     1     -42.400   2.058  83.454  1.00  0.00    -0.508 OA
ATOM     26  H   UNL     1     -42.944   2.450  84.218  1.00  0.00     0.293 HD
ENDBRANCH  11  25
ENDBRANCH   1   2
BRANCH   1  27
ATOM     27  C   UNL     1     -35.813   6.909  80.254  1.00  0.00     0.339 C 
ATOM     28  C   UNL     1     -34.575   6.166  80.764  1.00  0.00     0.214 C 
ATOM     29  O   UNL     1     -35.436   7.903  79.321  1.00  0.00    -0.332 OA
ATOM     30  C   UNL     1     -33.876   5.451  79.607  1.00  0.00     0.180 C 
ATOM     31  C   UNL     1     -34.847   7.360  78.146  1.00  0.00     0.179 C 
ATOM     32  C   UNL     1     -33.633   6.406  78.420  1.00  0.00     0.177 C 
BRANCH  28  33
ATOM     33  O   UNL     1     -33.691   7.110  81.313  1.00  0.00    -0.384 OA
ATOM     34  H   UNL     1     -34.096   8.009  81.200  1.00  0.00     0.211 HD
ENDBRANCH  28  33
BRANCH  30  35
ATOM     35  O   UNL     1     -34.648   4.346  79.208  1.00  0.00    -0.387 OA
ATOM     36  H   UNL     1     -34.484   3.619  79.863  1.00  0.00     0.211 HD
ENDBRANCH  30  35
BRANCH  31  37
ATOM     37  C   UNL     1     -34.470   8.540  77.205  1.00  0.00     0.191 C 
BRANCH  37  38
ATOM     38  O   UNL     1     -33.808   9.578  77.897  1.00  0.00    -0.394 OA
ATOM     39  H   UNL     1     -33.822   9.354  78.863  1.00  0.00     0.210 HD
ENDBRANCH  37  38
ENDBRANCH  31  37
BRANCH  32  40
ATOM     40  O   UNL     1     -32.458   7.138  78.670  1.00  0.00    -0.387 OA
ATOM     41  H   UNL     1     -32.509   7.968  78.128  1.00  0.00     0.211 HD
ENDBRANCH  32  40
ENDBRANCH   1  27
TORSDOF 12
ENDMDL
MODEL 8
REMARK VINA RESULT:    -5.959      2.834      7.038
REMARK INTER + INTRA:         -10.465
REMARK INTER:                  -9.469
REMARK INTRA:                  -0.996
REMARK UNBOUND:                -1.720
REMARK SMILES O=c1c(O[C@@H]2O[C@@H](CO)[C@@H](O)[C@H](O)[C@H]2O)c(-c2ccc(O)c(O)c2)oc2cc(O)cc(O)c12
REMARK SMILES IDX 4 1 3 2 16 3 25 4 2 5 26 6 1 7 33 8 27 9 31 10 28 11 30 12
REMARK SMILES IDX 17 13 18 14 19 15 20 16 24 17 22 18 21 19 23 21 32 23 29 25
REMARK SMILES IDX 5 27 14 28 6 29 12 30 7 31 10 32 15 33 13 35 8 37 9 38 11 40
REMARK H PARENT 21 20 23 22 32 24 29 26 15 34 13 36 9 39 11 41
REMARK Flexibility Score: inf
ROOT
ATOM      1  O   UNL     1     -38.799   5.466  77.680  1.00  0.00    -0.454 OA
ENDROOT
BRANCH   1   2
ATOM      2  C   UNL     1     -37.614   6.174  77.999  1.00  0.00     0.214 A 
ATOM      3  C   UNL     1     -37.625   7.587  77.920  1.00  0.00     0.180 A 
ATOM      4  O   UNL     1     -36.569   8.289  78.322  1.00  0.00    -0.452 OA
ATOM      5  C   UNL     1     -36.429   5.541  78.450  1.00  0.00     0.239 A 
ATOM      6  C   UNL     1     -35.449   7.730  78.763  1.00  0.00     0.146 A 
ATOM      7  O   UNL     1     -36.403   4.297  78.610  1.00  0.00    -0.285 OA
ATOM      8  C   UNL     1     -35.298   6.322  78.793  1.00  0.00     0.111 A 
ATOM      9  C   UNL     1     -34.417   8.571  79.196  1.00  0.00     0.094 A 
ATOM     10  C   UNL     1     -34.042   5.781  79.212  1.00  0.00     0.134 A 
ATOM     11  C   UNL     1     -33.227   8.034  79.676  1.00  0.00     0.123 A 
ATOM     12  C   UNL     1     -33.041   6.647  79.680  1.00  0.00     0.093 A 
BRANCH   3  13
ATOM     13  C   UNL     1     -38.767   8.345  77.373  1.00  0.00     0.025 A 
ATOM     14  C   UNL     1     -38.950   8.428  75.986  1.00  0.00     0.016 A 
ATOM     15  C   UNL     1     -40.111   8.995  75.457  1.00  0.00     0.051 A 
ATOM     16  C   UNL     1     -41.118   9.469  76.312  1.00  0.00     0.157 A 
ATOM     17  C   UNL     1     -39.779   8.820  78.222  1.00  0.00     0.062 A 
ATOM     18  C   UNL     1     -40.946   9.380  77.699  1.00  0.00     0.158 A 
BRANCH  16  19
ATOM     19  O   UNL     1     -42.291  10.002  75.787  1.00  0.00    -0.504 OA
ATOM     20  H   UNL     1     -42.377  10.241  74.808  1.00  0.00     0.293 HD
ENDBRANCH  16  19
BRANCH  18  21
ATOM     21  O   UNL     1     -41.934   9.820  78.582  1.00  0.00    -0.504 OA
ATOM     22  H   UNL     1     -42.588   9.189  79.019  1.00  0.00     0.293 HD
ENDBRANCH  18  21
ENDBRANCH   3  13
BRANCH  10  23
ATOM     23  O   UNL     1     -33.703   4.425  79.137  1.00  0.00    -0.507 OA
ATOM     24  H   UNL     1     -32.810   4.038  79.400  1.00  0.00     0.293 HD
ENDBRANCH  10  23
BRANCH  11  25
ATOM     25  O   UNL     1     -32.231   8.882  80.149  1.00  0.00    -0.508 OA
ATOM     26  H   UNL     1     -31.269   8.563  80.232  1.00  0.00     0.293 HD
ENDBRANCH  11  25
ENDBRANCH   1   2
BRANCH   1  27
ATOM     27  C   UNL     1     -40.022   5.449  78.435  1.00  0.00     0.339 C 
ATOM     28  C   UNL     1     -40.808   4.149  78.250  1.00  0.00     0.214 C 
ATOM     29  O   UNL     1     -39.797   5.693  79.811  1.00  0.00    -0.332 OA
ATOM     30  C   UNL     1     -40.003   2.965  78.789  1.00  0.00     0.180 C 
ATOM     31  C   UNL     1     -38.979   4.701  80.419  1.00  0.00     0.179 C 
ATOM     32  C   UNL     1     -39.496   3.235  80.221  1.00  0.00     0.177 C 
BRANCH  28  33
ATOM     33  O   UNL     1     -42.006   4.253  78.980  1.00  0.00    -0.384 OA
ATOM     34  H   UNL     1     -42.758   4.078  78.358  1.00  0.00     0.211 HD
ENDBRANCH  28  33
BRANCH  30  35
ATOM     35  O   UNL     1     -38.931   2.698  77.921  1.00  0.00    -0.387 OA
ATOM     36  H   UNL     1     -39.316   2.412  77.054  1.00  0.00     0.211 HD
ENDBRANCH  30  35
BRANCH  31  37
ATOM     37  C   UNL     1     -38.809   5.071  81.921  1.00  0.00     0.191 C 
BRANCH  37  38
ATOM     38  O   UNL     1     -38.335   3.981  82.684  1.00  0.00    -0.394 OA
ATOM     39  H   UNL     1     -38.432   3.162  82.133  1.00  0.00     0.210 HD
ENDBRANCH  37  38
ENDBRANCH  31  37
BRANCH  32  40
ATOM     40  O   UNL     1     -40.532   2.935  81.125  1.00  0.00    -0.387 OA
ATOM     41  H   UNL     1     -41.365   3.333  80.759  1.00  0.00     0.211 HD
ENDBRANCH  32  40
ENDBRANCH   1  27
TORSDOF 12
ENDMDL
MODEL 9
REMARK VINA RESULT:    -5.893      2.549      4.770
REMARK INTER + INTRA:         -10.368
REMARK INTER:                  -8.874
REMARK INTRA:                  -1.494
REMARK UNBOUND:                -1.720
REMARK SMILES O=c1c(O[C@@H]2O[C@@H](CO)[C@@H](O)[C@H](O)[C@H]2O)c(-c2ccc(O)c(O)c2)oc2cc(O)cc(O)c12
REMARK SMILES IDX 4 1 3 2 16 3 25 4 2 5 26 6 1 7 33 8 27 9 31 10 28 11 30 12
REMARK SMILES IDX 17 13 18 14 19 15 20 16 24 17 22 18 21 19 23 21 32 23 29 25
REMARK SMILES IDX 5 27 14 28 6 29 12 30 7 31 10 32 15 33 13 35 8 37 9 38 11 40
REMARK H PARENT 21 20 23 22 32 24 29 26 15 34 13 36 9 39 11 41
REMARK Flexibility Score: inf
ROOT
ATOM      1  O   UNL     1     -38.281   6.944  79.072  1.00  0.00    -0.454 OA
ENDROOT
BRANCH   1   2
ATOM      2  C   UNL     1     -38.481   5.827  79.920  1.00  0.00     0.214 A 
ATOM      3  C   UNL     1     -37.354   5.229  80.533  1.00  0.00     0.180 A 
ATOM      4  O   UNL     1     -37.514   4.254  81.423  1.00  0.00    -0.452 OA
ATOM      5  C   UNL     1     -39.763   5.309  80.234  1.00  0.00     0.239 A 
ATOM      6  C   UNL     1     -38.699   3.755  81.751  1.00  0.00     0.146 A 
ATOM      7  O   UNL     1     -40.792   5.861  79.775  1.00  0.00    -0.285 OA
ATOM      8  C   UNL     1     -39.883   4.217  81.127  1.00  0.00     0.111 A 
ATOM      9  C   UNL     1     -38.747   2.755  82.730  1.00  0.00     0.094 A 
ATOM     10  C   UNL     1     -41.122   3.591  81.471  1.00  0.00     0.134 A 
ATOM     11  C   UNL     1     -39.966   2.207  83.115  1.00  0.00     0.123 A 
ATOM     12  C   UNL     1     -41.146   2.621  82.486  1.00  0.00     0.093 A 
BRANCH   3  13
ATOM     13  C   UNL     1     -35.969   5.621  80.206  1.00  0.00     0.025 A 
ATOM     14  C   UNL     1     -35.318   5.038  79.111  1.00  0.00     0.016 A 
ATOM     15  C   UNL     1     -34.076   5.515  78.688  1.00  0.00     0.051 A 
ATOM     16  C   UNL     1     -33.477   6.602  79.344  1.00  0.00     0.157 A 
ATOM     17  C   UNL     1     -35.364   6.709  80.857  1.00  0.00     0.062 A 
ATOM     18  C   UNL     1     -34.127   7.196  80.433  1.00  0.00     0.158 A 
BRANCH  16  19
ATOM     19  O   UNL     1     -32.256   7.101  78.902  1.00  0.00    -0.504 OA
ATOM     20  H   UNL     1     -31.439   6.511  78.811  1.00  0.00     0.293 HD
ENDBRANCH  16  19
BRANCH  18  21
ATOM     21  O   UNL     1     -33.573   8.293  81.097  1.00  0.00    -0.504 OA
ATOM     22  H   UNL     1     -33.758   9.243  80.818  1.00  0.00     0.293 HD
ENDBRANCH  18  21
ENDBRANCH   3  13
BRANCH  10  23
ATOM     23  O   UNL     1     -42.337   3.834  80.820  1.00  0.00    -0.507 OA
ATOM     24  H   UNL     1     -43.248   3.713  81.233  1.00  0.00     0.293 HD
ENDBRANCH  10  23
BRANCH  11  25
ATOM     25  O   UNL     1     -40.002   1.251  84.125  1.00  0.00    -0.508 OA
ATOM     26  H   UNL     1     -39.705   0.294  83.950  1.00  0.00     0.293 HD
ENDBRANCH  11  25
ENDBRANCH   1   2
BRANCH   1  27
ATOM     27  C   UNL     1     -38.200   6.932  77.637  1.00  0.00     0.339 C 
ATOM     28  C   UNL     1     -39.429   7.562  76.975  1.00  0.00     0.214 C 
ATOM     29  O   UNL     1     -37.020   7.555  77.169  1.00  0.00    -0.332 OA
ATOM     30  C   UNL     1     -39.526   9.043  77.345  1.00  0.00     0.180 C 
ATOM     31  C   UNL     1     -36.943   8.930  77.527  1.00  0.00     0.179 C 
ATOM     32  C   UNL     1     -38.191   9.774  77.095  1.00  0.00     0.177 C 
BRANCH  28  33
ATOM     33  O   UNL     1     -39.280   7.452  75.581  1.00  0.00    -0.384 OA
ATOM     34  H   UNL     1     -38.778   6.618  75.393  1.00  0.00     0.211 HD
ENDBRANCH  28  33
BRANCH  30  35
ATOM     35  O   UNL     1     -39.917   9.161  78.690  1.00  0.00    -0.387 OA
ATOM     36  H   UNL     1     -39.376   9.888  79.092  1.00  0.00     0.211 HD
ENDBRANCH  30  35
BRANCH  31  37
ATOM     37  C   UNL     1     -35.615   9.503  76.955  1.00  0.00     0.191 C 
BRANCH  37  38
ATOM     38  O   UNL     1     -34.513   8.665  77.233  1.00  0.00    -0.394 OA
ATOM     39  H   UNL     1     -34.664   7.801  76.769  1.00  0.00     0.210 HD
ENDBRANCH  37  38
ENDBRANCH  31  37
BRANCH  32  40
ATOM     40  O   UNL     1     -38.123  10.125  75.735  1.00  0.00    -0.387 OA
ATOM     41  H   UNL     1     -37.296   9.714  75.368  1.00  0.00     0.211 HD
ENDBRANCH  32  40
ENDBRANCH   1  27
TORSDOF 12
ENDMDL
