MODEL 1
REMARK VINA RESULT:    -5.708      0.000      0.000
REMARK INTER + INTRA:          -6.254
REMARK INTER:                  -6.209
REMARK INTRA:                  -0.045
REMARK UNBOUND:                -0.045
REMARK SMILES COc1cc2ccc(=O)oc2cc1O
REMARK SMILES IDX 3 1 13 2 12 3 11 4 5 5 4 6 6 7 7 8 8 9 9 10 10 11 2 12 1 13
REMARK SMILES IDX 14 14
REMARK H PARENT 14 15
REMARK Flexibility Score: inf
ROOT
ATOM      1  C   UNL     1      15.663  30.142  23.100  1.00  0.00     0.161 A 
ATOM      2  C   UNL     1      16.373  31.359  23.123  1.00  0.00     0.161 A 
ATOM      3  C   UNL     1      17.398  31.558  24.055  1.00  0.00     0.098 A 
ATOM      4  C   UNL     1      17.728  30.557  24.971  1.00  0.00     0.142 A 
ATOM      5  C   UNL     1      17.022  29.335  24.956  1.00  0.00     0.022 A 
ATOM      6  C   UNL     1      15.995  29.131  24.025  1.00  0.00     0.062 A 
ATOM      7  C   UNL     1      17.375  28.352  25.886  1.00  0.00     0.019 A 
ATOM      8  C   UNL     1      18.404  28.603  26.793  1.00  0.00     0.094 A 
ATOM      9  C   UNL     1      19.059  29.838  26.748  1.00  0.00     0.336 A 
ATOM     10  O   UNL     1      19.991  30.084  27.557  1.00  0.00    -0.246 OA
ATOM     11  O   UNL     1      18.704  30.757  25.853  1.00  0.00    -0.423 OA
ENDROOT
BRANCH   1  12
ATOM     12  O   UNL     1      14.641  29.974  22.153  1.00  0.00    -0.493 OA
ATOM     13  C   UNL     1      14.243  28.721  21.606  1.00  0.00     0.278 C 
ENDBRANCH   1  12
BRANCH   2  14
ATOM     14  O   UNL     1      16.074  32.383  22.225  1.00  0.00    -0.504 OA
ATOM     15  H   UNL     1      15.288  32.332  21.589  1.00  0.00     0.293 HD
ENDBRANCH   2  14
TORSDOF 2
ENDMDL
MODEL 2
REMARK VINA RESULT:    -5.509      1.661      2.733
REMARK INTER + INTRA:          -6.038
REMARK INTER:                  -5.974
REMARK INTRA:                  -0.064
REMARK UNBOUND:                -0.045
REMARK SMILES COc1cc2ccc(=O)oc2cc1O
REMARK SMILES IDX 3 1 13 2 12 3 11 4 5 5 4 6 6 7 7 8 8 9 9 10 10 11 2 12 1 13
REMARK SMILES IDX 14 14
REMARK H PARENT 14 15
REMARK Flexibility Score: inf
ROOT
ATOM      1  C   UNL     1      15.470  31.655  22.434  1.00  0.00     0.161 A 
ATOM      2  C   UNL     1      14.790  30.424  22.531  1.00  0.00     0.161 A 
ATOM      3  C   UNL     1      15.268  29.421  23.382  1.00  0.00     0.098 A 
ATOM      4  C   UNL     1      16.422  29.627  24.142  1.00  0.00     0.142 A 
ATOM      5  C   UNL     1      17.109  30.856  24.052  1.00  0.00     0.022 A 
ATOM      6  C   UNL     1      16.634  31.863  23.201  1.00  0.00     0.062 A 
ATOM      7  C   UNL     1      18.261  31.032  24.825  1.00  0.00     0.019 A 
ATOM      8  C   UNL     1      18.694  30.000  25.656  1.00  0.00     0.094 A 
ATOM      9  C   UNL     1      17.961  28.809  25.694  1.00  0.00     0.336 A 
ATOM     10  O   UNL     1      18.335  27.865  26.438  1.00  0.00    -0.246 OA
ATOM     11  O   UNL     1      16.868  28.667  24.948  1.00  0.00    -0.423 OA
ENDROOT
BRANCH   1  12
ATOM     12  O   UNL     1      14.964  32.640  21.571  1.00  0.00    -0.493 OA
ATOM     13  C   UNL     1      15.559  33.013  20.332  1.00  0.00     0.278 C 
ENDBRANCH   1  12
BRANCH   2  14
ATOM     14  O   UNL     1      13.635  30.181  21.789  1.00  0.00    -0.504 OA
ATOM     15  H   UNL     1      12.721  30.116  22.218  1.00  0.00     0.293 HD
ENDBRANCH   2  14
TORSDOF 2
ENDMDL
MODEL 3
REMARK VINA RESULT:    -5.441      1.373      5.496
REMARK INTER + INTRA:          -5.963
REMARK INTER:                  -5.962
REMARK INTRA:                  -0.002
REMARK UNBOUND:                -0.045
REMARK SMILES COc1cc2ccc(=O)oc2cc1O
REMARK SMILES IDX 3 1 13 2 12 3 11 4 5 5 4 6 6 7 7 8 8 9 9 10 10 11 2 12 1 13
REMARK SMILES IDX 14 14
REMARK H PARENT 14 15
REMARK Flexibility Score: inf
ROOT
ATOM      1  C   UNL     1      17.893  30.404  24.926  1.00  0.00     0.161 A 
ATOM      2  C   UNL     1      17.162  29.202  25.001  1.00  0.00     0.161 A 
ATOM      3  C   UNL     1      16.019  29.023  24.212  1.00  0.00     0.098 A 
ATOM      4  C   UNL     1      15.592  30.030  23.345  1.00  0.00     0.142 A 
ATOM      5  C   UNL     1      16.317  31.238  23.264  1.00  0.00     0.022 A 
ATOM      6  C   UNL     1      17.461  31.422  24.051  1.00  0.00     0.062 A 
ATOM      7  C   UNL     1      15.864  32.228  22.386  1.00  0.00     0.019 A 
ATOM      8  C   UNL     1      14.719  31.998  21.624  1.00  0.00     0.094 A 
ATOM      9  C   UNL     1      14.052  30.776  21.758  1.00  0.00     0.336 A 
ATOM     10  O   UNL     1      13.017  30.548  21.078  1.00  0.00    -0.246 OA
ATOM     11  O   UNL     1      14.504  29.850  22.600  1.00  0.00    -0.423 OA
ENDROOT
BRANCH   1  12
ATOM     12  O   UNL     1      19.034  30.552  25.731  1.00  0.00    -0.493 OA
ATOM     13  C   UNL     1      19.011  30.909  27.109  1.00  0.00     0.278 C 
ENDBRANCH   1  12
BRANCH   2  14
ATOM     14  O   UNL     1      17.556  28.172  25.854  1.00  0.00    -0.504 OA
ATOM     15  H   UNL     1      18.514  27.846  25.901  1.00  0.00     0.293 HD
ENDBRANCH   2  14
TORSDOF 2
ENDMDL
MODEL 4
REMARK VINA RESULT:    -5.419      6.983      8.608
REMARK INTER + INTRA:          -5.939
REMARK INTER:                  -5.895
REMARK INTRA:                  -0.044
REMARK UNBOUND:                -0.045
REMARK SMILES COc1cc2ccc(=O)oc2cc1O
REMARK SMILES IDX 3 1 13 2 12 3 11 4 5 5 4 6 6 7 7 8 8 9 9 10 10 11 2 12 1 13
REMARK SMILES IDX 14 14
REMARK H PARENT 14 15
REMARK Flexibility Score: inf
ROOT
ATOM      1  C   UNL     1       9.645  32.776  23.971  1.00  0.00     0.161 A 
ATOM      2  C   UNL     1       8.714  33.167  22.989  1.00  0.00     0.161 A 
ATOM      3  C   UNL     1       9.152  33.531  21.710  1.00  0.00     0.098 A 
ATOM      4  C   UNL     1      10.512  33.512  21.394  1.00  0.00     0.142 A 
ATOM      5  C   UNL     1      11.452  33.122  22.371  1.00  0.00     0.022 A 
ATOM      6  C   UNL     1      11.019  32.757  23.652  1.00  0.00     0.062 A 
ATOM      7  C   UNL     1      12.807  33.113  22.025  1.00  0.00     0.019 A 
ATOM      8  C   UNL     1      13.188  33.486  20.737  1.00  0.00     0.094 A 
ATOM      9  C   UNL     1      12.200  33.861  19.821  1.00  0.00     0.336 A 
ATOM     10  O   UNL     1      12.522  34.200  18.652  1.00  0.00    -0.246 OA
ATOM     11  O   UNL     1      10.917  33.860  20.175  1.00  0.00    -0.423 OA
ENDROOT
BRANCH   1  12
ATOM     12  O   UNL     1       9.174  32.416  25.244  1.00  0.00    -0.493 OA
ATOM     13  C   UNL     1       9.964  32.415  26.428  1.00  0.00     0.278 C 
ENDBRANCH   1  12
BRANCH   2  14
ATOM     14  O   UNL     1       7.348  33.198  23.265  1.00  0.00    -0.504 OA
ATOM     15  H   UNL     1       6.866  32.420  23.697  1.00  0.00     0.293 HD
ENDBRANCH   2  14
TORSDOF 2
ENDMDL
MODEL 5
REMARK VINA RESULT:    -5.249      7.134      8.441
REMARK INTER + INTRA:          -5.755
REMARK INTER:                  -5.711
REMARK INTRA:                  -0.044
REMARK UNBOUND:                -0.045
REMARK SMILES COc1cc2ccc(=O)oc2cc1O
REMARK SMILES IDX 3 1 13 2 12 3 11 4 5 5 4 6 6 7 7 8 8 9 9 10 10 11 2 12 1 13
REMARK SMILES IDX 14 14
REMARK H PARENT 14 15
REMARK Flexibility Score: inf
ROOT
ATOM      1  C   UNL     1       9.917  33.816  20.872  1.00  0.00     0.161 A 
ATOM      2  C   UNL     1      11.220  33.486  21.293  1.00  0.00     0.161 A 
ATOM      3  C   UNL     1      11.452  33.070  22.609  1.00  0.00     0.098 A 
ATOM      4  C   UNL     1      10.396  32.978  23.519  1.00  0.00     0.142 A 
ATOM      5  C   UNL     1       9.087  33.306  23.107  1.00  0.00     0.022 A 
ATOM      6  C   UNL     1       8.851  33.723  21.791  1.00  0.00     0.062 A 
ATOM      7  C   UNL     1       8.051  33.204  24.041  1.00  0.00     0.019 A 
ATOM      8  C   UNL     1       8.337  32.786  25.340  1.00  0.00     0.094 A 
ATOM      9  C   UNL     1       9.659  32.477  25.675  1.00  0.00     0.336 A 
ATOM     10  O   UNL     1       9.938  32.096  26.842  1.00  0.00    -0.246 OA
ATOM     11  O   UNL     1      10.627  32.582  24.768  1.00  0.00    -0.423 OA
ENDROOT
BRANCH   1  12
ATOM     12  O   UNL     1       9.719  34.229  19.545  1.00  0.00    -0.493 OA
ATOM     13  C   UNL     1       8.509  34.790  19.045  1.00  0.00     0.278 C 
ENDBRANCH   1  12
BRANCH   2  14
ATOM     14  O   UNL     1      12.301  33.565  20.415  1.00  0.00    -0.504 OA
ATOM     15  H   UNL     1      12.595  34.439  19.997  1.00  0.00     0.293 HD
ENDBRANCH   2  14
TORSDOF 2
ENDMDL
MODEL 6
REMARK VINA RESULT:    -5.223      6.667      8.287
REMARK INTER + INTRA:          -5.726
REMARK INTER:                  -5.662
REMARK INTRA:                  -0.064
REMARK UNBOUND:                -0.045
REMARK SMILES COc1cc2ccc(=O)oc2cc1O
REMARK SMILES IDX 3 1 13 2 12 3 11 4 5 5 4 6 6 7 7 8 8 9 9 10 10 11 2 12 1 13
REMARK SMILES IDX 14 14
REMARK H PARENT 14 15
REMARK Flexibility Score: inf
ROOT
ATOM      1  C   UNL     1       8.727  32.278  24.630  1.00  0.00     0.161 A 
ATOM      2  C   UNL     1       9.888  32.465  25.405  1.00  0.00     0.161 A 
ATOM      3  C   UNL     1      11.100  32.798  24.788  1.00  0.00     0.098 A 
ATOM      4  C   UNL     1      11.171  32.948  23.402  1.00  0.00     0.142 A 
ATOM      5  C   UNL     1      10.014  32.763  22.617  1.00  0.00     0.022 A 
ATOM      6  C   UNL     1       8.799  32.429  23.229  1.00  0.00     0.062 A 
ATOM      7  C   UNL     1      10.117  32.920  21.231  1.00  0.00     0.019 A 
ATOM      8  C   UNL     1      11.349  33.251  20.668  1.00  0.00     0.094 A 
ATOM      9  C   UNL     1      12.454  33.419  21.510  1.00  0.00     0.336 A 
ATOM     10  O   UNL     1      13.575  33.720  21.022  1.00  0.00    -0.246 OA
ATOM     11  O   UNL     1      12.328  33.265  22.826  1.00  0.00    -0.423 OA
ENDROOT
BRANCH   1  12
ATOM     12  O   UNL     1       7.527  31.945  25.279  1.00  0.00    -0.493 OA
ATOM     13  C   UNL     1       6.934  30.650  25.268  1.00  0.00     0.278 C 
ENDBRANCH   1  12
BRANCH   2  14
ATOM     14  O   UNL     1       9.857  32.324  26.792  1.00  0.00    -0.504 OA
ATOM     15  H   UNL     1       9.101  32.693  27.355  1.00  0.00     0.293 HD
ENDBRANCH   2  14
TORSDOF 2
ENDMDL
MODEL 7
REMARK VINA RESULT:    -5.222      2.096      3.023
REMARK INTER + INTRA:          -5.725
REMARK INTER:                  -5.660
REMARK INTRA:                  -0.065
REMARK UNBOUND:                -0.045
REMARK SMILES COc1cc2ccc(=O)oc2cc1O
REMARK SMILES IDX 3 1 13 2 12 3 11 4 5 5 4 6 6 7 7 8 8 9 9 10 10 11 2 12 1 13
REMARK SMILES IDX 14 14
REMARK H PARENT 14 15
REMARK Flexibility Score: inf
ROOT
ATOM      1  C   UNL     1      13.624  31.265  21.343  1.00  0.00     0.161 A 
ATOM      2  C   UNL     1      14.417  32.425  21.237  1.00  0.00     0.161 A 
ATOM      3  C   UNL     1      15.591  32.545  21.990  1.00  0.00     0.098 A 
ATOM      4  C   UNL     1      15.988  31.521  22.852  1.00  0.00     0.142 A 
ATOM      5  C   UNL     1      15.200  30.356  22.964  1.00  0.00     0.022 A 
ATOM      6  C   UNL     1      14.025  30.231  22.213  1.00  0.00     0.062 A 
ATOM      7  C   UNL     1      15.625  29.348  23.836  1.00  0.00     0.019 A 
ATOM      8  C   UNL     1      16.802  29.520  24.563  1.00  0.00     0.094 A 
ATOM      9  C   UNL     1      17.531  30.702  24.399  1.00  0.00     0.336 A 
ATOM     10  O   UNL     1      18.597  30.876  25.045  1.00  0.00    -0.246 OA
ATOM     11  O   UNL     1      17.106  31.646  23.563  1.00  0.00    -0.423 OA
ENDROOT
BRANCH   1  12
ATOM     12  O   UNL     1      12.452  31.176  20.574  1.00  0.00    -0.493 OA
ATOM     13  C   UNL     1      11.140  31.425  21.068  1.00  0.00     0.278 C 
ENDBRANCH   1  12
BRANCH   2  14
ATOM     14  O   UNL     1      14.054  33.469  20.388  1.00  0.00    -0.504 OA
ATOM     15  H   UNL     1      13.206  33.447  19.835  1.00  0.00     0.293 HD
ENDBRANCH   2  14
TORSDOF 2
ENDMDL
MODEL 8
REMARK VINA RESULT:    -5.197      7.936      9.316
REMARK INTER + INTRA:          -5.698
REMARK INTER:                  -5.636
REMARK INTRA:                  -0.062
REMARK UNBOUND:                -0.045
REMARK SMILES COc1cc2ccc(=O)oc2cc1O
REMARK SMILES IDX 3 1 13 2 12 3 11 4 5 5 4 6 6 7 7 8 8 9 9 10 10 11 2 12 1 13
REMARK SMILES IDX 14 14
REMARK H PARENT 14 15
REMARK Flexibility Score: inf
ROOT
ATOM      1  C   UNL     1       7.333  33.467  21.285  1.00  0.00     0.161 A 
ATOM      2  C   UNL     1       8.535  34.192  21.166  1.00  0.00     0.161 A 
ATOM      3  C   UNL     1       9.470  34.180  22.208  1.00  0.00     0.098 A 
ATOM      4  C   UNL     1       9.223  33.452  23.374  1.00  0.00     0.142 A 
ATOM      5  C   UNL     1       8.022  32.723  23.502  1.00  0.00     0.022 A 
ATOM      6  C   UNL     1       7.083  32.732  22.462  1.00  0.00     0.062 A 
ATOM      7  C   UNL     1       7.803  32.004  24.681  1.00  0.00     0.019 A 
ATOM      8  C   UNL     1       8.767  32.027  25.688  1.00  0.00     0.094 A 
ATOM      9  C   UNL     1       9.934  32.773  25.490  1.00  0.00     0.336 A 
ATOM     10  O   UNL     1      10.818  32.806  26.386  1.00  0.00    -0.246 OA
ATOM     11  O   UNL     1      10.118  33.448  24.358  1.00  0.00    -0.423 OA
ENDROOT
BRANCH   1  12
ATOM     12  O   UNL     1       6.417  33.500  20.222  1.00  0.00    -0.493 OA
ATOM     13  C   UNL     1       6.351  32.530  19.181  1.00  0.00     0.278 C 
ENDBRANCH   1  12
BRANCH   2  14
ATOM     14  O   UNL     1       8.819  34.931  20.018  1.00  0.00    -0.504 OA
ATOM     15  H   UNL     1       9.435  34.587  19.293  1.00  0.00     0.293 HD
ENDBRANCH   2  14
TORSDOF 2
ENDMDL
MODEL 9
REMARK VINA RESULT:    -5.161      8.257      9.716
REMARK INTER + INTRA:          -5.659
REMARK INTER:                  -5.610
REMARK INTRA:                  -0.049
REMARK UNBOUND:                -0.045
REMARK SMILES COc1cc2ccc(=O)oc2cc1O
REMARK SMILES IDX 3 1 13 2 12 3 11 4 5 5 4 6 6 7 7 8 8 9 9 10 10 11 2 12 1 13
REMARK SMILES IDX 14 14
REMARK H PARENT 14 15
REMARK Flexibility Score: inf
ROOT
ATOM      1  C   UNL     1       7.243  33.065  21.174  1.00  0.00     0.161 A 
ATOM      2  C   UNL     1       6.837  31.863  21.787  1.00  0.00     0.161 A 
ATOM      3  C   UNL     1       7.357  31.499  23.035  1.00  0.00     0.098 A 
ATOM      4  C   UNL     1       8.283  32.319  23.683  1.00  0.00     0.142 A 
ATOM      5  C   UNL     1       8.696  33.524  23.077  1.00  0.00     0.022 A 
ATOM      6  C   UNL     1       8.178  33.893  21.829  1.00  0.00     0.062 A 
ATOM      7  C   UNL     1       9.623  34.324  23.751  1.00  0.00     0.019 A 
ATOM      8  C   UNL     1      10.111  33.913  24.991  1.00  0.00     0.094 A 
ATOM      9  C   UNL     1       9.655  32.706  25.530  1.00  0.00     0.336 A 
ATOM     10  O   UNL     1      10.082  32.317  26.649  1.00  0.00    -0.246 OA
ATOM     11  O   UNL     1       8.771  31.963  24.869  1.00  0.00    -0.423 OA
ENDROOT
BRANCH   1  12
ATOM     12  O   UNL     1       6.702  33.401  19.923  1.00  0.00    -0.493 OA
ATOM     13  C   UNL     1       7.450  33.937  18.836  1.00  0.00     0.278 C 
ENDBRANCH   1  12
BRANCH   2  14
ATOM     14  O   UNL     1       5.915  31.018  21.172  1.00  0.00    -0.504 OA
ATOM     15  H   UNL     1       5.246  30.472  21.700  1.00  0.00     0.293 HD
ENDBRANCH   2  14
TORSDOF 2
ENDMDL
