MODEL 1
REMARK VINA RESULT:    -5.494      0.000      0.000
REMARK INTER + INTRA:          -6.620
REMARK INTER:                  -6.457
REMARK INTRA:                  -0.163
REMARK UNBOUND:                -0.163
REMARK SMILES COc1ccc(C=CC(=O)[O-])cc1
REMARK SMILES IDX 6 1 5 2 12 3 4 4 13 5 3 6 7 7 8 8 9 9 10 10 11 11 2 12 1 13
REMARK H PARENT
REMARK Flexibility Score: inf
ROOT
ATOM      1  C   UNL     1     -35.466  -6.023 -15.123  1.00  0.00    -0.025 A 
ATOM      2  C   UNL     1     -35.985  -7.021 -15.963  1.00  0.00     0.012 A 
ATOM      3  C   UNL     1     -35.764  -6.073 -13.747  1.00  0.00     0.012 A 
ATOM      4  C   UNL     1     -36.803  -8.031 -15.450  1.00  0.00     0.047 A 
ATOM      5  C   UNL     1     -36.582  -7.085 -13.236  1.00  0.00     0.047 A 
ATOM      6  C   UNL     1     -37.110  -8.068 -14.078  1.00  0.00     0.118 A 
ENDROOT
BRANCH   1   7
ATOM      7  C   UNL     1     -34.593  -4.979 -15.715  1.00  0.00     0.010 C 
ATOM      8  C   UNL     1     -33.575  -5.242 -16.546  1.00  0.00     0.025 C 
BRANCH   8   9
ATOM      9  C   UNL     1     -32.728  -4.174 -17.101  1.00  0.00     0.064 C 
ATOM     10  O   UNL     1     -31.630  -3.902 -16.549  1.00  0.00    -0.545 OA
ATOM     11  O   UNL     1     -33.121  -3.458 -18.226  1.00  0.00    -0.545 OA
ENDBRANCH   8   9
ENDBRANCH   1   7
BRANCH   6  12
ATOM     12  O   UNL     1     -37.927  -9.060 -13.515  1.00  0.00    -0.497 OA
ATOM     13  C   UNL     1     -39.328  -9.171 -13.743  1.00  0.00     0.278 C 
ENDBRANCH   6  12
TORSDOF 3
ENDMDL
MODEL 2
REMARK VINA RESULT:    -5.471      0.096      1.344
REMARK INTER + INTRA:          -6.593
REMARK INTER:                  -6.439
REMARK INTRA:                  -0.154
REMARK UNBOUND:                -0.163
REMARK SMILES COc1ccc(C=CC(=O)[O-])cc1
REMARK SMILES IDX 6 1 5 2 12 3 4 4 13 5 3 6 7 7 8 8 9 9 10 10 11 11 2 12 1 13
REMARK H PARENT
REMARK Flexibility Score: inf
ROOT
ATOM      1  C   UNL     1     -35.408  -6.044 -15.173  1.00  0.00    -0.025 A 
ATOM      2  C   UNL     1     -35.673  -6.052 -13.794  1.00  0.00     0.012 A 
ATOM      3  C   UNL     1     -36.021  -7.018 -15.986  1.00  0.00     0.012 A 
ATOM      4  C   UNL     1     -36.507  -7.022 -13.232  1.00  0.00     0.047 A 
ATOM      5  C   UNL     1     -36.857  -7.987 -15.422  1.00  0.00     0.047 A 
ATOM      6  C   UNL     1     -37.106  -8.001 -14.046  1.00  0.00     0.118 A 
ENDROOT
BRANCH   1   7
ATOM      7  C   UNL     1     -34.523  -4.987 -15.721  1.00  0.00     0.010 C 
ATOM      8  C   UNL     1     -33.499  -5.229 -16.550  1.00  0.00     0.025 C 
BRANCH   8   9
ATOM      9  C   UNL     1     -32.639  -4.149 -17.061  1.00  0.00     0.064 C 
ATOM     10  O   UNL     1     -31.581  -3.853 -16.446  1.00  0.00    -0.545 OA
ATOM     11  O   UNL     1     -32.976  -3.448 -18.213  1.00  0.00    -0.545 OA
ENDBRANCH   8   9
ENDBRANCH   1   7
BRANCH   6  12
ATOM     12  O   UNL     1     -37.950  -8.996 -13.531  1.00  0.00    -0.497 OA
ATOM     13  C   UNL     1     -39.356  -9.046 -13.746  1.00  0.00     0.278 C 
ENDBRANCH   6  12
TORSDOF 3
ENDMDL
MODEL 3
REMARK VINA RESULT:    -5.267      1.259      6.261
REMARK INTER + INTRA:          -6.354
REMARK INTER:                  -6.189
REMARK INTRA:                  -0.165
REMARK UNBOUND:                -0.163
REMARK SMILES COc1ccc(C=CC(=O)[O-])cc1
REMARK SMILES IDX 6 1 5 2 12 3 4 4 13 5 3 6 7 7 8 8 9 9 10 10 11 11 2 12 1 13
REMARK H PARENT
REMARK Flexibility Score: inf
ROOT
ATOM      1  C   UNL     1     -36.196  -6.436 -14.475  1.00  0.00    -0.025 A 
ATOM      2  C   UNL     1     -35.891  -6.784 -15.800  1.00  0.00     0.012 A 
ATOM      3  C   UNL     1     -35.586  -5.294 -13.917  1.00  0.00     0.012 A 
ATOM      4  C   UNL     1     -34.982  -6.028 -16.546  1.00  0.00     0.047 A 
ATOM      5  C   UNL     1     -34.678  -4.539 -14.665  1.00  0.00     0.047 A 
ATOM      6  C   UNL     1     -34.365  -4.898 -15.980  1.00  0.00     0.118 A 
ENDROOT
BRANCH   1   7
ATOM      7  C   UNL     1     -37.175  -7.264 -13.729  1.00  0.00     0.010 C 
ATOM      8  C   UNL     1     -38.305  -7.744 -14.267  1.00  0.00     0.025 C 
BRANCH   8   9
ATOM      9  C   UNL     1     -39.255  -8.553 -13.485  1.00  0.00     0.064 C 
ATOM     10  O   UNL     1     -39.032  -9.780 -13.313  1.00  0.00    -0.545 OA
ATOM     11  O   UNL     1     -40.398  -7.985 -12.933  1.00  0.00    -0.545 OA
ENDBRANCH   8   9
ENDBRANCH   1   7
BRANCH   6  12
ATOM     12  O   UNL     1     -33.446  -4.108 -16.686  1.00  0.00    -0.497 OA
ATOM     13  C   UNL     1     -32.036  -4.304 -16.665  1.00  0.00     0.278 C 
ENDBRANCH   6  12
TORSDOF 3
ENDMDL
MODEL 4
REMARK VINA RESULT:    -5.189      1.554      2.615
REMARK INTER + INTRA:          -6.263
REMARK INTER:                  -6.105
REMARK INTRA:                  -0.158
REMARK UNBOUND:                -0.163
REMARK SMILES COc1ccc(C=CC(=O)[O-])cc1
REMARK SMILES IDX 6 1 5 2 12 3 4 4 13 5 3 6 7 7 8 8 9 9 10 10 11 11 2 12 1 13
REMARK H PARENT
REMARK Flexibility Score: inf
ROOT
ATOM      1  C   UNL     1     -34.136  -4.891 -16.205  1.00  0.00    -0.025 A 
ATOM      2  C   UNL     1     -34.419  -4.458 -14.900  1.00  0.00     0.012 A 
ATOM      3  C   UNL     1     -34.835  -6.004 -16.715  1.00  0.00     0.012 A 
ATOM      4  C   UNL     1     -35.356  -5.131 -14.111  1.00  0.00     0.047 A 
ATOM      5  C   UNL     1     -35.773  -6.675 -15.925  1.00  0.00     0.047 A 
ATOM      6  C   UNL     1     -36.041  -6.249 -14.620  1.00  0.00     0.118 A 
ENDROOT
BRANCH   1   7
ATOM      7  C   UNL     1     -33.141  -4.136 -17.004  1.00  0.00     0.010 C 
ATOM      8  C   UNL     1     -33.426  -3.526 -18.163  1.00  0.00     0.025 C 
BRANCH   8   9
ATOM      9  C   UNL     1     -32.402  -2.796 -18.930  1.00  0.00     0.064 C 
ATOM     10  O   UNL     1     -31.430  -2.272 -18.326  1.00  0.00    -0.545 OA
ATOM     11  O   UNL     1     -32.491  -2.676 -20.313  1.00  0.00    -0.545 OA
ENDBRANCH   8   9
ENDBRANCH   1   7
BRANCH   6  12
ATOM     12  O   UNL     1     -36.989  -6.959 -13.868  1.00  0.00    -0.497 OA
ATOM     13  C   UNL     1     -36.757  -8.236 -13.283  1.00  0.00     0.278 C 
ENDBRANCH   6  12
TORSDOF 3
ENDMDL
MODEL 5
REMARK VINA RESULT:    -5.170      1.616      6.312
REMARK INTER + INTRA:          -6.240
REMARK INTER:                  -6.075
REMARK INTRA:                  -0.165
REMARK UNBOUND:                -0.163
REMARK SMILES COc1ccc(C=CC(=O)[O-])cc1
REMARK SMILES IDX 6 1 5 2 12 3 4 4 13 5 3 6 7 7 8 8 9 9 10 10 11 11 2 12 1 13
REMARK H PARENT
REMARK Flexibility Score: inf
ROOT
ATOM      1  C   UNL     1     -35.177  -5.738 -16.640  1.00  0.00    -0.025 A 
ATOM      2  C   UNL     1     -35.762  -5.268 -17.826  1.00  0.00     0.012 A 
ATOM      3  C   UNL     1     -33.869  -5.323 -16.318  1.00  0.00     0.012 A 
ATOM      4  C   UNL     1     -35.053  -4.425 -18.686  1.00  0.00     0.047 A 
ATOM      5  C   UNL     1     -33.163  -4.478 -17.179  1.00  0.00     0.047 A 
ATOM      6  C   UNL     1     -33.743  -4.025 -18.368  1.00  0.00     0.118 A 
ENDROOT
BRANCH   1   7
ATOM      7  C   UNL     1     -35.976  -6.622 -15.756  1.00  0.00     0.010 C 
ATOM      8  C   UNL     1     -36.062  -6.465 -14.427  1.00  0.00     0.025 C 
BRANCH   8   9
ATOM      9  C   UNL     1     -36.858  -7.375 -13.587  1.00  0.00     0.064 C 
ATOM     10  O   UNL     1     -36.299  -8.355 -13.029  1.00  0.00    -0.545 OA
ATOM     11  O   UNL     1     -38.221  -7.169 -13.398  1.00  0.00    -0.545 OA
ENDBRANCH   8   9
ENDBRANCH   1   7
BRANCH   6  12
ATOM     12  O   UNL     1     -32.989  -3.181 -19.198  1.00  0.00    -0.497 OA
ATOM     13  C   UNL     1     -31.777  -2.545 -18.808  1.00  0.00     0.278 C 
ENDBRANCH   6  12
TORSDOF 3
ENDMDL
MODEL 6
REMARK VINA RESULT:    -5.142      1.899      6.742
REMARK INTER + INTRA:          -6.207
REMARK INTER:                  -6.035
REMARK INTRA:                  -0.172
REMARK UNBOUND:                -0.163
REMARK SMILES COc1ccc(C=CC(=O)[O-])cc1
REMARK SMILES IDX 6 1 5 2 12 3 4 4 13 5 3 6 7 7 8 8 9 9 10 10 11 11 2 12 1 13
REMARK H PARENT
REMARK Flexibility Score: inf
ROOT
ATOM      1  C   UNL     1     -34.772  -5.028 -17.401  1.00  0.00    -0.025 A 
ATOM      2  C   UNL     1     -33.529  -5.164 -16.763  1.00  0.00     0.012 A 
ATOM      3  C   UNL     1     -34.922  -4.034 -18.388  1.00  0.00     0.012 A 
ATOM      4  C   UNL     1     -32.466  -4.314 -17.082  1.00  0.00     0.047 A 
ATOM      5  C   UNL     1     -33.857  -3.186 -18.706  1.00  0.00     0.047 A 
ATOM      6  C   UNL     1     -32.625  -3.314 -18.058  1.00  0.00     0.118 A 
ENDROOT
BRANCH   1   7
ATOM      7  C   UNL     1     -35.865  -5.962 -17.034  1.00  0.00     0.010 C 
ATOM      8  C   UNL     1     -35.826  -6.772 -15.967  1.00  0.00     0.025 C 
BRANCH   8   9
ATOM      9  C   UNL     1     -36.930  -7.691 -15.647  1.00  0.00     0.064 C 
ATOM     10  O   UNL     1     -36.679  -8.800 -15.108  1.00  0.00    -0.545 OA
ATOM     11  O   UNL     1     -38.250  -7.355 -15.932  1.00  0.00    -0.545 OA
ENDBRANCH   8   9
ENDBRANCH   1   7
BRANCH   6  12
ATOM     12  O   UNL     1     -31.590  -2.436 -18.413  1.00  0.00    -0.497 OA
ATOM     13  C   UNL     1     -30.824  -2.540 -19.608  1.00  0.00     0.278 C 
ENDBRANCH   6  12
TORSDOF 3
ENDMDL
MODEL 7
REMARK VINA RESULT:    -5.033      2.909      7.445
REMARK INTER + INTRA:          -6.078
REMARK INTER:                  -5.921
REMARK INTRA:                  -0.158
REMARK UNBOUND:                -0.163
REMARK SMILES COc1ccc(C=CC(=O)[O-])cc1
REMARK SMILES IDX 6 1 5 2 12 3 4 4 13 5 3 6 7 7 8 8 9 9 10 10 11 11 2 12 1 13
REMARK H PARENT
REMARK Flexibility Score: inf
ROOT
ATOM      1  C   UNL     1     -33.268  -3.758 -17.734  1.00  0.00    -0.025 A 
ATOM      2  C   UNL     1     -33.517  -3.215 -19.003  1.00  0.00     0.012 A 
ATOM      3  C   UNL     1     -31.947  -3.750 -17.240  1.00  0.00     0.012 A 
ATOM      4  C   UNL     1     -32.474  -2.697 -19.776  1.00  0.00     0.047 A 
ATOM      5  C   UNL     1     -30.906  -3.231 -18.015  1.00  0.00     0.047 A 
ATOM      6  C   UNL     1     -31.156  -2.704 -19.286  1.00  0.00     0.118 A 
ENDROOT
BRANCH   1   7
ATOM      7  C   UNL     1     -34.411  -4.285 -16.949  1.00  0.00     0.010 C 
ATOM      8  C   UNL     1     -34.450  -5.519 -16.427  1.00  0.00     0.025 C 
BRANCH   8   9
ATOM      9  C   UNL     1     -35.612  -6.004 -15.663  1.00  0.00     0.064 C 
ATOM     10  O   UNL     1     -35.504  -6.197 -14.424  1.00  0.00    -0.545 OA
ATOM     11  O   UNL     1     -36.828  -6.254 -16.289  1.00  0.00    -0.545 OA
ENDBRANCH   8   9
ENDBRANCH   1   7
BRANCH   6  12
ATOM     12  O   UNL     1     -30.074  -2.198 -20.022  1.00  0.00    -0.497 OA
ATOM     13  C   UNL     1     -30.132  -1.861 -21.404  1.00  0.00     0.278 C 
ENDBRANCH   6  12
TORSDOF 3
ENDMDL
MODEL 8
REMARK VINA RESULT:    -4.935      4.353      5.436
REMARK INTER + INTRA:          -5.963
REMARK INTER:                  -5.791
REMARK INTRA:                  -0.173
REMARK UNBOUND:                -0.163
REMARK SMILES COc1ccc(C=CC(=O)[O-])cc1
REMARK SMILES IDX 6 1 5 2 12 3 4 4 13 5 3 6 7 7 8 8 9 9 10 10 11 11 2 12 1 13
REMARK H PARENT
REMARK Flexibility Score: inf
ROOT
ATOM      1  C   UNL     1     -32.341  -4.918 -17.195  1.00  0.00    -0.025 A 
ATOM      2  C   UNL     1     -33.515  -5.678 -17.082  1.00  0.00     0.012 A 
ATOM      3  C   UNL     1     -32.421  -3.629 -17.759  1.00  0.00     0.012 A 
ATOM      4  C   UNL     1     -34.737  -5.179 -17.542  1.00  0.00     0.047 A 
ATOM      5  C   UNL     1     -33.644  -3.131 -18.218  1.00  0.00     0.047 A 
ATOM      6  C   UNL     1     -34.809  -3.898 -18.118  1.00  0.00     0.118 A 
ENDROOT
BRANCH   1   7
ATOM      7  C   UNL     1     -31.072  -5.489 -16.681  1.00  0.00     0.010 C 
ATOM      8  C   UNL     1     -30.777  -6.796 -16.713  1.00  0.00     0.025 C 
BRANCH   8   9
ATOM      9  C   UNL     1     -29.508  -7.320 -16.181  1.00  0.00     0.064 C 
ATOM     10  O   UNL     1     -29.383  -7.505 -14.942  1.00  0.00    -0.545 OA
ATOM     11  O   UNL     1     -28.443  -7.614 -17.025  1.00  0.00    -0.545 OA
ENDBRANCH   8   9
ENDBRANCH   1   7
BRANCH   6  12
ATOM     12  O   UNL     1     -36.010  -3.352 -18.595  1.00  0.00    -0.497 OA
ATOM     13  C   UNL     1     -37.285  -3.968 -18.449  1.00  0.00     0.278 C 
ENDBRANCH   6  12
TORSDOF 3
ENDMDL
MODEL 9
REMARK VINA RESULT:    -4.898      2.152      3.067
REMARK INTER + INTRA:          -5.920
REMARK INTER:                  -5.759
REMARK INTRA:                  -0.161
REMARK UNBOUND:                -0.163
REMARK SMILES COc1ccc(C=CC(=O)[O-])cc1
REMARK SMILES IDX 6 1 5 2 12 3 4 4 13 5 3 6 7 7 8 8 9 9 10 10 11 11 2 12 1 13
REMARK H PARENT
REMARK Flexibility Score: inf
ROOT
ATOM      1  C   UNL     1     -34.976  -5.084 -17.584  1.00  0.00    -0.025 A 
ATOM      2  C   UNL     1     -34.849  -6.034 -16.559  1.00  0.00     0.012 A 
ATOM      3  C   UNL     1     -36.268  -4.692 -17.989  1.00  0.00     0.012 A 
ATOM      4  C   UNL     1     -35.980  -6.601 -15.967  1.00  0.00     0.047 A 
ATOM      5  C   UNL     1     -37.398  -5.259 -17.394  1.00  0.00     0.047 A 
ATOM      6  C   UNL     1     -37.268  -6.218 -16.383  1.00  0.00     0.118 A 
ENDROOT
BRANCH   1   7
ATOM      7  C   UNL     1     -33.743  -4.504 -18.173  1.00  0.00     0.010 C 
ATOM      8  C   UNL     1     -33.646  -3.237 -18.598  1.00  0.00     0.025 C 
BRANCH   8   9
ATOM      9  C   UNL     1     -32.405  -2.708 -19.187  1.00  0.00     0.064 C 
ATOM     10  O   UNL     1     -32.290  -2.642 -20.439  1.00  0.00    -0.545 OA
ATOM     11  O   UNL     1     -31.355  -2.278 -18.382  1.00  0.00    -0.545 OA
ENDBRANCH   8   9
ENDBRANCH   1   7
BRANCH   6  12
ATOM     12  O   UNL     1     -38.435  -6.757 -15.822  1.00  0.00    -0.497 OA
ATOM     13  C   UNL     1     -38.529  -7.253 -14.491  1.00  0.00     0.278 C 
ENDBRANCH   6  12
TORSDOF 3
ENDMDL
