MODEL 1
REMARK VINA RESULT:    -4.071      0.000      0.000
REMARK INTER + INTRA:          -6.534
REMARK INTER:                  -5.975
REMARK INTRA:                  -0.559
REMARK UNBOUND:                -0.559
REMARK SMILES O=C([O-])CCCCCCCC(=O)[O-]
REMARK SMILES IDX 7 1 6 2 5 3 4 4 2 5 1 6 3 7 8 8 9 9 10 10 11 11 12 12 13 13
REMARK H PARENT
REMARK Flexibility Score: inf
ROOT
ATOM      1  C   UNL     1     -14.058  -4.288 -31.860  1.00  0.00     0.000 C 
ENDROOT
BRANCH   1   2
ATOM      2  C   UNL     1     -14.326  -3.866 -33.314  1.00  0.00     0.000 C 
BRANCH   2   3
ATOM      3  C   UNL     1     -15.580  -2.985 -33.450  1.00  0.00     0.006 C 
BRANCH   3   4
ATOM      4  C   UNL     1     -15.263  -1.584 -33.988  1.00  0.00     0.053 C 
BRANCH   4   5
ATOM      5  C   UNL     1     -15.196  -0.598 -32.865  1.00  0.00     0.041 C 
ATOM      6  O   UNL     1     -14.711   0.548 -33.056  1.00  0.00    -0.550 OA
ATOM      7  O   UNL     1     -15.714  -0.927 -31.619  1.00  0.00    -0.550 OA
ENDBRANCH   4   5
ENDBRANCH   3   4
ENDBRANCH   2   3
ENDBRANCH   1   2
BRANCH   1   8
ATOM      8  C   UNL     1     -15.327  -4.275 -30.988  1.00  0.00     0.000 C 
BRANCH   8   9
ATOM      9  C   UNL     1     -15.608  -5.580 -30.222  1.00  0.00     0.006 C 
BRANCH   9  10
ATOM     10  C   UNL     1     -15.299  -6.836 -31.047  1.00  0.00     0.053 C 
BRANCH  10  11
ATOM     11  C   UNL     1     -14.322  -7.709 -30.324  1.00  0.00     0.041 C 
ATOM     12  O   UNL     1     -13.353  -7.198 -29.704  1.00  0.00    -0.550 OA
ATOM     13  O   UNL     1     -14.451  -9.092 -30.379  1.00  0.00    -0.550 OA
ENDBRANCH  10  11
ENDBRANCH   9  10
ENDBRANCH   8   9
ENDBRANCH   1   8
TORSDOF 8
ENDMDL
MODEL 2
REMARK VINA RESULT:    -4.055      0.301      6.282
REMARK INTER + INTRA:          -6.510
REMARK INTER:                  -6.011
REMARK INTRA:                  -0.499
REMARK UNBOUND:                -0.559
REMARK SMILES O=C([O-])CCCCCCCC(=O)[O-]
REMARK SMILES IDX 7 1 6 2 5 3 4 4 2 5 1 6 3 7 8 8 9 9 10 10 11 11 12 12 13 13
REMARK H PARENT
REMARK Flexibility Score: inf
ROOT
ATOM      1  C   UNL     1     -13.842  -4.619 -32.247  1.00  0.00     0.000 C 
ENDROOT
BRANCH   1   2
ATOM      2  C   UNL     1     -14.595  -4.192 -30.976  1.00  0.00     0.000 C 
BRANCH   2   3
ATOM      3  C   UNL     1     -15.387  -5.349 -30.344  1.00  0.00     0.006 C 
BRANCH   3   4
ATOM      4  C   UNL     1     -15.231  -6.665 -31.116  1.00  0.00     0.053 C 
BRANCH   4   5
ATOM      5  C   UNL     1     -14.340  -7.605 -30.369  1.00  0.00     0.041 C 
ATOM      6  O   UNL     1     -13.412  -7.158 -29.645  1.00  0.00    -0.550 OA
ATOM      7  O   UNL     1     -14.561  -8.975 -30.434  1.00  0.00    -0.550 OA
ENDBRANCH   4   5
ENDBRANCH   3   4
ENDBRANCH   2   3
ENDBRANCH   1   2
BRANCH   1   8
ATOM      8  C   UNL     1     -14.260  -3.812 -33.491  1.00  0.00     0.000 C 
BRANCH   8   9
ATOM      9  C   UNL     1     -15.540  -2.974 -33.327  1.00  0.00     0.006 C 
BRANCH   9  10
ATOM     10  C   UNL     1     -15.405  -1.556 -33.894  1.00  0.00     0.053 C 
BRANCH  10  11
ATOM     11  C   UNL     1     -15.292  -0.558 -32.785  1.00  0.00     0.041 C 
ATOM     12  O   UNL     1     -14.741   0.556 -32.989  1.00  0.00    -0.550 OA
ATOM     13  O   UNL     1     -15.748  -0.877 -31.512  1.00  0.00    -0.550 OA
ENDBRANCH  10  11
ENDBRANCH   9  10
ENDBRANCH   8   9
ENDBRANCH   1   8
TORSDOF 8
ENDMDL
MODEL 3
REMARK VINA RESULT:    -3.977      0.736      6.341
REMARK INTER + INTRA:          -6.396
REMARK INTER:                  -5.960
REMARK INTRA:                  -0.436
REMARK UNBOUND:                -0.559
REMARK SMILES O=C([O-])CCCCCCCC(=O)[O-]
REMARK SMILES IDX 7 1 6 2 5 3 4 4 2 5 1 6 3 7 8 8 9 9 10 10 11 11 12 12 13 13
REMARK H PARENT
REMARK Flexibility Score: inf
ROOT
ATOM      1  C   UNL     1     -14.202  -4.626 -32.441  1.00  0.00     0.000 C 
ENDROOT
BRANCH   1   2
ATOM      2  C   UNL     1     -15.570  -5.200 -32.032  1.00  0.00     0.000 C 
BRANCH   2   3
ATOM      3  C   UNL     1     -15.539  -5.864 -30.646  1.00  0.00     0.006 C 
BRANCH   3   4
ATOM      4  C   UNL     1     -15.161  -7.350 -30.708  1.00  0.00     0.053 C 
BRANCH   4   5
ATOM      5  C   UNL     1     -13.871  -7.590 -29.990  1.00  0.00     0.041 C 
ATOM      6  O   UNL     1     -13.129  -6.621 -29.679  1.00  0.00    -0.550 OA
ATOM      7  O   UNL     1     -13.509  -8.879 -29.620  1.00  0.00    -0.550 OA
ENDBRANCH   4   5
ENDBRANCH   3   4
ENDBRANCH   2   3
ENDBRANCH   1   2
BRANCH   1   8
ATOM      8  C   UNL     1     -14.307  -3.554 -33.542  1.00  0.00     0.000 C 
BRANCH   8   9
ATOM      9  C   UNL     1     -15.629  -2.766 -33.563  1.00  0.00     0.006 C 
BRANCH   9  10
ATOM     10  C   UNL     1     -15.421  -1.252 -33.687  1.00  0.00     0.053 C 
BRANCH  10  11
ATOM     11  C   UNL     1     -15.212  -0.640 -32.338  1.00  0.00     0.041 C 
ATOM     12  O   UNL     1     -15.821  -1.095 -31.335  1.00  0.00    -0.550 OA
ATOM     13  O   UNL     1     -14.383   0.467 -32.197  1.00  0.00    -0.550 OA
ENDBRANCH  10  11
ENDBRANCH   9  10
ENDBRANCH   8   9
ENDBRANCH   1   8
TORSDOF 8
ENDMDL
MODEL 4
REMARK VINA RESULT:    -3.950      1.449      2.260
REMARK INTER + INTRA:          -6.357
REMARK INTER:                  -6.072
REMARK INTRA:                  -0.285
REMARK UNBOUND:                -0.559
REMARK SMILES O=C([O-])CCCCCCCC(=O)[O-]
REMARK SMILES IDX 7 1 6 2 5 3 4 4 2 5 1 6 3 7 8 8 9 9 10 10 11 11 12 12 13 13
REMARK H PARENT
REMARK Flexibility Score: inf
ROOT
ATOM      1  C   UNL     1     -15.928  -5.060 -30.253  1.00  0.00     0.000 C 
ENDROOT
BRANCH   1   2
ATOM      2  C   UNL     1     -16.125  -3.723 -30.988  1.00  0.00     0.000 C 
BRANCH   2   3
ATOM      3  C   UNL     1     -16.125  -3.886 -32.517  1.00  0.00     0.006 C 
BRANCH   3   4
ATOM      4  C   UNL     1     -14.866  -3.306 -33.175  1.00  0.00     0.053 C 
BRANCH   4   5
ATOM      5  C   UNL     1     -15.097  -1.883 -33.573  1.00  0.00     0.041 C 
ATOM      6  O   UNL     1     -15.038  -1.546 -34.785  1.00  0.00    -0.550 OA
ATOM      7  O   UNL     1     -15.423  -0.935 -32.612  1.00  0.00    -0.550 OA
ENDBRANCH   4   5
ENDBRANCH   3   4
ENDBRANCH   2   3
ENDBRANCH   1   2
BRANCH   1   8
ATOM      8  C   UNL     1     -15.608  -6.227 -31.205  1.00  0.00     0.000 C 
BRANCH   8   9
ATOM      9  C   UNL     1     -14.682  -7.310 -30.624  1.00  0.00     0.006 C 
BRANCH   9  10
ATOM     10  C   UNL     1     -13.504  -6.729 -29.832  1.00  0.00     0.053 C 
BRANCH  10  11
ATOM     11  C   UNL     1     -12.755  -7.819 -29.133  1.00  0.00     0.041 C 
ATOM     12  O   UNL     1     -13.180  -9.004 -29.169  1.00  0.00    -0.550 OA
ATOM     13  O   UNL     1     -11.615  -7.519 -28.397  1.00  0.00    -0.550 OA
ENDBRANCH  10  11
ENDBRANCH   9  10
ENDBRANCH   8   9
ENDBRANCH   1   8
TORSDOF 8
ENDMDL
MODEL 5
REMARK VINA RESULT:    -3.936      1.540      6.579
REMARK INTER + INTRA:          -6.335
REMARK INTER:                  -5.982
REMARK INTRA:                  -0.354
REMARK UNBOUND:                -0.559
REMARK SMILES O=C([O-])CCCCCCCC(=O)[O-]
REMARK SMILES IDX 7 1 6 2 5 3 4 4 2 5 1 6 3 7 8 8 9 9 10 10 11 11 12 12 13 13
REMARK H PARENT
REMARK Flexibility Score: inf
ROOT
ATOM      1  C   UNL     1     -15.273  -5.227 -30.531  1.00  0.00     0.000 C 
ENDROOT
BRANCH   1   2
ATOM      2  C   UNL     1     -15.422  -6.676 -31.027  1.00  0.00     0.000 C 
BRANCH   2   3
ATOM      3  C   UNL     1     -14.434  -7.636 -30.345  1.00  0.00     0.006 C 
BRANCH   3   4
ATOM      4  C   UNL     1     -13.231  -6.909 -29.729  1.00  0.00     0.053 C 
BRANCH   4   5
ATOM      5  C   UNL     1     -12.522  -7.803 -28.762  1.00  0.00     0.041 C 
ATOM      6  O   UNL     1     -11.590  -7.350 -28.047  1.00  0.00    -0.550 OA
ATOM      7  O   UNL     1     -12.922  -9.125 -28.613  1.00  0.00    -0.550 OA
ENDBRANCH   4   5
ENDBRANCH   3   4
ENDBRANCH   2   3
ENDBRANCH   1   2
BRANCH   1   8
ATOM      8  C   UNL     1     -16.083  -4.221 -31.369  1.00  0.00     0.000 C 
BRANCH   8   9
ATOM      9  C   UNL     1     -15.734  -4.187 -32.868  1.00  0.00     0.006 C 
BRANCH   9  10
ATOM     10  C   UNL     1     -14.555  -3.260 -33.187  1.00  0.00     0.053 C 
BRANCH  10  11
ATOM     11  C   UNL     1     -15.043  -1.882 -33.502  1.00  0.00     0.041 C 
ATOM     12  O   UNL     1     -15.235  -1.535 -34.697  1.00  0.00    -0.550 OA
ATOM     13  O   UNL     1     -15.237  -0.961 -32.479  1.00  0.00    -0.550 OA
ENDBRANCH  10  11
ENDBRANCH   9  10
ENDBRANCH   8   9
ENDBRANCH   1   8
TORSDOF 8
ENDMDL
MODEL 6
REMARK VINA RESULT:    -3.846      2.064      6.291
REMARK INTER + INTRA:          -6.204
REMARK INTER:                  -5.878
REMARK INTRA:                  -0.326
REMARK UNBOUND:                -0.559
REMARK SMILES O=C([O-])CCCCCCCC(=O)[O-]
REMARK SMILES IDX 7 1 6 2 5 3 4 4 2 5 1 6 3 7 8 8 9 9 10 10 11 11 12 12 13 13
REMARK H PARENT
REMARK Flexibility Score: inf
ROOT
ATOM      1  C   UNL     1     -14.861  -6.114 -31.184  1.00  0.00     0.000 C 
ENDROOT
BRANCH   1   2
ATOM      2  C   UNL     1     -15.091  -7.544 -30.664  1.00  0.00     0.000 C 
BRANCH   2   3
ATOM      3  C   UNL     1     -13.861  -8.110 -29.935  1.00  0.00     0.006 C 
BRANCH   3   4
ATOM      4  C   UNL     1     -12.892  -7.015 -29.469  1.00  0.00     0.053 C 
BRANCH   4   5
ATOM      5  C   UNL     1     -11.820  -7.601 -28.607  1.00  0.00     0.041 C 
ATOM      6  O   UNL     1     -10.637  -7.678 -29.031  1.00  0.00    -0.550 OA
ATOM      7  O   UNL     1     -12.116  -8.019 -27.316  1.00  0.00    -0.550 OA
ENDBRANCH   4   5
ENDBRANCH   3   4
ENDBRANCH   2   3
ENDBRANCH   1   2
BRANCH   1   8
ATOM      8  C   UNL     1     -16.125  -5.493 -31.808  1.00  0.00     0.000 C 
BRANCH   8   9
ATOM      9  C   UNL     1     -15.889  -4.206 -32.618  1.00  0.00     0.006 C 
BRANCH   9  10
ATOM     10  C   UNL     1     -14.409  -3.966 -32.943  1.00  0.00     0.053 C 
BRANCH  10  11
ATOM     11  C   UNL     1     -13.887  -2.795 -32.172  1.00  0.00     0.041 C 
ATOM     12  O   UNL     1     -14.461  -1.677 -32.250  1.00  0.00    -0.550 OA
ATOM     13  O   UNL     1     -12.735  -2.925 -31.405  1.00  0.00    -0.550 OA
ENDBRANCH  10  11
ENDBRANCH   9  10
ENDBRANCH   8   9
ENDBRANCH   1   8
TORSDOF 8
ENDMDL
MODEL 7
REMARK VINA RESULT:    -3.796      2.474      3.537
REMARK INTER + INTRA:          -6.130
REMARK INTER:                  -5.865
REMARK INTRA:                  -0.265
REMARK UNBOUND:                -0.559
REMARK SMILES O=C([O-])CCCCCCCC(=O)[O-]
REMARK SMILES IDX 7 1 6 2 5 3 4 4 2 5 1 6 3 7 8 8 9 9 10 10 11 11 12 12 13 13
REMARK H PARENT
REMARK Flexibility Score: inf
ROOT
ATOM      1  C   UNL     1     -15.018  -7.362 -30.707  1.00  0.00     0.000 C 
ENDROOT
BRANCH   1   2
ATOM      2  C   UNL     1     -15.740  -6.134 -31.286  1.00  0.00     0.000 C 
BRANCH   2   3
ATOM      3  C   UNL     1     -14.771  -5.132 -31.936  1.00  0.00     0.006 C 
BRANCH   3   4
ATOM      4  C   UNL     1     -15.479  -4.146 -32.874  1.00  0.00     0.053 C 
BRANCH   4   5
ATOM      5  C   UNL     1     -14.642  -2.922 -33.070  1.00  0.00     0.041 C 
ATOM      6  O   UNL     1     -13.872  -2.528 -32.156  1.00  0.00    -0.550 OA
ATOM      7  O   UNL     1     -14.677  -2.242 -34.281  1.00  0.00    -0.550 OA
ENDBRANCH   4   5
ENDBRANCH   3   4
ENDBRANCH   2   3
ENDBRANCH   1   2
BRANCH   1   8
ATOM      8  C   UNL     1     -13.681  -7.007 -30.030  1.00  0.00     0.000 C 
BRANCH   8   9
ATOM      9  C   UNL     1     -13.040  -8.144 -29.214  1.00  0.00     0.006 C 
BRANCH   9  10
ATOM     10  C   UNL     1     -12.053  -7.638 -28.155  1.00  0.00     0.053 C 
BRANCH  10  11
ATOM     11  C   UNL     1     -10.646  -7.941 -28.563  1.00  0.00     0.041 C 
ATOM     12  O   UNL     1     -10.060  -7.214 -29.407  1.00  0.00    -0.550 OA
ATOM     13  O   UNL     1      -9.998  -9.057 -28.048  1.00  0.00    -0.550 OA
ENDBRANCH  10  11
ENDBRANCH   9  10
ENDBRANCH   8   9
ENDBRANCH   1   8
TORSDOF 8
ENDMDL
MODEL 8
REMARK VINA RESULT:    -3.742     24.653     25.980
REMARK INTER + INTRA:          -6.051
REMARK INTER:                  -5.524
REMARK INTRA:                  -0.528
REMARK UNBOUND:                -0.559
REMARK SMILES O=C([O-])CCCCCCCC(=O)[O-]
REMARK SMILES IDX 7 1 6 2 5 3 4 4 2 5 1 6 3 7 8 8 9 9 10 10 11 11 12 12 13 13
REMARK H PARENT
REMARK Flexibility Score: inf
ROOT
ATOM      1  C   UNL     1       1.883  10.342 -18.175  1.00  0.00     0.000 C 
ENDROOT
BRANCH   1   2
ATOM      2  C   UNL     1       1.134  10.611 -16.859  1.00  0.00     0.000 C 
BRANCH   2   3
ATOM      3  C   UNL     1       1.883  10.064 -15.632  1.00  0.00     0.006 C 
BRANCH   3   4
ATOM      4  C   UNL     1       1.084   8.992 -14.879  1.00  0.00     0.053 C 
BRANCH   4   5
ATOM      5  C   UNL     1       0.751   7.854 -15.791  1.00  0.00     0.041 C 
ATOM      6  O   UNL     1      -0.449   7.591 -16.064  1.00  0.00    -0.550 OA
ATOM      7  O   UNL     1       1.769   7.112 -16.377  1.00  0.00    -0.550 OA
ENDBRANCH   4   5
ENDBRANCH   3   4
ENDBRANCH   2   3
ENDBRANCH   1   2
BRANCH   1   8
ATOM      8  C   UNL     1       3.367   9.991 -17.959  1.00  0.00     0.000 C 
BRANCH   8   9
ATOM      9  C   UNL     1       4.125   9.551 -19.224  1.00  0.00     0.006 C 
BRANCH   9  10
ATOM     10  C   UNL     1       3.431   8.404 -19.970  1.00  0.00     0.053 C 
BRANCH  10  11
ATOM     11  C   UNL     1       2.939   8.869 -21.304  1.00  0.00     0.041 C 
ATOM     12  O   UNL     1       3.754   9.269 -22.176  1.00  0.00    -0.550 OA
ATOM     13  O   UNL     1       1.575   8.910 -21.567  1.00  0.00    -0.550 OA
ENDBRANCH  10  11
ENDBRANCH   9  10
ENDBRANCH   8   9
ENDBRANCH   1   8
TORSDOF 8
ENDMDL
