MODEL 1
REMARK VINA RESULT:    -3.765      0.000      0.000
REMARK INTER + INTRA:          -5.351
REMARK INTER:                  -4.866
REMARK INTRA:                  -0.485
REMARK UNBOUND:                -0.485
REMARK SMILES CCO[C@H]1O[C@@H](CO)[C@@H](O)[C@@H](O)[C@H]1O
REMARK SMILES IDX 4 1 13 2 11 3 9 4 6 5 5 6 3 7 2 8 1 9 14 10 12 12 7 14 8 15
REMARK SMILES IDX 10 17
REMARK H PARENT 14 11 12 13 8 16 10 18
REMARK Flexibility Score: inf
ROOT
ATOM      1  C   UNL     1       6.242  32.180  34.206  1.00  0.00     0.281 C 
ATOM      2  C   UNL     1       6.170  32.844  32.819  1.00  0.00     0.202 C 
ATOM      3  C   UNL     1       7.570  33.025  32.218  1.00  0.00     0.179 C 
ATOM      4  C   UNL     1       8.448  33.774  33.227  1.00  0.00     0.177 C 
ATOM      5  C   UNL     1       8.413  33.117  34.631  1.00  0.00     0.178 C 
ATOM      6  O   UNL     1       7.091  32.880  35.111  1.00  0.00    -0.341 OA
ENDROOT
BRANCH   1   7
ATOM      7  O   UNL     1       6.630  30.821  34.083  1.00  0.00    -0.350 OA
BRANCH   7   8
ATOM      8  C   UNL     1       5.977  30.028  35.052  1.00  0.00     0.160 C 
ATOM      9  C   UNL     1       4.492  30.355  35.045  1.00  0.00     0.035 C 
ENDBRANCH   7   8
ENDBRANCH   1   7
BRANCH   2  10
ATOM     10  O   UNL     1       5.360  32.074  31.968  1.00  0.00    -0.385 OA
ATOM     11  H   UNL     1       5.382  31.144  32.315  1.00  0.00     0.211 HD
ENDBRANCH   2  10
BRANCH   3  12
ATOM     12  O   UNL     1       8.149  31.785  31.892  1.00  0.00    -0.387 OA
ATOM     13  H   UNL     1       9.117  31.947  31.747  1.00  0.00     0.211 HD
ENDBRANCH   3  12
BRANCH   5  14
ATOM     14  C   UNL     1       9.336  31.886  34.794  1.00  0.00     0.191 C 
BRANCH  14  15
ATOM     15  O   UNL     1      10.682  32.276  34.738  1.00  0.00    -0.394 OA
ATOM     16  H   UNL     1      11.078  32.072  35.623  1.00  0.00     0.210 HD
ENDBRANCH  14  15
ENDBRANCH   5  14
BRANCH   4  17
ATOM     17  O   UNL     1       9.768  33.871  32.756  1.00  0.00    -0.387 OA
ATOM     18  H   UNL     1       9.985  33.005  32.323  1.00  0.00     0.211 HD
ENDBRANCH   4  17
TORSDOF 7
ENDMDL
MODEL 2
REMARK VINA RESULT:    -3.613      2.033      4.422
REMARK INTER + INTRA:          -5.154
REMARK INTER:                  -4.991
REMARK INTRA:                  -0.163
REMARK UNBOUND:                -0.485
REMARK SMILES CCO[C@H]1O[C@@H](CO)[C@@H](O)[C@@H](O)[C@H]1O
REMARK SMILES IDX 4 1 13 2 11 3 9 4 6 5 5 6 3 7 2 8 1 9 14 10 12 12 7 14 8 15
REMARK SMILES IDX 10 17
REMARK H PARENT 14 11 12 13 8 16 10 18
REMARK Flexibility Score: inf
ROOT
ATOM      1  C   UNL     1       7.216  34.613  34.739  1.00  0.00     0.281 C 
ATOM      2  C   UNL     1       8.677  34.241  35.045  1.00  0.00     0.202 C 
ATOM      3  C   UNL     1       9.219  33.235  34.021  1.00  0.00     0.179 C 
ATOM      4  C   UNL     1       8.268  32.036  33.955  1.00  0.00     0.177 C 
ATOM      5  C   UNL     1       6.796  32.470  33.736  1.00  0.00     0.178 C 
ATOM      6  O   UNL     1       6.362  33.476  34.651  1.00  0.00    -0.341 OA
ENDROOT
BRANCH   1   7
ATOM      7  O   UNL     1       7.143  35.403  33.563  1.00  0.00    -0.350 OA
BRANCH   7   8
ATOM      8  C   UNL     1       6.615  36.679  33.853  1.00  0.00     0.160 C 
ATOM      9  C   UNL     1       7.114  37.674  32.816  1.00  0.00     0.035 C 
ENDBRANCH   7   8
ENDBRANCH   1   7
BRANCH   2  10
ATOM     10  O   UNL     1       9.467  35.402  35.066  1.00  0.00    -0.385 OA
ATOM     11  H   UNL     1       8.842  36.174  35.048  1.00  0.00     0.211 HD
ENDBRANCH   2  10
BRANCH   3  12
ATOM     12  O   UNL     1       9.353  33.824  32.750  1.00  0.00    -0.387 OA
ATOM     13  H   UNL     1       9.691  33.118  32.139  1.00  0.00     0.211 HD
ENDBRANCH   3  12
BRANCH   5  14
ATOM     14  C   UNL     1       6.428  32.799  32.270  1.00  0.00     0.191 C 
BRANCH  14  15
ATOM     15  O   UNL     1       5.252  32.130  31.902  1.00  0.00    -0.394 OA
ATOM     16  H   UNL     1       5.448  31.160  31.942  1.00  0.00     0.210 HD
ENDBRANCH  14  15
ENDBRANCH   5  14
BRANCH   4  17
ATOM     17  O   UNL     1       8.675  31.137  32.954  1.00  0.00    -0.387 OA
ATOM     18  H   UNL     1       9.466  30.652  33.306  1.00  0.00     0.211 HD
ENDBRANCH   4  17
TORSDOF 7
ENDMDL
MODEL 3
REMARK VINA RESULT:    -3.167      2.930      5.200
REMARK INTER + INTRA:          -4.578
REMARK INTER:                  -4.121
REMARK INTRA:                  -0.457
REMARK UNBOUND:                -0.485
REMARK SMILES CCO[C@H]1O[C@@H](CO)[C@@H](O)[C@@H](O)[C@H]1O
REMARK SMILES IDX 4 1 13 2 11 3 9 4 6 5 5 6 3 7 2 8 1 9 14 10 12 12 7 14 8 15
REMARK SMILES IDX 10 17
REMARK H PARENT 14 11 12 13 8 16 10 18
REMARK Flexibility Score: inf
ROOT
ATOM      1  C   UNL     1      10.903  34.256  34.852  1.00  0.00     0.281 C 
ATOM      2  C   UNL     1       9.769  33.215  34.867  1.00  0.00     0.202 C 
ATOM      3  C   UNL     1       8.648  33.604  33.892  1.00  0.00     0.179 C 
ATOM      4  C   UNL     1       8.192  35.031  34.208  1.00  0.00     0.177 C 
ATOM      5  C   UNL     1       9.381  36.023  34.272  1.00  0.00     0.178 C 
ATOM      6  O   UNL     1      10.442  35.579  35.117  1.00  0.00    -0.341 OA
ENDROOT
BRANCH   1   7
ATOM      7  O   UNL     1      11.615  34.194  33.628  1.00  0.00    -0.350 OA
BRANCH   7   8
ATOM      8  C   UNL     1      13.000  34.355  33.849  1.00  0.00     0.160 C 
ATOM      9  C   UNL     1      13.485  33.260  34.786  1.00  0.00     0.035 C 
ENDBRANCH   7   8
ENDBRANCH   1   7
BRANCH   2  10
ATOM     10  O   UNL     1      10.286  31.949  34.549  1.00  0.00    -0.385 OA
ATOM     11  H   UNL     1      10.832  32.060  33.727  1.00  0.00     0.211 HD
ENDBRANCH   2  10
BRANCH   3  12
ATOM     12  O   UNL     1       9.080  33.512  32.557  1.00  0.00    -0.387 OA
ATOM     13  H   UNL     1       9.848  32.882  32.544  1.00  0.00     0.211 HD
ENDBRANCH   3  12
BRANCH   5  14
ATOM     14  C   UNL     1       9.883  36.525  32.898  1.00  0.00     0.191 C 
BRANCH  14  15
ATOM     15  O   UNL     1       8.915  37.340  32.294  1.00  0.00    -0.394 OA
ATOM     16  H   UNL     1       8.319  37.663  33.017  1.00  0.00     0.210 HD
ENDBRANCH  14  15
ENDBRANCH   5  14
BRANCH   4  17
ATOM     17  O   UNL     1       7.235  35.462  33.273  1.00  0.00    -0.387 OA
ATOM     18  H   UNL     1       7.735  35.808  32.488  1.00  0.00     0.211 HD
ENDBRANCH   4  17
TORSDOF 7
ENDMDL
MODEL 4
REMARK VINA RESULT:    -3.143      1.237      4.504
REMARK INTER + INTRA:          -4.547
REMARK INTER:                  -4.238
REMARK INTRA:                  -0.310
REMARK UNBOUND:                -0.485
REMARK SMILES CCO[C@H]1O[C@@H](CO)[C@@H](O)[C@@H](O)[C@H]1O
REMARK SMILES IDX 4 1 13 2 11 3 9 4 6 5 5 6 3 7 2 8 1 9 14 10 12 12 7 14 8 15
REMARK SMILES IDX 10 17
REMARK H PARENT 14 11 12 13 8 16 10 18
REMARK Flexibility Score: inf
ROOT
ATOM      1  C   UNL     1       8.493  33.909  34.554  1.00  0.00     0.281 C 
ATOM      2  C   UNL     1       9.115  32.621  35.124  1.00  0.00     0.202 C 
ATOM      3  C   UNL     1       8.504  31.374  34.470  1.00  0.00     0.179 C 
ATOM      4  C   UNL     1       6.979  31.445  34.602  1.00  0.00     0.177 C 
ATOM      5  C   UNL     1       6.412  32.797  34.098  1.00  0.00     0.178 C 
ATOM      6  O   UNL     1       7.072  33.930  34.660  1.00  0.00    -0.341 OA
ENDROOT
BRANCH   1   7
ATOM      7  O   UNL     1       8.912  34.108  33.214  1.00  0.00    -0.350 OA
BRANCH   7   8
ATOM      8  C   UNL     1       9.739  35.248  33.116  1.00  0.00     0.160 C 
ATOM      9  C   UNL     1       8.883  36.498  33.250  1.00  0.00     0.035 C 
ENDBRANCH   7   8
ENDBRANCH   1   7
BRANCH   2  10
ATOM     10  O   UNL     1      10.507  32.647  34.939  1.00  0.00    -0.385 OA
ATOM     11  H   UNL     1      10.665  32.748  33.964  1.00  0.00     0.211 HD
ENDBRANCH   2  10
BRANCH   3  12
ATOM     12  O   UNL     1       8.875  31.275  33.117  1.00  0.00    -0.387 OA
ATOM     13  H   UNL     1       8.041  31.344  32.583  1.00  0.00     0.211 HD
ENDBRANCH   3  12
BRANCH   5  14
ATOM     14  C   UNL     1       6.250  32.901  32.563  1.00  0.00     0.191 C 
BRANCH  14  15
ATOM     15  O   UNL     1       5.166  32.123  32.134  1.00  0.00    -0.394 OA
ATOM     16  H   UNL     1       4.962  32.401  31.205  1.00  0.00     0.210 HD
ENDBRANCH  14  15
ENDBRANCH   5  14
BRANCH   4  17
ATOM     17  O   UNL     1       6.375  30.371  33.927  1.00  0.00    -0.387 OA
ATOM     18  H   UNL     1       5.880  29.844  34.607  1.00  0.00     0.211 HD
ENDBRANCH   4  17
TORSDOF 7
ENDMDL
MODEL 5
REMARK VINA RESULT:    -2.933      2.691      5.093
REMARK INTER + INTRA:          -4.275
REMARK INTER:                  -3.800
REMARK INTRA:                  -0.475
REMARK UNBOUND:                -0.485
REMARK SMILES CCO[C@H]1O[C@@H](CO)[C@@H](O)[C@@H](O)[C@H]1O
REMARK SMILES IDX 4 1 13 2 11 3 9 4 6 5 5 6 3 7 2 8 1 9 14 10 12 12 7 14 8 15
REMARK SMILES IDX 10 17
REMARK H PARENT 14 11 12 13 8 16 10 18
REMARK Flexibility Score: inf
ROOT
ATOM      1  C   UNL     1       9.208  36.481  34.275  1.00  0.00     0.281 C 
ATOM      2  C   UNL     1      10.669  36.001  34.223  1.00  0.00     0.202 C 
ATOM      3  C   UNL     1      10.758  34.549  33.734  1.00  0.00     0.179 C 
ATOM      4  C   UNL     1       9.844  33.679  34.602  1.00  0.00     0.177 C 
ATOM      5  C   UNL     1       8.407  34.255  34.695  1.00  0.00     0.178 C 
ATOM      6  O   UNL     1       8.375  35.634  35.062  1.00  0.00    -0.341 OA
ENDROOT
BRANCH   1   7
ATOM      7  O   UNL     1       8.692  36.636  32.963  1.00  0.00    -0.350 OA
BRANCH   7   8
ATOM      8  C   UNL     1       8.036  37.879  32.830  1.00  0.00     0.160 C 
ATOM      9  C   UNL     1       6.532  37.650  32.815  1.00  0.00     0.035 C 
ENDBRANCH   7   8
ENDBRANCH   1   7
BRANCH   2  10
ATOM     10  O   UNL     1      11.417  36.851  33.392  1.00  0.00    -0.385 OA
ATOM     11  H   UNL     1      11.761  36.293  32.646  1.00  0.00     0.211 HD
ENDBRANCH   2  10
BRANCH   3  12
ATOM     12  O   UNL     1      10.394  34.445  32.380  1.00  0.00    -0.387 OA
ATOM     13  H   UNL     1       9.520  33.973  32.351  1.00  0.00     0.211 HD
ENDBRANCH   3  12
BRANCH   5  14
ATOM     14  C   UNL     1       7.501  33.939  33.483  1.00  0.00     0.191 C 
BRANCH  14  15
ATOM     15  O   UNL     1       7.063  32.608  33.536  1.00  0.00    -0.394 OA
ATOM     16  H   UNL     1       6.073  32.629  33.504  1.00  0.00     0.210 HD
ENDBRANCH  14  15
ENDBRANCH   5  14
BRANCH   4  17
ATOM     17  O   UNL     1       9.818  32.358  34.123  1.00  0.00    -0.387 OA
ATOM     18  H   UNL     1       9.823  31.763  34.917  1.00  0.00     0.211 HD
ENDBRANCH   4  17
TORSDOF 7
ENDMDL
MODEL 6
REMARK VINA RESULT:    -2.928      1.720      2.625
REMARK INTER + INTRA:          -4.269
REMARK INTER:                  -4.177
REMARK INTRA:                  -0.092
REMARK UNBOUND:                -0.485
REMARK SMILES CCO[C@H]1O[C@@H](CO)[C@@H](O)[C@@H](O)[C@H]1O
REMARK SMILES IDX 4 1 13 2 11 3 9 4 6 5 5 6 3 7 2 8 1 9 14 10 12 12 7 14 8 15
REMARK SMILES IDX 10 17
REMARK H PARENT 14 11 12 13 8 16 10 18
REMARK Flexibility Score: inf
ROOT
ATOM      1  C   UNL     1       6.661  33.396  35.095  1.00  0.00     0.281 C 
ATOM      2  C   UNL     1       7.158  34.852  35.094  1.00  0.00     0.202 C 
ATOM      3  C   UNL     1       8.041  35.135  33.870  1.00  0.00     0.179 C 
ATOM      4  C   UNL     1       9.161  34.091  33.818  1.00  0.00     0.177 C 
ATOM      5  C   UNL     1       8.614  32.643  33.915  1.00  0.00     0.178 C 
ATOM      6  O   UNL     1       7.723  32.449  35.013  1.00  0.00    -0.341 OA
ENDROOT
BRANCH   1   7
ATOM      7  O   UNL     1       5.712  33.196  34.061  1.00  0.00    -0.350 OA
BRANCH   7   8
ATOM      8  C   UNL     1       4.591  32.486  34.544  1.00  0.00     0.160 C 
ATOM      9  C   UNL     1       4.370  31.255  33.680  1.00  0.00     0.035 C 
ENDBRANCH   7   8
ENDBRANCH   1   7
BRANCH   2  10
ATOM     10  O   UNL     1       6.059  35.727  35.125  1.00  0.00    -0.385 OA
ATOM     11  H   UNL     1       5.688  35.688  36.045  1.00  0.00     0.211 HD
ENDBRANCH   2  10
BRANCH   3  12
ATOM     12  O   UNL     1       7.289  35.106  32.682  1.00  0.00    -0.387 OA
ATOM     13  H   UNL     1       7.621  35.848  32.112  1.00  0.00     0.211 HD
ENDBRANCH   3  12
BRANCH   5  14
ATOM     14  C   UNL     1       8.063  32.067  32.590  1.00  0.00     0.191 C 
BRANCH  14  15
ATOM     15  O   UNL     1       8.847  32.496  31.510  1.00  0.00    -0.394 OA
ATOM     16  H   UNL     1       8.786  33.485  31.484  1.00  0.00     0.210 HD
ENDBRANCH  14  15
ENDBRANCH   5  14
BRANCH   4  17
ATOM     17  O   UNL     1       9.933  34.253  32.656  1.00  0.00    -0.387 OA
ATOM     18  H   UNL     1      10.471  33.426  32.549  1.00  0.00     0.211 HD
ENDBRANCH   4  17
TORSDOF 7
ENDMDL
MODEL 7
REMARK VINA RESULT:    -2.848      3.636      4.655
REMARK INTER + INTRA:          -4.165
REMARK INTER:                  -3.776
REMARK INTRA:                  -0.390
REMARK UNBOUND:                -0.485
REMARK SMILES CCO[C@H]1O[C@@H](CO)[C@@H](O)[C@@H](O)[C@H]1O
REMARK SMILES IDX 4 1 13 2 11 3 9 4 6 5 5 6 3 7 2 8 1 9 14 10 12 12 7 14 8 15
REMARK SMILES IDX 10 17
REMARK H PARENT 14 11 12 13 8 16 10 18
REMARK Flexibility Score: inf
ROOT
ATOM      1  C   UNL     1       9.952  36.441  34.279  1.00  0.00     0.281 C 
ATOM      2  C   UNL     1      10.380  36.700  32.824  1.00  0.00     0.202 C 
ATOM      3  C   UNL     1      11.154  35.504  32.253  1.00  0.00     0.179 C 
ATOM      4  C   UNL     1      12.314  35.170  33.196  1.00  0.00     0.177 C 
ATOM      5  C   UNL     1      11.844  35.010  34.665  1.00  0.00     0.178 C 
ATOM      6  O   UNL     1      11.048  36.101  35.125  1.00  0.00    -0.341 OA
ENDROOT
BRANCH   1   7
ATOM      7  O   UNL     1       8.938  35.450  34.328  1.00  0.00    -0.350 OA
BRANCH   7   8
ATOM      8  C   UNL     1       7.855  35.887  35.120  1.00  0.00     0.160 C 
ATOM      9  C   UNL     1       6.626  35.054  34.788  1.00  0.00     0.035 C 
ENDBRANCH   7   8
ENDBRANCH   1   7
BRANCH   2  10
ATOM     10  O   UNL     1       9.247  36.977  32.040  1.00  0.00    -0.385 OA
ATOM     11  H   UNL     1       9.116  36.197  31.440  1.00  0.00     0.211 HD
ENDBRANCH   2  10
BRANCH   3  12
ATOM     12  O   UNL     1      10.317  34.385  32.091  1.00  0.00    -0.387 OA
ATOM     13  H   UNL     1      10.897  33.628  31.815  1.00  0.00     0.211 HD
ENDBRANCH   3  12
BRANCH   5  14
ATOM     14  C   UNL     1      11.222  33.634  35.000  1.00  0.00     0.191 C 
BRANCH  14  15
ATOM     15  O   UNL     1      12.202  32.633  34.957  1.00  0.00    -0.394 OA
ATOM     16  H   UNL     1      13.078  33.091  34.885  1.00  0.00     0.210 HD
ENDBRANCH  14  15
ENDBRANCH   5  14
BRANCH   4  17
ATOM     17  O   UNL     1      12.989  34.017  32.762  1.00  0.00    -0.387 OA
ATOM     18  H   UNL     1      13.935  34.275  32.610  1.00  0.00     0.211 HD
ENDBRANCH   4  17
TORSDOF 7
ENDMDL
MODEL 8
REMARK VINA RESULT:    -2.766      9.215     11.749
REMARK INTER + INTRA:          -4.060
REMARK INTER:                  -3.650
REMARK INTRA:                  -0.410
REMARK UNBOUND:                -0.485
REMARK SMILES CCO[C@H]1O[C@@H](CO)[C@@H](O)[C@@H](O)[C@H]1O
REMARK SMILES IDX 4 1 13 2 11 3 9 4 6 5 5 6 3 7 2 8 1 9 14 10 12 12 7 14 8 15
REMARK SMILES IDX 10 17
REMARK H PARENT 14 11 12 13 8 16 10 18
REMARK Flexibility Score: inf
ROOT
ATOM      1  C   UNL     1      18.322  36.769  32.192  1.00  0.00     0.281 C 
ATOM      2  C   UNL     1      18.583  37.985  33.099  1.00  0.00     0.202 C 
ATOM      3  C   UNL     1      17.519  38.093  34.201  1.00  0.00     0.179 C 
ATOM      4  C   UNL     1      16.132  38.082  33.551  1.00  0.00     0.177 C 
ATOM      5  C   UNL     1      15.953  36.889  32.577  1.00  0.00     0.178 C 
ATOM      6  O   UNL     1      17.013  36.770  31.629  1.00  0.00    -0.341 OA
ENDROOT
BRANCH   1   7
ATOM      7  O   UNL     1      18.579  35.565  32.895  1.00  0.00    -0.350 OA
BRANCH   7   8
ATOM      8  C   UNL     1      19.458  34.739  32.161  1.00  0.00     0.160 C 
ATOM      9  C   UNL     1      20.817  34.726  32.845  1.00  0.00     0.035 C 
ENDBRANCH   7   8
ENDBRANCH   1   7
BRANCH   2  10
ATOM     10  O   UNL     1      19.868  37.891  33.658  1.00  0.00    -0.385 OA
ATOM     11  H   UNL     1      20.428  37.392  33.007  1.00  0.00     0.211 HD
ENDBRANCH   2  10
BRANCH   3  12
ATOM     12  O   UNL     1      17.635  37.039  35.125  1.00  0.00    -0.387 OA
ATOM     13  H   UNL     1      17.500  36.195  34.619  1.00  0.00     0.211 HD
ENDBRANCH   3  12
BRANCH   5  14
ATOM     14  C   UNL     1      15.607  35.544  33.257  1.00  0.00     0.191 C 
BRANCH  14  15
ATOM     15  O   UNL     1      14.218  35.412  33.395  1.00  0.00    -0.394 OA
ATOM     16  H   UNL     1      13.949  35.987  34.156  1.00  0.00     0.210 HD
ENDBRANCH  14  15
ENDBRANCH   5  14
BRANCH   4  17
ATOM     17  O   UNL     1      15.127  38.078  34.532  1.00  0.00    -0.387 OA
ATOM     18  H   UNL     1      14.774  37.151  34.580  1.00  0.00     0.211 HD
ENDBRANCH   4  17
TORSDOF 7
ENDMDL
