MODEL 1
REMARK VINA RESULT:    -2.748      0.000      0.000
REMARK INTER + INTRA:          -3.321
REMARK INTER:                  -3.230
REMARK INTRA:                  -0.090
REMARK UNBOUND:                -0.090
REMARK SMILES O=C([O-])CCC(=O)[O-]
REMARK SMILES IDX 4 1 2 2 1 3 3 4 5 5 6 6 7 7 8 8
REMARK H PARENT
REMARK Flexibility Score: inf
ROOT
ATOM      1  C   UNL     1      58.552  17.686  50.577  1.00  0.00     0.059 C 
ENDROOT
BRANCH   1   2
ATOM      2  C   UNL     1      59.191  18.043  49.273  1.00  0.00     0.042 C 
ATOM      3  O   UNL     1      59.635  19.205  49.082  1.00  0.00    -0.550 OA
ATOM      4  O   UNL     1      59.251  17.106  48.248  1.00  0.00    -0.550 OA
ENDBRANCH   1   2
BRANCH   1   5
ATOM      5  C   UNL     1      58.117  18.949  51.324  1.00  0.00     0.059 C 
BRANCH   5   6
ATOM      6  C   UNL     1      56.629  19.092  51.287  1.00  0.00     0.042 C 
ATOM      7  O   UNL     1      56.021  19.115  50.183  1.00  0.00    -0.550 OA
ATOM      8  O   UNL     1      55.906  19.151  52.471  1.00  0.00    -0.550 OA
ENDBRANCH   5   6
ENDBRANCH   1   5
TORSDOF 3
ENDMDL
MODEL 2
REMARK VINA RESULT:    -2.735      0.085      3.865
REMARK INTER + INTRA:          -3.305
REMARK INTER:                  -3.208
REMARK INTRA:                  -0.097
REMARK UNBOUND:                -0.090
REMARK SMILES O=C([O-])CCC(=O)[O-]
REMARK SMILES IDX 4 1 2 2 1 3 3 4 5 5 6 6 7 7 8 8
REMARK H PARENT
REMARK Flexibility Score: inf
ROOT
ATOM      1  C   UNL     1      58.109  18.918  51.287  1.00  0.00     0.059 C 
ENDROOT
BRANCH   1   2
ATOM      2  C   UNL     1      56.622  19.086  51.313  1.00  0.00     0.042 C 
ATOM      3  O   UNL     1      56.007  19.119  52.411  1.00  0.00    -0.550 OA
ATOM      4  O   UNL     1      55.910  19.155  50.122  1.00  0.00    -0.550 OA
ENDBRANCH   1   2
BRANCH   1   5
ATOM      5  C   UNL     1      58.492  17.662  50.502  1.00  0.00     0.059 C 
BRANCH   5   6
ATOM      6  C   UNL     1      59.141  18.033  49.206  1.00  0.00     0.042 C 
ATOM      7  O   UNL     1      59.631  19.183  49.049  1.00  0.00    -0.550 OA
ATOM      8  O   UNL     1      59.249  17.094  48.189  1.00  0.00    -0.550 OA
ENDBRANCH   5   6
ENDBRANCH   1   5
TORSDOF 3
ENDMDL
MODEL 3
REMARK VINA RESULT:    -2.722      0.110      3.766
REMARK INTER + INTRA:          -3.290
REMARK INTER:                  -3.197
REMARK INTRA:                  -0.093
REMARK UNBOUND:                -0.090
REMARK SMILES O=C([O-])CCC(=O)[O-]
REMARK SMILES IDX 4 1 2 2 1 3 3 4 5 5 6 6 7 7 8 8
REMARK H PARENT
REMARK Flexibility Score: inf
ROOT
ATOM      1  C   UNL     1      58.204  18.859  51.331  1.00  0.00     0.059 C 
ENDROOT
BRANCH   1   2
ATOM      2  C   UNL     1      56.722  19.065  51.330  1.00  0.00     0.042 C 
ATOM      3  O   UNL     1      56.093  19.145  52.417  1.00  0.00    -0.550 OA
ATOM      4  O   UNL     1      56.029  19.118  50.127  1.00  0.00    -0.550 OA
ENDBRANCH   1   2
BRANCH   1   5
ATOM      5  C   UNL     1      58.571  17.608  50.530  1.00  0.00     0.059 C 
BRANCH   5   6
ATOM      6  C   UNL     1      59.180  17.987  49.218  1.00  0.00     0.042 C 
ATOM      7  O   UNL     1      59.246  17.146  48.282  1.00  0.00    -0.550 OA
ATOM      8  O   UNL     1      59.632  19.284  49.010  1.00  0.00    -0.550 OA
ENDBRANCH   5   6
ENDBRANCH   1   5
TORSDOF 3
ENDMDL
MODEL 4
REMARK VINA RESULT:    -2.624     20.633     21.503
REMARK INTER + INTRA:          -3.175
REMARK INTER:                  -3.057
REMARK INTRA:                  -0.118
REMARK UNBOUND:                -0.090
REMARK SMILES O=C([O-])CCC(=O)[O-]
REMARK SMILES IDX 4 1 2 2 1 3 3 4 5 5 6 6 7 7 8 8
REMARK H PARENT
REMARK Flexibility Score: inf
ROOT
ATOM      1  C   UNL     1      72.001  32.388  60.236  1.00  0.00     0.059 C 
ENDROOT
BRANCH   1   2
ATOM      2  C   UNL     1      71.280  32.563  58.936  1.00  0.00     0.042 C 
ATOM      3  O   UNL     1      71.265  33.685  58.366  1.00  0.00    -0.550 OA
ATOM      4  O   UNL     1      70.584  31.497  58.379  1.00  0.00    -0.550 OA
ENDBRANCH   1   2
BRANCH   1   5
ATOM      5  C   UNL     1      72.764  31.062  60.249  1.00  0.00     0.059 C 
BRANCH   5   6
ATOM      6  C   UNL     1      72.293  30.199  61.377  1.00  0.00     0.042 C 
ATOM      7  O   UNL     1      71.160  29.652  61.326  1.00  0.00    -0.550 OA
ATOM      8  O   UNL     1      73.125  29.958  62.463  1.00  0.00    -0.550 OA
ENDBRANCH   5   6
ENDBRANCH   1   5
TORSDOF 3
ENDMDL
MODEL 5
REMARK VINA RESULT:    -2.620     20.763     21.542
REMARK INTER + INTRA:          -3.171
REMARK INTER:                  -3.047
REMARK INTRA:                  -0.124
REMARK UNBOUND:                -0.090
REMARK SMILES O=C([O-])CCC(=O)[O-]
REMARK SMILES IDX 4 1 2 2 1 3 3 4 5 5 6 6 7 7 8 8
REMARK H PARENT
REMARK Flexibility Score: inf
ROOT
ATOM      1  C   UNL     1      72.773  31.189  60.134  1.00  0.00     0.059 C 
ENDROOT
BRANCH   1   2
ATOM      2  C   UNL     1      72.264  30.210  61.144  1.00  0.00     0.042 C 
ATOM      3  O   UNL     1      71.047  29.887  61.155  1.00  0.00    -0.550 OA
ATOM      4  O   UNL     1      73.124  29.691  62.104  1.00  0.00    -0.550 OA
ENDBRANCH   1   2
BRANCH   1   5
ATOM      5  C   UNL     1      71.997  32.505  60.226  1.00  0.00     0.059 C 
BRANCH   5   6
ATOM      6  C   UNL     1      71.259  32.767  58.951  1.00  0.00     0.042 C 
ATOM      7  O   UNL     1      71.204  33.933  58.479  1.00  0.00    -0.550 OA
ATOM      8  O   UNL     1      70.672  31.715  58.259  1.00  0.00    -0.550 OA
ENDBRANCH   5   6
ENDBRANCH   1   5
TORSDOF 3
ENDMDL
MODEL 6
REMARK VINA RESULT:    -2.522      9.450     10.494
REMARK INTER + INTRA:          -3.055
REMARK INTER:                  -3.023
REMARK INTRA:                  -0.032
REMARK UNBOUND:                -0.090
REMARK SMILES O=C([O-])CCC(=O)[O-]
REMARK SMILES IDX 4 1 2 2 1 3 3 4 5 5 6 6 7 7 8 8
REMARK H PARENT
REMARK Flexibility Score: inf
ROOT
ATOM      1  C   UNL     1      56.464  28.500  50.424  1.00  0.00     0.059 C 
ENDROOT
BRANCH   1   2
ATOM      2  C   UNL     1      55.505  27.537  49.797  1.00  0.00     0.042 C 
ATOM      3  O   UNL     1      54.326  27.894  49.539  1.00  0.00    -0.550 OA
ATOM      4  O   UNL     1      55.901  26.229  49.543  1.00  0.00    -0.550 OA
ENDBRANCH   1   2
BRANCH   1   5
ATOM      5  C   UNL     1      57.907  28.062  50.166  1.00  0.00     0.059 C 
BRANCH   5   6
ATOM      6  C   UNL     1      58.796  29.255  50.014  1.00  0.00     0.042 C 
ATOM      7  O   UNL     1      59.132  29.928  51.025  1.00  0.00    -0.550 OA
ATOM      8  O   UNL     1      59.293  29.597  48.763  1.00  0.00    -0.550 OA
ENDBRANCH   5   6
ENDBRANCH   1   5
TORSDOF 3
ENDMDL
MODEL 7
REMARK VINA RESULT:    -2.508     16.888     18.026
REMARK INTER + INTRA:          -3.039
REMARK INTER:                  -2.927
REMARK INTRA:                  -0.112
REMARK UNBOUND:                -0.090
REMARK SMILES O=C([O-])CCC(=O)[O-]
REMARK SMILES IDX 4 1 2 2 1 3 3 4 5 5 6 6 7 7 8 8
REMARK H PARENT
REMARK Flexibility Score: inf
ROOT
ATOM      1  C   UNL     1      62.151  31.595  59.830  1.00  0.00     0.059 C 
ENDROOT
BRANCH   1   2
ATOM      2  C   UNL     1      61.753  30.802  61.034  1.00  0.00     0.042 C 
ATOM      3  O   UNL     1      60.643  31.010  61.591  1.00  0.00    -0.550 OA
ATOM      4  O   UNL     1      62.628  29.866  61.571  1.00  0.00    -0.550 OA
ENDBRANCH   1   2
BRANCH   1   5
ATOM      5  C   UNL     1      62.568  33.010  60.235  1.00  0.00     0.059 C 
BRANCH   5   6
ATOM      6  C   UNL     1      64.047  33.080  60.448  1.00  0.00     0.042 C 
ATOM      7  O   UNL     1      64.789  32.143  60.051  1.00  0.00    -0.550 OA
ATOM      8  O   UNL     1      64.612  34.200  61.043  1.00  0.00    -0.550 OA
ENDBRANCH   5   6
ENDBRANCH   1   5
TORSDOF 3
ENDMDL
MODEL 8
REMARK VINA RESULT:    -2.490      8.964      9.576
REMARK INTER + INTRA:          -3.017
REMARK INTER:                  -2.955
REMARK INTRA:                  -0.062
REMARK UNBOUND:                -0.090
REMARK SMILES O=C([O-])CCC(=O)[O-]
REMARK SMILES IDX 4 1 2 2 1 3 3 4 5 5 6 6 7 7 8 8
REMARK H PARENT
REMARK Flexibility Score: inf
ROOT
ATOM      1  C   UNL     1      58.741  27.588  50.151  1.00  0.00     0.059 C 
ENDROOT
BRANCH   1   2
ATOM      2  C   UNL     1      59.680  28.332  49.255  1.00  0.00     0.042 C 
ATOM      3  O   UNL     1      60.771  27.809  48.907  1.00  0.00    -0.550 OA
ATOM      4  O   UNL     1      59.372  29.623  48.844  1.00  0.00    -0.550 OA
ENDBRANCH   1   2
BRANCH   1   5
ATOM      5  C   UNL     1      57.410  28.335  50.269  1.00  0.00     0.059 C 
BRANCH   5   6
ATOM      6  C   UNL     1      56.268  27.423  49.950  1.00  0.00     0.042 C 
ATOM      7  O   UNL     1      56.444  26.176  49.914  1.00  0.00    -0.550 OA
ATOM      8  O   UNL     1      54.999  27.945  49.739  1.00  0.00    -0.550 OA
ENDBRANCH   5   6
ENDBRANCH   1   5
TORSDOF 3
ENDMDL
MODEL 9
REMARK VINA RESULT:    -2.404     17.472     18.505
REMARK INTER + INTRA:          -2.916
REMARK INTER:                  -2.864
REMARK INTRA:                  -0.052
REMARK UNBOUND:                -0.090
REMARK SMILES O=C([O-])CCC(=O)[O-]
REMARK SMILES IDX 4 1 2 2 1 3 3 4 5 5 6 6 7 7 8 8
REMARK H PARENT
REMARK Flexibility Score: inf
ROOT
ATOM      1  C   UNL     1      64.381  32.600  60.363  1.00  0.00     0.059 C 
ENDROOT
BRANCH   1   2
ATOM      2  C   UNL     1      64.109  34.027  60.720  1.00  0.00     0.042 C 
ATOM      3  O   UNL     1      62.972  34.526  60.515  1.00  0.00    -0.550 OA
ATOM      4  O   UNL     1      65.127  34.821  61.234  1.00  0.00    -0.550 OA
ENDBRANCH   1   2
BRANCH   1   5
ATOM      5  C   UNL     1      63.068  31.835  60.184  1.00  0.00     0.059 C 
BRANCH   5   6
ATOM      6  C   UNL     1      63.071  30.590  61.013  1.00  0.00     0.042 C 
ATOM      7  O   UNL     1      64.127  29.914  61.138  1.00  0.00    -0.550 OA
ATOM      8  O   UNL     1      61.922  30.201  61.688  1.00  0.00    -0.550 OA
ENDBRANCH   5   6
ENDBRANCH   1   5
TORSDOF 3
ENDMDL
