MODEL 1
REMARK VINA RESULT:    -3.009      0.000      0.000
REMARK INTER + INTRA:          -5.552
REMARK INTER:                  -4.593
REMARK INTRA:                  -0.959
REMARK UNBOUND:                -0.959
REMARK SMILES O=C([O-])CCCCCCCCC(=O)[O-]
REMARK SMILES IDX 7 1 6 2 5 3 4 4 2 5 1 6 3 7 8 8 9 9 10 10 11 11 12 12 13 13
REMARK SMILES IDX 14 14
REMARK H PARENT
REMARK Flexibility Score: inf
ROOT
ATOM      1  C   UNL     1      -9.638 -18.467  22.364  1.00  0.00     0.000 C 
ENDROOT
BRANCH   1   2
ATOM      2  C   UNL     1     -10.984 -19.083  22.764  1.00  0.00     0.000 C 
BRANCH   2   3
ATOM      3  C   UNL     1     -10.859 -20.602  22.958  1.00  0.00     0.006 C 
BRANCH   3   4
ATOM      4  C   UNL     1      -9.404 -21.081  22.871  1.00  0.00     0.053 C 
BRANCH   4   5
ATOM      5  C   UNL     1      -9.269 -22.299  22.010  1.00  0.00     0.041 C 
ATOM      6  O   UNL     1      -8.131 -22.771  21.755  1.00  0.00    -0.550 OA
ATOM      7  O   UNL     1     -10.403 -22.932  21.518  1.00  0.00    -0.550 OA
ENDBRANCH   4   5
ENDBRANCH   3   4
ENDBRANCH   2   3
ENDBRANCH   1   2
BRANCH   1   8
ATOM      8  C   UNL     1      -9.679 -17.943  20.923  1.00  0.00     0.000 C 
BRANCH   8   9
ATOM      9  C   UNL     1     -11.100 -18.011  20.352  1.00  0.00     0.000 C 
BRANCH   9  10
ATOM     10  C   UNL     1     -11.125 -18.792  19.029  1.00  0.00     0.006 C 
BRANCH  10  11
ATOM     11  C   UNL     1     -10.804 -20.279  19.226  1.00  0.00     0.053 C 
BRANCH  11  12
ATOM     12  C   UNL     1      -9.934 -20.811  18.129  1.00  0.00     0.041 C 
ATOM     13  O   UNL     1     -10.252 -20.631  16.925  1.00  0.00    -0.550 OA
ATOM     14  O   UNL     1      -8.789 -21.536  18.436  1.00  0.00    -0.550 OA
ENDBRANCH  11  12
ENDBRANCH  10  11
ENDBRANCH   9  10
ENDBRANCH   8   9
ENDBRANCH   1   8
TORSDOF 9
ENDMDL
MODEL 2
REMARK VINA RESULT:    -2.999      1.617      2.787
REMARK INTER + INTRA:          -5.537
REMARK INTER:                  -4.890
REMARK INTRA:                  -0.647
REMARK UNBOUND:                -0.959
REMARK SMILES O=C([O-])CCCCCCCCC(=O)[O-]
REMARK SMILES IDX 7 1 6 2 5 3 4 4 2 5 1 6 3 7 8 8 9 9 10 10 11 11 12 12 13 13
REMARK SMILES IDX 14 14
REMARK H PARENT
REMARK Flexibility Score: inf
ROOT
ATOM      1  C   UNL     1     -11.125 -18.101  20.415  1.00  0.00     0.000 C 
ENDROOT
BRANCH   1   2
ATOM      2  C   UNL     1      -9.707 -17.905  20.965  1.00  0.00     0.000 C 
BRANCH   2   3
ATOM      3  C   UNL     1      -9.601 -18.418  22.409  1.00  0.00     0.006 C 
BRANCH   3   4
ATOM      4  C   UNL     1     -10.734 -19.390  22.766  1.00  0.00     0.053 C 
BRANCH   4   5
ATOM      5  C   UNL     1     -10.237 -20.797  22.902  1.00  0.00     0.041 C 
ATOM      6  O   UNL     1     -10.839 -21.611  23.649  1.00  0.00    -0.550 OA
ATOM      7  O   UNL     1      -9.130 -21.218  22.177  1.00  0.00    -0.550 OA
ENDBRANCH   4   5
ENDBRANCH   3   4
ENDBRANCH   2   3
ENDBRANCH   1   2
BRANCH   1   8
ATOM      8  C   UNL     1     -11.092 -18.749  19.026  1.00  0.00     0.000 C 
BRANCH   8   9
ATOM      9  C   UNL     1     -10.378 -20.105  19.067  1.00  0.00     0.000 C 
BRANCH   9  10
ATOM     10  C   UNL     1     -10.555 -20.862  17.743  1.00  0.00     0.006 C 
BRANCH  10  11
ATOM     11  C   UNL     1     -10.977 -19.935  16.595  1.00  0.00     0.053 C 
BRANCH  11  12
ATOM     12  C   UNL     1     -10.298 -20.296  15.310  1.00  0.00     0.041 C 
ATOM     13  O   UNL     1      -9.088 -20.640  15.307  1.00  0.00    -0.550 OA
ATOM     14  O   UNL     1     -10.995 -20.220  14.109  1.00  0.00    -0.550 OA
ENDBRANCH  11  12
ENDBRANCH  10  11
ENDBRANCH   9  10
ENDBRANCH   8   9
ENDBRANCH   1   8
TORSDOF 9
ENDMDL
MODEL 3
REMARK VINA RESULT:    -2.948      0.133      3.890
REMARK INTER + INTRA:          -5.458
REMARK INTER:                  -4.541
REMARK INTRA:                  -0.916
REMARK UNBOUND:                -0.959
REMARK SMILES O=C([O-])CCCCCCCCC(=O)[O-]
REMARK SMILES IDX 7 1 6 2 5 3 4 4 2 5 1 6 3 7 8 8 9 9 10 10 11 11 12 12 13 13
REMARK SMILES IDX 14 14
REMARK H PARENT
REMARK Flexibility Score: inf
ROOT
ATOM      1  C   UNL     1      -9.732 -17.841  20.893  1.00  0.00     0.000 C 
ENDROOT
BRANCH   1   2
ATOM      2  C   UNL     1     -11.122 -18.109  20.304  1.00  0.00     0.000 C 
BRANCH   2   3
ATOM      3  C   UNL     1     -11.019 -18.851  18.964  1.00  0.00     0.006 C 
BRANCH   3   4
ATOM      4  C   UNL     1     -10.854 -20.365  19.148  1.00  0.00     0.053 C 
BRANCH   4   5
ATOM      5  C   UNL     1      -9.976 -20.963  18.092  1.00  0.00     0.041 C 
ATOM      6  O   UNL     1      -9.014 -21.707  18.416  1.00  0.00    -0.550 OA
ATOM      7  O   UNL     1     -10.241 -20.724  16.750  1.00  0.00    -0.550 OA
ENDBRANCH   4   5
ENDBRANCH   3   4
ENDBRANCH   2   3
ENDBRANCH   1   2
BRANCH   1   8
ATOM      8  C   UNL     1      -9.609 -18.426  22.305  1.00  0.00     0.000 C 
BRANCH   8   9
ATOM      9  C   UNL     1     -10.941 -19.027  22.770  1.00  0.00     0.000 C 
BRANCH   9  10
ATOM     10  C   UNL     1     -10.852 -20.557  22.866  1.00  0.00     0.006 C 
BRANCH  10  11
ATOM     11  C   UNL     1      -9.401 -21.055  22.881  1.00  0.00     0.053 C 
BRANCH  11  12
ATOM     12  C   UNL     1      -9.232 -22.302  22.069  1.00  0.00     0.041 C 
ATOM     13  O   UNL     1      -8.080 -22.736  21.806  1.00  0.00    -0.550 OA
ATOM     14  O   UNL     1     -10.347 -22.967  21.572  1.00  0.00    -0.550 OA
ENDBRANCH  11  12
ENDBRANCH  10  11
ENDBRANCH   9  10
ENDBRANCH   8   9
ENDBRANCH   1   8
TORSDOF 9
ENDMDL
MODEL 4
REMARK VINA RESULT:    -2.855      2.824      4.857
REMARK INTER + INTRA:          -5.316
REMARK INTER:                  -4.727
REMARK INTRA:                  -0.589
REMARK UNBOUND:                -0.959
REMARK SMILES O=C([O-])CCCCCCCCC(=O)[O-]
REMARK SMILES IDX 7 1 6 2 5 3 4 4 2 5 1 6 3 7 8 8 9 9 10 10 11 11 12 12 13 13
REMARK SMILES IDX 14 14
REMARK H PARENT
REMARK Flexibility Score: inf
ROOT
ATOM      1  C   UNL     1      -9.995 -21.960  20.446  1.00  0.00     0.000 C 
ENDROOT
BRANCH   1   2
ATOM      2  C   UNL     1      -9.605 -23.092  19.487  1.00  0.00     0.000 C 
BRANCH   2   3
ATOM      3  C   UNL     1      -8.125 -22.991  19.089  1.00  0.00     0.006 C 
BRANCH   3   4
ATOM      4  C   UNL     1      -7.924 -22.186  17.798  1.00  0.00     0.053 C 
BRANCH   4   5
ATOM      5  C   UNL     1      -6.510 -22.261  17.310  1.00  0.00     0.041 C 
ATOM      6  O   UNL     1      -5.618 -22.777  18.032  1.00  0.00    -0.550 OA
ATOM      7  O   UNL     1      -6.185 -21.792  16.044  1.00  0.00    -0.550 OA
ENDBRANCH   4   5
ENDBRANCH   3   4
ENDBRANCH   2   3
ENDBRANCH   1   2
BRANCH   1   8
ATOM      8  C   UNL     1     -11.051 -21.044  19.816  1.00  0.00     0.000 C 
BRANCH   8   9
ATOM      9  C   UNL     1     -10.429 -19.718  19.362  1.00  0.00     0.000 C 
BRANCH   9  10
ATOM     10  C   UNL     1     -10.923 -18.551  20.231  1.00  0.00     0.006 C 
BRANCH  10  11
ATOM     11  C   UNL     1      -9.766 -17.765  20.861  1.00  0.00     0.053 C 
BRANCH  11  12
ATOM     12  C   UNL     1      -9.562 -18.133  22.299  1.00  0.00     0.041 C 
ATOM     13  O   UNL     1      -8.788 -17.454  23.022  1.00  0.00    -0.550 OA
ATOM     14  O   UNL     1     -10.201 -19.247  22.831  1.00  0.00    -0.550 OA
ENDBRANCH  11  12
ENDBRANCH  10  11
ENDBRANCH   9  10
ENDBRANCH   8   9
ENDBRANCH   1   8
TORSDOF 9
ENDMDL
MODEL 5
REMARK VINA RESULT:    -2.812      1.483      2.674
REMARK INTER + INTRA:          -5.251
REMARK INTER:                  -4.561
REMARK INTRA:                  -0.691
REMARK UNBOUND:                -0.959
REMARK SMILES O=C([O-])CCCCCCCCC(=O)[O-]
REMARK SMILES IDX 7 1 6 2 5 3 4 4 2 5 1 6 3 7 8 8 9 9 10 10 11 11 12 12 13 13
REMARK SMILES IDX 14 14
REMARK H PARENT
REMARK Flexibility Score: inf
ROOT
ATOM      1  C   UNL     1     -11.041 -18.647  20.273  1.00  0.00     0.000 C 
ENDROOT
BRANCH   1   2
ATOM      2  C   UNL     1      -9.821 -17.979  20.920  1.00  0.00     0.000 C 
BRANCH   2   3
ATOM      3  C   UNL     1      -9.572 -18.535  22.330  1.00  0.00     0.006 C 
BRANCH   3   4
ATOM      4  C   UNL     1     -10.626 -19.571  22.741  1.00  0.00     0.053 C 
BRANCH   4   5
ATOM      5  C   UNL     1     -10.043 -20.946  22.849  1.00  0.00     0.041 C 
ATOM      6  O   UNL     1     -10.765 -21.957  22.646  1.00  0.00    -0.550 OA
ATOM      7  O   UNL     1      -8.695 -21.110  23.140  1.00  0.00    -0.550 OA
ENDBRANCH   4   5
ENDBRANCH   3   4
ENDBRANCH   2   3
ENDBRANCH   1   2
BRANCH   1   8
ATOM      8  C   UNL     1     -10.630 -19.481  19.054  1.00  0.00     0.000 C 
BRANCH   8   9
ATOM      9  C   UNL     1     -10.996 -20.957  19.247  1.00  0.00     0.000 C 
BRANCH   9  10
ATOM     10  C   UNL     1      -9.792 -21.866  18.958  1.00  0.00     0.006 C 
BRANCH  10  11
ATOM     11  C   UNL     1      -9.217 -21.640  17.554  1.00  0.00     0.053 C 
BRANCH  11  12
ATOM     12  C   UNL     1      -7.784 -22.066  17.464  1.00  0.00     0.041 C 
ATOM     13  O   UNL     1      -7.196 -22.081  16.352  1.00  0.00    -0.550 OA
ATOM     14  O   UNL     1      -7.107 -22.480  18.605  1.00  0.00    -0.550 OA
ENDBRANCH  11  12
ENDBRANCH  10  11
ENDBRANCH   9  10
ENDBRANCH   8   9
ENDBRANCH   1   8
TORSDOF 9
ENDMDL
MODEL 6
REMARK VINA RESULT:    -2.775      2.586      3.786
REMARK INTER + INTRA:          -5.194
REMARK INTER:                  -4.548
REMARK INTRA:                  -0.646
REMARK UNBOUND:                -0.959
REMARK SMILES O=C([O-])CCCCCCCCC(=O)[O-]
REMARK SMILES IDX 7 1 6 2 5 3 4 4 2 5 1 6 3 7 8 8 9 9 10 10 11 11 12 12 13 13
REMARK SMILES IDX 14 14
REMARK H PARENT
REMARK Flexibility Score: inf
ROOT
ATOM      1  C   UNL     1      -9.881 -22.204  20.858  1.00  0.00     0.000 C 
ENDROOT
BRANCH   1   2
ATOM      2  C   UNL     1     -10.575 -21.691  22.126  1.00  0.00     0.000 C 
BRANCH   2   3
ATOM      3  C   UNL     1      -9.772 -20.552  22.771  1.00  0.00     0.006 C 
BRANCH   3   4
ATOM      4  C   UNL     1     -10.486 -19.199  22.653  1.00  0.00     0.053 C 
BRANCH   4   5
ATOM      5  C   UNL     1      -9.592 -18.147  22.072  1.00  0.00     0.041 C 
ATOM      6  O   UNL     1      -8.809 -17.500  22.815  1.00  0.00    -0.550 OA
ATOM      7  O   UNL     1      -9.598 -17.906  20.704  1.00  0.00    -0.550 OA
ENDBRANCH   4   5
ENDBRANCH   3   4
ENDBRANCH   2   3
ENDBRANCH   1   2
BRANCH   1   8
ATOM      8  C   UNL     1     -10.503 -21.585  19.601  1.00  0.00     0.000 C 
BRANCH   8   9
ATOM      9  C   UNL     1      -9.444 -20.860  18.762  1.00  0.00     0.000 C 
BRANCH   9  10
ATOM     10  C   UNL     1      -9.157 -21.623  17.460  1.00  0.00     0.006 C 
BRANCH  10  11
ATOM     11  C   UNL     1      -8.248 -22.838  17.686  1.00  0.00     0.053 C 
BRANCH  11  12
ATOM     12  C   UNL     1      -6.843 -22.429  18.009  1.00  0.00     0.041 C 
ATOM     13  O   UNL     1      -6.164 -21.778  17.174  1.00  0.00    -0.550 OA
ATOM     14  O   UNL     1      -6.272 -22.797  19.222  1.00  0.00    -0.550 OA
ENDBRANCH  11  12
ENDBRANCH  10  11
ENDBRANCH   9  10
ENDBRANCH   8   9
ENDBRANCH   1   8
TORSDOF 9
ENDMDL
MODEL 7
REMARK VINA RESULT:    -2.767      2.584      4.158
REMARK INTER + INTRA:          -5.182
REMARK INTER:                  -4.767
REMARK INTRA:                  -0.416
REMARK UNBOUND:                -0.959
REMARK SMILES O=C([O-])CCCCCCCCC(=O)[O-]
REMARK SMILES IDX 7 1 6 2 5 3 4 4 2 5 1 6 3 7 8 8 9 9 10 10 11 11 12 12 13 13
REMARK SMILES IDX 14 14
REMARK H PARENT
REMARK Flexibility Score: inf
ROOT
ATOM      1  C   UNL     1     -10.386 -20.173  19.114  1.00  0.00     0.000 C 
ENDROOT
BRANCH   1   2
ATOM      2  C   UNL     1     -11.125 -18.831  19.049  1.00  0.00     0.000 C 
BRANCH   2   3
ATOM      3  C   UNL     1     -10.713 -17.918  20.213  1.00  0.00     0.006 C 
BRANCH   3   4
ATOM      4  C   UNL     1     -10.924 -18.586  21.578  1.00  0.00     0.053 C 
BRANCH   4   5
ATOM      5  C   UNL     1      -9.654 -18.648  22.370  1.00  0.00     0.041 C 
ATOM      6  O   UNL     1      -9.202 -19.758  22.754  1.00  0.00    -0.550 OA
ATOM      7  O   UNL     1      -8.952 -17.484  22.653  1.00  0.00    -0.550 OA
ENDBRANCH   4   5
ENDBRANCH   3   4
ENDBRANCH   2   3
ENDBRANCH   1   2
BRANCH   1   8
ATOM      8  C   UNL     1     -10.253 -20.797  17.720  1.00  0.00     0.000 C 
BRANCH   8   9
ATOM      9  C   UNL     1     -10.351 -22.326  17.789  1.00  0.00     0.000 C 
BRANCH   9  10
ATOM     10  C   UNL     1      -8.957 -22.965  17.874  1.00  0.00     0.006 C 
BRANCH  10  11
ATOM     11  C   UNL     1      -7.892 -22.136  17.144  1.00  0.00     0.053 C 
BRANCH  11  12
ATOM     12  C   UNL     1      -6.523 -22.371  17.704  1.00  0.00     0.041 C 
ATOM     13  O   UNL     1      -5.506 -22.200  16.984  1.00  0.00    -0.550 OA
ATOM     14  O   UNL     1      -6.373 -22.814  19.013  1.00  0.00    -0.550 OA
ENDBRANCH  11  12
ENDBRANCH  10  11
ENDBRANCH   9  10
ENDBRANCH   8   9
ENDBRANCH   1   8
TORSDOF 9
ENDMDL
MODEL 8
REMARK VINA RESULT:    -2.748      2.229      4.754
REMARK INTER + INTRA:          -5.153
REMARK INTER:                  -4.245
REMARK INTRA:                  -0.908
REMARK UNBOUND:                -0.959
REMARK SMILES O=C([O-])CCCCCCCCC(=O)[O-]
REMARK SMILES IDX 7 1 6 2 5 3 4 4 2 5 1 6 3 7 8 8 9 9 10 10 11 11 12 12 13 13
REMARK SMILES IDX 14 14
REMARK H PARENT
REMARK Flexibility Score: inf
ROOT
ATOM      1  C   UNL     1      -9.200 -23.017  20.946  1.00  0.00     0.000 C 
ENDROOT
BRANCH   1   2
ATOM      2  C   UNL     1     -10.694 -22.957  20.608  1.00  0.00     0.000 C 
BRANCH   2   3
ATOM      3  C   UNL     1     -10.995 -21.799  19.644  1.00  0.00     0.006 C 
BRANCH   3   4
ATOM      4  C   UNL     1      -9.716 -21.152  19.096  1.00  0.00     0.053 C 
BRANCH   4   5
ATOM      5  C   UNL     1      -9.551 -21.401  17.628  1.00  0.00     0.041 C 
ATOM      6  O   UNL     1     -10.477 -21.105  16.828  1.00  0.00    -0.550 OA
ATOM      7  O   UNL     1      -8.361 -21.927  17.141  1.00  0.00    -0.550 OA
ENDBRANCH   4   5
ENDBRANCH   3   4
ENDBRANCH   2   3
ENDBRANCH   1   2
BRANCH   1   8
ATOM      8  C   UNL     1      -8.978 -23.033  22.463  1.00  0.00     0.000 C 
BRANCH   8   9
ATOM      9  C   UNL     1      -9.764 -21.907  23.146  1.00  0.00     0.000 C 
BRANCH   9  10
ATOM     10  C   UNL     1      -9.147 -20.536  22.833  1.00  0.00     0.006 C 
BRANCH  10  11
ATOM     11  C   UNL     1     -10.212 -19.474  22.533  1.00  0.00     0.053 C 
BRANCH  11  12
ATOM     12  C   UNL     1      -9.601 -18.191  22.057  1.00  0.00     0.041 C 
ATOM     13  O   UNL     1      -9.752 -17.822  20.863  1.00  0.00    -0.550 OA
ATOM     14  O   UNL     1      -8.836 -17.420  22.924  1.00  0.00    -0.550 OA
ENDBRANCH  11  12
ENDBRANCH  10  11
ENDBRANCH   9  10
ENDBRANCH   8   9
ENDBRANCH   1   8
TORSDOF 9
ENDMDL
MODEL 9
REMARK VINA RESULT:    -2.723      2.465      4.024
REMARK INTER + INTRA:          -5.115
REMARK INTER:                  -4.489
REMARK INTRA:                  -0.626
REMARK UNBOUND:                -0.959
REMARK SMILES O=C([O-])CCCCCCCCC(=O)[O-]
REMARK SMILES IDX 7 1 6 2 5 3 4 4 2 5 1 6 3 7 8 8 9 9 10 10 11 11 12 12 13 13
REMARK SMILES IDX 14 14
REMARK H PARENT
REMARK Flexibility Score: inf
ROOT
ATOM      1  C   UNL     1      -8.825 -21.755  22.914  1.00  0.00     0.000 C 
ENDROOT
BRANCH   1   2
ATOM      2  C   UNL     1     -10.338 -21.670  23.150  1.00  0.00     0.000 C 
BRANCH   2   3
ATOM      3  C   UNL     1     -10.880 -20.287  22.758  1.00  0.00     0.006 C 
BRANCH   3   4
ATOM      4  C   UNL     1      -9.763 -19.325  22.333  1.00  0.00     0.053 C 
BRANCH   4   5
ATOM      5  C   UNL     1     -10.014 -18.747  20.974  1.00  0.00     0.041 C 
ATOM      6  O   UNL     1     -10.108 -17.501  20.823  1.00  0.00    -0.550 OA
ATOM      7  O   UNL     1     -10.110 -19.583  19.869  1.00  0.00    -0.550 OA
ENDBRANCH   4   5
ENDBRANCH   3   4
ENDBRANCH   2   3
ENDBRANCH   1   2
BRANCH   1   8
ATOM      8  C   UNL     1      -8.470 -22.969  22.047  1.00  0.00     0.000 C 
BRANCH   8   9
ATOM      9  C   UNL     1      -8.959 -22.779  20.606  1.00  0.00     0.000 C 
BRANCH   9  10
ATOM     10  C   UNL     1      -7.814 -22.985  19.604  1.00  0.00     0.006 C 
BRANCH  10  11
ATOM     11  C   UNL     1      -7.988 -22.134  18.339  1.00  0.00     0.053 C 
BRANCH  11  12
ATOM     12  C   UNL     1      -6.862 -22.338  17.372  1.00  0.00     0.041 C 
ATOM     13  O   UNL     1      -5.699 -22.567  17.793  1.00  0.00    -0.550 OA
ATOM     14  O   UNL     1      -7.093 -22.242  16.005  1.00  0.00    -0.550 OA
ENDBRANCH  11  12
ENDBRANCH  10  11
ENDBRANCH   9  10
ENDBRANCH   8   9
ENDBRANCH   1   8
TORSDOF 9
ENDMDL
