MODEL 1
REMARK VINA RESULT:    -1.527      0.000      0.000
REMARK INTER + INTRA:          -1.246
REMARK INTER:                  -1.795
REMARK INTRA:                   0.549
REMARK UNBOUND:                 0.549
REMARK SMILES O=c1c(O)c(-c2ccc(O)c(O)c2)oc2cc(O)ccc12
REMARK SMILES IDX 5 1 3 2 2 3 1 4 21 5 15 6 14 7 16 8 17 9 19 10 20 11 6 12
REMARK SMILES IDX 7 13 8 14 9 15 13 16 11 17 10 18 12 20 4 22 18 24
REMARK H PARENT 10 19 12 21 4 23 18 25
REMARK Flexibility Score: inf
ROOT
ATOM      1  C   UNL     1      -2.394 -15.064  -7.541  1.00  0.00     0.180 A 
ATOM      2  C   UNL     1      -3.458 -15.064  -6.615  1.00  0.00     0.208 A 
ATOM      3  C   UNL     1      -3.160 -15.051  -5.243  1.00  0.00     0.235 A 
ATOM      4  O   UNL     1      -4.095 -15.040  -4.395  1.00  0.00    -0.285 OA
ATOM      5  C   UNL     1      -1.820 -15.057  -4.827  1.00  0.00     0.069 A 
ATOM      6  C   UNL     1      -0.813 -15.080  -5.817  1.00  0.00     0.142 A 
ATOM      7  O   UNL     1      -1.136 -15.084  -7.105  1.00  0.00    -0.452 OA
ATOM      8  C   UNL     1       0.535 -15.097  -5.443  1.00  0.00     0.094 A 
ATOM      9  C   UNL     1       0.892 -15.088  -4.088  1.00  0.00     0.119 A 
ATOM     10  C   UNL     1      -0.104 -15.063  -3.105  1.00  0.00     0.047 A 
ATOM     11  C   UNL     1      -1.454 -15.048  -3.469  1.00  0.00     0.020 A 
ENDROOT
BRANCH   1  12
ATOM     12  C   UNL     1      -2.626 -15.059  -9.004  1.00  0.00     0.025 A 
ATOM     13  C   UNL     1      -3.940 -15.097  -9.495  1.00  0.00     0.016 A 
ATOM     14  C   UNL     1      -4.181 -15.114 -10.871  1.00  0.00     0.051 A 
ATOM     15  C   UNL     1      -3.115 -15.107 -11.776  1.00  0.00     0.157 A 
ATOM     16  C   UNL     1      -1.554 -15.074  -9.915  1.00  0.00     0.062 A 
ATOM     17  C   UNL     1      -1.795 -15.092 -11.297  1.00  0.00     0.158 A 
BRANCH  15  18
ATOM     18  O   UNL     1      -3.387 -15.122 -13.144  1.00  0.00    -0.504 OA
ATOM     19  H   UNL     1      -3.046 -14.401 -13.767  1.00  0.00     0.293 HD
ENDBRANCH  15  18
BRANCH  17  20
ATOM     20  O   UNL     1      -0.727 -15.101 -12.194  1.00  0.00    -0.504 OA
ATOM     21  H   UNL     1      -0.237 -14.250 -12.443  1.00  0.00     0.293 HD
ENDBRANCH  17  20
ENDBRANCH   1  12
BRANCH   2  22
ATOM     22  O   UNL     1      -4.782 -15.109  -7.058  1.00  0.00    -0.502 OA
ATOM     23  H   UNL     1      -5.046 -15.552  -7.930  1.00  0.00     0.293 HD
ENDBRANCH   2  22
BRANCH   9  24
ATOM     24  O   UNL     1       2.232 -15.104  -3.706  1.00  0.00    -0.508 OA
ATOM     25  H   UNL     1       2.893 -15.748  -4.122  1.00  0.00     0.293 HD
ENDBRANCH   9  24
TORSDOF 5
ENDMDL
MODEL 2
REMARK VINA RESULT:    -1.010      1.456      3.134
REMARK INTER + INTRA:          -0.638
REMARK INTER:                  -1.111
REMARK INTRA:                   0.474
REMARK UNBOUND:                 0.549
REMARK SMILES O=c1c(O)c(-c2ccc(O)c(O)c2)oc2cc(O)ccc12
REMARK SMILES IDX 5 1 3 2 2 3 1 4 21 5 15 6 14 7 16 8 17 9 19 10 20 11 6 12
REMARK SMILES IDX 7 13 8 14 9 15 13 16 11 17 10 18 12 20 4 22 18 24
REMARK H PARENT 10 19 12 21 4 23 18 25
REMARK Flexibility Score: inf
ROOT
ATOM      1  C   UNL     1      -2.498 -15.059  -8.500  1.00  0.00     0.180 A 
ATOM      2  C   UNL     1      -1.178 -15.051  -8.002  1.00  0.00     0.208 A 
ATOM      3  C   UNL     1      -0.979 -15.072  -6.613  1.00  0.00     0.235 A 
ATOM      4  O   UNL     1       0.192 -15.076  -6.144  1.00  0.00    -0.285 OA
ATOM      5  C   UNL     1      -2.090 -15.082  -5.756  1.00  0.00     0.069 A 
ATOM      6  C   UNL     1      -3.380 -15.066  -6.333  1.00  0.00     0.142 A 
ATOM      7  O   UNL     1      -3.526 -15.054  -7.653  1.00  0.00    -0.452 OA
ATOM      8  C   UNL     1      -4.513 -15.066  -5.513  1.00  0.00     0.094 A 
ATOM      9  C   UNL     1      -4.375 -15.083  -4.118  1.00  0.00     0.119 A 
ATOM     10  C   UNL     1      -3.099 -15.100  -3.544  1.00  0.00     0.047 A 
ATOM     11  C   UNL     1      -1.960 -15.100  -4.356  1.00  0.00     0.020 A 
ENDROOT
BRANCH   1  12
ATOM     12  C   UNL     1      -2.791 -15.056  -9.952  1.00  0.00     0.025 A 
ATOM     13  C   UNL     1      -4.125 -15.092 -10.387  1.00  0.00     0.016 A 
ATOM     14  C   UNL     1      -4.425 -15.111 -11.751  1.00  0.00     0.051 A 
ATOM     15  C   UNL     1      -3.398 -15.108 -12.700  1.00  0.00     0.157 A 
ATOM     16  C   UNL     1      -1.759 -15.075 -10.908  1.00  0.00     0.062 A 
ATOM     17  C   UNL     1      -2.058 -15.096 -12.278  1.00  0.00     0.158 A 
BRANCH  15  18
ATOM     18  O   UNL     1      -3.728 -15.125 -14.055  1.00  0.00    -0.504 OA
ATOM     19  H   UNL     1      -4.127 -15.941 -14.501  1.00  0.00     0.293 HD
ENDBRANCH  15  18
BRANCH  17  20
ATOM     20  O   UNL     1      -1.030 -15.108 -13.219  1.00  0.00    -0.504 OA
ATOM     21  H   UNL     1      -1.060 -14.522 -14.046  1.00  0.00     0.293 HD
ENDBRANCH  17  20
ENDBRANCH   1  12
BRANCH   2  22
ATOM     22  O   UNL     1      -0.092 -14.990  -8.879  1.00  0.00    -0.502 OA
ATOM     23  H   UNL     1       0.574 -15.748  -8.969  1.00  0.00     0.293 HD
ENDBRANCH   2  22
BRANCH   9  24
ATOM     24  O   UNL     1      -5.498 -15.082  -3.293  1.00  0.00    -0.508 OA
ATOM     25  H   UNL     1      -5.861 -15.940  -2.895  1.00  0.00     0.293 HD
ENDBRANCH   9  24
TORSDOF 5
ENDMDL
MODEL 3
REMARK VINA RESULT:     0.071      2.171      4.322
REMARK INTER + INTRA:           0.632
REMARK INTER:                   0.103
REMARK INTRA:                   0.530
REMARK UNBOUND:                 0.549
REMARK SMILES O=c1c(O)c(-c2ccc(O)c(O)c2)oc2cc(O)ccc12
REMARK SMILES IDX 5 1 3 2 2 3 1 4 21 5 15 6 14 7 16 8 17 9 19 10 20 11 6 12
REMARK SMILES IDX 7 13 8 14 9 15 13 16 11 17 10 18 12 20 4 22 18 24
REMARK H PARENT 10 19 12 21 4 23 18 25
REMARK Flexibility Score: inf
ROOT
ATOM      1  C   UNL     1      -2.679 -15.014 -10.259  1.00  0.00     0.180 A 
ATOM      2  C   UNL     1      -1.382 -15.042  -9.706  1.00  0.00     0.208 A 
ATOM      3  C   UNL     1      -1.243 -15.087  -8.310  1.00  0.00     0.235 A 
ATOM      4  O   UNL     1      -0.092 -15.123  -7.792  1.00  0.00    -0.285 OA
ATOM      5  C   UNL     1      -2.389 -15.084  -7.501  1.00  0.00     0.069 A 
ATOM      6  C   UNL     1      -3.652 -15.032  -8.131  1.00  0.00     0.142 A 
ATOM      7  O   UNL     1      -3.742 -14.998  -9.455  1.00  0.00    -0.452 OA
ATOM      8  C   UNL     1      -4.818 -15.018  -7.359  1.00  0.00     0.094 A 
ATOM      9  C   UNL     1      -4.740 -15.057  -5.960  1.00  0.00     0.119 A 
ATOM     10  C   UNL     1      -3.490 -15.111  -5.334  1.00  0.00     0.047 A 
ATOM     11  C   UNL     1      -2.319 -15.125  -6.097  1.00  0.00     0.020 A 
ENDROOT
BRANCH   1  12
ATOM     12  C   UNL     1      -2.911 -14.985 -11.721  1.00  0.00     0.025 A 
ATOM     13  C   UNL     1      -1.822 -14.803 -12.589  1.00  0.00     0.016 A 
ATOM     14  C   UNL     1      -2.019 -14.751 -13.971  1.00  0.00     0.051 A 
ATOM     15  C   UNL     1      -3.305 -14.866 -14.506  1.00  0.00     0.157 A 
ATOM     16  C   UNL     1      -4.207 -15.078 -12.261  1.00  0.00     0.062 A 
ATOM     17  C   UNL     1      -4.406 -15.025 -13.648  1.00  0.00     0.158 A 
BRANCH  15  18
ATOM     18  O   UNL     1      -3.471 -14.813 -15.890  1.00  0.00    -0.504 OA
ATOM     19  H   UNL     1      -2.767 -15.160 -16.529  1.00  0.00     0.293 HD
ENDBRANCH  15  18
BRANCH  17  20
ATOM     20  O   UNL     1      -5.693 -15.125 -14.175  1.00  0.00    -0.504 OA
ATOM     21  H   UNL     1      -6.187 -16.009 -14.204  1.00  0.00     0.293 HD
ENDBRANCH  17  20
ENDBRANCH   1  12
BRANCH   2  22
ATOM     22  O   UNL     1      -0.259 -14.993 -10.535  1.00  0.00    -0.502 OA
ATOM     23  H   UNL     1      -0.154 -15.599 -11.340  1.00  0.00     0.293 HD
ENDBRANCH   2  22
BRANCH   9  24
ATOM     24  O   UNL     1      -5.897 -15.044  -5.183  1.00  0.00    -0.508 OA
ATOM     25  H   UNL     1      -6.427 -15.890  -5.010  1.00  0.00     0.293 HD
ENDBRANCH   9  24
TORSDOF 5
ENDMDL
MODEL 4
REMARK VINA RESULT:     0.317      2.268      8.107
REMARK INTER + INTRA:           0.922
REMARK INTER:                   0.457
REMARK INTRA:                   0.464
REMARK UNBOUND:                 0.549
REMARK SMILES O=c1c(O)c(-c2ccc(O)c(O)c2)oc2cc(O)ccc12
REMARK SMILES IDX 5 1 3 2 2 3 1 4 21 5 15 6 14 7 16 8 17 9 19 10 20 11 6 12
REMARK SMILES IDX 7 13 8 14 9 15 13 16 11 17 10 18 12 20 4 22 18 24
REMARK H PARENT 10 19 12 21 4 23 18 25
REMARK Flexibility Score: inf
ROOT
ATOM      1  C   UNL     1      -2.907 -14.989 -11.101  1.00  0.00     0.180 A 
ATOM      2  C   UNL     1      -1.755 -14.926 -11.912  1.00  0.00     0.208 A 
ATOM      3  C   UNL     1      -1.910 -14.891 -13.306  1.00  0.00     0.235 A 
ATOM      4  O   UNL     1      -0.895 -14.824 -14.053  1.00  0.00    -0.285 OA
ATOM      5  C   UNL     1      -3.199 -14.940 -13.859  1.00  0.00     0.069 A 
ATOM      6  C   UNL     1      -4.301 -15.026 -12.979  1.00  0.00     0.142 A 
ATOM      7  O   UNL     1      -4.112 -15.048 -11.665  1.00  0.00    -0.452 OA
ATOM      8  C   UNL     1      -5.601 -15.086 -13.492  1.00  0.00     0.094 A 
ATOM      9  C   UNL     1      -5.817 -15.060 -14.876  1.00  0.00     0.119 A 
ATOM     10  C   UNL     1      -4.728 -14.972 -15.749  1.00  0.00     0.047 A 
ATOM     11  C   UNL     1      -3.424 -14.913 -15.247  1.00  0.00     0.020 A 
ENDROOT
BRANCH   1  12
ATOM     12  C   UNL     1      -2.827 -15.010  -9.622  1.00  0.00     0.025 A 
ATOM     13  C   UNL     1      -4.008 -15.108  -8.869  1.00  0.00     0.016 A 
ATOM     14  C   UNL     1      -3.959 -15.109  -7.473  1.00  0.00     0.051 A 
ATOM     15  C   UNL     1      -2.734 -14.997  -6.809  1.00  0.00     0.157 A 
ATOM     16  C   UNL     1      -1.598 -14.876  -8.952  1.00  0.00     0.062 A 
ATOM     17  C   UNL     1      -1.547 -14.875  -7.551  1.00  0.00     0.158 A 
BRANCH  15  18
ATOM     18  O   UNL     1      -2.715 -15.003  -5.414  1.00  0.00    -0.504 OA
ATOM     19  H   UNL     1      -2.917 -14.174  -4.870  1.00  0.00     0.293 HD
ENDBRANCH  15  18
BRANCH  17  20
ATOM     20  O   UNL     1      -0.324 -14.748  -6.894  1.00  0.00    -0.504 OA
ATOM     21  H   UNL     1       0.097 -15.526  -6.400  1.00  0.00     0.293 HD
ENDBRANCH  17  20
ENDBRANCH   1  12
BRANCH   2  22
ATOM     22  O   UNL     1      -0.482 -14.929 -11.335  1.00  0.00    -0.502 OA
ATOM     23  H   UNL     1      -0.173 -14.201 -10.702  1.00  0.00     0.293 HD
ENDBRANCH   2  22
BRANCH   9  24
ATOM     24  O   UNL     1      -7.109 -15.119 -15.395  1.00  0.00    -0.508 OA
ATOM     25  H   UNL     1      -7.285 -15.025 -16.388  1.00  0.00     0.293 HD
ENDBRANCH   9  24
TORSDOF 5
ENDMDL
MODEL 5
REMARK VINA RESULT:     0.943      1.580      2.317
REMARK INTER + INTRA:           1.658
REMARK INTER:                   1.118
REMARK INTRA:                   0.540
REMARK UNBOUND:                 0.549
REMARK SMILES O=c1c(O)c(-c2ccc(O)c(O)c2)oc2cc(O)ccc12
REMARK SMILES IDX 5 1 3 2 2 3 1 4 21 5 15 6 14 7 16 8 17 9 19 10 20 11 6 12
REMARK SMILES IDX 7 13 8 14 9 15 13 16 11 17 10 18 12 20 4 22 18 24
REMARK H PARENT 10 19 12 21 4 23 18 25
REMARK Flexibility Score: inf
ROOT
ATOM      1  C   UNL     1      -2.554 -14.977  -9.862  1.00  0.00     0.180 A 
ATOM      2  C   UNL     1      -3.689 -15.039  -9.027  1.00  0.00     0.208 A 
ATOM      3  C   UNL     1      -3.504 -15.080  -7.637  1.00  0.00     0.235 A 
ATOM      4  O   UNL     1      -4.504 -15.125  -6.868  1.00  0.00    -0.285 OA
ATOM      5  C   UNL     1      -2.202 -15.077  -7.113  1.00  0.00     0.069 A 
ATOM      6  C   UNL     1      -1.117 -15.037  -8.017  1.00  0.00     0.142 A 
ATOM      7  O   UNL     1      -1.335 -14.992  -9.326  1.00  0.00    -0.452 OA
ATOM      8  C   UNL     1       0.195 -15.043  -7.534  1.00  0.00     0.094 A 
ATOM      9  C   UNL     1       0.441 -15.087  -6.155  1.00  0.00     0.119 A 
ATOM     10  C   UNL     1      -0.632 -15.125  -5.258  1.00  0.00     0.047 A 
ATOM     11  C   UNL     1      -1.947 -15.121  -5.730  1.00  0.00     0.020 A 
ENDROOT
BRANCH   1  12
ATOM     12  C   UNL     1      -2.666 -14.913 -11.338  1.00  0.00     0.025 A 
ATOM     13  C   UNL     1      -3.928 -15.034 -11.940  1.00  0.00     0.016 A 
ATOM     14  C   UNL     1      -4.055 -14.996 -13.331  1.00  0.00     0.051 A 
ATOM     15  C   UNL     1      -2.925 -14.853 -14.140  1.00  0.00     0.157 A 
ATOM     16  C   UNL     1      -1.527 -14.790 -12.155  1.00  0.00     0.062 A 
ATOM     17  C   UNL     1      -1.653 -14.754 -13.551  1.00  0.00     0.158 A 
BRANCH  15  18
ATOM     18  O   UNL     1      -3.083 -14.817 -15.526  1.00  0.00    -0.504 OA
ATOM     19  H   UNL     1      -3.847 -14.321 -15.967  1.00  0.00     0.293 HD
ENDBRANCH  15  18
BRANCH  17  20
ATOM     20  O   UNL     1      -0.520 -14.626 -14.353  1.00  0.00    -0.504 OA
ATOM     21  H   UNL     1       0.132 -15.392 -14.476  1.00  0.00     0.293 HD
ENDBRANCH  17  20
ENDBRANCH   1  12
BRANCH   2  22
ATOM     22  O   UNL     1      -4.971 -15.091  -9.579  1.00  0.00    -0.502 OA
ATOM     23  H   UNL     1      -5.722 -15.622  -9.154  1.00  0.00     0.293 HD
ENDBRANCH   2  22
BRANCH   9  24
ATOM     24  O   UNL     1       1.746 -15.093  -5.666  1.00  0.00    -0.508 OA
ATOM     25  H   UNL     1       2.382 -14.327  -5.848  1.00  0.00     0.293 HD
ENDBRANCH   9  24
TORSDOF 5
ENDMDL
