MODEL 1
REMARK VINA RESULT:    -4.980      0.000      0.000
REMARK INTER + INTRA:          -9.042
REMARK INTER:                  -7.599
REMARK INTRA:                  -1.442
REMARK UNBOUND:                -1.442
REMARK SMILES CC(=O)CCC=C(C)CCC=C(C)CCC=C(C)C
REMARK SMILES IDX 10 1 11 2 12 3 13 4 14 5 15 6 16 7 18 8 17 9 19 10 9 11 7 12
REMARK SMILES IDX 6 13 8 14 5 15 4 16 2 17 3 18 1 19
REMARK H PARENT
REMARK Flexibility Score: inf
ROOT
ATOM      1  C   UNL     1      10.605  18.436  13.790  1.00  0.00     0.032 C 
ENDROOT
BRANCH   1   2
ATOM      2  C   UNL     1      10.492  19.531  14.820  1.00  0.00    -0.028 C 
ATOM      3  C   UNL     1       9.330  20.025  15.306  1.00  0.00    -0.077 C 
ATOM      4  C   UNL     1       9.400  21.090  16.371  1.00  0.00     0.039 C 
BRANCH   3   5
ATOM      5  C   UNL     1       7.962  19.592  14.810  1.00  0.00     0.034 C 
BRANCH   5   6
ATOM      6  C   UNL     1       7.201  18.773  15.863  1.00  0.00     0.032 C 
BRANCH   6   7
ATOM      7  C   UNL     1       6.111  17.941  15.232  1.00  0.00    -0.028 C 
ATOM      8  C   UNL     1       4.265  19.490  15.921  1.00  0.00     0.039 C 
ATOM      9  C   UNL     1       4.798  18.262  15.222  1.00  0.00    -0.080 C 
ATOM     10  C   UNL     1       3.845  17.356  14.487  1.00  0.00     0.039 C 
ENDBRANCH   6   7
ENDBRANCH   5   6
ENDBRANCH   3   5
ENDBRANCH   1   2
BRANCH   1  11
ATOM     11  C   UNL     1      11.583  17.351  14.250  1.00  0.00     0.034 C 
BRANCH  11  12
ATOM     12  C   UNL     1      10.831  16.108  14.684  1.00  0.00    -0.077 C 
ATOM     13  C   UNL     1      11.447  15.003  15.162  1.00  0.00    -0.028 C 
ATOM     14  C   UNL     1       9.336  16.072  14.501  1.00  0.00     0.039 C 
BRANCH  13  15
ATOM     15  C   UNL     1      12.931  14.877  15.400  1.00  0.00     0.035 C 
BRANCH  15  16
ATOM     16  C   UNL     1      13.253  14.986  16.894  1.00  0.00     0.079 C 
BRANCH  16  17
ATOM     17  C   UNL     1      14.447  15.873  17.117  1.00  0.00     0.130 C 
ATOM     18  O   UNL     1      15.483  15.395  17.556  1.00  0.00    -0.300 OA
ATOM     19  C   UNL     1      14.384  17.332  16.782  1.00  0.00     0.087 C 
ENDBRANCH  16  17
ENDBRANCH  15  16
ENDBRANCH  13  15
ENDBRANCH  11  12
ENDBRANCH   1  11
TORSDOF 9
ENDMDL
MODEL 2
REMARK VINA RESULT:    -4.895     10.060     14.110
REMARK INTER + INTRA:          -8.912
REMARK INTER:                  -7.493
REMARK INTRA:                  -1.420
REMARK UNBOUND:                -1.442
REMARK SMILES CC(=O)CCC=C(C)CCC=C(C)CCC=C(C)C
REMARK SMILES IDX 10 1 11 2 12 3 13 4 14 5 15 6 16 7 18 8 17 9 19 10 9 11 7 12
REMARK SMILES IDX 6 13 8 14 5 15 4 16 2 17 3 18 1 19
REMARK H PARENT
REMARK Flexibility Score: inf
ROOT
ATOM      1  C   UNL     1      10.618  28.114  13.058  1.00  0.00     0.032 C 
ENDROOT
BRANCH   1   2
ATOM      2  C   UNL     1      10.676  27.145  14.212  1.00  0.00    -0.028 C 
ATOM      3  C   UNL     1      11.811  26.721  14.815  1.00  0.00    -0.077 C 
ATOM      4  C   UNL     1      11.683  25.785  15.990  1.00  0.00     0.039 C 
BRANCH   3   5
ATOM      5  C   UNL     1      13.203  27.110  14.351  1.00  0.00     0.034 C 
BRANCH   5   6
ATOM      6  C   UNL     1      13.806  28.228  15.214  1.00  0.00     0.032 C 
BRANCH   6   7
ATOM      7  C   UNL     1      14.847  29.012  14.453  1.00  0.00    -0.028 C 
ATOM      8  C   UNL     1      16.772  27.654  15.303  1.00  0.00     0.039 C 
ATOM      9  C   UNL     1      16.172  28.750  14.457  1.00  0.00    -0.080 C 
ATOM     10  C   UNL     1      17.071  29.588  13.585  1.00  0.00     0.039 C 
ENDBRANCH   6   7
ENDBRANCH   5   6
ENDBRANCH   3   5
ENDBRANCH   1   2
BRANCH   1  11
ATOM     11  C   UNL     1       9.566  29.199  13.307  1.00  0.00     0.034 C 
BRANCH  11  12
ATOM     12  C   UNL     1      10.233  30.538  13.549  1.00  0.00    -0.077 C 
ATOM     13  C   UNL     1       9.544  31.659  13.863  1.00  0.00    -0.028 C 
ATOM     14  C   UNL     1      11.722  30.646  13.350  1.00  0.00     0.039 C 
BRANCH  13  15
ATOM     15  C   UNL     1       8.054  31.720  14.092  1.00  0.00     0.035 C 
BRANCH  15  16
ATOM     16  C   UNL     1       7.736  31.792  15.589  1.00  0.00     0.079 C 
BRANCH  16  17
ATOM     17  C   UNL     1       6.517  30.974  15.914  1.00  0.00     0.130 C 
ATOM     18  O   UNL     1       5.456  31.534  16.149  1.00  0.00    -0.300 OA
ATOM     19  C   UNL     1       6.586  29.477  15.927  1.00  0.00     0.087 C 
ENDBRANCH  16  17
ENDBRANCH  15  16
ENDBRANCH  13  15
ENDBRANCH  11  12
ENDBRANCH   1  11
TORSDOF 9
ENDMDL
MODEL 3
REMARK VINA RESULT:    -4.868      3.026      7.321
REMARK INTER + INTRA:          -8.872
REMARK INTER:                  -6.416
REMARK INTRA:                  -2.456
REMARK UNBOUND:                -1.442
REMARK SMILES CC(=O)CCC=C(C)CCC=C(C)CCC=C(C)C
REMARK SMILES IDX 10 1 11 2 12 3 13 4 14 5 15 6 16 7 18 8 17 9 19 10 9 11 7 12
REMARK SMILES IDX 6 13 8 14 5 15 4 16 2 17 3 18 1 19
REMARK H PARENT
REMARK Flexibility Score: inf
ROOT
ATOM      1  C   UNL     1      13.463  14.247  13.766  1.00  0.00     0.032 C 
ENDROOT
BRANCH   1   2
ATOM      2  C   UNL     1      14.946  14.499  13.872  1.00  0.00    -0.028 C 
ATOM      3  C   UNL     1      15.666  14.435  15.016  1.00  0.00    -0.077 C 
ATOM      4  C   UNL     1      17.153  14.670  14.933  1.00  0.00     0.039 C 
BRANCH   3   5
ATOM      5  C   UNL     1      15.052  14.176  16.380  1.00  0.00     0.034 C 
BRANCH   5   6
ATOM      6  C   UNL     1      15.153  15.401  17.299  1.00  0.00     0.032 C 
BRANCH   6   7
ATOM      7  C   UNL     1      14.229  16.506  16.850  1.00  0.00    -0.028 C 
ATOM      8  C   UNL     1      16.083  18.015  16.100  1.00  0.00     0.039 C 
ATOM      9  C   UNL     1      14.625  17.667  16.283  1.00  0.00    -0.080 C 
ATOM     10  C   UNL     1      13.569  18.638  15.826  1.00  0.00     0.039 C 
ENDBRANCH   6   7
ENDBRANCH   5   6
ENDBRANCH   3   5
ENDBRANCH   1   2
BRANCH   1  11
ATOM     11  C   UNL     1      12.676  15.555  13.883  1.00  0.00     0.034 C 
BRANCH  11  12
ATOM     12  C   UNL     1      11.470  15.371  14.784  1.00  0.00    -0.077 C 
ATOM     13  C   UNL     1      10.499  16.302  14.916  1.00  0.00    -0.028 C 
ATOM     14  C   UNL     1      11.391  14.128  15.633  1.00  0.00     0.039 C 
BRANCH  13  15
ATOM     15  C   UNL     1      10.434  17.596  14.144  1.00  0.00     0.035 C 
BRANCH  15  16
ATOM     16  C   UNL     1       9.311  18.492  14.676  1.00  0.00     0.079 C 
BRANCH  16  17
ATOM     17  C   UNL     1       9.823  19.877  14.959  1.00  0.00     0.130 C 
ATOM     18  O   UNL     1      10.528  20.443  14.136  1.00  0.00    -0.300 OA
ATOM     19  C   UNL     1       9.455  20.579  16.231  1.00  0.00     0.087 C 
ENDBRANCH  16  17
ENDBRANCH  15  16
ENDBRANCH  13  15
ENDBRANCH  11  12
ENDBRANCH   1  11
TORSDOF 9
ENDMDL
MODEL 4
REMARK VINA RESULT:    -4.867     10.544     13.366
REMARK INTER + INTRA:          -8.870
REMARK INTER:                  -6.670
REMARK INTRA:                  -2.200
REMARK UNBOUND:                -1.442
REMARK SMILES CC(=O)CCC=C(C)CCC=C(C)CCC=C(C)C
REMARK SMILES IDX 10 1 11 2 12 3 13 4 14 5 15 6 16 7 18 8 17 9 19 10 9 11 7 12
REMARK SMILES IDX 6 13 8 14 5 15 4 16 2 17 3 18 1 19
REMARK H PARENT
REMARK Flexibility Score: inf
ROOT
ATOM      1  C   UNL     1       7.563  31.160  12.866  1.00  0.00     0.032 C 
ENDROOT
BRANCH   1   2
ATOM      2  C   UNL     1       7.119  30.029  13.758  1.00  0.00    -0.028 C 
ATOM      3  C   UNL     1       6.896  30.129  15.089  1.00  0.00    -0.077 C 
ATOM      4  C   UNL     1       6.409  28.904  15.821  1.00  0.00     0.039 C 
BRANCH   3   5
ATOM      5  C   UNL     1       7.144  31.395  15.888  1.00  0.00     0.034 C 
BRANCH   5   6
ATOM      6  C   UNL     1       5.834  32.067  16.323  1.00  0.00     0.032 C 
BRANCH   6   7
ATOM      7  C   UNL     1       5.295  32.975  15.245  1.00  0.00    -0.028 C 
ATOM      8  C   UNL     1       3.402  31.450  14.638  1.00  0.00     0.039 C 
ATOM      9  C   UNL     1       4.192  32.729  14.503  1.00  0.00    -0.080 C 
ATOM     10  C   UNL     1       3.746  33.774  13.513  1.00  0.00     0.039 C 
ENDBRANCH   6   7
ENDBRANCH   5   6
ENDBRANCH   3   5
ENDBRANCH   1   2
BRANCH   1  11
ATOM     11  C   UNL     1       8.970  30.906  12.318  1.00  0.00     0.034 C 
BRANCH  11  12
ATOM     12  C   UNL     1      10.017  31.291  13.344  1.00  0.00    -0.077 C 
ATOM     13  C   UNL     1      11.025  30.468  13.714  1.00  0.00    -0.028 C 
ATOM     14  C   UNL     1       9.883  32.618  14.045  1.00  0.00     0.039 C 
BRANCH  13  15
ATOM     15  C   UNL     1      11.294  29.111  13.114  1.00  0.00     0.035 C 
BRANCH  15  16
ATOM     16  C   UNL     1      11.950  28.183  14.141  1.00  0.00     0.079 C 
BRANCH  16  17
ATOM     17  C   UNL     1      10.982  27.128  14.601  1.00  0.00     0.130 C 
ATOM     18  O   UNL     1      11.352  26.266  15.384  1.00  0.00    -0.300 OA
ATOM     19  C   UNL     1       9.561  27.142  14.127  1.00  0.00     0.087 C 
ENDBRANCH  16  17
ENDBRANCH  15  16
ENDBRANCH  13  15
ENDBRANCH  11  12
ENDBRANCH   1  11
TORSDOF 9
ENDMDL
MODEL 5
REMARK VINA RESULT:    -4.819      2.786      7.437
REMARK INTER + INTRA:          -8.796
REMARK INTER:                  -7.040
REMARK INTRA:                  -1.756
REMARK UNBOUND:                -1.442
REMARK SMILES CC(=O)CCC=C(C)CCC=C(C)CCC=C(C)C
REMARK SMILES IDX 10 1 11 2 12 3 13 4 14 5 15 6 16 7 18 8 17 9 19 10 9 11 7 12
REMARK SMILES IDX 6 13 8 14 5 15 4 16 2 17 3 18 1 19
REMARK H PARENT
REMARK Flexibility Score: inf
ROOT
ATOM      1  C   UNL     1      11.080  18.728  14.493  1.00  0.00     0.032 C 
ENDROOT
BRANCH   1   2
ATOM      2  C   UNL     1      11.335  17.640  13.481  1.00  0.00    -0.028 C 
ATOM      3  C   UNL     1      11.100  16.322  13.680  1.00  0.00    -0.077 C 
ATOM      4  C   UNL     1      11.369  15.372  12.540  1.00  0.00     0.039 C 
BRANCH   3   5
ATOM      5  C   UNL     1      10.615  15.746  14.999  1.00  0.00     0.034 C 
BRANCH   5   6
ATOM      6  C   UNL     1      11.447  14.532  15.437  1.00  0.00     0.032 C 
BRANCH   6   7
ATOM      7  C   UNL     1      12.557  14.935  16.377  1.00  0.00    -0.028 C 
ATOM      8  C   UNL     1      14.348  14.794  14.631  1.00  0.00     0.039 C 
ATOM      9  C   UNL     1      13.854  15.087  16.027  1.00  0.00    -0.080 C 
ATOM     10  C   UNL     1      14.827  15.562  17.073  1.00  0.00     0.039 C 
ENDBRANCH   6   7
ENDBRANCH   5   6
ENDBRANCH   3   5
ENDBRANCH   1   2
BRANCH   1  11
ATOM     11  C   UNL     1       9.719  19.390  14.254  1.00  0.00     0.034 C 
BRANCH  11  12
ATOM     12  C   UNL     1       9.008  19.630  15.570  1.00  0.00    -0.077 C 
ATOM     13  C   UNL     1       7.970  18.875  15.996  1.00  0.00    -0.028 C 
ATOM     14  C   UNL     1       9.421  20.814  16.405  1.00  0.00     0.039 C 
BRANCH  13  15
ATOM     15  C   UNL     1       7.433  17.663  15.277  1.00  0.00     0.035 C 
BRANCH  15  16
ATOM     16  C   UNL     1       6.260  18.044  14.368  1.00  0.00     0.079 C 
BRANCH  16  17
ATOM     17  C   UNL     1       4.952  17.876  15.089  1.00  0.00     0.130 C 
ATOM     18  O   UNL     1       4.448  16.766  15.181  1.00  0.00    -0.300 OA
ATOM     19  C   UNL     1       4.273  19.055  15.717  1.00  0.00     0.087 C 
ENDBRANCH  16  17
ENDBRANCH  15  16
ENDBRANCH  13  15
ENDBRANCH  11  12
ENDBRANCH   1  11
TORSDOF 9
ENDMDL
MODEL 6
REMARK VINA RESULT:    -4.793      4.693      8.298
REMARK INTER + INTRA:          -8.756
REMARK INTER:                  -6.610
REMARK INTRA:                  -2.146
REMARK UNBOUND:                -1.442
REMARK SMILES CC(=O)CCC=C(C)CCC=C(C)CCC=C(C)C
REMARK SMILES IDX 10 1 11 2 12 3 13 4 14 5 15 6 16 7 18 8 17 9 19 10 9 11 7 12
REMARK SMILES IDX 6 13 8 14 5 15 4 16 2 17 3 18 1 19
REMARK H PARENT
REMARK Flexibility Score: inf
ROOT
ATOM      1  C   UNL     1      15.181  15.447  17.498  1.00  0.00     0.032 C 
ENDROOT
BRANCH   1   2
ATOM      2  C   UNL     1      14.386  16.597  16.934  1.00  0.00    -0.028 C 
ATOM      3  C   UNL     1      14.903  17.625  16.222  1.00  0.00    -0.077 C 
ATOM      4  C   UNL     1      13.954  18.669  15.690  1.00  0.00     0.039 C 
BRANCH   3   5
ATOM      5  C   UNL     1      16.388  17.801  15.961  1.00  0.00     0.034 C 
BRANCH   5   6
ATOM      6  C   UNL     1      16.780  19.281  15.840  1.00  0.00     0.032 C 
BRANCH   6   7
ATOM      7  C   UNL     1      17.305  19.822  17.147  1.00  0.00    -0.028 C 
ATOM      8  C   UNL     1      18.838  21.482  16.065  1.00  0.00     0.039 C 
ATOM      9  C   UNL     1      18.202  20.826  17.267  1.00  0.00    -0.080 C 
ATOM     10  C   UNL     1      18.571  21.295  18.649  1.00  0.00     0.039 C 
ENDBRANCH   6   7
ENDBRANCH   5   6
ENDBRANCH   3   5
ENDBRANCH   1   2
BRANCH   1  11
ATOM     11  C   UNL     1      14.932  14.165  16.698  1.00  0.00     0.034 C 
BRANCH  11  12
ATOM     12  C   UNL     1      15.758  14.165  15.427  1.00  0.00    -0.077 C 
ATOM     13  C   UNL     1      15.210  14.112  14.191  1.00  0.00    -0.028 C 
ATOM     14  C   UNL     1      17.259  14.139  15.545  1.00  0.00     0.039 C 
BRANCH  13  15
ATOM     15  C   UNL     1      13.729  14.127  13.904  1.00  0.00     0.035 C 
BRANCH  15  16
ATOM     16  C   UNL     1      13.237  15.557  13.658  1.00  0.00     0.079 C 
BRANCH  16  17
ATOM     17  C   UNL     1      11.952  15.811  14.396  1.00  0.00     0.130 C 
ATOM     18  O   UNL     1      11.304  16.819  14.154  1.00  0.00    -0.300 OA
ATOM     19  C   UNL     1      11.447  14.827  15.406  1.00  0.00     0.087 C 
ENDBRANCH  16  17
ENDBRANCH  15  16
ENDBRANCH  13  15
ENDBRANCH  11  12
ENDBRANCH   1  11
TORSDOF 9
ENDMDL
MODEL 7
REMARK VINA RESULT:    -4.756      2.691      7.182
REMARK INTER + INTRA:          -8.700
REMARK INTER:                  -5.943
REMARK INTRA:                  -2.757
REMARK UNBOUND:                -1.442
REMARK SMILES CC(=O)CCC=C(C)CCC=C(C)CCC=C(C)C
REMARK SMILES IDX 10 1 11 2 12 3 13 4 14 5 15 6 16 7 18 8 17 9 19 10 9 11 7 12
REMARK SMILES IDX 6 13 8 14 5 15 4 16 2 17 3 18 1 19
REMARK H PARENT
REMARK Flexibility Score: inf
ROOT
ATOM      1  C   UNL     1      11.701  14.653  15.280  1.00  0.00     0.032 C 
ENDROOT
BRANCH   1   2
ATOM      2  C   UNL     1      12.704  14.536  16.399  1.00  0.00    -0.028 C 
ATOM      3  C   UNL     1      14.048  14.599  16.250  1.00  0.00    -0.077 C 
ATOM      4  C   UNL     1      14.905  14.512  17.487  1.00  0.00     0.039 C 
BRANCH   3   5
ATOM      5  C   UNL     1      14.737  14.716  14.902  1.00  0.00     0.034 C 
BRANCH   5   6
ATOM      6  C   UNL     1      15.665  15.937  14.834  1.00  0.00     0.032 C 
BRANCH   6   7
ATOM      7  C   UNL     1      14.929  17.165  14.355  1.00  0.00    -0.028 C 
ATOM      8  C   UNL     1      14.504  18.046  16.662  1.00  0.00     0.039 C 
ATOM      9  C   UNL     1      14.431  18.133  15.156  1.00  0.00    -0.080 C 
ATOM     10  C   UNL     1      13.782  19.331  14.514  1.00  0.00     0.039 C 
ENDBRANCH   6   7
ENDBRANCH   5   6
ENDBRANCH   3   5
ENDBRANCH   1   2
BRANCH   1  11
ATOM     11  C   UNL     1      11.083  16.054  15.242  1.00  0.00     0.034 C 
BRANCH  11  12
ATOM     12  C   UNL     1      11.193  16.644  13.850  1.00  0.00    -0.077 C 
ATOM     13  C   UNL     1      10.678  17.850  13.518  1.00  0.00    -0.028 C 
ATOM     14  C   UNL     1      11.834  15.817  12.766  1.00  0.00     0.039 C 
BRANCH  13  15
ATOM     15  C   UNL     1      10.005  18.795  14.481  1.00  0.00     0.035 C 
BRANCH  15  16
ATOM     16  C   UNL     1       8.486  18.789  14.277  1.00  0.00     0.079 C 
BRANCH  16  17
ATOM     17  C   UNL     1       7.814  17.921  15.305  1.00  0.00     0.130 C 
ATOM     18  O   UNL     1       7.637  18.349  16.436  1.00  0.00    -0.300 OA
ATOM     19  C   UNL     1       7.337  16.547  14.945  1.00  0.00     0.087 C 
ENDBRANCH  16  17
ENDBRANCH  15  16
ENDBRANCH  13  15
ENDBRANCH  11  12
ENDBRANCH   1  11
TORSDOF 9
ENDMDL
MODEL 8
REMARK VINA RESULT:    -4.718      4.164      6.878
REMARK INTER + INTRA:          -8.642
REMARK INTER:                  -6.373
REMARK INTRA:                  -2.269
REMARK UNBOUND:                -1.442
REMARK SMILES CC(=O)CCC=C(C)CCC=C(C)CCC=C(C)C
REMARK SMILES IDX 10 1 11 2 12 3 13 4 14 5 15 6 16 7 18 8 17 9 19 10 9 11 7 12
REMARK SMILES IDX 6 13 8 14 5 15 4 16 2 17 3 18 1 19
REMARK H PARENT
REMARK Flexibility Score: inf
ROOT
ATOM      1  C   UNL     1      14.448  14.537  17.177  1.00  0.00     0.032 C 
ENDROOT
BRANCH   1   2
ATOM      2  C   UNL     1      13.007  14.704  16.764  1.00  0.00    -0.028 C 
ATOM      3  C   UNL     1      12.557  14.689  15.488  1.00  0.00    -0.077 C 
ATOM      4  C   UNL     1      11.073  14.823  15.257  1.00  0.00     0.039 C 
BRANCH   3   5
ATOM      5  C   UNL     1      13.468  14.579  14.278  1.00  0.00     0.034 C 
BRANCH   5   6
ATOM      6  C   UNL     1      13.275  15.749  13.304  1.00  0.00     0.032 C 
BRANCH   6   7
ATOM      7  C   UNL     1      13.898  17.018  13.834  1.00  0.00    -0.028 C 
ATOM      8  C   UNL     1      11.711  18.211  14.098  1.00  0.00     0.039 C 
ATOM      9  C   UNL     1      13.212  18.115  14.223  1.00  0.00    -0.080 C 
ATOM     10  C   UNL     1      13.983  19.275  14.797  1.00  0.00     0.039 C 
ENDBRANCH   6   7
ENDBRANCH   5   6
ENDBRANCH   3   5
ENDBRANCH   1   2
BRANCH   1  11
ATOM     11  C   UNL     1      15.169  15.888  17.206  1.00  0.00     0.034 C 
BRANCH  11  12
ATOM     12  C   UNL     1      16.434  15.833  16.372  1.00  0.00    -0.077 C 
ATOM     13  C   UNL     1      17.147  16.933  16.040  1.00  0.00    -0.028 C 
ATOM     14  C   UNL     1      16.873  14.501  15.820  1.00  0.00     0.039 C 
BRANCH  13  15
ATOM     15  C   UNL     1      16.839  18.333  16.506  1.00  0.00     0.035 C 
BRANCH  15  16
ATOM     16  C   UNL     1      18.023  19.269  16.240  1.00  0.00     0.079 C 
BRANCH  16  17
ATOM     17  C   UNL     1      17.727  20.657  16.737  1.00  0.00     0.130 C 
ATOM     18  O   UNL     1      17.123  21.441  16.020  1.00  0.00    -0.300 OA
ATOM     19  C   UNL     1      18.145  21.077  18.113  1.00  0.00     0.087 C 
ENDBRANCH  16  17
ENDBRANCH  15  16
ENDBRANCH  13  15
ENDBRANCH  11  12
ENDBRANCH   1  11
TORSDOF 9
ENDMDL
MODEL 9
REMARK VINA RESULT:    -4.667      4.057      5.831
REMARK INTER + INTRA:          -8.564
REMARK INTER:                  -6.143
REMARK INTRA:                  -2.421
REMARK UNBOUND:                -1.442
REMARK SMILES CC(=O)CCC=C(C)CCC=C(C)CCC=C(C)C
REMARK SMILES IDX 10 1 11 2 12 3 13 4 14 5 15 6 16 7 18 8 17 9 19 10 9 11 7 12
REMARK SMILES IDX 6 13 8 14 5 15 4 16 2 17 3 18 1 19
REMARK H PARENT
REMARK Flexibility Score: inf
ROOT
ATOM      1  C   UNL     1      14.456  17.054  16.751  1.00  0.00     0.032 C 
ENDROOT
BRANCH   1   2
ATOM      2  C   UNL     1      14.909  18.017  15.683  1.00  0.00    -0.028 C 
ATOM      3  C   UNL     1      14.096  18.837  14.978  1.00  0.00    -0.077 C 
ATOM      4  C   UNL     1      14.724  19.773  13.977  1.00  0.00     0.039 C 
BRANCH   3   5
ATOM      5  C   UNL     1      12.584  18.840  15.117  1.00  0.00     0.034 C 
BRANCH   5   6
ATOM      6  C   UNL     1      11.903  18.018  14.013  1.00  0.00     0.032 C 
BRANCH   6   7
ATOM      7  C   UNL     1      11.380  16.706  14.544  1.00  0.00    -0.028 C 
ATOM      8  C   UNL     1      13.258  15.349  13.592  1.00  0.00     0.039 C 
ATOM      9  C   UNL     1      11.988  15.509  14.392  1.00  0.00    -0.080 C 
ATOM     10  C   UNL     1      11.369  14.302  15.046  1.00  0.00     0.039 C 
ENDBRANCH   6   7
ENDBRANCH   5   6
ENDBRANCH   3   5
ENDBRANCH   1   2
BRANCH   1  11
ATOM     11  C   UNL     1      15.580  16.083  17.125  1.00  0.00     0.034 C 
BRANCH  11  12
ATOM     12  C   UNL     1      15.191  14.661  16.771  1.00  0.00    -0.077 C 
ATOM     13  C   UNL     1      15.787  13.959  15.780  1.00  0.00    -0.028 C 
ATOM     14  C   UNL     1      14.035  14.029  17.501  1.00  0.00     0.039 C 
BRANCH  13  15
ATOM     15  C   UNL     1      16.951  14.449  14.956  1.00  0.00     0.035 C 
BRANCH  15  16
ATOM     16  C   UNL     1      18.270  13.875  15.482  1.00  0.00     0.079 C 
BRANCH  16  17
ATOM     17  C   UNL     1      19.306  14.957  15.615  1.00  0.00     0.130 C 
ATOM     18  O   UNL     1      20.493  14.668  15.576  1.00  0.00    -0.300 OA
ATOM     19  C   UNL     1      18.893  16.389  15.770  1.00  0.00     0.087 C 
ENDBRANCH  16  17
ENDBRANCH  15  16
ENDBRANCH  13  15
ENDBRANCH  11  12
ENDBRANCH   1  11
TORSDOF 9
ENDMDL
