MODEL 1
REMARK VINA RESULT:    -3.165      0.000      0.000
REMARK INTER + INTRA:          -5.027
REMARK INTER:                  -4.646
REMARK INTRA:                  -0.381
REMARK UNBOUND:                -0.381
REMARK SMILES O=C([O-])CCCCCCCC(=O)[O-]
REMARK SMILES IDX 7 1 6 2 5 3 4 4 2 5 1 6 3 7 8 8 9 9 10 10 11 11 12 12 13 13
REMARK H PARENT
REMARK Flexibility Score: inf
ROOT
ATOM      1  C   UNL     1     -10.175 -20.073  19.124  1.00  0.00     0.000 C 
ENDROOT
BRANCH   1   2
ATOM      2  C   UNL     1     -10.552 -21.254  18.218  1.00  0.00     0.000 C 
BRANCH   2   3
ATOM      3  C   UNL     1      -9.482 -22.355  18.202  1.00  0.00     0.006 C 
BRANCH   3   4
ATOM      4  C   UNL     1      -8.354 -22.008  17.226  1.00  0.00     0.053 C 
BRANCH   4   5
ATOM      5  C   UNL     1      -7.020 -22.263  17.854  1.00  0.00     0.041 C 
ATOM      6  O   UNL     1      -6.948 -22.720  19.025  1.00  0.00    -0.550 OA
ATOM      7  O   UNL     1      -5.856 -22.042  17.128  1.00  0.00    -0.550 OA
ENDBRANCH   4   5
ENDBRANCH   3   4
ENDBRANCH   2   3
ENDBRANCH   1   2
BRANCH   1   8
ATOM      8  C   UNL     1     -11.125 -18.876  18.966  1.00  0.00     0.000 C 
BRANCH   8   9
ATOM      9  C   UNL     1     -11.066 -17.963  20.199  1.00  0.00     0.006 C 
BRANCH   9  10
ATOM     10  C   UNL     1      -9.657 -17.888  20.801  1.00  0.00     0.053 C 
BRANCH  10  11
ATOM     11  C   UNL     1      -9.671 -18.128  22.280  1.00  0.00     0.041 C 
ATOM     12  O   UNL     1     -10.474 -18.959  22.780  1.00  0.00    -0.550 OA
ATOM     13  O   UNL     1      -8.821 -17.408  23.111  1.00  0.00    -0.550 OA
ENDBRANCH  10  11
ENDBRANCH   9  10
ENDBRANCH   8   9
ENDBRANCH   1   8
TORSDOF 8
ENDMDL
MODEL 2
REMARK VINA RESULT:    -3.109      3.012      5.304
REMARK INTER + INTRA:          -4.944
REMARK INTER:                  -4.394
REMARK INTRA:                  -0.550
REMARK UNBOUND:                -0.381
REMARK SMILES O=C([O-])CCCCCCCC(=O)[O-]
REMARK SMILES IDX 7 1 6 2 5 3 4 4 2 5 1 6 3 7 8 8 9 9 10 10 11 11 12 12 13 13
REMARK H PARENT
REMARK Flexibility Score: inf
ROOT
ATOM      1  C   UNL     1      -9.826 -18.350  20.766  1.00  0.00     0.000 C 
ENDROOT
BRANCH   1   2
ATOM      2  C   UNL     1      -9.987 -18.362  22.294  1.00  0.00     0.000 C 
BRANCH   2   3
ATOM      3  C   UNL     1     -10.976 -19.432  22.778  1.00  0.00     0.006 C 
BRANCH   3   4
ATOM      4  C   UNL     1     -10.647 -20.798  22.169  1.00  0.00     0.053 C 
BRANCH   4   5
ATOM      5  C   UNL     1      -9.837 -21.617  23.124  1.00  0.00     0.041 C 
ATOM      6  O   UNL     1     -10.389 -22.510  23.818  1.00  0.00    -0.550 OA
ATOM      7  O   UNL     1      -8.463 -21.427  23.211  1.00  0.00    -0.550 OA
ENDBRANCH   4   5
ENDBRANCH   3   4
ENDBRANCH   2   3
ENDBRANCH   1   2
BRANCH   1   8
ATOM      8  C   UNL     1     -11.054 -17.774  20.045  1.00  0.00     0.000 C 
BRANCH   8   9
ATOM      9  C   UNL     1     -11.118 -18.267  18.592  1.00  0.00     0.006 C 
BRANCH   9  10
ATOM     10  C   UNL     1     -10.874 -19.777  18.478  1.00  0.00     0.053 C 
BRANCH  10  11
ATOM     11  C   UNL     1     -10.927 -20.244  17.055  1.00  0.00     0.041 C 
ATOM     12  O   UNL     1     -10.839 -19.414  16.113  1.00  0.00    -0.550 OA
ATOM     13  O   UNL     1     -11.110 -21.591  16.770  1.00  0.00    -0.550 OA
ENDBRANCH  10  11
ENDBRANCH   9  10
ENDBRANCH   8   9
ENDBRANCH   1   8
TORSDOF 8
ENDMDL
MODEL 3
REMARK VINA RESULT:    -3.054      2.311      2.899
REMARK INTER + INTRA:          -4.863
REMARK INTER:                  -4.163
REMARK INTRA:                  -0.700
REMARK UNBOUND:                -0.381
REMARK SMILES O=C([O-])CCCCCCCC(=O)[O-]
REMARK SMILES IDX 7 1 6 2 5 3 4 4 2 5 1 6 3 7 8 8 9 9 10 10 11 11 12 12 13 13
REMARK H PARENT
REMARK Flexibility Score: inf
ROOT
ATOM      1  C   UNL     1     -10.271 -20.083  19.233  1.00  0.00     0.000 C 
ENDROOT
BRANCH   1   2
ATOM      2  C   UNL     1     -11.116 -21.361  19.343  1.00  0.00     0.000 C 
BRANCH   2   3
ATOM      3  C   UNL     1     -10.476 -22.418  20.255  1.00  0.00     0.006 C 
BRANCH   3   4
ATOM      4  C   UNL     1     -10.324 -21.890  21.684  1.00  0.00     0.053 C 
BRANCH   4   5
ATOM      5  C   UNL     1      -8.959 -22.198  22.214  1.00  0.00     0.041 C 
ATOM      6  O   UNL     1      -8.160 -22.897  21.539  1.00  0.00    -0.550 OA
ATOM      7  O   UNL     1      -8.552 -21.670  23.434  1.00  0.00    -0.550 OA
ENDBRANCH   4   5
ENDBRANCH   3   4
ENDBRANCH   2   3
ENDBRANCH   1   2
BRANCH   1   8
ATOM      8  C   UNL     1     -11.125 -18.822  19.033  1.00  0.00     0.000 C 
BRANCH   8   9
ATOM      9  C   UNL     1     -11.061 -17.914  20.269  1.00  0.00     0.006 C 
BRANCH   9  10
ATOM     10  C   UNL     1      -9.657 -17.872  20.887  1.00  0.00     0.053 C 
BRANCH  10  11
ATOM     11  C   UNL     1      -9.678 -18.228  22.343  1.00  0.00     0.041 C 
ATOM     12  O   UNL     1     -10.754 -18.584  22.891  1.00  0.00    -0.550 OA
ATOM     13  O   UNL     1      -8.518 -18.134  23.100  1.00  0.00    -0.550 OA
ENDBRANCH  10  11
ENDBRANCH   9  10
ENDBRANCH   8   9
ENDBRANCH   1   8
TORSDOF 8
ENDMDL
MODEL 4
REMARK VINA RESULT:    -2.995      1.523      5.954
REMARK INTER + INTRA:          -4.777
REMARK INTER:                  -4.333
REMARK INTRA:                  -0.443
REMARK UNBOUND:                -0.381
REMARK SMILES O=C([O-])CCCCCCCC(=O)[O-]
REMARK SMILES IDX 7 1 6 2 5 3 4 4 2 5 1 6 3 7 8 8 9 9 10 10 11 11 12 12 13 13
REMARK H PARENT
REMARK Flexibility Score: inf
ROOT
ATOM      1  C   UNL     1      -9.622 -21.639  20.043  1.00  0.00     0.000 C 
ENDROOT
BRANCH   1   2
ATOM      2  C   UNL     1     -10.682 -21.267  21.091  1.00  0.00     0.000 C 
BRANCH   2   3
ATOM      3  C   UNL     1     -10.078 -20.585  22.328  1.00  0.00     0.006 C 
BRANCH   3   4
ATOM      4  C   UNL     1     -10.649 -19.176  22.510  1.00  0.00     0.053 C 
BRANCH   4   5
ATOM      5  C   UNL     1      -9.700 -18.152  21.973  1.00  0.00     0.041 C 
ATOM      6  O   UNL     1      -9.724 -17.844  20.753  1.00  0.00    -0.550 OA
ATOM      7  O   UNL     1      -8.821 -17.500  22.830  1.00  0.00    -0.550 OA
ENDBRANCH   4   5
ENDBRANCH   3   4
ENDBRANCH   2   3
ENDBRANCH   1   2
BRANCH   1   8
ATOM      8  C   UNL     1      -9.768 -20.837  18.741  1.00  0.00     0.000 C 
BRANCH   8   9
ATOM      9  C   UNL     1      -9.233 -21.634  17.543  1.00  0.00     0.006 C 
BRANCH   9  10
ATOM     10  C   UNL     1      -8.180 -22.670  17.956  1.00  0.00     0.053 C 
BRANCH  10  11
ATOM     11  C   UNL     1      -6.871 -22.441  17.262  1.00  0.00     0.041 C 
ATOM     12  O   UNL     1      -5.788 -22.680  17.858  1.00  0.00    -0.550 OA
ATOM     13  O   UNL     1      -6.848 -21.931  15.970  1.00  0.00    -0.550 OA
ENDBRANCH  10  11
ENDBRANCH   9  10
ENDBRANCH   8   9
ENDBRANCH   1   8
TORSDOF 8
ENDMDL
MODEL 5
REMARK VINA RESULT:    -2.987      1.597      2.204
REMARK INTER + INTRA:          -4.765
REMARK INTER:                  -4.320
REMARK INTRA:                  -0.446
REMARK UNBOUND:                -0.381
REMARK SMILES O=C([O-])CCCCCCCC(=O)[O-]
REMARK SMILES IDX 7 1 6 2 5 3 4 4 2 5 1 6 3 7 8 8 9 9 10 10 11 11 12 12 13 13
REMARK H PARENT
REMARK Flexibility Score: inf
ROOT
ATOM      1  C   UNL     1      -9.561 -21.886  20.276  1.00  0.00     0.000 C 
ENDROOT
BRANCH   1   2
ATOM      2  C   UNL     1      -9.696 -20.912  19.095  1.00  0.00     0.000 C 
BRANCH   2   3
ATOM      3  C   UNL     1      -9.407 -21.577  17.742  1.00  0.00     0.006 C 
BRANCH   3   4
ATOM      4  C   UNL     1      -8.502 -22.800  17.915  1.00  0.00     0.053 C 
BRANCH   4   5
ATOM      5  C   UNL     1      -7.133 -22.520  17.377  1.00  0.00     0.041 C 
ATOM      6  O   UNL     1      -6.982 -22.178  16.176  1.00  0.00    -0.550 OA
ATOM      7  O   UNL     1      -6.029 -22.591  18.218  1.00  0.00    -0.550 OA
ENDBRANCH   4   5
ENDBRANCH   3   4
ENDBRANCH   2   3
ENDBRANCH   1   2
BRANCH   1   8
ATOM      8  C   UNL     1     -10.457 -21.505  21.464  1.00  0.00     0.000 C 
BRANCH   8   9
ATOM      9  C   UNL     1      -9.702 -20.608  22.455  1.00  0.00     0.006 C 
BRANCH   9  10
ATOM     10  C   UNL     1     -10.395 -19.255  22.659  1.00  0.00     0.053 C 
BRANCH  10  11
ATOM     11  C   UNL     1      -9.555 -18.118  22.161  1.00  0.00     0.041 C 
ATOM     12  O   UNL     1      -8.768 -17.522  22.942  1.00  0.00    -0.550 OA
ATOM     13  O   UNL     1      -9.668 -17.695  20.842  1.00  0.00    -0.550 OA
ENDBRANCH  10  11
ENDBRANCH   9  10
ENDBRANCH   8   9
ENDBRANCH   1   8
TORSDOF 8
ENDMDL
MODEL 6
REMARK VINA RESULT:    -2.973      2.587      5.971
REMARK INTER + INTRA:          -4.744
REMARK INTER:                  -4.289
REMARK INTRA:                  -0.456
REMARK UNBOUND:                -0.381
REMARK SMILES O=C([O-])CCCCCCCC(=O)[O-]
REMARK SMILES IDX 7 1 6 2 5 3 4 4 2 5 1 6 3 7 8 8 9 9 10 10 11 11 12 12 13 13
REMARK H PARENT
REMARK Flexibility Score: inf
ROOT
ATOM      1  C   UNL     1      -8.962 -21.428  23.035  1.00  0.00     0.000 C 
ENDROOT
BRANCH   1   2
ATOM      2  C   UNL     1     -10.481 -21.252  23.178  1.00  0.00     0.000 C 
BRANCH   2   3
ATOM      3  C   UNL     1     -10.992 -19.961  22.523  1.00  0.00     0.006 C 
BRANCH   3   4
ATOM      4  C   UNL     1     -10.201 -19.641  21.252  1.00  0.00     0.053 C 
BRANCH   4   5
ATOM      5  C   UNL     1     -10.076 -18.161  21.070  1.00  0.00     0.041 C 
ATOM      6  O   UNL     1      -9.278 -17.501  21.785  1.00  0.00    -0.550 OA
ATOM      7  O   UNL     1     -10.804 -17.518  20.076  1.00  0.00    -0.550 OA
ENDBRANCH   4   5
ENDBRANCH   3   4
ENDBRANCH   2   3
ENDBRANCH   1   2
BRANCH   1   8
ATOM      8  C   UNL     1      -8.565 -22.855  22.627  1.00  0.00     0.000 C 
BRANCH   8   9
ATOM      9  C   UNL     1      -8.600 -23.019  21.101  1.00  0.00     0.006 C 
BRANCH   9  10
ATOM     10  C   UNL     1      -7.194 -23.123  20.495  1.00  0.00     0.053 C 
BRANCH  10  11
ATOM     11  C   UNL     1      -7.184 -22.745  19.045  1.00  0.00     0.041 C 
ATOM     12  O   UNL     1      -6.175 -22.989  18.334  1.00  0.00    -0.550 OA
ATOM     13  O   UNL     1      -8.276 -22.090  18.488  1.00  0.00    -0.550 OA
ENDBRANCH  10  11
ENDBRANCH   9  10
ENDBRANCH   8   9
ENDBRANCH   1   8
TORSDOF 8
ENDMDL
MODEL 7
REMARK VINA RESULT:    -2.920     17.198     19.530
REMARK INTER + INTRA:          -4.667
REMARK INTER:                  -4.183
REMARK INTRA:                  -0.483
REMARK UNBOUND:                -0.381
REMARK SMILES O=C([O-])CCCCCCCC(=O)[O-]
REMARK SMILES IDX 7 1 6 2 5 3 4 4 2 5 1 6 3 7 8 8 9 9 10 10 11 11 12 12 13 13
REMARK H PARENT
REMARK Flexibility Score: inf
ROOT
ATOM      1  C   UNL     1       7.888 -19.709  11.977  1.00  0.00     0.000 C 
ENDROOT
BRANCH   1   2
ATOM      2  C   UNL     1       8.944 -19.454  13.063  1.00  0.00     0.000 C 
BRANCH   2   3
ATOM      3  C   UNL     1       9.026 -20.594  14.089  1.00  0.00     0.006 C 
BRANCH   3   4
ATOM      4  C   UNL     1       7.628 -21.083  14.478  1.00  0.00     0.053 C 
BRANCH   4   5
ATOM      5  C   UNL     1       7.596 -21.489  15.917  1.00  0.00     0.041 C 
ATOM      6  O   UNL     1       6.646 -21.123  16.657  1.00  0.00    -0.550 OA
ATOM      7  O   UNL     1       8.590 -22.313  16.430  1.00  0.00    -0.550 OA
ENDBRANCH   4   5
ENDBRANCH   3   4
ENDBRANCH   2   3
ENDBRANCH   1   2
BRANCH   1   8
ATOM      8  C   UNL     1       8.506 -20.140  10.638  1.00  0.00     0.000 C 
BRANCH   8   9
ATOM      9  C   UNL     1       8.805 -21.646  10.631  1.00  0.00     0.006 C 
BRANCH   9  10
ATOM     10  C   UNL     1       7.550 -22.486  10.357  1.00  0.00     0.053 C 
BRANCH  10  11
ATOM     11  C   UNL     1       7.341 -22.712   8.890  1.00  0.00     0.041 C 
ATOM     12  O   UNL     1       6.186 -22.930   8.442  1.00  0.00    -0.550 OA
ATOM     13  O   UNL     1       8.428 -22.716   8.025  1.00  0.00    -0.550 OA
ENDBRANCH  10  11
ENDBRANCH   9  10
ENDBRANCH   8   9
ENDBRANCH   1   8
TORSDOF 8
ENDMDL
