MODEL 1
REMARK VINA RESULT:    -6.443      0.000      0.000
REMARK INTER + INTRA:         -12.043
REMARK INTER:                 -10.210
REMARK INTRA:                  -1.833
REMARK UNBOUND:                -1.833
REMARK SMILES C[C@H]1O[C@@H](O[C@@H]2[C@H](Oc3cc(O)c4c(c3)O[C@@H](c3ccc(O)cc3)CC4=O)O[C@@H](CO)[C@H](O)[C@H]2O)[C@@H](O)[C@H](O)[C@@H]1O
REMARK SMILES IDX 6 1 34 2 32 3 29 4 28 5 7 6 5 7 4 8 1 9 2 10 40 11 3 12
REMARK SMILES IDX 38 13 36 14 41 15 39 17 37 19 35 21 8 23 9 24 10 25 15 26
REMARK SMILES IDX 11 27 14 28 13 29 16 30 26 31 17 32 27 33 25 34 12 35 18 37
REMARK SMILES IDX 19 38 24 39 20 40 23 41 21 42 22 43 33 45 30 47 31 48
REMARK H PARENT 41 16 39 18 37 20 35 22 12 36 22 44 33 46 31 49
REMARK Flexibility Score: inf
ROOT
ATOM      1  C   UNL     1      -3.422 -12.381 -38.270  1.00  0.00     0.221 C 
ATOM      2  C   UNL     1      -1.819 -12.600 -38.356  1.00  0.00     0.181 C 
ATOM      3  C   UNL     1      -1.019 -12.045 -39.672  1.00  0.00     0.177 C 
ATOM      4  C   UNL     1      -2.077 -11.971 -40.830  1.00  0.00     0.179 C 
ATOM      5  O   UNL     1      -3.138 -11.105 -40.307  1.00  0.00    -0.332 OA
ATOM      6  C   UNL     1      -4.076 -11.836 -39.576  1.00  0.00     0.339 C 
ENDROOT
BRANCH   1   7
ATOM      7  O   UNL     1      -4.210 -13.523 -37.907  1.00  0.00    -0.337 OA
BRANCH   7   8
ATOM      8  C   UNL     1      -4.959 -13.267 -36.732  1.00  0.00     0.282 C 
ATOM      9  C   UNL     1      -4.095 -14.733 -33.600  1.00  0.00     0.041 C 
ATOM     10  C   UNL     1      -5.033 -13.920 -34.555  1.00  0.00     0.150 C 
ATOM     11  C   UNL     1      -6.541 -14.298 -34.455  1.00  0.00     0.174 C 
ATOM     12  O   UNL     1      -4.546 -14.237 -35.815  1.00  0.00    -0.344 OA
ATOM     13  C   UNL     1      -7.215 -14.361 -35.881  1.00  0.00     0.179 C 
ATOM     14  C   UNL     1      -6.526 -13.493 -36.992  1.00  0.00     0.202 C 
BRANCH  11  15
ATOM     15  O   UNL     1      -7.205 -13.584 -33.404  1.00  0.00    -0.388 OA
ATOM     16  H   UNL     1      -6.998 -12.629 -33.548  1.00  0.00     0.211 HD
ENDBRANCH  11  15
BRANCH  13  17
ATOM     17  O   UNL     1      -8.612 -14.118 -35.962  1.00  0.00    -0.387 OA
ATOM     18  H   UNL     1      -9.103 -14.801 -35.403  1.00  0.00     0.211 HD
ENDBRANCH  13  17
BRANCH  14  19
ATOM     19  O   UNL     1      -6.778 -14.103 -38.241  1.00  0.00    -0.385 OA
ATOM     20  H   UNL     1      -6.450 -13.461 -38.892  1.00  0.00     0.211 HD
ENDBRANCH  14  19
ENDBRANCH   7   8
ENDBRANCH   1   7
BRANCH   2  21
ATOM     21  O   UNL     1      -1.143 -12.157 -37.171  1.00  0.00    -0.387 OA
ATOM     22  H   UNL     1      -0.470 -12.866 -36.992  1.00  0.00     0.211 HD
ENDBRANCH   2  21
BRANCH   6  23
ATOM     23  O   UNL     1      -4.756 -12.842 -40.419  1.00  0.00    -0.462 OA
BRANCH  23  24
ATOM     24  C   UNL     1      -5.679 -12.452 -41.471  1.00  0.00     0.130 A 
ATOM     25  C   UNL     1      -7.106 -12.612 -41.358  1.00  0.00     0.093 A 
ATOM     26  C   UNL     1      -5.211 -12.014 -42.727  1.00  0.00     0.094 A 
ATOM     27  C   UNL     1      -7.948 -11.980 -42.289  1.00  0.00     0.133 A 
ATOM     28  C   UNL     1      -6.054 -11.280 -43.546  1.00  0.00     0.138 A 
ATOM     29  C   UNL     1      -7.383 -11.099 -43.260  1.00  0.00     0.102 A 
ATOM     30  O   UNL     1      -5.555 -10.588 -44.645  1.00  0.00    -0.484 OA
ATOM     31  C   UNL     1      -8.145 -10.145 -44.069  1.00  0.00     0.174 C 
ATOM     32  C   UNL     1      -6.042  -9.307 -45.072  1.00  0.00     0.211 C 
ATOM     33  O   UNL     1      -9.342  -9.831 -43.797  1.00  0.00    -0.294 OA
ATOM     34  C   UNL     1      -7.544  -9.409 -45.267  1.00  0.00     0.131 C 
BRANCH  27  35
ATOM     35  O   UNL     1      -9.279 -12.396 -42.388  1.00  0.00    -0.507 OA
ATOM     36  H   UNL     1      -9.672 -13.016 -41.671  1.00  0.00     0.293 HD
ENDBRANCH  27  35
BRANCH  32  37
ATOM     37  C   UNL     1      -5.293  -8.872 -46.292  1.00  0.00    -0.007 A 
ATOM     38  C   UNL     1      -5.493  -9.386 -47.577  1.00  0.00     0.011 A 
ATOM     39  C   UNL     1      -4.254  -7.856 -46.164  1.00  0.00     0.011 A 
ATOM     40  C   UNL     1      -4.550  -9.190 -48.596  1.00  0.00     0.046 A 
ATOM     41  C   UNL     1      -3.381  -7.636 -47.227  1.00  0.00     0.046 A 
ATOM     42  C   UNL     1      -3.444  -8.415 -48.384  1.00  0.00     0.115 A 
BRANCH  42  43
ATOM     43  O   UNL     1      -2.328  -8.446 -49.226  1.00  0.00    -0.508 OA
ATOM     44  H   UNL     1      -1.957  -7.650 -49.657  1.00  0.00     0.293 HD
ENDBRANCH  42  43
ENDBRANCH  32  37
ENDBRANCH  23  24
ENDBRANCH   6  23
BRANCH   3  45
ATOM     45  O   UNL     1       0.062 -12.983 -39.898  1.00  0.00    -0.387 OA
ATOM     46  H   UNL     1      -0.332 -13.863 -40.078  1.00  0.00     0.211 HD
ENDBRANCH   3  45
BRANCH   4  47
ATOM     47  C   UNL     1      -1.779 -11.681 -42.365  1.00  0.00     0.191 C 
BRANCH  47  48
ATOM     48  O   UNL     1      -0.420 -11.754 -42.659  1.00  0.00    -0.394 OA
ATOM     49  H   UNL     1      -0.113 -12.717 -42.707  1.00  0.00     0.210 HD
ENDBRANCH  47  48
ENDBRANCH   4  47
TORSDOF 14
ENDMDL
MODEL 2
REMARK VINA RESULT:    -6.367      3.160      6.514
REMARK INTER + INTRA:         -11.922
REMARK INTER:                 -10.154
REMARK INTRA:                  -1.768
REMARK UNBOUND:                -1.833
REMARK SMILES C[C@H]1O[C@@H](O[C@@H]2[C@H](Oc3cc(O)c4c(c3)O[C@@H](c3ccc(O)cc3)CC4=O)O[C@@H](CO)[C@H](O)[C@H]2O)[C@@H](O)[C@H](O)[C@@H]1O
REMARK SMILES IDX 6 1 34 2 32 3 29 4 28 5 7 6 5 7 4 8 1 9 2 10 40 11 3 12
REMARK SMILES IDX 38 13 36 14 41 15 39 17 37 19 35 21 8 23 9 24 10 25 15 26
REMARK SMILES IDX 11 27 14 28 13 29 16 30 26 31 17 32 27 33 25 34 12 35 18 37
REMARK SMILES IDX 19 38 24 39 20 40 23 41 21 42 22 43 33 45 30 47 31 48
REMARK H PARENT 41 16 39 18 37 20 35 22 12 36 22 44 33 46 31 49
REMARK Flexibility Score: inf
ROOT
ATOM      1  C   UNL     1      -4.470 -14.369 -35.133  1.00  0.00     0.221 C 
ATOM      2  C   UNL     1      -5.380 -14.356 -33.793  1.00  0.00     0.181 C 
ATOM      3  C   UNL     1      -7.005 -14.482 -33.944  1.00  0.00     0.177 C 
ATOM      4  C   UNL     1      -7.352 -13.971 -35.387  1.00  0.00     0.179 C 
ATOM      5  O   UNL     1      -6.554 -14.815 -36.281  1.00  0.00    -0.332 OA
ATOM      6  C   UNL     1      -5.273 -14.290 -36.466  1.00  0.00     0.339 C 
ENDROOT
BRANCH   1   7
ATOM      7  O   UNL     1      -3.468 -13.349 -35.241  1.00  0.00    -0.337 OA
BRANCH   7   8
ATOM      8  C   UNL     1      -2.329 -13.677 -34.464  1.00  0.00     0.282 C 
ATOM      9  C   UNL     1      -1.145 -11.531 -31.875  1.00  0.00     0.041 C 
ATOM     10  C   UNL     1      -1.035 -12.767 -32.830  1.00  0.00     0.150 C 
ATOM     11  C   UNL     1       0.367 -12.955 -33.482  1.00  0.00     0.174 C 
ATOM     12  O   UNL     1      -1.981 -12.493 -33.806  1.00  0.00    -0.344 OA
ATOM     13  C   UNL     1       0.245 -13.364 -35.003  1.00  0.00     0.179 C 
ATOM     14  C   UNL     1      -1.093 -14.081 -35.403  1.00  0.00     0.202 C 
BRANCH  11  15
ATOM     15  O   UNL     1       1.259 -13.691 -32.636  1.00  0.00    -0.388 OA
ATOM     16  H   UNL     1       2.106 -13.182 -32.623  1.00  0.00     0.211 HD
ENDBRANCH  11  15
BRANCH  13  17
ATOM     17  O   UNL     1       1.310 -14.109 -35.574  1.00  0.00    -0.387 OA
ATOM     18  H   UNL     1       2.111 -14.073 -34.959  1.00  0.00     0.211 HD
ENDBRANCH  13  17
BRANCH  14  19
ATOM     19  O   UNL     1      -1.344 -13.806 -36.766  1.00  0.00    -0.385 OA
ATOM     20  H   UNL     1      -0.696 -14.350 -37.244  1.00  0.00     0.211 HD
ENDBRANCH  14  19
ENDBRANCH   7   8
ENDBRANCH   1   7
BRANCH   2  21
ATOM     21  O   UNL     1      -4.923 -15.298 -32.812  1.00  0.00    -0.387 OA
ATOM     22  H   UNL     1      -4.472 -14.739 -32.125  1.00  0.00     0.211 HD
ENDBRANCH   2  21
BRANCH   6  23
ATOM     23  O   UNL     1      -5.322 -12.959 -37.107  1.00  0.00    -0.462 OA
BRANCH  23  24
ATOM     24  C   UNL     1      -5.032 -12.784 -38.519  1.00  0.00     0.130 A 
ATOM     25  C   UNL     1      -6.048 -12.830 -39.539  1.00  0.00     0.093 A 
ATOM     26  C   UNL     1      -3.703 -12.692 -38.985  1.00  0.00     0.094 A 
ATOM     27  C   UNL     1      -5.741 -12.397 -40.840  1.00  0.00     0.133 A 
ATOM     28  C   UNL     1      -3.458 -12.133 -40.228  1.00  0.00     0.138 A 
ATOM     29  C   UNL     1      -4.465 -11.812 -41.102  1.00  0.00     0.102 A 
ATOM     30  O   UNL     1      -2.171 -11.758 -40.600  1.00  0.00    -0.484 OA
ATOM     31  C   UNL     1      -4.127 -11.042 -42.302  1.00  0.00     0.174 C 
ATOM     32  C   UNL     1      -1.871 -10.594 -41.384  1.00  0.00     0.211 C 
ATOM     33  O   UNL     1      -5.011 -10.604 -43.096  1.00  0.00    -0.294 OA
ATOM     34  C   UNL     1      -2.693 -10.655 -42.660  1.00  0.00     0.131 C 
BRANCH  27  35
ATOM     35  O   UNL     1      -6.596 -12.749 -41.889  1.00  0.00    -0.507 OA
ATOM     36  H   UNL     1      -7.602 -12.563 -41.807  1.00  0.00     0.293 HD
ENDBRANCH  27  35
BRANCH  32  37
ATOM     37  C   UNL     1      -0.394 -10.512 -41.609  1.00  0.00    -0.007 A 
ATOM     38  C   UNL     1       0.257  -9.458 -42.257  1.00  0.00     0.011 A 
ATOM     39  C   UNL     1       0.456 -11.605 -41.152  1.00  0.00     0.011 A 
ATOM     40  C   UNL     1       1.571  -9.592 -42.729  1.00  0.00     0.046 A 
ATOM     41  C   UNL     1       1.779 -11.665 -41.581  1.00  0.00     0.046 A 
ATOM     42  C   UNL     1       2.284 -10.734 -42.492  1.00  0.00     0.115 A 
BRANCH  42  43
ATOM     43  O   UNL     1       3.447 -11.058 -43.198  1.00  0.00    -0.508 OA
ATOM     44  H   UNL     1       3.572 -10.862 -44.148  1.00  0.00     0.293 HD
ENDBRANCH  42  43
ENDBRANCH  32  37
ENDBRANCH  23  24
ENDBRANCH   6  23
BRANCH   3  45
ATOM     45  O   UNL     1      -7.563 -13.685 -32.869  1.00  0.00    -0.387 OA
ATOM     46  H   UNL     1      -6.989 -12.898 -32.746  1.00  0.00     0.211 HD
ENDBRANCH   3  45
BRANCH   4  47
ATOM     47  C   UNL     1      -8.808 -13.703 -35.971  1.00  0.00     0.191 C 
BRANCH  47  48
ATOM     48  O   UNL     1      -9.515 -12.774 -35.211  1.00  0.00    -0.394 OA
ATOM     49  H   UNL     1      -9.426 -12.974 -34.224  1.00  0.00     0.210 HD
ENDBRANCH  47  48
ENDBRANCH   4  47
TORSDOF 14
ENDMDL
MODEL 3
REMARK VINA RESULT:    -6.339      2.790      6.074
REMARK INTER + INTRA:         -11.878
REMARK INTER:                  -9.803
REMARK INTRA:                  -2.075
REMARK UNBOUND:                -1.833
REMARK SMILES C[C@H]1O[C@@H](O[C@@H]2[C@H](Oc3cc(O)c4c(c3)O[C@@H](c3ccc(O)cc3)CC4=O)O[C@@H](CO)[C@H](O)[C@H]2O)[C@@H](O)[C@H](O)[C@@H]1O
REMARK SMILES IDX 6 1 34 2 32 3 29 4 28 5 7 6 5 7 4 8 1 9 2 10 40 11 3 12
REMARK SMILES IDX 38 13 36 14 41 15 39 17 37 19 35 21 8 23 9 24 10 25 15 26
REMARK SMILES IDX 11 27 14 28 13 29 16 30 26 31 17 32 27 33 25 34 12 35 18 37
REMARK SMILES IDX 19 38 24 39 20 40 23 41 21 42 22 43 33 45 30 47 31 48
REMARK H PARENT 41 16 39 18 37 20 35 22 12 36 22 44 33 46 31 49
REMARK Flexibility Score: inf
ROOT
ATOM      1  C   UNL     1      -2.727 -12.921 -34.060  1.00  0.00     0.221 C 
ATOM      2  C   UNL     1      -2.093 -14.018 -33.050  1.00  0.00     0.181 C 
ATOM      3  C   UNL     1      -0.523 -13.872 -32.615  1.00  0.00     0.177 C 
ATOM      4  C   UNL     1       0.175 -13.051 -33.757  1.00  0.00     0.179 C 
ATOM      5  O   UNL     1      -0.592 -11.804 -33.838  1.00  0.00    -0.332 OA
ATOM      6  C   UNL     1      -1.692 -11.938 -34.686  1.00  0.00     0.339 C 
ENDROOT
BRANCH   1   7
ATOM      7  O   UNL     1      -3.480 -13.427 -35.171  1.00  0.00    -0.337 OA
BRANCH   7   8
ATOM      8  C   UNL     1      -4.867 -13.203 -34.984  1.00  0.00     0.282 C 
ATOM      9  C   UNL     1      -6.612 -14.500 -32.159  1.00  0.00     0.041 C 
ATOM     10  C   UNL     1      -6.535 -13.799 -33.557  1.00  0.00     0.150 C 
ATOM     11  C   UNL     1      -7.585 -14.302 -34.591  1.00  0.00     0.174 C 
ATOM     12  O   UNL     1      -5.254 -14.107 -33.991  1.00  0.00    -0.344 OA
ATOM     13  C   UNL     1      -6.949 -14.463 -36.027  1.00  0.00     0.179 C 
ATOM     14  C   UNL     1      -5.689 -13.571 -36.311  1.00  0.00     0.202 C 
BRANCH  11  15
ATOM     15  O   UNL     1      -8.838 -13.618 -34.461  1.00  0.00    -0.388 OA
ATOM     16  H   UNL     1      -9.502 -14.308 -34.217  1.00  0.00     0.211 HD
ENDBRANCH  11  15
BRANCH  13  17
ATOM     17  O   UNL     1      -7.812 -14.344 -37.149  1.00  0.00    -0.387 OA
ATOM     18  H   UNL     1      -7.758 -13.403 -37.513  1.00  0.00     0.211 HD
ENDBRANCH  13  17
BRANCH  14  19
ATOM     19  O   UNL     1      -4.891 -14.235 -37.268  1.00  0.00    -0.385 OA
ATOM     20  H   UNL     1      -5.268 -15.129 -37.317  1.00  0.00     0.211 HD
ENDBRANCH  14  19
ENDBRANCH   7   8
ENDBRANCH   1   7
BRANCH   2  21
ATOM     21  O   UNL     1      -2.894 -14.206 -31.875  1.00  0.00    -0.387 OA
ATOM     22  H   UNL     1      -2.367 -13.781 -31.147  1.00  0.00     0.211 HD
ENDBRANCH   2  21
BRANCH   6  23
ATOM     23  O   UNL     1      -1.274 -12.245 -36.071  1.00  0.00    -0.462 OA
BRANCH  23  24
ATOM     24  C   UNL     1      -1.554 -11.335 -37.167  1.00  0.00     0.130 A 
ATOM     25  C   UNL     1      -0.751 -10.172 -37.444  1.00  0.00     0.093 A 
ATOM     26  C   UNL     1      -2.721 -11.472 -37.949  1.00  0.00     0.094 A 
ATOM     27  C   UNL     1      -0.918  -9.491 -38.662  1.00  0.00     0.133 A 
ATOM     28  C   UNL     1      -2.771 -10.881 -39.201  1.00  0.00     0.138 A 
ATOM     29  C   UNL     1      -1.797 -10.027 -39.651  1.00  0.00     0.102 A 
ATOM     30  O   UNL     1      -3.764 -11.226 -40.112  1.00  0.00    -0.484 OA
ATOM     31  C   UNL     1      -1.828  -9.613 -41.056  1.00  0.00     0.174 C 
ATOM     32  C   UNL     1      -3.550 -11.330 -41.528  1.00  0.00     0.211 C 
ATOM     33  O   UNL     1      -0.903  -8.926 -41.580  1.00  0.00    -0.294 OA
ATOM     34  C   UNL     1      -2.945 -10.025 -42.015  1.00  0.00     0.131 C 
BRANCH  27  35
ATOM     35  O   UNL     1      -0.401  -8.198 -38.790  1.00  0.00    -0.507 OA
ATOM     36  H   UNL     1      -0.691  -7.467 -38.130  1.00  0.00     0.293 HD
ENDBRANCH  27  35
BRANCH  32  37
ATOM     37  C   UNL     1      -4.835 -11.699 -42.199  1.00  0.00    -0.007 A 
ATOM     38  C   UNL     1      -5.205 -11.301 -43.488  1.00  0.00     0.011 A 
ATOM     39  C   UNL     1      -5.806 -12.513 -41.478  1.00  0.00     0.011 A 
ATOM     40  C   UNL     1      -6.535 -11.391 -43.925  1.00  0.00     0.046 A 
ATOM     41  C   UNL     1      -7.098 -12.641 -41.981  1.00  0.00     0.046 A 
ATOM     42  C   UNL     1      -7.495 -11.951 -43.129  1.00  0.00     0.115 A 
BRANCH  42  43
ATOM     43  O   UNL     1      -8.863 -11.778 -43.361  1.00  0.00    -0.508 OA
ATOM     44  H   UNL     1      -9.222 -11.321 -44.147  1.00  0.00     0.293 HD
ENDBRANCH  42  43
ENDBRANCH  32  37
ENDBRANCH  23  24
ENDBRANCH   6  23
BRANCH   3  45
ATOM     45  O   UNL     1      -0.031 -15.226 -32.455  1.00  0.00    -0.387 OA
ATOM     46  H   UNL     1      -0.664 -15.832 -32.897  1.00  0.00     0.211 HD
ENDBRANCH   3  45
BRANCH   4  47
ATOM     47  C   UNL     1       1.737 -12.797 -33.920  1.00  0.00     0.191 C 
BRANCH  47  48
ATOM     48  O   UNL     1       2.487 -13.541 -33.013  1.00  0.00    -0.394 OA
ATOM     49  H   UNL     1       3.247 -12.990 -32.637  1.00  0.00     0.210 HD
ENDBRANCH  47  48
ENDBRANCH   4  47
TORSDOF 14
ENDMDL
MODEL 4
REMARK VINA RESULT:    -6.314      2.936      7.185
REMARK INTER + INTRA:         -11.837
REMARK INTER:                  -9.610
REMARK INTRA:                  -2.228
REMARK UNBOUND:                -1.833
REMARK SMILES C[C@H]1O[C@@H](O[C@@H]2[C@H](Oc3cc(O)c4c(c3)O[C@@H](c3ccc(O)cc3)CC4=O)O[C@@H](CO)[C@H](O)[C@H]2O)[C@@H](O)[C@H](O)[C@@H]1O
REMARK SMILES IDX 6 1 34 2 32 3 29 4 28 5 7 6 5 7 4 8 1 9 2 10 40 11 3 12
REMARK SMILES IDX 38 13 36 14 41 15 39 17 37 19 35 21 8 23 9 24 10 25 15 26
REMARK SMILES IDX 11 27 14 28 13 29 16 30 26 31 17 32 27 33 25 34 12 35 18 37
REMARK SMILES IDX 19 38 24 39 20 40 23 41 21 42 22 43 33 45 30 47 31 48
REMARK H PARENT 41 16 39 18 37 20 35 22 12 36 22 44 33 46 31 49
REMARK Flexibility Score: inf
ROOT
ATOM      1  C   UNL     1      -0.748 -12.408 -35.317  1.00  0.00     0.221 C 
ATOM      2  C   UNL     1       0.489 -12.340 -34.273  1.00  0.00     0.181 C 
ATOM      3  C   UNL     1       0.910 -13.698 -33.462  1.00  0.00     0.177 C 
ATOM      4  C   UNL     1      -0.372 -14.604 -33.429  1.00  0.00     0.179 C 
ATOM      5  O   UNL     1      -0.737 -14.780 -34.837  1.00  0.00    -0.332 OA
ATOM      6  C   UNL     1      -1.555 -13.741 -35.284  1.00  0.00     0.339 C 
ENDROOT
BRANCH   1   7
ATOM      7  O   UNL     1      -1.734 -11.372 -35.217  1.00  0.00    -0.337 OA
BRANCH   7   8
ATOM      8  C   UNL     1      -1.967 -10.773 -36.480  1.00  0.00     0.282 C 
ATOM      9  C   UNL     1      -1.717 -12.633 -39.511  1.00  0.00     0.041 C 
ATOM     10  C   UNL     1      -1.872 -11.310 -38.688  1.00  0.00     0.150 C 
ATOM     11  C   UNL     1      -1.000 -10.125 -39.199  1.00  0.00     0.174 C 
ATOM     12  O   UNL     1      -1.468 -11.684 -37.415  1.00  0.00    -0.344 OA
ATOM     13  C   UNL     1      -0.353  -9.326 -38.001  1.00  0.00     0.179 C 
ATOM     14  C   UNL     1      -1.122  -9.419 -36.636  1.00  0.00     0.202 C 
BRANCH  11  15
ATOM     15  O   UNL     1      -1.646  -9.397 -40.251  1.00  0.00    -0.388 OA
ATOM     16  H   UNL     1      -1.205  -9.677 -41.089  1.00  0.00     0.211 HD
ENDBRANCH  11  15
BRANCH  13  17
ATOM     17  O   UNL     1      -0.036  -7.959 -38.214  1.00  0.00    -0.387 OA
ATOM     18  H   UNL     1      -0.504  -7.394 -37.520  1.00  0.00     0.211 HD
ENDBRANCH  13  17
BRANCH  14  19
ATOM     19  O   UNL     1      -0.183  -9.251 -35.594  1.00  0.00    -0.385 OA
ATOM     20  H   UNL     1      -0.379  -9.975 -34.976  1.00  0.00     0.211 HD
ENDBRANCH  14  19
ENDBRANCH   7   8
ENDBRANCH   1   7
BRANCH   2  21
ATOM     21  O   UNL     1       1.663 -11.753 -34.853  1.00  0.00    -0.387 OA
ATOM     22  H   UNL     1       1.324 -11.250 -35.640  1.00  0.00     0.211 HD
ENDBRANCH   2  21
BRANCH   6  23
ATOM     23  O   UNL     1      -2.831 -13.698 -34.539  1.00  0.00    -0.462 OA
BRANCH  23  24
ATOM     24  C   UNL     1      -4.111 -13.769 -35.221  1.00  0.00     0.130 A 
ATOM     25  C   UNL     1      -5.362 -13.934 -34.524  1.00  0.00     0.093 A 
ATOM     26  C   UNL     1      -4.187 -13.813 -36.629  1.00  0.00     0.094 A 
ATOM     27  C   UNL     1      -6.569 -13.732 -35.214  1.00  0.00     0.133 A 
ATOM     28  C   UNL     1      -5.375 -13.476 -37.255  1.00  0.00     0.138 A 
ATOM     29  C   UNL     1      -6.537 -13.256 -36.560  1.00  0.00     0.102 A 
ATOM     30  O   UNL     1      -5.414 -13.225 -38.623  1.00  0.00    -0.484 OA
ATOM     31  C   UNL     1      -7.687 -12.707 -37.282  1.00  0.00     0.174 C 
ATOM     32  C   UNL     1      -6.238 -12.218 -39.230  1.00  0.00     0.211 C 
ATOM     33  O   UNL     1      -8.755 -12.365 -36.693  1.00  0.00    -0.294 OA
ATOM     34  C   UNL     1      -7.673 -12.449 -38.788  1.00  0.00     0.131 C 
BRANCH  27  35
ATOM     35  O   UNL     1      -7.756 -14.210 -34.652  1.00  0.00    -0.507 OA
ATOM     36  H   UNL     1      -8.402 -14.766 -35.225  1.00  0.00     0.293 HD
ENDBRANCH  27  35
BRANCH  32  37
ATOM     37  C   UNL     1      -6.041 -12.241 -40.713  1.00  0.00    -0.007 A 
ATOM     38  C   UNL     1      -4.821 -12.020 -41.358  1.00  0.00     0.011 A 
ATOM     39  C   UNL     1      -7.188 -12.484 -41.579  1.00  0.00     0.011 A 
ATOM     40  C   UNL     1      -4.763 -11.723 -42.728  1.00  0.00     0.046 A 
ATOM     41  C   UNL     1      -7.073 -12.249 -42.947  1.00  0.00     0.046 A 
ATOM     42  C   UNL     1      -5.898 -11.723 -43.490  1.00  0.00     0.115 A 
BRANCH  42  43
ATOM     43  O   UNL     1      -5.958 -11.129 -44.755  1.00  0.00    -0.508 OA
ATOM     44  H   UNL     1      -6.794 -10.985 -45.241  1.00  0.00     0.293 HD
ENDBRANCH  42  43
ENDBRANCH  32  37
ENDBRANCH  23  24
ENDBRANCH   6  23
BRANCH   3  45
ATOM     45  O   UNL     1       1.371 -13.253 -32.162  1.00  0.00    -0.387 OA
ATOM     46  H   UNL     1       1.169 -12.296 -32.080  1.00  0.00     0.211 HD
ENDBRANCH   3  45
BRANCH   4  47
ATOM     47  C   UNL     1      -0.559 -15.947 -32.597  1.00  0.00     0.191 C 
BRANCH  47  48
ATOM     48  O   UNL     1       0.585 -16.281 -31.875  1.00  0.00    -0.394 OA
ATOM     49  H   UNL     1       0.746 -15.618 -31.128  1.00  0.00     0.210 HD
ENDBRANCH  47  48
ENDBRANCH   4  47
TORSDOF 14
ENDMDL
MODEL 5
REMARK VINA RESULT:    -6.217      3.311      6.834
REMARK INTER + INTRA:         -11.684
REMARK INTER:                  -9.944
REMARK INTRA:                  -1.740
REMARK UNBOUND:                -1.833
REMARK SMILES C[C@H]1O[C@@H](O[C@@H]2[C@H](Oc3cc(O)c4c(c3)O[C@@H](c3ccc(O)cc3)CC4=O)O[C@@H](CO)[C@H](O)[C@H]2O)[C@@H](O)[C@H](O)[C@@H]1O
REMARK SMILES IDX 6 1 34 2 32 3 29 4 28 5 7 6 5 7 4 8 1 9 2 10 40 11 3 12
REMARK SMILES IDX 38 13 36 14 41 15 39 17 37 19 35 21 8 23 9 24 10 25 15 26
REMARK SMILES IDX 11 27 14 28 13 29 16 30 26 31 17 32 27 33 25 34 12 35 18 37
REMARK SMILES IDX 19 38 24 39 20 40 23 41 21 42 22 43 33 45 30 47 31 48
REMARK H PARENT 41 16 39 18 37 20 35 22 12 36 22 44 33 46 31 49
REMARK Flexibility Score: inf
ROOT
ATOM      1  C   UNL     1      -2.358 -14.076 -33.407  1.00  0.00     0.221 C 
ATOM      2  C   UNL     1      -1.865 -15.567 -33.010  1.00  0.00     0.181 C 
ATOM      3  C   UNL     1      -0.284 -15.806 -32.659  1.00  0.00     0.177 C 
ATOM      4  C   UNL     1       0.504 -14.657 -33.384  1.00  0.00     0.179 C 
ATOM      5  O   UNL     1      -0.091 -13.419 -32.871  1.00  0.00    -0.332 OA
ATOM      6  C   UNL     1      -1.208 -13.045 -33.619  1.00  0.00     0.339 C 
ENDROOT
BRANCH   1   7
ATOM      7  O   UNL     1      -3.183 -13.959 -34.574  1.00  0.00    -0.337 OA
BRANCH   7   8
ATOM      8  C   UNL     1      -4.512 -13.620 -34.220  1.00  0.00     0.282 C 
ATOM      9  C   UNL     1      -6.383 -15.554 -31.881  1.00  0.00     0.041 C 
ATOM     10  C   UNL     1      -6.224 -14.430 -32.960  1.00  0.00     0.150 C 
ATOM     11  C   UNL     1      -7.362 -14.390 -34.023  1.00  0.00     0.174 C 
ATOM     12  O   UNL     1      -5.017 -14.747 -33.567  1.00  0.00    -0.344 OA
ATOM     13  C   UNL     1      -6.789 -14.133 -35.472  1.00  0.00     0.179 C 
ATOM     14  C   UNL     1      -5.410 -13.385 -35.529  1.00  0.00     0.202 C 
BRANCH  11  15
ATOM     15  O   UNL     1      -8.488 -13.624 -33.576  1.00  0.00    -0.388 OA
ATOM     16  H   UNL     1      -9.009 -14.221 -32.988  1.00  0.00     0.211 HD
ENDBRANCH  11  15
BRANCH  13  17
ATOM     17  O   UNL     1      -7.645 -13.512 -36.420  1.00  0.00    -0.387 OA
ATOM     18  H   UNL     1      -8.469 -14.081 -36.550  1.00  0.00     0.211 HD
ENDBRANCH  13  17
BRANCH  14  19
ATOM     19  O   UNL     1      -4.747 -13.783 -36.711  1.00  0.00    -0.385 OA
ATOM     20  H   UNL     1      -4.048 -13.119 -36.829  1.00  0.00     0.211 HD
ENDBRANCH  14  19
ENDBRANCH   7   8
ENDBRANCH   1   7
BRANCH   2  21
ATOM     21  O   UNL     1      -2.671 -16.152 -31.978  1.00  0.00    -0.387 OA
ATOM     22  H   UNL     1      -2.811 -17.090 -32.275  1.00  0.00     0.211 HD
ENDBRANCH   2  21
BRANCH   6  23
ATOM     23  O   UNL     1      -0.849 -12.767 -35.026  1.00  0.00    -0.462 OA
BRANCH  23  24
ATOM     24  C   UNL     1      -1.135 -11.484 -35.643  1.00  0.00     0.130 A 
ATOM     25  C   UNL     1      -0.859 -10.226 -34.998  1.00  0.00     0.093 A 
ATOM     26  C   UNL     1      -1.830 -11.402 -36.868  1.00  0.00     0.094 A 
ATOM     27  C   UNL     1      -0.914  -9.038 -35.748  1.00  0.00     0.133 A 
ATOM     28  C   UNL     1      -1.738 -10.245 -37.624  1.00  0.00     0.138 A 
ATOM     29  C   UNL     1      -1.130  -9.107 -37.157  1.00  0.00     0.102 A 
ATOM     30  O   UNL     1      -2.157 -10.225 -38.951  1.00  0.00    -0.484 OA
ATOM     31  C   UNL     1      -0.900  -8.006 -38.095  1.00  0.00     0.174 C 
ATOM     32  C   UNL     1      -1.495  -9.487 -39.989  1.00  0.00     0.211 C 
ATOM     33  O   UNL     1      -0.241  -6.972 -37.776  1.00  0.00    -0.294 OA
ATOM     34  C   UNL     1      -1.381  -8.039 -39.545  1.00  0.00     0.131 C 
BRANCH  27  35
ATOM     35  O   UNL     1      -0.981  -7.816 -35.072  1.00  0.00    -0.507 OA
ATOM     36  H   UNL     1      -0.484  -7.700 -34.182  1.00  0.00     0.293 HD
ENDBRANCH  27  35
BRANCH  32  37
ATOM     37  C   UNL     1      -2.226  -9.678 -41.280  1.00  0.00    -0.007 A 
ATOM     38  C   UNL     1      -2.255  -8.750 -42.325  1.00  0.00     0.011 A 
ATOM     39  C   UNL     1      -2.995 -10.899 -41.487  1.00  0.00     0.011 A 
ATOM     40  C   UNL     1      -3.212  -8.833 -43.348  1.00  0.00     0.046 A 
ATOM     41  C   UNL     1      -3.882 -10.974 -42.558  1.00  0.00     0.046 A 
ATOM     42  C   UNL     1      -4.094  -9.877 -43.395  1.00  0.00     0.115 A 
BRANCH  42  43
ATOM     43  O   UNL     1      -5.255  -9.849 -44.174  1.00  0.00    -0.508 OA
ATOM     44  H   UNL     1      -5.246  -9.849 -45.152  1.00  0.00     0.293 HD
ENDBRANCH  42  43
ENDBRANCH  32  37
ENDBRANCH  23  24
ENDBRANCH   6  23
BRANCH   3  45
ATOM     45  O   UNL     1       0.025 -17.142 -33.129  1.00  0.00    -0.387 OA
ATOM     46  H   UNL     1       0.995 -17.272 -33.055  1.00  0.00     0.211 HD
ENDBRANCH   3  45
BRANCH   4  47
ATOM     47  C   UNL     1       2.084 -14.539 -33.526  1.00  0.00     0.191 C 
BRANCH  47  48
ATOM     48  O   UNL     1       2.625 -13.625 -32.626  1.00  0.00    -0.394 OA
ATOM     49  H   UNL     1       3.629 -13.727 -32.569  1.00  0.00     0.210 HD
ENDBRANCH  47  48
ENDBRANCH   4  47
TORSDOF 14
ENDMDL
MODEL 6
REMARK VINA RESULT:    -6.194     11.239     13.646
REMARK INTER + INTRA:         -11.648
REMARK INTER:                 -10.187
REMARK INTRA:                  -1.461
REMARK UNBOUND:                -1.833
REMARK SMILES C[C@H]1O[C@@H](O[C@@H]2[C@H](Oc3cc(O)c4c(c3)O[C@@H](c3ccc(O)cc3)CC4=O)O[C@@H](CO)[C@H](O)[C@H]2O)[C@@H](O)[C@H](O)[C@@H]1O
REMARK SMILES IDX 6 1 34 2 32 3 29 4 28 5 7 6 5 7 4 8 1 9 2 10 40 11 3 12
REMARK SMILES IDX 38 13 36 14 41 15 39 17 37 19 35 21 8 23 9 24 10 25 15 26
REMARK SMILES IDX 11 27 14 28 13 29 16 30 26 31 17 32 27 33 25 34 12 35 18 37
REMARK SMILES IDX 19 38 24 39 20 40 23 41 21 42 22 43 33 45 30 47 31 48
REMARK H PARENT 41 16 39 18 37 20 35 22 12 36 22 44 33 46 31 49
REMARK Flexibility Score: inf
ROOT
ATOM      1  C   UNL     1       0.883 -24.793 -45.107  1.00  0.00     0.221 C 
ATOM      2  C   UNL     1       2.360 -25.178 -45.651  1.00  0.00     0.181 C 
ATOM      3  C   UNL     1       3.629 -25.078 -44.622  1.00  0.00     0.177 C 
ATOM      4  C   UNL     1       3.215 -24.046 -43.514  1.00  0.00     0.179 C 
ATOM      5  O   UNL     1       1.970 -24.582 -42.955  1.00  0.00    -0.332 OA
ATOM      6  C   UNL     1       0.859 -24.156 -43.685  1.00  0.00     0.339 C 
ENDROOT
BRANCH   1   7
ATOM      7  O   UNL     1       0.105 -23.910 -45.926  1.00  0.00    -0.337 OA
BRANCH   7   8
ATOM      8  C   UNL     1      -1.224 -24.382 -46.055  1.00  0.00     0.282 C 
ATOM      9  C   UNL     1      -2.914 -25.988 -43.358  1.00  0.00     0.041 C 
ATOM     10  C   UNL     1      -2.773 -25.533 -44.849  1.00  0.00     0.150 C 
ATOM     11  C   UNL     1      -3.149 -26.622 -45.896  1.00  0.00     0.174 C 
ATOM     12  O   UNL     1      -1.425 -25.219 -44.953  1.00  0.00    -0.344 OA
ATOM     13  C   UNL     1      -2.135 -26.635 -47.106  1.00  0.00     0.179 C 
ATOM     14  C   UNL     1      -1.387 -25.281 -47.372  1.00  0.00     0.202 C 
BRANCH  11  15
ATOM     15  O   UNL     1      -4.556 -26.641 -46.169  1.00  0.00    -0.388 OA
ATOM     16  H   UNL     1      -4.650 -26.945 -47.104  1.00  0.00     0.211 HD
ENDBRANCH  11  15
BRANCH  13  17
ATOM     17  O   UNL     1      -2.608 -27.109 -48.359  1.00  0.00    -0.387 OA
ATOM     18  H   UNL     1      -1.880 -27.006 -49.051  1.00  0.00     0.211 HD
ENDBRANCH  13  17
BRANCH  14  19
ATOM     19  O   UNL     1      -0.143 -25.581 -47.972  1.00  0.00    -0.385 OA
ATOM     20  H   UNL     1       0.064 -24.793 -48.502  1.00  0.00     0.211 HD
ENDBRANCH  14  19
ENDBRANCH   7   8
ENDBRANCH   1   7
BRANCH   2  21
ATOM     21  O   UNL     1       2.385 -26.453 -46.309  1.00  0.00    -0.387 OA
ATOM     22  H   UNL     1       2.420 -26.231 -47.277  1.00  0.00     0.211 HD
ENDBRANCH   2  21
BRANCH   6  23
ATOM     23  O   UNL     1       0.718 -22.685 -43.646  1.00  0.00    -0.462 OA
BRANCH  23  24
ATOM     24  C   UNL     1      -0.317 -22.043 -42.855  1.00  0.00     0.130 A 
ATOM     25  C   UNL     1      -1.426 -22.763 -42.283  1.00  0.00     0.093 A 
ATOM     26  C   UNL     1      -0.364 -20.640 -42.715  1.00  0.00     0.094 A 
ATOM     27  C   UNL     1      -2.236 -22.135 -41.322  1.00  0.00     0.133 A 
ATOM     28  C   UNL     1      -1.078 -20.087 -41.665  1.00  0.00     0.138 A 
ATOM     29  C   UNL     1      -1.881 -20.837 -40.845  1.00  0.00     0.102 A 
ATOM     30  O   UNL     1      -0.916 -18.749 -41.319  1.00  0.00    -0.484 OA
ATOM     31  C   UNL     1      -2.433 -20.207 -39.643  1.00  0.00     0.174 C 
ATOM     32  C   UNL     1      -0.934 -18.263 -39.968  1.00  0.00     0.211 C 
ATOM     33  O   UNL     1      -3.083 -20.860 -38.774  1.00  0.00    -0.294 OA
ATOM     34  C   UNL     1      -2.220 -18.730 -39.311  1.00  0.00     0.131 C 
BRANCH  27  35
ATOM     35  O   UNL     1      -3.483 -22.692 -41.022  1.00  0.00    -0.507 OA
ATOM     36  H   UNL     1      -3.631 -23.146 -40.113  1.00  0.00     0.293 HD
ENDBRANCH  27  35
BRANCH  32  37
ATOM     37  C   UNL     1      -0.750 -16.778 -39.971  1.00  0.00    -0.007 A 
ATOM     38  C   UNL     1       0.461 -16.124 -39.722  1.00  0.00     0.011 A 
ATOM     39  C   UNL     1      -1.900 -15.920 -40.225  1.00  0.00     0.011 A 
ATOM     40  C   UNL     1       0.500 -14.757 -39.409  1.00  0.00     0.046 A 
ATOM     41  C   UNL     1      -1.802 -14.554 -39.974  1.00  0.00     0.046 A 
ATOM     42  C   UNL     1      -0.642 -14.005 -39.421  1.00  0.00     0.115 A 
BRANCH  42  43
ATOM     43  O   UNL     1      -0.724 -12.748 -38.814  1.00  0.00    -0.508 OA
ATOM     44  H   UNL     1      -0.758 -12.620 -37.846  1.00  0.00     0.293 HD
ENDBRANCH  42  43
ENDBRANCH  32  37
ENDBRANCH  23  24
ENDBRANCH   6  23
BRANCH   3  45
ATOM     45  O   UNL     1       4.761 -24.676 -45.432  1.00  0.00    -0.387 OA
ATOM     46  H   UNL     1       5.128 -23.849 -45.051  1.00  0.00     0.211 HD
ENDBRANCH   3  45
BRANCH   4  47
ATOM     47  C   UNL     1       4.158 -23.441 -42.386  1.00  0.00     0.191 C 
BRANCH  47  48
ATOM     48  O   UNL     1       5.392 -24.084 -42.333  1.00  0.00    -0.394 OA
ATOM     49  H   UNL     1       5.286 -25.044 -42.035  1.00  0.00     0.210 HD
ENDBRANCH  47  48
ENDBRANCH   4  47
TORSDOF 14
ENDMDL
MODEL 7
REMARK VINA RESULT:    -6.167      3.646      7.660
REMARK INTER + INTRA:         -11.605
REMARK INTER:                  -9.734
REMARK INTRA:                  -1.871
REMARK UNBOUND:                -1.833
REMARK SMILES C[C@H]1O[C@@H](O[C@@H]2[C@H](Oc3cc(O)c4c(c3)O[C@@H](c3ccc(O)cc3)CC4=O)O[C@@H](CO)[C@H](O)[C@H]2O)[C@@H](O)[C@H](O)[C@@H]1O
REMARK SMILES IDX 6 1 34 2 32 3 29 4 28 5 7 6 5 7 4 8 1 9 2 10 40 11 3 12
REMARK SMILES IDX 38 13 36 14 41 15 39 17 37 19 35 21 8 23 9 24 10 25 15 26
REMARK SMILES IDX 11 27 14 28 13 29 16 30 26 31 17 32 27 33 25 34 12 35 18 37
REMARK SMILES IDX 19 38 24 39 20 40 23 41 21 42 22 43 33 45 30 47 31 48
REMARK H PARENT 41 16 39 18 37 20 35 22 12 36 22 44 33 46 31 49
REMARK Flexibility Score: inf
ROOT
ATOM      1  C   UNL     1      -0.951 -15.345 -35.599  1.00  0.00     0.221 C 
ATOM      2  C   UNL     1      -0.535 -16.155 -34.259  1.00  0.00     0.181 C 
ATOM      3  C   UNL     1      -0.977 -15.549 -32.805  1.00  0.00     0.177 C 
ATOM      4  C   UNL     1      -1.173 -14.006 -33.013  1.00  0.00     0.179 C 
ATOM      5  O   UNL     1      -2.168 -13.901 -34.085  1.00  0.00    -0.332 OA
ATOM      6  C   UNL     1      -1.564 -13.935 -35.344  1.00  0.00     0.339 C 
ENDROOT
BRANCH   1   7
ATOM      7  O   UNL     1       0.082 -15.132 -36.570  1.00  0.00    -0.337 OA
BRANCH   7   8
ATOM      8  C   UNL     1      -0.360 -15.497 -37.866  1.00  0.00     0.282 C 
ATOM      9  C   UNL     1      -1.685 -18.735 -38.552  1.00  0.00     0.041 C 
ATOM     10  C   UNL     1      -1.158 -17.321 -38.968  1.00  0.00     0.150 C 
ATOM     11  C   UNL     1      -0.187 -17.325 -40.186  1.00  0.00     0.174 C 
ATOM     12  O   UNL     1      -0.491 -16.888 -37.830  1.00  0.00    -0.344 OA
ATOM     13  C   UNL     1       1.024 -16.337 -39.962  1.00  0.00     0.179 C 
ATOM     14  C   UNL     1       0.753 -15.153 -38.969  1.00  0.00     0.202 C 
BRANCH  11  15
ATOM     15  O   UNL     1      -0.891 -17.288 -41.434  1.00  0.00    -0.388 OA
ATOM     16  H   UNL     1      -1.117 -18.225 -41.649  1.00  0.00     0.211 HD
ENDBRANCH  11  15
BRANCH  13  17
ATOM     17  O   UNL     1       1.649 -15.788 -41.112  1.00  0.00    -0.387 OA
ATOM     18  H   UNL     1       2.405 -16.392 -41.403  1.00  0.00     0.211 HD
ENDBRANCH  13  17
BRANCH  14  19
ATOM     19  O   UNL     1       1.985 -14.781 -38.386  1.00  0.00    -0.385 OA
ATOM     20  H   UNL     1       2.568 -14.611 -39.146  1.00  0.00     0.211 HD
ENDBRANCH  14  19
ENDBRANCH   7   8
ENDBRANCH   1   7
BRANCH   2  21
ATOM     21  O   UNL     1      -0.898 -17.541 -34.324  1.00  0.00    -0.387 OA
ATOM     22  H   UNL     1      -1.890 -17.540 -34.265  1.00  0.00     0.211 HD
ENDBRANCH   2  21
BRANCH   6  23
ATOM     23  O   UNL     1      -0.644 -12.793 -35.533  1.00  0.00    -0.462 OA
BRANCH  23  24
ATOM     24  C   UNL     1      -1.079 -11.567 -36.179  1.00  0.00     0.130 A 
ATOM     25  C   UNL     1      -0.802 -10.259 -35.642  1.00  0.00     0.093 A 
ATOM     26  C   UNL     1      -1.920 -11.597 -37.311  1.00  0.00     0.094 A 
ATOM     27  C   UNL     1      -1.019  -9.124 -36.441  1.00  0.00     0.133 A 
ATOM     28  C   UNL     1      -1.989 -10.485 -38.133  1.00  0.00     0.138 A 
ATOM     29  C   UNL     1      -1.399  -9.290 -37.807  1.00  0.00     0.102 A 
ATOM     30  O   UNL     1      -2.566 -10.568 -39.397  1.00  0.00    -0.484 OA
ATOM     31  C   UNL     1      -1.350  -8.237 -38.825  1.00  0.00     0.174 C 
ATOM     32  C   UNL     1      -2.079  -9.860 -40.547  1.00  0.00     0.211 C 
ATOM     33  O   UNL     1      -0.721  -7.152 -38.646  1.00  0.00    -0.294 OA
ATOM     34  C   UNL     1      -2.001  -8.384 -40.200  1.00  0.00     0.131 C 
BRANCH  27  35
ATOM     35  O   UNL     1      -1.077  -7.868 -35.830  1.00  0.00    -0.507 OA
ATOM     36  H   UNL     1      -0.352  -7.170 -36.033  1.00  0.00     0.293 HD
ENDBRANCH  27  35
BRANCH  32  37
ATOM     37  C   UNL     1      -2.949 -10.168 -41.725  1.00  0.00    -0.007 A 
ATOM     38  C   UNL     1      -3.354  -9.234 -42.683  1.00  0.00     0.011 A 
ATOM     39  C   UNL     1      -3.447 -11.527 -41.905  1.00  0.00     0.011 A 
ATOM     40  C   UNL     1      -4.421  -9.500 -43.555  1.00  0.00     0.046 A 
ATOM     41  C   UNL     1      -4.456 -11.766 -42.835  1.00  0.00     0.046 A 
ATOM     42  C   UNL     1      -5.041 -10.718 -43.548  1.00  0.00     0.115 A 
BRANCH  42  43
ATOM     43  O   UNL     1      -6.290 -10.933 -44.141  1.00  0.00    -0.508 OA
ATOM     44  H   UNL     1      -6.403 -11.183 -45.079  1.00  0.00     0.293 HD
ENDBRANCH  42  43
ENDBRANCH  32  37
ENDBRANCH  23  24
ENDBRANCH   6  23
BRANCH   3  45
ATOM     45  O   UNL     1       0.089 -15.906 -31.890  1.00  0.00    -0.387 OA
ATOM     46  H   UNL     1      -0.262 -15.844 -30.975  1.00  0.00     0.211 HD
ENDBRANCH   3  45
BRANCH   4  47
ATOM     47  C   UNL     1      -1.414 -12.921 -31.875  1.00  0.00     0.191 C 
BRANCH  47  48
ATOM     48  O   UNL     1      -1.219 -11.622 -32.339  1.00  0.00    -0.394 OA
ATOM     49  H   UNL     1      -1.340 -10.951 -31.593  1.00  0.00     0.210 HD
ENDBRANCH  47  48
ENDBRANCH   4  47
TORSDOF 14
ENDMDL
MODEL 8
REMARK VINA RESULT:    -5.987      2.901      9.704
REMARK INTER + INTRA:         -11.319
REMARK INTER:                  -9.346
REMARK INTRA:                  -1.973
REMARK UNBOUND:                -1.833
REMARK SMILES C[C@H]1O[C@@H](O[C@@H]2[C@H](Oc3cc(O)c4c(c3)O[C@@H](c3ccc(O)cc3)CC4=O)O[C@@H](CO)[C@H](O)[C@H]2O)[C@@H](O)[C@H](O)[C@@H]1O
REMARK SMILES IDX 6 1 34 2 32 3 29 4 28 5 7 6 5 7 4 8 1 9 2 10 40 11 3 12
REMARK SMILES IDX 38 13 36 14 41 15 39 17 37 19 35 21 8 23 9 24 10 25 15 26
REMARK SMILES IDX 11 27 14 28 13 29 16 30 26 31 17 32 27 33 25 34 12 35 18 37
REMARK SMILES IDX 19 38 24 39 20 40 23 41 21 42 22 43 33 45 30 47 31 48
REMARK H PARENT 41 16 39 18 37 20 35 22 12 36 22 44 33 46 31 49
REMARK Flexibility Score: inf
ROOT
ATOM      1  C   UNL     1      -4.939 -11.235 -40.871  1.00  0.00     0.221 C 
ATOM      2  C   UNL     1      -5.295 -11.160 -42.450  1.00  0.00     0.181 C 
ATOM      3  C   UNL     1      -6.868 -11.120 -42.900  1.00  0.00     0.177 C 
ATOM      4  C   UNL     1      -7.677 -11.780 -41.728  1.00  0.00     0.179 C 
ATOM      5  O   UNL     1      -7.325 -10.991 -40.544  1.00  0.00    -0.332 OA
ATOM      6  C   UNL     1      -6.164 -11.475 -39.938  1.00  0.00     0.339 C 
ENDROOT
BRANCH   1   7
ATOM      7  O   UNL     1      -3.970 -12.216 -40.475  1.00  0.00    -0.337 OA
BRANCH   7   8
ATOM      8  C   UNL     1      -2.684 -11.634 -40.352  1.00  0.00     0.282 C 
ATOM      9  C   UNL     1      -2.247  -8.119 -39.953  1.00  0.00     0.041 C 
ATOM     10  C   UNL     1      -1.728  -9.576 -40.197  1.00  0.00     0.150 C 
ATOM     11  C   UNL     1      -0.668  -9.704 -41.330  1.00  0.00     0.174 C 
ATOM     12  O   UNL     1      -2.882 -10.264 -40.545  1.00  0.00    -0.344 OA
ATOM     13  C   UNL     1      -0.928 -10.980 -42.222  1.00  0.00     0.179 C 
ATOM     14  C   UNL     1      -1.712 -12.144 -41.521  1.00  0.00     0.202 C 
BRANCH  11  15
ATOM     15  O   UNL     1       0.660  -9.448 -40.855  1.00  0.00    -0.388 OA
ATOM     16  H   UNL     1       1.129  -8.984 -41.590  1.00  0.00     0.211 HD
ENDBRANCH  11  15
BRANCH  13  17
ATOM     17  O   UNL     1       0.186 -11.560 -42.885  1.00  0.00    -0.387 OA
ATOM     18  H   UNL     1       0.381 -12.465 -42.481  1.00  0.00     0.211 HD
ENDBRANCH  13  17
BRANCH  14  19
ATOM     19  O   UNL     1      -2.406 -12.866 -42.518  1.00  0.00    -0.385 OA
ATOM     20  H   UNL     1      -2.256 -12.356 -43.331  1.00  0.00     0.211 HD
ENDBRANCH  14  19
ENDBRANCH   7   8
ENDBRANCH   1   7
BRANCH   2  21
ATOM     21  O   UNL     1      -4.585 -10.110 -43.121  1.00  0.00    -0.387 OA
ATOM     22  H   UNL     1      -4.070  -9.660 -42.400  1.00  0.00     0.211 HD
ENDBRANCH   2  21
BRANCH   6  23
ATOM     23  O   UNL     1      -6.342 -12.863 -39.459  1.00  0.00    -0.462 OA
BRANCH  23  24
ATOM     24  C   UNL     1      -6.217 -13.202 -38.053  1.00  0.00     0.130 A 
ATOM     25  C   UNL     1      -7.252 -13.880 -37.316  1.00  0.00     0.093 A 
ATOM     26  C   UNL     1      -5.113 -12.764 -37.291  1.00  0.00     0.094 A 
ATOM     27  C   UNL     1      -6.964 -14.407 -36.045  1.00  0.00     0.133 A 
ATOM     28  C   UNL     1      -4.805 -13.413 -36.107  1.00  0.00     0.138 A 
ATOM     29  C   UNL     1      -5.624 -14.364 -35.555  1.00  0.00     0.102 A 
ATOM     30  O   UNL     1      -3.578 -13.211 -35.482  1.00  0.00    -0.484 OA
ATOM     31  C   UNL     1      -5.123 -15.139 -34.417  1.00  0.00     0.174 C 
ATOM     32  C   UNL     1      -2.847 -14.243 -34.803  1.00  0.00     0.211 C 
ATOM     33  O   UNL     1      -5.767 -16.113 -33.926  1.00  0.00    -0.294 OA
ATOM     34  C   UNL     1      -3.764 -14.875 -33.771  1.00  0.00     0.131 C 
BRANCH  27  35
ATOM     35  O   UNL     1      -8.024 -14.755 -35.202  1.00  0.00    -0.507 OA
ATOM     36  H   UNL     1      -8.881 -14.190 -35.204  1.00  0.00     0.293 HD
ENDBRANCH  27  35
BRANCH  32  37
ATOM     37  C   UNL     1      -1.587 -13.669 -34.236  1.00  0.00    -0.007 A 
ATOM     38  C   UNL     1      -0.583 -13.052 -34.988  1.00  0.00     0.011 A 
ATOM     39  C   UNL     1      -1.346 -13.763 -32.801  1.00  0.00     0.011 A 
ATOM     40  C   UNL     1       0.699 -12.842 -34.459  1.00  0.00     0.046 A 
ATOM     41  C   UNL     1      -0.078 -13.474 -32.302  1.00  0.00     0.046 A 
ATOM     42  C   UNL     1       0.979 -13.160 -33.159  1.00  0.00     0.115 A 
BRANCH  42  43
ATOM     43  O   UNL     1       2.286 -13.282 -32.676  1.00  0.00    -0.508 OA
ATOM     44  H   UNL     1       2.888 -14.008 -32.934  1.00  0.00     0.293 HD
ENDBRANCH  42  43
ENDBRANCH  32  37
ENDBRANCH  23  24
ENDBRANCH   6  23
BRANCH   3  45
ATOM     45  O   UNL     1      -6.935 -11.834 -44.160  1.00  0.00    -0.387 OA
ATOM     46  H   UNL     1      -6.156 -12.430 -44.212  1.00  0.00     0.211 HD
ENDBRANCH   3  45
BRANCH   4  47
ATOM     47  C   UNL     1      -9.220 -12.165 -41.744  1.00  0.00     0.191 C 
BRANCH  47  48
ATOM     48  O   UNL     1      -9.772 -12.068 -43.019  1.00  0.00    -0.394 OA
ATOM     49  H   UNL     1      -9.463 -11.224 -43.482  1.00  0.00     0.210 HD
ENDBRANCH  47  48
ENDBRANCH   4  47
TORSDOF 14
ENDMDL
MODEL 9
REMARK VINA RESULT:    -5.946      4.882      9.258
REMARK INTER + INTRA:         -11.255
REMARK INTER:                  -9.030
REMARK INTRA:                  -2.225
REMARK UNBOUND:                -1.833
REMARK SMILES C[C@H]1O[C@@H](O[C@@H]2[C@H](Oc3cc(O)c4c(c3)O[C@@H](c3ccc(O)cc3)CC4=O)O[C@@H](CO)[C@H](O)[C@H]2O)[C@@H](O)[C@H](O)[C@@H]1O
REMARK SMILES IDX 6 1 34 2 32 3 29 4 28 5 7 6 5 7 4 8 1 9 2 10 40 11 3 12
REMARK SMILES IDX 38 13 36 14 41 15 39 17 37 19 35 21 8 23 9 24 10 25 15 26
REMARK SMILES IDX 11 27 14 28 13 29 16 30 26 31 17 32 27 33 25 34 12 35 18 37
REMARK SMILES IDX 19 38 24 39 20 40 23 41 21 42 22 43 33 45 30 47 31 48
REMARK H PARENT 41 16 39 18 37 20 35 22 12 36 22 44 33 46 31 49
REMARK Flexibility Score: inf
ROOT
ATOM      1  C   UNL     1      -1.453 -12.101 -36.236  1.00  0.00     0.221 C 
ATOM      2  C   UNL     1      -1.883 -11.270 -34.913  1.00  0.00     0.181 C 
ATOM      3  C   UNL     1      -1.884 -12.039 -33.468  1.00  0.00     0.177 C 
ATOM      4  C   UNL     1      -2.059 -13.566 -33.783  1.00  0.00     0.179 C 
ATOM      5  O   UNL     1      -0.947 -13.888 -34.684  1.00  0.00    -0.332 OA
ATOM      6  C   UNL     1      -1.282 -13.634 -36.015  1.00  0.00     0.339 C 
ENDROOT
BRANCH   1   7
ATOM      7  O   UNL     1      -2.311 -11.982 -37.378  1.00  0.00    -0.337 OA
BRANCH   7   8
ATOM      8  C   UNL     1      -1.565 -12.059 -38.580  1.00  0.00     0.282 C 
ATOM      9  C   UNL     1      -0.359  -9.138 -40.230  1.00  0.00     0.041 C 
ATOM     10  C   UNL     1      -0.643 -10.675 -40.132  1.00  0.00     0.150 C 
ATOM     11  C   UNL     1      -1.246 -11.304 -41.422  1.00  0.00     0.174 C 
ATOM     12  O   UNL     1      -1.556 -10.758 -39.091  1.00  0.00    -0.344 OA
ATOM     13  C   UNL     1      -2.392 -12.334 -41.081  1.00  0.00     0.179 C 
ATOM     14  C   UNL     1      -2.308 -12.987 -39.656  1.00  0.00     0.202 C 
BRANCH  11  15
ATOM     15  O   UNL     1      -0.230 -11.681 -42.361  1.00  0.00    -0.388 OA
ATOM     16  H   UNL     1      -0.116 -10.909 -42.966  1.00  0.00     0.211 HD
ENDBRANCH  11  15
BRANCH  13  17
ATOM     17  O   UNL     1      -2.639 -13.379 -42.010  1.00  0.00    -0.387 OA
ATOM     18  H   UNL     1      -3.475 -13.877 -41.739  1.00  0.00     0.211 HD
ENDBRANCH  13  17
BRANCH  14  19
ATOM     19  O   UNL     1      -3.620 -13.327 -39.255  1.00  0.00    -0.385 OA
ATOM     20  H   UNL     1      -3.714 -12.923 -38.376  1.00  0.00     0.211 HD
ENDBRANCH  14  19
ENDBRANCH   7   8
ENDBRANCH   1   7
BRANCH   2  21
ATOM     21  O   UNL     1      -1.169 -10.032 -34.788  1.00  0.00    -0.387 OA
ATOM     22  H   UNL     1      -0.304 -10.198 -35.250  1.00  0.00     0.211 HD
ENDBRANCH   2  21
BRANCH   6  23
ATOM     23  O   UNL     1      -2.415 -14.475 -36.457  1.00  0.00    -0.462 OA
BRANCH  23  24
ATOM     24  C   UNL     1      -2.208 -15.659 -37.272  1.00  0.00     0.130 A 
ATOM     25  C   UNL     1      -3.258 -16.603 -37.561  1.00  0.00     0.093 A 
ATOM     26  C   UNL     1      -0.921 -16.023 -37.718  1.00  0.00     0.094 A 
ATOM     27  C   UNL     1      -3.059 -17.573 -38.559  1.00  0.00     0.133 A 
ATOM     28  C   UNL     1      -0.795 -16.886 -38.794  1.00  0.00     0.138 A 
ATOM     29  C   UNL     1      -1.869 -17.536 -39.346  1.00  0.00     0.102 A 
ATOM     30  O   UNL     1       0.426 -17.040 -39.445  1.00  0.00    -0.484 OA
ATOM     31  C   UNL     1      -1.672 -18.264 -40.602  1.00  0.00     0.174 C 
ATOM     32  C   UNL     1       0.559 -17.222 -40.863  1.00  0.00     0.211 C 
ATOM     33  O   UNL     1      -2.633 -18.789 -41.238  1.00  0.00    -0.294 OA
ATOM     34  C   UNL     1      -0.306 -18.399 -41.275  1.00  0.00     0.131 C 
BRANCH  27  35
ATOM     35  O   UNL     1      -3.916 -18.676 -38.609  1.00  0.00    -0.507 OA
ATOM     36  H   UNL     1      -3.542 -19.617 -38.441  1.00  0.00     0.293 HD
ENDBRANCH  27  35
BRANCH  32  37
ATOM     37  C   UNL     1       2.007 -17.372 -41.211  1.00  0.00    -0.007 A 
ATOM     38  C   UNL     1       2.492 -18.073 -42.319  1.00  0.00     0.011 A 
ATOM     39  C   UNL     1       3.013 -16.778 -40.339  1.00  0.00     0.011 A 
ATOM     40  C   UNL     1       3.837 -18.461 -42.405  1.00  0.00     0.046 A 
ATOM     41  C   UNL     1       4.351 -17.128 -40.502  1.00  0.00     0.046 A 
ATOM     42  C   UNL     1       4.734 -18.088 -41.442  1.00  0.00     0.115 A 
BRANCH  42  43
ATOM     43  O   UNL     1       5.983 -18.699 -41.297  1.00  0.00    -0.508 OA
ATOM     44  H   UNL     1       6.717 -18.580 -41.932  1.00  0.00     0.293 HD
ENDBRANCH  42  43
ENDBRANCH  32  37
ENDBRANCH  23  24
ENDBRANCH   6  23
BRANCH   3  45
ATOM     45  O   UNL     1      -2.971 -11.449 -32.710  1.00  0.00    -0.387 OA
ATOM     46  H   UNL     1      -3.177 -10.575 -33.107  1.00  0.00     0.211 HD
ENDBRANCH   3  45
BRANCH   4  47
ATOM     47  C   UNL     1      -2.318 -14.727 -32.726  1.00  0.00     0.191 C 
BRANCH  47  48
ATOM     48  O   UNL     1      -3.380 -14.433 -31.875  1.00  0.00    -0.394 OA
ATOM     49  H   UNL     1      -3.670 -15.256 -31.364  1.00  0.00     0.210 HD
ENDBRANCH  47  48
ENDBRANCH   4  47
TORSDOF 14
ENDMDL
