MODEL 1
REMARK VINA RESULT:    -3.724      0.000      0.000
REMARK INTER + INTRA:         -13.141
REMARK INTER:                  -8.515
REMARK INTRA:                  -4.627
REMARK UNBOUND:                -4.627
REMARK SMILES CCCCCCCCCCCCCCCCCCCCCCCC(=O)[O-]
REMARK SMILES IDX 13 1 14 2 15 3 16 4 17 5 18 6 19 7 20 8 21 9 22 10 23 11
REMARK SMILES IDX 24 12 25 13 26 14 12 15 11 16 10 17 9 18 8 19 7 20 6 21 5 22
REMARK SMILES IDX 4 23 3 24 2 25 1 26
REMARK H PARENT
REMARK Flexibility Score: inf
ROOT
ATOM      1  C   UNL     1      47.952  -4.329  77.250  1.00  0.00     0.000 C 
ENDROOT
BRANCH   1   2
ATOM      2  C   UNL     1      48.632  -3.060  77.799  1.00  0.00     0.000 C 
BRANCH   2   3
ATOM      3  C   UNL     1      49.908  -3.365  78.599  1.00  0.00     0.000 C 
BRANCH   3   4
ATOM      4  C   UNL     1      49.779  -4.640  79.449  1.00  0.00     0.000 C 
BRANCH   4   5
ATOM      5  C   UNL     1      51.019  -5.543  79.359  1.00  0.00     0.000 C 
BRANCH   5   6
ATOM      6  C   UNL     1      50.640  -6.940  78.847  1.00  0.00     0.000 C 
BRANCH   6   7
ATOM      7  C   UNL     1      51.554  -7.435  77.711  1.00  0.00     0.000 C 
BRANCH   7   8
ATOM      8  C   UNL     1      51.081  -7.082  76.288  1.00  0.00     0.000 C 
BRANCH   8   9
ATOM      9  C   UNL     1      51.672  -5.760  75.772  1.00  0.00     0.000 C 
BRANCH   9  10
ATOM     10  C   UNL     1      53.203  -5.690  75.929  1.00  0.00     0.006 C 
BRANCH  10  11
ATOM     11  C   UNL     1      53.982  -5.814  74.609  1.00  0.00     0.053 C 
BRANCH  11  12
ATOM     12  C   UNL     1      54.991  -4.719  74.446  1.00  0.00     0.041 C 
ATOM     13  O   UNL     1      56.053  -4.928  73.802  1.00  0.00    -0.550 OA
ATOM     14  O   UNL     1      54.744  -3.459  74.977  1.00  0.00    -0.550 OA
ENDBRANCH  11  12
ENDBRANCH  10  11
ENDBRANCH   9  10
ENDBRANCH   8   9
ENDBRANCH   7   8
ENDBRANCH   6   7
ENDBRANCH   5   6
ENDBRANCH   4   5
ENDBRANCH   3   4
ENDBRANCH   2   3
ENDBRANCH   1   2
BRANCH   1  15
ATOM     15  C   UNL     1      48.288  -4.672  75.785  1.00  0.00     0.000 C 
BRANCH  15  16
ATOM     16  C   UNL     1      47.485  -3.887  74.728  1.00  0.00     0.000 C 
BRANCH  16  17
ATOM     17  C   UNL     1      47.860  -4.201  73.265  1.00  0.00     0.000 C 
BRANCH  17  18
ATOM     18  C   UNL     1      49.285  -4.752  73.065  1.00  0.00    -0.000 C 
BRANCH  18  19
ATOM     19  C   UNL     1      50.204  -3.884  72.182  1.00  0.00    -0.000 C 
BRANCH  19  20
ATOM     20  C   UNL     1      51.601  -3.614  72.771  1.00  0.00    -0.000 C 
BRANCH  20  21
ATOM     21  C   UNL     1      51.697  -2.250  73.475  1.00  0.00    -0.000 C 
BRANCH  21  22
ATOM     22  C   UNL     1      51.025  -2.252  74.856  1.00  0.00    -0.000 C 
BRANCH  22  23
ATOM     23  C   UNL     1      49.885  -1.222  74.959  1.00  0.00    -0.000 C 
BRANCH  23  24
ATOM     24  C   UNL     1      49.850  -0.260  73.761  1.00  0.00    -0.000 C 
BRANCH  24  25
ATOM     25  C   UNL     1      48.541  -0.361  72.963  1.00  0.00    -0.003 C 
ATOM     26  C   UNL     1      48.811  -0.754  71.514  1.00  0.00     0.004 C 
ENDBRANCH  24  25
ENDBRANCH  23  24
ENDBRANCH  22  23
ENDBRANCH  21  22
ENDBRANCH  20  21
ENDBRANCH  19  20
ENDBRANCH  18  19
ENDBRANCH  17  18
ENDBRANCH  16  17
ENDBRANCH  15  16
ENDBRANCH   1  15
TORSDOF 22
ENDMDL
MODEL 2
REMARK VINA RESULT:    -3.689      3.149      6.869
REMARK INTER + INTRA:         -13.060
REMARK INTER:                  -9.669
REMARK INTRA:                  -3.391
REMARK UNBOUND:                -4.627
REMARK SMILES CCCCCCCCCCCCCCCCCCCCCCCC(=O)[O-]
REMARK SMILES IDX 13 1 14 2 15 3 16 4 17 5 18 6 19 7 20 8 21 9 22 10 23 11
REMARK SMILES IDX 24 12 25 13 26 14 12 15 11 16 10 17 9 18 8 19 7 20 6 21 5 22
REMARK SMILES IDX 4 23 3 24 2 25 1 26
REMARK H PARENT
REMARK Flexibility Score: inf
ROOT
ATOM      1  C   UNL     1      47.512  -2.397  80.047  1.00  0.00     0.000 C 
ENDROOT
BRANCH   1   2
ATOM      2  C   UNL     1      47.745  -1.433  78.869  1.00  0.00     0.000 C 
BRANCH   2   3
ATOM      3  C   UNL     1      49.232  -1.124  78.634  1.00  0.00     0.000 C 
BRANCH   3   4
ATOM      4  C   UNL     1      49.819  -1.917  77.455  1.00  0.00     0.000 C 
BRANCH   4   5
ATOM      5  C   UNL     1      48.737  -2.561  76.574  1.00  0.00     0.000 C 
BRANCH   5   6
ATOM      6  C   UNL     1      49.202  -3.927  76.050  1.00  0.00     0.000 C 
BRANCH   6   7
ATOM      7  C   UNL     1      48.037  -4.825  75.592  1.00  0.00     0.000 C 
BRANCH   7   8
ATOM      8  C   UNL     1      47.298  -4.345  74.329  1.00  0.00     0.000 C 
BRANCH   8   9
ATOM      9  C   UNL     1      48.191  -4.347  73.077  1.00  0.00     0.000 C 
BRANCH   9  10
ATOM     10  C   UNL     1      48.655  -2.935  72.674  1.00  0.00     0.006 C 
BRANCH  10  11
ATOM     11  C   UNL     1      50.176  -2.794  72.493  1.00  0.00     0.053 C 
BRANCH  11  12
ATOM     12  C   UNL     1      50.585  -1.375  72.243  1.00  0.00     0.041 C 
ATOM     13  O   UNL     1      49.729  -0.523  71.885  1.00  0.00    -0.550 OA
ATOM     14  O   UNL     1      51.905  -0.987  72.437  1.00  0.00    -0.550 OA
ENDBRANCH  11  12
ENDBRANCH  10  11
ENDBRANCH   9  10
ENDBRANCH   8   9
ENDBRANCH   7   8
ENDBRANCH   6   7
ENDBRANCH   5   6
ENDBRANCH   4   5
ENDBRANCH   3   4
ENDBRANCH   2   3
ENDBRANCH   1   2
BRANCH   1  15
ATOM     15  C   UNL     1      47.273  -3.869  79.653  1.00  0.00     0.000 C 
BRANCH  15  16
ATOM     16  C   UNL     1      48.237  -4.884  80.298  1.00  0.00     0.000 C 
BRANCH  16  17
ATOM     17  C   UNL     1      49.012  -5.766  79.298  1.00  0.00     0.000 C 
BRANCH  17  18
ATOM     18  C   UNL     1      50.546  -5.703  79.431  1.00  0.00    -0.000 C 
BRANCH  18  19
ATOM     19  C   UNL     1      51.139  -4.281  79.500  1.00  0.00    -0.000 C 
BRANCH  19  20
ATOM     20  C   UNL     1      51.724  -3.890  80.870  1.00  0.00    -0.000 C 
BRANCH  20  21
ATOM     21  C   UNL     1      50.859  -2.858  81.613  1.00  0.00    -0.000 C 
BRANCH  21  22
ATOM     22  C   UNL     1      51.404  -2.533  83.013  1.00  0.00    -0.000 C 
BRANCH  22  23
ATOM     23  C   UNL     1      50.342  -2.706  84.113  1.00  0.00    -0.000 C 
BRANCH  23  24
ATOM     24  C   UNL     1      49.012  -2.021  83.764  1.00  0.00    -0.000 C 
BRANCH  24  25
ATOM     25  C   UNL     1      47.830  -3.002  83.748  1.00  0.00    -0.003 C 
ATOM     26  C   UNL     1      47.449  -3.425  85.163  1.00  0.00     0.004 C 
ENDBRANCH  24  25
ENDBRANCH  23  24
ENDBRANCH  22  23
ENDBRANCH  21  22
ENDBRANCH  20  21
ENDBRANCH  19  20
ENDBRANCH  18  19
ENDBRANCH  17  18
ENDBRANCH  16  17
ENDBRANCH  15  16
ENDBRANCH   1  15
TORSDOF 22
ENDMDL
MODEL 3
REMARK VINA RESULT:    -3.679      3.779      5.518
REMARK INTER + INTRA:         -13.037
REMARK INTER:                  -9.264
REMARK INTRA:                  -3.773
REMARK UNBOUND:                -4.627
REMARK SMILES CCCCCCCCCCCCCCCCCCCCCCCC(=O)[O-]
REMARK SMILES IDX 13 1 14 2 15 3 16 4 17 5 18 6 19 7 20 8 21 9 22 10 23 11
REMARK SMILES IDX 24 12 25 13 26 14 12 15 11 16 10 17 9 18 8 19 7 20 6 21 5 22
REMARK SMILES IDX 4 23 3 24 2 25 1 26
REMARK H PARENT
REMARK Flexibility Score: inf
ROOT
ATOM      1  C   UNL     1      49.244  -2.342  75.504  1.00  0.00     0.000 C 
ENDROOT
BRANCH   1   2
ATOM      2  C   UNL     1      50.055  -2.849  76.711  1.00  0.00     0.000 C 
BRANCH   2   3
ATOM      3  C   UNL     1      49.925  -4.366  76.924  1.00  0.00     0.000 C 
BRANCH   3   4
ATOM      4  C   UNL     1      50.371  -4.803  78.329  1.00  0.00     0.000 C 
BRANCH   4   5
ATOM      5  C   UNL     1      49.447  -5.866  78.943  1.00  0.00     0.000 C 
BRANCH   5   6
ATOM      6  C   UNL     1      48.574  -5.255  80.049  1.00  0.00     0.000 C 
BRANCH   6   7
ATOM      7  C   UNL     1      49.045  -3.856  80.485  1.00  0.00     0.000 C 
BRANCH   7   8
ATOM      8  C   UNL     1      48.017  -2.726  80.284  1.00  0.00     0.000 C 
BRANCH   8   9
ATOM      9  C   UNL     1      47.191  -2.892  78.997  1.00  0.00     0.000 C 
BRANCH   9  10
ATOM     10  C   UNL     1      46.558  -1.571  78.522  1.00  0.00     0.006 C 
BRANCH  10  11
ATOM     11  C   UNL     1      45.696  -1.700  77.256  1.00  0.00     0.053 C 
BRANCH  11  12
ATOM     12  C   UNL     1      44.575  -0.706  77.233  1.00  0.00     0.041 C 
ATOM     13  O   UNL     1      43.678  -0.742  78.116  1.00  0.00    -0.550 OA
ATOM     14  O   UNL     1      44.541   0.282  76.256  1.00  0.00    -0.550 OA
ENDBRANCH  11  12
ENDBRANCH  10  11
ENDBRANCH   9  10
ENDBRANCH   8   9
ENDBRANCH   7   8
ENDBRANCH   6   7
ENDBRANCH   5   6
ENDBRANCH   4   5
ENDBRANCH   3   4
ENDBRANCH   2   3
ENDBRANCH   1   2
BRANCH   1  15
ATOM     15  C   UNL     1      48.171  -3.317  74.978  1.00  0.00     0.000 C 
BRANCH  15  16
ATOM     16  C   UNL     1      48.350  -3.758  73.511  1.00  0.00     0.000 C 
BRANCH  16  17
ATOM     17  C   UNL     1      49.587  -4.639  73.245  1.00  0.00     0.000 C 
BRANCH  17  18
ATOM     18  C   UNL     1      50.749  -3.925  72.529  1.00  0.00    -0.000 C 
BRANCH  18  19
ATOM     19  C   UNL     1      52.045  -3.791  73.355  1.00  0.00    -0.000 C 
BRANCH  19  20
ATOM     20  C   UNL     1      52.448  -2.345  73.697  1.00  0.00    -0.000 C 
BRANCH  20  21
ATOM     21  C   UNL     1      53.018  -1.583  72.489  1.00  0.00    -0.000 C 
BRANCH  21  22
ATOM     22  C   UNL     1      52.311  -0.239  72.255  1.00  0.00    -0.000 C 
BRANCH  22  23
ATOM     23  C   UNL     1      50.879  -0.220  72.818  1.00  0.00    -0.000 C 
BRANCH  23  24
ATOM     24  C   UNL     1      49.852  -0.814  71.842  1.00  0.00    -0.000 C 
BRANCH  24  25
ATOM     25  C   UNL     1      48.432  -0.282  72.085  1.00  0.00    -0.003 C 
ATOM     26  C   UNL     1      48.340   0.449  73.421  1.00  0.00     0.004 C 
ENDBRANCH  24  25
ENDBRANCH  23  24
ENDBRANCH  22  23
ENDBRANCH  21  22
ENDBRANCH  20  21
ENDBRANCH  19  20
ENDBRANCH  18  19
ENDBRANCH  17  18
ENDBRANCH  16  17
ENDBRANCH  15  16
ENDBRANCH   1  15
TORSDOF 22
ENDMDL
MODEL 4
REMARK VINA RESULT:    -3.657      3.030      6.912
REMARK INTER + INTRA:         -12.987
REMARK INTER:                  -9.460
REMARK INTRA:                  -3.527
REMARK UNBOUND:                -4.627
REMARK SMILES CCCCCCCCCCCCCCCCCCCCCCCC(=O)[O-]
REMARK SMILES IDX 13 1 14 2 15 3 16 4 17 5 18 6 19 7 20 8 21 9 22 10 23 11
REMARK SMILES IDX 24 12 25 13 26 14 12 15 11 16 10 17 9 18 8 19 7 20 6 21 5 22
REMARK SMILES IDX 4 23 3 24 2 25 1 26
REMARK H PARENT
REMARK Flexibility Score: inf
ROOT
ATOM      1  C   UNL     1      52.671  -1.686  73.406  1.00  0.00     0.000 C 
ENDROOT
BRANCH   1   2
ATOM      2  C   UNL     1      52.729  -0.690  72.232  1.00  0.00     0.000 C 
BRANCH   2   3
ATOM      3  C   UNL     1      51.539   0.284  72.215  1.00  0.00     0.000 C 
BRANCH   3   4
ATOM      4  C   UNL     1      50.526  -0.007  73.334  1.00  0.00     0.000 C 
BRANCH   4   5
ATOM      5  C   UNL     1      49.075  -0.044  72.828  1.00  0.00     0.000 C 
BRANCH   5   6
ATOM      6  C   UNL     1      48.744  -1.415  72.222  1.00  0.00     0.000 C 
BRANCH   6   7
ATOM      7  C   UNL     1      48.892  -2.571  73.229  1.00  0.00     0.000 C 
BRANCH   7   8
ATOM      8  C   UNL     1      49.376  -3.904  72.629  1.00  0.00     0.000 C 
BRANCH   8   9
ATOM      9  C   UNL     1      48.292  -4.995  72.642  1.00  0.00     0.000 C 
BRANCH   9  10
ATOM     10  C   UNL     1      47.197  -4.734  73.694  1.00  0.00     0.006 C 
BRANCH  10  11
ATOM     11  C   UNL     1      46.072  -5.782  73.712  1.00  0.00     0.053 C 
BRANCH  11  12
ATOM     12  C   UNL     1      46.500  -7.056  74.372  1.00  0.00     0.041 C 
ATOM     13  O   UNL     1      46.222  -8.166  73.847  1.00  0.00    -0.550 OA
ATOM     14  O   UNL     1      47.236  -7.017  75.551  1.00  0.00    -0.550 OA
ENDBRANCH  11  12
ENDBRANCH  10  11
ENDBRANCH   9  10
ENDBRANCH   8   9
ENDBRANCH   7   8
ENDBRANCH   6   7
ENDBRANCH   5   6
ENDBRANCH   4   5
ENDBRANCH   3   4
ENDBRANCH   2   3
ENDBRANCH   1   2
BRANCH   1  15
ATOM     15  C   UNL     1      53.405  -3.021  73.170  1.00  0.00     0.000 C 
BRANCH  15  16
ATOM     16  C   UNL     1      52.744  -4.254  73.820  1.00  0.00     0.000 C 
BRANCH  16  17
ATOM     17  C   UNL     1      52.103  -3.994  75.198  1.00  0.00     0.000 C 
BRANCH  17  18
ATOM     18  C   UNL     1      51.133  -5.090  75.679  1.00  0.00    -0.000 C 
BRANCH  18  19
ATOM     19  C   UNL     1      50.336  -4.747  76.954  1.00  0.00    -0.000 C 
BRANCH  19  20
ATOM     20  C   UNL     1      49.084  -3.882  76.722  1.00  0.00    -0.000 C 
BRANCH  20  21
ATOM     21  C   UNL     1      49.247  -2.445  77.248  1.00  0.00    -0.000 C 
BRANCH  21  22
ATOM     22  C   UNL     1      50.533  -2.262  78.068  1.00  0.00    -0.000 C 
BRANCH  22  23
ATOM     23  C   UNL     1      50.247  -1.955  79.549  1.00  0.00    -0.000 C 
BRANCH  23  24
ATOM     24  C   UNL     1      49.989  -3.224  80.376  1.00  0.00    -0.000 C 
BRANCH  24  25
ATOM     25  C   UNL     1      48.554  -3.292  80.920  1.00  0.00    -0.003 C 
ATOM     26  C   UNL     1      47.870  -4.591  80.505  1.00  0.00     0.004 C 
ENDBRANCH  24  25
ENDBRANCH  23  24
ENDBRANCH  22  23
ENDBRANCH  21  22
ENDBRANCH  20  21
ENDBRANCH  19  20
ENDBRANCH  18  19
ENDBRANCH  17  18
ENDBRANCH  16  17
ENDBRANCH  15  16
ENDBRANCH   1  15
TORSDOF 22
ENDMDL
MODEL 5
REMARK VINA RESULT:    -3.650      3.234      7.101
REMARK INTER + INTRA:         -12.972
REMARK INTER:                  -8.844
REMARK INTRA:                  -4.128
REMARK UNBOUND:                -4.627
REMARK SMILES CCCCCCCCCCCCCCCCCCCCCCCC(=O)[O-]
REMARK SMILES IDX 13 1 14 2 15 3 16 4 17 5 18 6 19 7 20 8 21 9 22 10 23 11
REMARK SMILES IDX 24 12 25 13 26 14 12 15 11 16 10 17 9 18 8 19 7 20 6 21 5 22
REMARK SMILES IDX 4 23 3 24 2 25 1 26
REMARK H PARENT
REMARK Flexibility Score: inf
ROOT
ATOM      1  C   UNL     1      53.141  -2.908  72.630  1.00  0.00     0.000 C 
ENDROOT
BRANCH   1   2
ATOM      2  C   UNL     1      53.033  -1.449  73.113  1.00  0.00     0.000 C 
BRANCH   2   3
ATOM      3  C   UNL     1      52.537  -0.493  72.017  1.00  0.00     0.000 C 
BRANCH   3   4
ATOM      4  C   UNL     1      51.108   0.012  72.278  1.00  0.00     0.000 C 
BRANCH   4   5
ATOM      5  C   UNL     1      50.519  -0.524  73.593  1.00  0.00     0.000 C 
BRANCH   5   6
ATOM      6  C   UNL     1      49.159  -1.193  73.348  1.00  0.00     0.000 C 
BRANCH   6   7
ATOM      7  C   UNL     1      49.257  -2.458  72.474  1.00  0.00     0.000 C 
BRANCH   7   8
ATOM      8  C   UNL     1      48.506  -3.688  73.016  1.00  0.00     0.000 C 
BRANCH   8   9
ATOM      9  C   UNL     1      49.358  -4.968  72.989  1.00  0.00     0.000 C 
BRANCH   9  10
ATOM     10  C   UNL     1      48.510  -6.250  73.093  1.00  0.00     0.006 C 
BRANCH  10  11
ATOM     11  C   UNL     1      47.183  -6.197  72.318  1.00  0.00     0.053 C 
BRANCH  11  12
ATOM     12  C   UNL     1      46.645  -7.565  72.028  1.00  0.00     0.041 C 
ATOM     13  O   UNL     1      46.275  -7.867  70.863  1.00  0.00    -0.550 OA
ATOM     14  O   UNL     1      46.583  -8.517  73.039  1.00  0.00    -0.550 OA
ENDBRANCH  11  12
ENDBRANCH  10  11
ENDBRANCH   9  10
ENDBRANCH   8   9
ENDBRANCH   7   8
ENDBRANCH   6   7
ENDBRANCH   5   6
ENDBRANCH   4   5
ENDBRANCH   3   4
ENDBRANCH   2   3
ENDBRANCH   1   2
BRANCH   1  15
ATOM     15  C   UNL     1      53.001  -3.977  73.732  1.00  0.00     0.000 C 
BRANCH  15  16
ATOM     16  C   UNL     1      52.729  -3.426  75.147  1.00  0.00     0.000 C 
BRANCH  16  17
ATOM     17  C   UNL     1      51.286  -3.624  75.652  1.00  0.00     0.000 C 
BRANCH  17  18
ATOM     18  C   UNL     1      50.817  -2.592  76.696  1.00  0.00    -0.000 C 
BRANCH  18  19
ATOM     19  C   UNL     1      49.298  -2.572  76.960  1.00  0.00    -0.000 C 
BRANCH  19  20
ATOM     20  C   UNL     1      48.728  -3.867  77.566  1.00  0.00    -0.000 C 
BRANCH  20  21
ATOM     21  C   UNL     1      47.883  -4.672  76.564  1.00  0.00    -0.000 C 
BRANCH  21  22
ATOM     22  C   UNL     1      48.160  -6.182  76.642  1.00  0.00    -0.000 C 
BRANCH  22  23
ATOM     23  C   UNL     1      49.607  -6.495  77.065  1.00  0.00    -0.000 C 
BRANCH  23  24
ATOM     24  C   UNL     1      49.686  -7.176  78.439  1.00  0.00    -0.000 C 
BRANCH  24  25
ATOM     25  C   UNL     1      51.099  -7.129  79.040  1.00  0.00    -0.003 C 
ATOM     26  C   UNL     1      51.742  -5.763  78.824  1.00  0.00     0.004 C 
ENDBRANCH  24  25
ENDBRANCH  23  24
ENDBRANCH  22  23
ENDBRANCH  21  22
ENDBRANCH  20  21
ENDBRANCH  19  20
ENDBRANCH  18  19
ENDBRANCH  17  18
ENDBRANCH  16  17
ENDBRANCH  15  16
ENDBRANCH   1  15
TORSDOF 22
ENDMDL
MODEL 6
REMARK VINA RESULT:    -3.637      2.031      5.876
REMARK INTER + INTRA:         -12.941
REMARK INTER:                  -8.299
REMARK INTRA:                  -4.642
REMARK UNBOUND:                -4.627
REMARK SMILES CCCCCCCCCCCCCCCCCCCCCCCC(=O)[O-]
REMARK SMILES IDX 13 1 14 2 15 3 16 4 17 5 18 6 19 7 20 8 21 9 22 10 23 11
REMARK SMILES IDX 24 12 25 13 26 14 12 15 11 16 10 17 9 18 8 19 7 20 6 21 5 22
REMARK SMILES IDX 4 23 3 24 2 25 1 26
REMARK H PARENT
REMARK Flexibility Score: inf
ROOT
ATOM      1  C   UNL     1      48.164  -5.003  72.642  1.00  0.00     0.000 C 
ENDROOT
BRANCH   1   2
ATOM      2  C   UNL     1      49.636  -4.749  73.017  1.00  0.00     0.000 C 
BRANCH   2   3
ATOM      3  C   UNL     1      50.305  -3.690  72.126  1.00  0.00     0.000 C 
BRANCH   3   4
ATOM      4  C   UNL     1      49.628  -2.314  72.238  1.00  0.00     0.000 C 
BRANCH   4   5
ATOM      5  C   UNL     1      50.630  -1.177  72.493  1.00  0.00     0.000 C 
BRANCH   5   6
ATOM      6  C   UNL     1      50.179  -0.307  73.675  1.00  0.00     0.000 C 
BRANCH   6   7
ATOM      7  C   UNL     1      48.825  -0.746  74.264  1.00  0.00     0.000 C 
BRANCH   7   8
ATOM      8  C   UNL     1      48.853  -1.131  75.755  1.00  0.00     0.000 C 
BRANCH   8   9
ATOM      9  C   UNL     1      49.304  -2.583  75.990  1.00  0.00     0.000 C 
BRANCH   9  10
ATOM     10  C   UNL     1      50.755  -2.682  76.496  1.00  0.00     0.006 C 
BRANCH  10  11
ATOM     11  C   UNL     1      51.508  -3.937  76.023  1.00  0.00     0.053 C 
BRANCH  11  12
ATOM     12  C   UNL     1      52.568  -3.611  75.016  1.00  0.00     0.041 C 
ATOM     13  O   UNL     1      52.997  -2.433  74.907  1.00  0.00    -0.550 OA
ATOM     14  O   UNL     1      53.104  -4.617  74.221  1.00  0.00    -0.550 OA
ENDBRANCH  11  12
ENDBRANCH  10  11
ENDBRANCH   9  10
ENDBRANCH   8   9
ENDBRANCH   7   8
ENDBRANCH   6   7
ENDBRANCH   5   6
ENDBRANCH   4   5
ENDBRANCH   3   4
ENDBRANCH   2   3
ENDBRANCH   1   2
BRANCH   1  15
ATOM     15  C   UNL     1      47.134  -4.588  73.712  1.00  0.00     0.000 C 
BRANCH  15  16
ATOM     16  C   UNL     1      45.920  -5.529  73.851  1.00  0.00     0.000 C 
BRANCH  16  17
ATOM     17  C   UNL     1      46.085  -6.903  73.171  1.00  0.00     0.000 C 
BRANCH  17  18
ATOM     18  C   UNL     1      46.019  -8.111  74.126  1.00  0.00    -0.000 C 
BRANCH  18  19
ATOM     19  C   UNL     1      46.495  -7.834  75.566  1.00  0.00    -0.000 C 
BRANCH  19  20
ATOM     20  C   UNL     1      47.948  -8.250  75.859  1.00  0.00    -0.000 C 
BRANCH  20  21
ATOM     21  C   UNL     1      48.909  -7.050  75.925  1.00  0.00    -0.000 C 
BRANCH  21  22
ATOM     22  C   UNL     1      48.440  -5.975  76.917  1.00  0.00    -0.000 C 
BRANCH  22  23
ATOM     23  C   UNL     1      49.137  -6.090  78.285  1.00  0.00    -0.000 C 
BRANCH  23  24
ATOM     24  C   UNL     1      48.811  -4.912  79.215  1.00  0.00    -0.000 C 
BRANCH  24  25
ATOM     25  C   UNL     1      50.062  -4.329  79.889  1.00  0.00    -0.003 C 
ATOM     26  C   UNL     1      51.300  -5.157  79.558  1.00  0.00     0.004 C 
ENDBRANCH  24  25
ENDBRANCH  23  24
ENDBRANCH  22  23
ENDBRANCH  21  22
ENDBRANCH  20  21
ENDBRANCH  19  20
ENDBRANCH  18  19
ENDBRANCH  17  18
ENDBRANCH  16  17
ENDBRANCH  15  16
ENDBRANCH   1  15
TORSDOF 22
ENDMDL
MODEL 7
REMARK VINA RESULT:    -3.620      1.440      5.492
REMARK INTER + INTRA:         -12.904
REMARK INTER:                  -8.837
REMARK INTRA:                  -4.067
REMARK UNBOUND:                -4.627
REMARK SMILES CCCCCCCCCCCCCCCCCCCCCCCC(=O)[O-]
REMARK SMILES IDX 13 1 14 2 15 3 16 4 17 5 18 6 19 7 20 8 21 9 22 10 23 11
REMARK SMILES IDX 24 12 25 13 26 14 12 15 11 16 10 17 9 18 8 19 7 20 6 21 5 22
REMARK SMILES IDX 4 23 3 24 2 25 1 26
REMARK H PARENT
REMARK Flexibility Score: inf
ROOT
ATOM      1  C   UNL     1      48.926  -0.073  74.164  1.00  0.00     0.000 C 
ENDROOT
BRANCH   1   2
ATOM      2  C   UNL     1      48.631  -0.345  72.677  1.00  0.00     0.000 C 
BRANCH   2   3
ATOM      3  C   UNL     1      49.859  -0.861  71.909  1.00  0.00     0.000 C 
BRANCH   3   4
ATOM      4  C   UNL     1      51.130  -0.057  72.224  1.00  0.00     0.000 C 
BRANCH   4   5
ATOM      5  C   UNL     1      52.326  -0.952  72.586  1.00  0.00     0.000 C 
BRANCH   5   6
ATOM      6  C   UNL     1      51.873  -2.403  72.809  1.00  0.00     0.000 C 
BRANCH   6   7
ATOM      7  C   UNL     1      52.255  -2.946  74.199  1.00  0.00     0.000 C 
BRANCH   7   8
ATOM      8  C   UNL     1      51.905  -4.426  74.441  1.00  0.00     0.000 C 
BRANCH   8   9
ATOM      9  C   UNL     1      52.101  -4.855  75.905  1.00  0.00     0.000 C 
BRANCH   9  10
ATOM     10  C   UNL     1      53.164  -5.958  76.066  1.00  0.00     0.006 C 
BRANCH  10  11
ATOM     11  C   UNL     1      53.608  -6.609  74.746  1.00  0.00     0.053 C 
BRANCH  11  12
ATOM     12  C   UNL     1      55.015  -6.247  74.384  1.00  0.00     0.041 C 
ATOM     13  O   UNL     1      55.752  -7.080  73.794  1.00  0.00    -0.550 OA
ATOM     14  O   UNL     1      55.502  -4.977  74.668  1.00  0.00    -0.550 OA
ENDBRANCH  11  12
ENDBRANCH  10  11
ENDBRANCH   9  10
ENDBRANCH   8   9
ENDBRANCH   7   8
ENDBRANCH   6   7
ENDBRANCH   5   6
ENDBRANCH   4   5
ENDBRANCH   3   4
ENDBRANCH   2   3
ENDBRANCH   1   2
BRANCH   1  15
ATOM     15  C   UNL     1      48.257  -1.048  75.154  1.00  0.00     0.000 C 
BRANCH  15  16
ATOM     16  C   UNL     1      48.834  -2.477  75.157  1.00  0.00     0.000 C 
BRANCH  16  17
ATOM     17  C   UNL     1      47.942  -3.537  74.480  1.00  0.00     0.000 C 
BRANCH  17  18
ATOM     18  C   UNL     1      48.464  -4.056  73.127  1.00  0.00    -0.000 C 
BRANCH  18  19
ATOM     19  C   UNL     1      48.543  -5.591  73.000  1.00  0.00    -0.000 C 
BRANCH  19  20
ATOM     20  C   UNL     1      48.182  -6.366  74.280  1.00  0.00    -0.000 C 
BRANCH  20  21
ATOM     21  C   UNL     1      49.369  -7.160  74.851  1.00  0.00    -0.000 C 
BRANCH  21  22
ATOM     22  C   UNL     1      49.317  -7.276  76.382  1.00  0.00    -0.000 C 
BRANCH  22  23
ATOM     23  C   UNL     1      50.397  -8.221  76.938  1.00  0.00    -0.000 C 
BRANCH  23  24
ATOM     24  C   UNL     1      50.850  -7.833  78.354  1.00  0.00    -0.000 C 
BRANCH  24  25
ATOM     25  C   UNL     1      49.852  -6.900  79.057  1.00  0.00    -0.003 C 
ATOM     26  C   UNL     1      50.496  -5.559  79.392  1.00  0.00     0.004 C 
ENDBRANCH  24  25
ENDBRANCH  23  24
ENDBRANCH  22  23
ENDBRANCH  21  22
ENDBRANCH  20  21
ENDBRANCH  19  20
ENDBRANCH  18  19
ENDBRANCH  17  18
ENDBRANCH  16  17
ENDBRANCH  15  16
ENDBRANCH   1  15
TORSDOF 22
ENDMDL
MODEL 8
REMARK VINA RESULT:    -3.614      2.896      5.069
REMARK INTER + INTRA:         -12.888
REMARK INTER:                  -8.297
REMARK INTRA:                  -4.591
REMARK UNBOUND:                -4.627
REMARK SMILES CCCCCCCCCCCCCCCCCCCCCCCC(=O)[O-]
REMARK SMILES IDX 13 1 14 2 15 3 16 4 17 5 18 6 19 7 20 8 21 9 22 10 23 11
REMARK SMILES IDX 24 12 25 13 26 14 12 15 11 16 10 17 9 18 8 19 7 20 6 21 5 22
REMARK SMILES IDX 4 23 3 24 2 25 1 26
REMARK H PARENT
REMARK Flexibility Score: inf
ROOT
ATOM      1  C   UNL     1      51.587  -3.193  75.828  1.00  0.00     0.000 C 
ENDROOT
BRANCH   1   2
ATOM      2  C   UNL     1      51.834  -4.619  75.301  1.00  0.00     0.000 C 
BRANCH   2   3
ATOM      3  C   UNL     1      52.308  -5.587  76.397  1.00  0.00     0.000 C 
BRANCH   3   4
ATOM      4  C   UNL     1      51.308  -6.729  76.645  1.00  0.00     0.000 C 
BRANCH   4   5
ATOM      5  C   UNL     1      50.608  -6.621  78.009  1.00  0.00     0.000 C 
BRANCH   5   6
ATOM      6  C   UNL     1      51.517  -5.927  79.035  1.00  0.00     0.000 C 
BRANCH   6   7
ATOM      7  C   UNL     1      50.817  -4.772  79.775  1.00  0.00     0.000 C 
BRANCH   7   8
ATOM      8  C   UNL     1      49.278  -4.821  79.760  1.00  0.00     0.000 C 
BRANCH   8   9
ATOM      9  C   UNL     1      48.633  -3.444  79.990  1.00  0.00     0.000 C 
BRANCH   9  10
ATOM     10  C   UNL     1      47.300  -3.278  79.237  1.00  0.00     0.006 C 
BRANCH  10  11
ATOM     11  C   UNL     1      46.720  -1.855  79.280  1.00  0.00     0.053 C 
BRANCH  11  12
ATOM     12  C   UNL     1      46.894  -1.136  77.977  1.00  0.00     0.041 C 
ATOM     13  O   UNL     1      47.912  -0.422  77.779  1.00  0.00    -0.550 OA
ATOM     14  O   UNL     1      45.947  -1.281  76.970  1.00  0.00    -0.550 OA
ENDBRANCH  11  12
ENDBRANCH  10  11
ENDBRANCH   9  10
ENDBRANCH   8   9
ENDBRANCH   7   8
ENDBRANCH   6   7
ENDBRANCH   5   6
ENDBRANCH   4   5
ENDBRANCH   3   4
ENDBRANCH   2   3
ENDBRANCH   1   2
BRANCH   1  15
ATOM     15  C   UNL     1      50.313  -3.019  76.678  1.00  0.00     0.000 C 
BRANCH  15  16
ATOM     16  C   UNL     1      48.987  -3.117  75.898  1.00  0.00     0.000 C 
BRANCH  16  17
ATOM     17  C   UNL     1      48.285  -4.488  75.984  1.00  0.00     0.000 C 
BRANCH  17  18
ATOM     18  C   UNL     1      47.600  -4.948  74.683  1.00  0.00    -0.000 C 
BRANCH  18  19
ATOM     19  C   UNL     1      47.928  -4.104  73.435  1.00  0.00    -0.000 C 
BRANCH  19  20
ATOM     20  C   UNL     1      49.120  -4.613  72.604  1.00  0.00    -0.000 C 
BRANCH  20  21
ATOM     21  C   UNL     1      50.102  -3.492  72.223  1.00  0.00    -0.000 C 
BRANCH  21  22
ATOM     22  C   UNL     1      49.512  -2.091  72.447  1.00  0.00    -0.000 C 
BRANCH  22  23
ATOM     23  C   UNL     1      50.514  -1.129  73.111  1.00  0.00    -0.000 C 
BRANCH  23  24
ATOM     24  C   UNL     1      51.789  -0.936  72.275  1.00  0.00    -0.000 C 
BRANCH  24  25
ATOM     25  C   UNL     1      53.059  -1.356  73.031  1.00  0.00    -0.003 C 
ATOM     26  C   UNL     1      53.505  -2.756  72.619  1.00  0.00     0.004 C 
ENDBRANCH  24  25
ENDBRANCH  23  24
ENDBRANCH  22  23
ENDBRANCH  21  22
ENDBRANCH  20  21
ENDBRANCH  19  20
ENDBRANCH  18  19
ENDBRANCH  17  18
ENDBRANCH  16  17
ENDBRANCH  15  16
ENDBRANCH   1  15
TORSDOF 22
ENDMDL
MODEL 9
REMARK VINA RESULT:    -3.591      2.101      4.707
REMARK INTER + INTRA:         -12.837
REMARK INTER:                  -8.855
REMARK INTRA:                  -3.982
REMARK UNBOUND:                -4.627
REMARK SMILES CCCCCCCCCCCCCCCCCCCCCCCC(=O)[O-]
REMARK SMILES IDX 13 1 14 2 15 3 16 4 17 5 18 6 19 7 20 8 21 9 22 10 23 11
REMARK SMILES IDX 24 12 25 13 26 14 12 15 11 16 10 17 9 18 8 19 7 20 6 21 5 22
REMARK SMILES IDX 4 23 3 24 2 25 1 26
REMARK H PARENT
REMARK Flexibility Score: inf
ROOT
ATOM      1  C   UNL     1      49.641  -4.309  72.836  1.00  0.00     0.000 C 
ENDROOT
BRANCH   1   2
ATOM      2  C   UNL     1      48.152  -4.192  73.210  1.00  0.00     0.000 C 
BRANCH   2   3
ATOM      3  C   UNL     1      47.311  -5.368  72.688  1.00  0.00     0.000 C 
BRANCH   3   4
ATOM      4  C   UNL     1      47.966  -6.731  72.969  1.00  0.00     0.000 C 
BRANCH   4   5
ATOM      5  C   UNL     1      47.439  -7.391  74.253  1.00  0.00     0.000 C 
BRANCH   5   6
ATOM      6  C   UNL     1      48.447  -7.233  75.400  1.00  0.00     0.000 C 
BRANCH   6   7
ATOM      7  C   UNL     1      47.955  -6.282  76.507  1.00  0.00     0.000 C 
BRANCH   7   8
ATOM      8  C   UNL     1      48.985  -5.238  76.978  1.00  0.00     0.000 C 
BRANCH   8   9
ATOM      9  C   UNL     1      49.155  -5.213  78.506  1.00  0.00     0.000 C 
BRANCH   9  10
ATOM     10  C   UNL     1      49.439  -6.606  79.097  1.00  0.00     0.006 C 
BRANCH  10  11
ATOM     11  C   UNL     1      50.773  -7.225  78.649  1.00  0.00     0.053 C 
BRANCH  11  12
ATOM     12  C   UNL     1      51.889  -6.226  78.657  1.00  0.00     0.041 C 
ATOM     13  O   UNL     1      52.330  -5.778  79.748  1.00  0.00    -0.550 OA
ATOM     14  O   UNL     1      52.463  -5.814  77.460  1.00  0.00    -0.550 OA
ENDBRANCH  11  12
ENDBRANCH  10  11
ENDBRANCH   9  10
ENDBRANCH   8   9
ENDBRANCH   7   8
ENDBRANCH   6   7
ENDBRANCH   5   6
ENDBRANCH   4   5
ENDBRANCH   3   4
ENDBRANCH   2   3
ENDBRANCH   1   2
BRANCH   1  15
ATOM     15  C   UNL     1      50.607  -4.465  74.028  1.00  0.00     0.000 C 
BRANCH  15  16
ATOM     16  C   UNL     1      51.892  -3.617  73.944  1.00  0.00     0.000 C 
BRANCH  16  17
ATOM     17  C   UNL     1      52.027  -2.770  72.663  1.00  0.00     0.000 C 
BRANCH  17  18
ATOM     18  C   UNL     1      52.364  -1.285  72.899  1.00  0.00    -0.000 C 
BRANCH  18  19
ATOM     19  C   UNL     1      51.236  -0.294  72.547  1.00  0.00    -0.000 C 
BRANCH  19  20
ATOM     20  C   UNL     1      50.008  -0.925  71.867  1.00  0.00    -0.000 C 
BRANCH  20  21
ATOM     21  C   UNL     1      48.679  -0.468  72.493  1.00  0.00    -0.000 C 
BRANCH  21  22
ATOM     22  C   UNL     1      48.848   0.016  73.941  1.00  0.00    -0.000 C 
BRANCH  22  23
ATOM     23  C   UNL     1      48.268  -0.976  74.965  1.00  0.00    -0.000 C 
BRANCH  23  24
ATOM     24  C   UNL     1      49.348  -1.591  75.868  1.00  0.00    -0.000 C 
BRANCH  24  25
ATOM     25  C   UNL     1      48.994  -1.496  77.360  1.00  0.00    -0.003 C 
ATOM     26  C   UNL     1      47.536  -1.873  77.603  1.00  0.00     0.004 C 
ENDBRANCH  24  25
ENDBRANCH  23  24
ENDBRANCH  22  23
ENDBRANCH  21  22
ENDBRANCH  20  21
ENDBRANCH  19  20
ENDBRANCH  18  19
ENDBRANCH  17  18
ENDBRANCH  16  17
ENDBRANCH  15  16
ENDBRANCH   1  15
TORSDOF 22
ENDMDL
