MODEL 1
REMARK VINA RESULT:    -6.286      0.000      0.000
REMARK INTER + INTRA:          -8.015
REMARK INTER:                  -7.755
REMARK INTRA:                  -0.260
REMARK UNBOUND:                -0.260
REMARK SMILES C=CC(=C)CCC=C(C)C
REMARK SMILES IDX 5 1 6 2 7 3 9 4 8 5 10 6 3 7 4 8 2 9 1 10
REMARK H PARENT
REMARK Flexibility Score: inf
ROOT
ATOM      1  C   UNL     1       5.103   8.264  14.115  1.00  0.00     0.039 C 
ENDROOT
BRANCH   1   2
ATOM      2  C   UNL     1       3.644   8.604  13.794  1.00  0.00     0.032 C 
BRANCH   2   3
ATOM      3  C   UNL     1       3.536   9.985  13.197  1.00  0.00    -0.028 C 
ATOM      4  C   UNL     1       4.051   9.197  10.875  1.00  0.00     0.039 C 
ATOM      5  C   UNL     1       3.740  10.271  11.892  1.00  0.00    -0.080 C 
ATOM      6  C   UNL     1       3.636  11.707  11.448  1.00  0.00     0.039 C 
ENDBRANCH   2   3
ENDBRANCH   1   2
BRANCH   1   7
ATOM      7  C   UNL     1       5.570   7.076  13.302  1.00  0.00    -0.055 C 
ATOM      8  C   UNL     1       4.669   6.363  12.619  1.00  0.00     0.012 C 
BRANCH   7   9
ATOM      9  C   UNL     1       6.992   6.644  13.274  1.00  0.00    -0.005 C 
ATOM     10  C   UNL     1       7.409   5.484  12.765  1.00  0.00     0.009 C 
ENDBRANCH   7   9
ENDBRANCH   1   7
TORSDOF 4
ENDMDL
MODEL 2
REMARK VINA RESULT:    -6.252      1.080      4.821
REMARK INTER + INTRA:          -7.974
REMARK INTER:                  -7.566
REMARK INTRA:                  -0.408
REMARK UNBOUND:                -0.260
REMARK SMILES C=CC(=C)CCC=C(C)C
REMARK SMILES IDX 5 1 6 2 7 3 9 4 8 5 10 6 3 7 4 8 2 9 1 10
REMARK H PARENT
REMARK Flexibility Score: inf
ROOT
ATOM      1  C   UNL     1       3.602  10.291  13.191  1.00  0.00     0.039 C 
ENDROOT
BRANCH   1   2
ATOM      2  C   UNL     1       3.606   8.853  13.719  1.00  0.00     0.032 C 
BRANCH   2   3
ATOM      3  C   UNL     1       5.008   8.410  14.056  1.00  0.00    -0.028 C 
ATOM      4  C   UNL     1       4.924   6.428  12.527  1.00  0.00     0.039 C 
ATOM      5  C   UNL     1       5.605   7.309  13.548  1.00  0.00    -0.080 C 
ATOM      6  C   UNL     1       6.999   6.971  14.010  1.00  0.00     0.039 C 
ENDBRANCH   2   3
ENDBRANCH   1   2
BRANCH   1   7
ATOM      7  C   UNL     1       3.305  10.318  11.708  1.00  0.00    -0.055 C 
ATOM      8  C   UNL     1       4.043   9.566  10.884  1.00  0.00     0.012 C 
BRANCH   7   9
ATOM      9  C   UNL     1       2.251  11.189  11.126  1.00  0.00    -0.005 C 
ATOM     10  C   UNL     1       0.950  10.897  11.142  1.00  0.00     0.009 C 
ENDBRANCH   7   9
ENDBRANCH   1   7
TORSDOF 4
ENDMDL
MODEL 3
REMARK VINA RESULT:    -6.186      1.035      2.079
REMARK INTER + INTRA:          -7.893
REMARK INTER:                  -7.529
REMARK INTRA:                  -0.364
REMARK UNBOUND:                -0.260
REMARK SMILES C=CC(=C)CCC=C(C)C
REMARK SMILES IDX 5 1 6 2 7 3 9 4 8 5 10 6 3 7 4 8 2 9 1 10
REMARK H PARENT
REMARK Flexibility Score: inf
ROOT
ATOM      1  C   UNL     1       5.243   6.403  12.485  1.00  0.00     0.039 C 
ENDROOT
BRANCH   1   2
ATOM      2  C   UNL     1       4.460   7.588  13.059  1.00  0.00     0.032 C 
BRANCH   2   3
ATOM      3  C   UNL     1       4.321   8.685  12.032  1.00  0.00    -0.028 C 
ATOM      4  C   UNL     1       3.141  10.233  13.608  1.00  0.00     0.039 C 
ATOM      5  C   UNL     1       3.709   9.868  12.256  1.00  0.00    -0.080 C 
ATOM      6  C   UNL     1       3.611  10.852  11.119  1.00  0.00     0.039 C 
ENDBRANCH   2   3
ENDBRANCH   1   2
BRANCH   1   7
ATOM      7  C   UNL     1       6.674   6.415  12.978  1.00  0.00    -0.055 C 
ATOM      8  C   UNL     1       7.575   5.635  12.372  1.00  0.00     0.012 C 
BRANCH   7   9
ATOM      9  C   UNL     1       7.104   7.230  14.144  1.00  0.00    -0.005 C 
ATOM     10  C   UNL     1       8.218   7.962  14.172  1.00  0.00     0.009 C 
ENDBRANCH   7   9
ENDBRANCH   1   7
TORSDOF 4
ENDMDL
MODEL 4
REMARK VINA RESULT:    -6.002      0.920      1.758
REMARK INTER + INTRA:          -7.665
REMARK INTER:                  -7.568
REMARK INTRA:                  -0.097
REMARK UNBOUND:                -0.260
REMARK SMILES C=CC(=C)CCC=C(C)C
REMARK SMILES IDX 5 1 6 2 7 3 9 4 8 5 10 6 3 7 4 8 2 9 1 10
REMARK H PARENT
REMARK Flexibility Score: inf
ROOT
ATOM      1  C   UNL     1       5.176   7.921  13.619  1.00  0.00     0.039 C 
ENDROOT
BRANCH   1   2
ATOM      2  C   UNL     1       4.400   7.693  12.317  1.00  0.00     0.032 C 
BRANCH   2   3
ATOM      3  C   UNL     1       4.359   8.955  11.491  1.00  0.00    -0.028 C 
ATOM      4  C   UNL     1       2.880  10.161  13.112  1.00  0.00     0.039 C 
ATOM      5  C   UNL     1       3.660  10.062  11.822  1.00  0.00    -0.080 C 
ATOM      6  C   UNL     1       3.682  11.234  10.875  1.00  0.00     0.039 C 
ENDBRANCH   2   3
ENDBRANCH   1   2
BRANCH   1   7
ATOM      7  C   UNL     1       6.413   7.051  13.666  1.00  0.00    -0.055 C 
ATOM      8  C   UNL     1       7.513   7.518  14.266  1.00  0.00     0.012 C 
BRANCH   7   9
ATOM      9  C   UNL     1       6.464   5.709  13.027  1.00  0.00    -0.005 C 
ATOM     10  C   UNL     1       7.545   5.210  12.428  1.00  0.00     0.009 C 
ENDBRANCH   7   9
ENDBRANCH   1   7
TORSDOF 4
ENDMDL
MODEL 5
REMARK VINA RESULT:    -5.944      1.001      5.027
REMARK INTER + INTRA:          -7.593
REMARK INTER:                  -7.276
REMARK INTRA:                  -0.318
REMARK UNBOUND:                -0.260
REMARK SMILES C=CC(=C)CCC=C(C)C
REMARK SMILES IDX 5 1 6 2 7 3 9 4 8 5 10 6 3 7 4 8 2 9 1 10
REMARK H PARENT
REMARK Flexibility Score: inf
ROOT
ATOM      1  C   UNL     1       4.375   8.657  11.650  1.00  0.00     0.039 C 
ENDROOT
BRANCH   1   2
ATOM      2  C   UNL     1       4.425   7.713  12.856  1.00  0.00     0.032 C 
BRANCH   2   3
ATOM      3  C   UNL     1       5.340   6.545  12.583  1.00  0.00    -0.028 C 
ATOM      4  C   UNL     1       7.099   7.342  14.179  1.00  0.00     0.039 C 
ATOM      5  C   UNL     1       6.555   6.378  13.151  1.00  0.00    -0.080 C 
ATOM      6  C   UNL     1       7.375   5.179  12.749  1.00  0.00     0.039 C 
ENDBRANCH   2   3
ENDBRANCH   1   2
BRANCH   1   7
ATOM      7  C   UNL     1       3.626   9.927  11.992  1.00  0.00    -0.055 C 
ATOM      8  C   UNL     1       3.596  10.923  11.101  1.00  0.00     0.012 C 
BRANCH   7   9
ATOM      9  C   UNL     1       2.961  10.125  13.306  1.00  0.00    -0.005 C 
ATOM     10  C   UNL     1       1.639  10.125  13.481  1.00  0.00     0.009 C 
ENDBRANCH   7   9
ENDBRANCH   1   7
TORSDOF 4
ENDMDL
MODEL 6
REMARK VINA RESULT:    -5.213      1.546      2.648
REMARK INTER + INTRA:          -6.692
REMARK INTER:                  -5.907
REMARK INTRA:                  -0.785
REMARK UNBOUND:                -0.260
REMARK SMILES C=CC(=C)CCC=C(C)C
REMARK SMILES IDX 5 1 6 2 7 3 9 4 8 5 10 6 3 7 4 8 2 9 1 10
REMARK H PARENT
REMARK Flexibility Score: inf
ROOT
ATOM      1  C   UNL     1       6.637   6.387  14.258  1.00  0.00     0.039 C 
ENDROOT
BRANCH   1   2
ATOM      2  C   UNL     1       6.547   7.912  14.147  1.00  0.00     0.032 C 
BRANCH   2   3
ATOM      3  C   UNL     1       5.143   8.387  14.430  1.00  0.00    -0.028 C 
ATOM      4  C   UNL     1       4.552   8.603  12.006  1.00  0.00     0.039 C 
ATOM      5  C   UNL     1       4.244   8.726  13.480  1.00  0.00    -0.080 C 
ATOM      6  C   UNL     1       2.891   9.223  13.918  1.00  0.00     0.039 C 
ENDBRANCH   2   3
ENDBRANCH   1   2
BRANCH   1   7
ATOM      7  C   UNL     1       6.683   5.750  12.886  1.00  0.00    -0.055 C 
ATOM      8  C   UNL     1       7.718   6.014  12.082  1.00  0.00     0.012 C 
BRANCH   7   9
ATOM      9  C   UNL     1       5.592   4.875  12.381  1.00  0.00    -0.005 C 
ATOM     10  C   UNL     1       4.294   5.142  12.528  1.00  0.00     0.009 C 
ENDBRANCH   7   9
ENDBRANCH   1   7
TORSDOF 4
ENDMDL
MODEL 7
REMARK VINA RESULT:    -5.134      1.142      4.574
REMARK INTER + INTRA:          -6.595
REMARK INTER:                  -6.252
REMARK INTRA:                  -0.342
REMARK UNBOUND:                -0.260
REMARK SMILES C=CC(=C)CCC=C(C)C
REMARK SMILES IDX 5 1 6 2 7 3 9 4 8 5 10 6 3 7 4 8 2 9 1 10
REMARK H PARENT
REMARK Flexibility Score: inf
ROOT
ATOM      1  C   UNL     1       3.972   8.321  13.832  1.00  0.00     0.039 C 
ENDROOT
BRANCH   1   2
ATOM      2  C   UNL     1       5.040   7.223  13.792  1.00  0.00     0.032 C 
BRANCH   2   3
ATOM      3  C   UNL     1       6.396   7.782  14.143  1.00  0.00    -0.028 C 
ATOM      4  C   UNL     1       7.612   6.261  12.568  1.00  0.00     0.039 C 
ATOM      5  C   UNL     1       7.562   7.344  13.621  1.00  0.00    -0.080 C 
ATOM      6  C   UNL     1       8.845   7.974  14.099  1.00  0.00     0.039 C 
ENDBRANCH   2   3
ENDBRANCH   1   2
BRANCH   1   7
ATOM      7  C   UNL     1       3.964   9.110  12.541  1.00  0.00    -0.055 C 
ATOM      8  C   UNL     1       4.380   8.519  11.416  1.00  0.00     0.012 C 
BRANCH   7   9
ATOM      9  C   UNL     1       3.553  10.538  12.487  1.00  0.00    -0.005 C 
ATOM     10  C   UNL     1       3.501  11.256  11.365  1.00  0.00     0.009 C 
ENDBRANCH   7   9
ENDBRANCH   1   7
TORSDOF 4
ENDMDL
MODEL 8
REMARK VINA RESULT:    -3.585      1.291      4.070
REMARK INTER + INTRA:          -4.683
REMARK INTER:                  -4.907
REMARK INTRA:                   0.224
REMARK UNBOUND:                -0.260
REMARK SMILES C=CC(=C)CCC=C(C)C
REMARK SMILES IDX 5 1 6 2 7 3 9 4 8 5 10 6 3 7 4 8 2 9 1 10
REMARK H PARENT
REMARK Flexibility Score: inf
ROOT
ATOM      1  C   UNL     1       4.151   9.034  14.185  1.00  0.00     0.039 C 
ENDROOT
BRANCH   1   2
ATOM      2  C   UNL     1       5.087   7.866  14.514  1.00  0.00     0.032 C 
BRANCH   2   3
ATOM      3  C   UNL     1       6.522   8.328  14.563  1.00  0.00    -0.028 C 
ATOM      4  C   UNL     1       7.380   6.325  13.329  1.00  0.00     0.039 C 
ATOM      5  C   UNL     1       7.566   7.635  14.058  1.00  0.00    -0.080 C 
ATOM      6  C   UNL     1       8.951   8.206  14.218  1.00  0.00     0.039 C 
ENDBRANCH   2   3
ENDBRANCH   1   2
BRANCH   1   7
ATOM      7  C   UNL     1       4.014   9.208  12.688  1.00  0.00    -0.055 C 
ATOM      8  C   UNL     1       3.389  10.291  12.215  1.00  0.00     0.012 C 
BRANCH   7   9
ATOM      9  C   UNL     1       4.510   8.192  11.723  1.00  0.00    -0.005 C 
ATOM     10  C   UNL     1       4.350   6.877  11.878  1.00  0.00     0.009 C 
ENDBRANCH   7   9
ENDBRANCH   1   7
TORSDOF 4
ENDMDL
