MODEL 1
REMARK VINA RESULT:    -6.225      0.000      0.000
REMARK INTER + INTRA:          -7.670
REMARK INTER:                  -7.499
REMARK INTRA:                  -0.171
REMARK UNBOUND:                -0.171
REMARK SMILES O=c1c(O)c(-c2ccc(O)c(O)c2)oc2cc(O)cc(O)c12
REMARK SMILES IDX 5 1 3 2 2 3 1 4 22 5 20 6 19 7 17 8 16 9 15 10 14 11 6 12
REMARK SMILES IDX 7 13 8 14 9 15 13 16 11 17 10 18 12 20 4 22 21 24 18 26
REMARK H PARENT 10 19 12 21 4 23 21 25 18 27
REMARK Flexibility Score: inf
ROOT
ATOM      1  C   UNL     1      55.946 -40.737 -25.877  1.00  0.00     0.180 A 
ATOM      2  C   UNL     1      56.227 -42.114 -25.925  1.00  0.00     0.208 A 
ATOM      3  C   UNL     1      56.505 -42.709 -27.166  1.00  0.00     0.238 A 
ATOM      4  O   UNL     1      56.703 -43.951 -27.209  1.00  0.00    -0.285 OA
ATOM      5  C   UNL     1      56.516 -41.918 -28.340  1.00  0.00     0.111 A 
ATOM      6  C   UNL     1      56.825 -42.408 -29.644  1.00  0.00     0.134 A 
ATOM      7  C   UNL     1      56.678 -41.564 -30.752  1.00  0.00     0.093 A 
ATOM      8  C   UNL     1      56.295 -40.230 -30.596  1.00  0.00     0.123 A 
ATOM      9  C   UNL     1      56.049 -39.726 -29.320  1.00  0.00     0.094 A 
ATOM     10  C   UNL     1      56.152 -40.553 -28.199  1.00  0.00     0.146 A 
ATOM     11  O   UNL     1      55.900 -40.036 -27.003  1.00  0.00    -0.452 OA
ENDROOT
BRANCH   1  12
ATOM     12  C   UNL     1      55.667 -40.033 -24.604  1.00  0.00     0.025 A 
ATOM     13  C   UNL     1      56.528 -39.036 -24.115  1.00  0.00     0.016 A 
ATOM     14  C   UNL     1      56.232 -38.368 -22.923  1.00  0.00     0.051 A 
ATOM     15  C   UNL     1      55.065 -38.677 -22.211  1.00  0.00     0.157 A 
ATOM     16  C   UNL     1      54.488 -40.324 -23.898  1.00  0.00     0.062 A 
ATOM     17  C   UNL     1      54.188 -39.658 -22.704  1.00  0.00     0.158 A 
BRANCH  15  18
ATOM     18  O   UNL     1      54.773 -38.011 -21.022  1.00  0.00    -0.504 OA
ATOM     19  H   UNL     1      54.515 -37.031 -21.012  1.00  0.00     0.293 HD
ENDBRANCH  15  18
BRANCH  17  20
ATOM     20  O   UNL     1      53.015 -39.984 -22.023  1.00  0.00    -0.504 OA
ATOM     21  H   UNL     1      53.016 -40.236 -21.042  1.00  0.00     0.293 HD
ENDBRANCH  17  20
ENDBRANCH   1  12
BRANCH   2  22
ATOM     22  O   UNL     1      56.189 -42.879 -24.757  1.00  0.00    -0.502 OA
ATOM     23  H   UNL     1      56.130 -43.891 -24.771  1.00  0.00     0.293 HD
ENDBRANCH   2  22
BRANCH   6  24
ATOM     24  O   UNL     1      57.304 -43.697 -29.901  1.00  0.00    -0.507 OA
ATOM     25  H   UNL     1      57.779 -44.278 -29.226  1.00  0.00     0.293 HD
ENDBRANCH   6  24
BRANCH   8  26
ATOM     26  O   UNL     1      56.166 -39.393 -31.702  1.00  0.00    -0.508 OA
ATOM     27  H   UNL     1      55.345 -39.421 -32.295  1.00  0.00     0.293 HD
ENDBRANCH   8  26
TORSDOF 6
ENDMDL
MODEL 2
REMARK VINA RESULT:    -5.914     13.113     15.319
REMARK INTER + INTRA:          -7.294
REMARK INTER:                  -6.970
REMARK INTRA:                  -0.324
REMARK UNBOUND:                -0.171
REMARK SMILES O=c1c(O)c(-c2ccc(O)c(O)c2)oc2cc(O)cc(O)c12
REMARK SMILES IDX 5 1 3 2 2 3 1 4 22 5 20 6 19 7 17 8 16 9 15 10 14 11 6 12
REMARK SMILES IDX 7 13 8 14 9 15 13 16 11 17 10 18 12 20 4 22 21 24 18 26
REMARK H PARENT 10 19 12 21 4 23 21 25 18 27
REMARK Flexibility Score: inf
ROOT
ATOM      1  C   UNL     1      52.004 -28.032 -31.024  1.00  0.00     0.180 A 
ATOM      2  C   UNL     1      51.351 -28.354 -32.228  1.00  0.00     0.208 A 
ATOM      3  C   UNL     1      50.021 -27.945 -32.411  1.00  0.00     0.238 A 
ATOM      4  O   UNL     1      49.426 -28.283 -33.468  1.00  0.00    -0.285 OA
ATOM      5  C   UNL     1      49.364 -27.206 -31.398  1.00  0.00     0.111 A 
ATOM      6  C   UNL     1      48.031 -26.705 -31.495  1.00  0.00     0.134 A 
ATOM      7  C   UNL     1      47.438 -26.099 -30.380  1.00  0.00     0.093 A 
ATOM      8  C   UNL     1      48.153 -25.918 -29.193  1.00  0.00     0.123 A 
ATOM      9  C   UNL     1      49.475 -26.350 -29.110  1.00  0.00     0.094 A 
ATOM     10  C   UNL     1      50.082 -26.990 -30.192  1.00  0.00     0.146 A 
ATOM     11  O   UNL     1      51.340 -27.395 -30.067  1.00  0.00    -0.452 OA
ENDROOT
BRANCH   1  12
ATOM     12  C   UNL     1      53.413 -28.408 -30.766  1.00  0.00     0.025 A 
ATOM     13  C   UNL     1      54.477 -27.622 -31.241  1.00  0.00     0.016 A 
ATOM     14  C   UNL     1      55.799 -27.982 -30.965  1.00  0.00     0.051 A 
ATOM     15  C   UNL     1      56.076 -29.123 -30.200  1.00  0.00     0.157 A 
ATOM     16  C   UNL     1      53.695 -29.538 -29.982  1.00  0.00     0.062 A 
ATOM     17  C   UNL     1      55.017 -29.903 -29.705  1.00  0.00     0.158 A 
BRANCH  15  18
ATOM     18  O   UNL     1      57.396 -29.481 -29.928  1.00  0.00    -0.504 OA
ATOM     19  H   UNL     1      57.695 -29.734 -28.994  1.00  0.00     0.293 HD
ENDBRANCH  15  18
BRANCH  17  20
ATOM     20  O   UNL     1      55.259 -31.040 -28.935  1.00  0.00    -0.504 OA
ATOM     21  H   UNL     1      54.591 -31.800 -28.874  1.00  0.00     0.293 HD
ENDBRANCH  17  20
ENDBRANCH   1  12
BRANCH   2  22
ATOM     22  O   UNL     1      52.011 -29.104 -33.205  1.00  0.00    -0.502 OA
ATOM     23  H   UNL     1      51.593 -29.314 -34.104  1.00  0.00     0.293 HD
ENDBRANCH   2  22
BRANCH   6  24
ATOM     24  O   UNL     1      47.262 -26.753 -32.662  1.00  0.00    -0.507 OA
ATOM     25  H   UNL     1      47.368 -27.442 -33.391  1.00  0.00     0.293 HD
ENDBRANCH   6  24
BRANCH   8  26
ATOM     26  O   UNL     1      47.561 -25.301 -28.094  1.00  0.00    -0.508 OA
ATOM     27  H   UNL     1      47.401 -25.800 -27.227  1.00  0.00     0.293 HD
ENDBRANCH   8  26
TORSDOF 6
ENDMDL
MODEL 3
REMARK VINA RESULT:    -5.879     12.529     14.094
REMARK INTER + INTRA:          -7.253
REMARK INTER:                  -6.929
REMARK INTRA:                  -0.323
REMARK UNBOUND:                -0.171
REMARK SMILES O=c1c(O)c(-c2ccc(O)c(O)c2)oc2cc(O)cc(O)c12
REMARK SMILES IDX 5 1 3 2 2 3 1 4 22 5 20 6 19 7 17 8 16 9 15 10 14 11 6 12
REMARK SMILES IDX 7 13 8 14 9 15 13 16 11 17 10 18 12 20 4 22 21 24 18 26
REMARK H PARENT 10 19 12 21 4 23 21 25 18 27
REMARK Flexibility Score: inf
ROOT
ATOM      1  C   UNL     1      47.488 -30.677 -29.408  1.00  0.00     0.180 A 
ATOM      2  C   UNL     1      46.496 -29.984 -30.125  1.00  0.00     0.208 A 
ATOM      3  C   UNL     1      46.886 -29.046 -31.093  1.00  0.00     0.238 A 
ATOM      4  O   UNL     1      45.994 -28.390 -31.692  1.00  0.00    -0.285 OA
ATOM      5  C   UNL     1      48.261 -28.823 -31.346  1.00  0.00     0.111 A 
ATOM      6  C   UNL     1      48.769 -27.926 -32.333  1.00  0.00     0.134 A 
ATOM      7  C   UNL     1      50.147 -27.688 -32.406  1.00  0.00     0.093 A 
ATOM      8  C   UNL     1      51.041 -28.364 -31.571  1.00  0.00     0.123 A 
ATOM      9  C   UNL     1      50.558 -29.287 -30.646  1.00  0.00     0.094 A 
ATOM     10  C   UNL     1      49.186 -29.519 -30.524  1.00  0.00     0.146 A 
ATOM     11  O   UNL     1      48.769 -30.399 -29.622  1.00  0.00    -0.452 OA
ENDROOT
BRANCH   1  12
ATOM     12  C   UNL     1      47.156 -31.699 -28.389  1.00  0.00     0.025 A 
ATOM     13  C   UNL     1      46.969 -31.351 -27.040  1.00  0.00     0.016 A 
ATOM     14  C   UNL     1      46.632 -32.328 -26.099  1.00  0.00     0.051 A 
ATOM     15  C   UNL     1      46.463 -33.662 -26.494  1.00  0.00     0.157 A 
ATOM     16  C   UNL     1      46.964 -33.032 -28.784  1.00  0.00     0.062 A 
ATOM     17  C   UNL     1      46.627 -34.014 -27.844  1.00  0.00     0.158 A 
BRANCH  15  18
ATOM     18  O   UNL     1      46.128 -34.635 -25.553  1.00  0.00    -0.504 OA
ATOM     19  H   UNL     1      45.163 -34.863 -25.346  1.00  0.00     0.293 HD
ENDBRANCH  15  18
BRANCH  17  20
ATOM     20  O   UNL     1      46.459 -35.331 -28.271  1.00  0.00    -0.504 OA
ATOM     21  H   UNL     1      47.197 -35.842 -28.740  1.00  0.00     0.293 HD
ENDBRANCH  17  20
ENDBRANCH   1  12
BRANCH   2  22
ATOM     22  O   UNL     1      45.145 -30.204 -29.844  1.00  0.00    -0.502 OA
ATOM     23  H   UNL     1      44.818 -31.032 -29.360  1.00  0.00     0.293 HD
ENDBRANCH   2  22
BRANCH   6  24
ATOM     24  O   UNL     1      47.971 -27.269 -33.275  1.00  0.00    -0.507 OA
ATOM     25  H   UNL     1      47.740 -26.287 -33.247  1.00  0.00     0.293 HD
ENDBRANCH   6  24
BRANCH   8  26
ATOM     26  O   UNL     1      52.411 -28.133 -31.662  1.00  0.00    -0.508 OA
ATOM     27  H   UNL     1      52.906 -27.596 -30.960  1.00  0.00     0.293 HD
ENDBRANCH   8  26
TORSDOF 6
ENDMDL
MODEL 4
REMARK VINA RESULT:    -5.785      1.934      6.850
REMARK INTER + INTRA:          -7.140
REMARK INTER:                  -6.891
REMARK INTRA:                  -0.249
REMARK UNBOUND:                -0.171
REMARK SMILES O=c1c(O)c(-c2ccc(O)c(O)c2)oc2cc(O)cc(O)c12
REMARK SMILES IDX 5 1 3 2 2 3 1 4 22 5 20 6 19 7 17 8 16 9 15 10 14 11 6 12
REMARK SMILES IDX 7 13 8 14 9 15 13 16 11 17 10 18 12 20 4 22 21 24 18 26
REMARK H PARENT 10 19 12 21 4 23 21 25 18 27
REMARK Flexibility Score: inf
ROOT
ATOM      1  C   UNL     1      55.342 -41.049 -28.720  1.00  0.00     0.180 A 
ATOM      2  C   UNL     1      55.648 -42.306 -28.168  1.00  0.00     0.208 A 
ATOM      3  C   UNL     1      56.027 -42.383 -26.819  1.00  0.00     0.238 A 
ATOM      4  O   UNL     1      56.352 -43.503 -26.346  1.00  0.00    -0.285 OA
ATOM      5  C   UNL     1      56.079 -41.206 -26.033  1.00  0.00     0.111 A 
ATOM      6  C   UNL     1      56.411 -41.172 -24.645  1.00  0.00     0.134 A 
ATOM      7  C   UNL     1      56.558 -39.938 -24.000  1.00  0.00     0.093 A 
ATOM      8  C   UNL     1      56.323 -38.739 -24.677  1.00  0.00     0.123 A 
ATOM      9  C   UNL     1      55.940 -38.765 -26.017  1.00  0.00     0.094 A 
ATOM     10  C   UNL     1      55.820 -39.978 -26.697  1.00  0.00     0.146 A 
ATOM     11  O   UNL     1      55.463 -39.957 -27.975  1.00  0.00    -0.452 OA
ENDROOT
BRANCH   1  12
ATOM     12  C   UNL     1      54.911 -40.891 -30.128  1.00  0.00     0.025 A 
ATOM     13  C   UNL     1      53.646 -41.326 -30.559  1.00  0.00     0.016 A 
ATOM     14  C   UNL     1      53.251 -41.143 -31.888  1.00  0.00     0.051 A 
ATOM     15  C   UNL     1      54.108 -40.513 -32.799  1.00  0.00     0.157 A 
ATOM     16  C   UNL     1      55.757 -40.239 -31.040  1.00  0.00     0.062 A 
ATOM     17  C   UNL     1      55.366 -40.056 -32.372  1.00  0.00     0.158 A 
BRANCH  15  18
ATOM     18  O   UNL     1      53.712 -40.334 -34.124  1.00  0.00    -0.504 OA
ATOM     19  H   UNL     1      54.381 -40.356 -34.885  1.00  0.00     0.293 HD
ENDBRANCH  15  18
BRANCH  17  20
ATOM     20  O   UNL     1      56.239 -39.418 -33.252  1.00  0.00    -0.504 OA
ATOM     21  H   UNL     1      56.614 -39.885 -34.069  1.00  0.00     0.293 HD
ENDBRANCH  17  20
ENDBRANCH   1  12
BRANCH   2  22
ATOM     22  O   UNL     1      55.612 -43.451 -28.968  1.00  0.00    -0.502 OA
ATOM     23  H   UNL     1      54.908 -43.593 -29.683  1.00  0.00     0.293 HD
ENDBRANCH   2  22
BRANCH   6  24
ATOM     24  O   UNL     1      56.577 -42.314 -23.854  1.00  0.00    -0.507 OA
ATOM     25  H   UNL     1      55.929 -42.620 -23.144  1.00  0.00     0.293 HD
ENDBRANCH   6  24
BRANCH   8  26
ATOM     26  O   UNL     1      56.457 -37.516 -24.024  1.00  0.00    -0.508 OA
ATOM     27  H   UNL     1      55.650 -36.987 -23.717  1.00  0.00     0.293 HD
ENDBRANCH   8  26
TORSDOF 6
ENDMDL
MODEL 5
REMARK VINA RESULT:    -5.758     14.037     15.592
REMARK INTER + INTRA:          -7.107
REMARK INTER:                  -6.819
REMARK INTRA:                  -0.288
REMARK UNBOUND:                -0.171
REMARK SMILES O=c1c(O)c(-c2ccc(O)c(O)c2)oc2cc(O)cc(O)c12
REMARK SMILES IDX 5 1 3 2 2 3 1 4 22 5 20 6 19 7 17 8 16 9 15 10 14 11 6 12
REMARK SMILES IDX 7 13 8 14 9 15 13 16 11 17 10 18 12 20 4 22 21 24 18 26
REMARK H PARENT 10 19 12 21 4 23 21 25 18 27
REMARK Flexibility Score: inf
ROOT
ATOM      1  C   UNL     1      47.217 -28.662 -30.431  1.00  0.00     0.180 A 
ATOM      2  C   UNL     1      47.497 -28.191 -31.726  1.00  0.00     0.208 A 
ATOM      3  C   UNL     1      48.813 -28.265 -32.209  1.00  0.00     0.238 A 
ATOM      4  O   UNL     1      49.066 -27.793 -33.348  1.00  0.00    -0.285 OA
ATOM      5  C   UNL     1      49.830 -28.824 -31.398  1.00  0.00     0.111 A 
ATOM      6  C   UNL     1      51.190 -28.986 -31.801  1.00  0.00     0.134 A 
ATOM      7  C   UNL     1      52.137 -29.431 -30.870  1.00  0.00     0.093 A 
ATOM      8  C   UNL     1      51.762 -29.780 -29.570  1.00  0.00     0.123 A 
ATOM      9  C   UNL     1      50.426 -29.682 -29.187  1.00  0.00     0.094 A 
ATOM     10  C   UNL     1      49.464 -29.208 -30.081  1.00  0.00     0.146 A 
ATOM     11  O   UNL     1      48.205 -29.120 -29.671  1.00  0.00    -0.452 OA
ENDROOT
BRANCH   1  12
ATOM     12  C   UNL     1      45.850 -28.639 -29.862  1.00  0.00     0.025 A 
ATOM     13  C   UNL     1      45.294 -27.458 -29.342  1.00  0.00     0.016 A 
ATOM     14  C   UNL     1      43.993 -27.454 -28.832  1.00  0.00     0.051 A 
ATOM     15  C   UNL     1      43.225 -28.625 -28.847  1.00  0.00     0.157 A 
ATOM     16  C   UNL     1      45.069 -29.806 -29.894  1.00  0.00     0.062 A 
ATOM     17  C   UNL     1      43.766 -29.806 -29.383  1.00  0.00     0.158 A 
BRANCH  15  18
ATOM     18  O   UNL     1      41.927 -28.620 -28.335  1.00  0.00    -0.504 OA
ATOM     19  H   UNL     1      41.178 -29.135 -28.783  1.00  0.00     0.293 HD
ENDBRANCH  15  18
BRANCH  17  20
ATOM     20  O   UNL     1      43.025 -30.987 -29.418  1.00  0.00    -0.504 OA
ATOM     21  H   UNL     1      42.785 -31.497 -28.576  1.00  0.00     0.293 HD
ENDBRANCH  17  20
ENDBRANCH   1  12
BRANCH   2  22
ATOM     22  O   UNL     1      46.481 -27.623 -32.501  1.00  0.00    -0.502 OA
ATOM     23  H   UNL     1      46.571 -26.709 -32.929  1.00  0.00     0.293 HD
ENDBRANCH   2  22
BRANCH   6  24
ATOM     24  O   UNL     1      51.652 -28.753 -33.100  1.00  0.00    -0.507 OA
ATOM     25  H   UNL     1      52.564 -28.386 -33.327  1.00  0.00     0.293 HD
ENDBRANCH   6  24
BRANCH   8  26
ATOM     26  O   UNL     1      52.709 -30.236 -28.656  1.00  0.00    -0.508 OA
ATOM     27  H   UNL     1      53.237 -31.086 -28.818  1.00  0.00     0.293 HD
ENDBRANCH   8  26
TORSDOF 6
ENDMDL
MODEL 6
REMARK VINA RESULT:    -5.750     15.831     17.083
REMARK INTER + INTRA:          -7.097
REMARK INTER:                  -6.919
REMARK INTRA:                  -0.178
REMARK UNBOUND:                -0.171
REMARK SMILES O=c1c(O)c(-c2ccc(O)c(O)c2)oc2cc(O)cc(O)c12
REMARK SMILES IDX 5 1 3 2 2 3 1 4 22 5 20 6 19 7 17 8 16 9 15 10 14 11 6 12
REMARK SMILES IDX 7 13 8 14 9 15 13 16 11 17 10 18 12 20 4 22 21 24 18 26
REMARK H PARENT 10 19 12 21 4 23 21 25 18 27
REMARK Flexibility Score: inf
ROOT
ATOM      1  C   UNL     1      45.545 -28.138 -30.255  1.00  0.00     0.180 A 
ATOM      2  C   UNL     1      46.121 -27.400 -29.205  1.00  0.00     0.208 A 
ATOM      3  C   UNL     1      47.443 -26.946 -29.337  1.00  0.00     0.238 A 
ATOM      4  O   UNL     1      47.970 -26.333 -28.373  1.00  0.00    -0.285 OA
ATOM      5  C   UNL     1      48.167 -27.222 -30.522  1.00  0.00     0.111 A 
ATOM      6  C   UNL     1      49.499 -26.776 -30.781  1.00  0.00     0.134 A 
ATOM      7  C   UNL     1      50.164 -27.217 -31.931  1.00  0.00     0.093 A 
ATOM      8  C   UNL     1      49.523 -28.036 -32.865  1.00  0.00     0.123 A 
ATOM      9  C   UNL     1      48.202 -28.427 -32.651  1.00  0.00     0.094 A 
ATOM     10  C   UNL     1      47.525 -28.032 -31.495  1.00  0.00     0.146 A 
ATOM     11  O   UNL     1      46.271 -28.435 -31.325  1.00  0.00    -0.452 OA
ENDROOT
BRANCH   1  12
ATOM     12  C   UNL     1      44.149 -28.629 -30.199  1.00  0.00     0.025 A 
ATOM     13  C   UNL     1      43.169 -28.148 -31.084  1.00  0.00     0.016 A 
ATOM     14  C   UNL     1      41.863 -28.644 -31.030  1.00  0.00     0.051 A 
ATOM     15  C   UNL     1      41.522 -29.636 -30.101  1.00  0.00     0.157 A 
ATOM     16  C   UNL     1      43.807 -29.639 -29.285  1.00  0.00     0.062 A 
ATOM     17  C   UNL     1      42.501 -30.137 -29.226  1.00  0.00     0.158 A 
BRANCH  15  18
ATOM     18  O   UNL     1      40.218 -30.127 -30.047  1.00  0.00    -0.504 OA
ATOM     19  H   UNL     1      39.890 -30.833 -30.697  1.00  0.00     0.293 HD
ENDBRANCH  15  18
BRANCH  17  20
ATOM     20  O   UNL     1      42.195 -31.129 -28.295  1.00  0.00    -0.504 OA
ATOM     21  H   UNL     1      41.252 -31.477 -28.171  1.00  0.00     0.293 HD
ENDBRANCH  17  20
ENDBRANCH   1  12
BRANCH   2  22
ATOM     22  O   UNL     1      45.395 -27.159 -28.036  1.00  0.00    -0.502 OA
ATOM     23  H   UNL     1      45.704 -27.486 -27.127  1.00  0.00     0.293 HD
ENDBRANCH   2  22
BRANCH   6  24
ATOM     24  O   UNL     1      50.197 -25.885 -29.959  1.00  0.00    -0.507 OA
ATOM     25  H   UNL     1      50.564 -24.995 -30.260  1.00  0.00     0.293 HD
ENDBRANCH   6  24
BRANCH   8  26
ATOM     26  O   UNL     1      50.187 -28.457 -34.015  1.00  0.00    -0.508 OA
ATOM     27  H   UNL     1      51.198 -28.498 -34.058  1.00  0.00     0.293 HD
ENDBRANCH   8  26
TORSDOF 6
ENDMDL
MODEL 7
REMARK VINA RESULT:    -5.740      4.991      6.085
REMARK INTER + INTRA:          -7.085
REMARK INTER:                  -6.812
REMARK INTRA:                  -0.273
REMARK UNBOUND:                -0.171
REMARK SMILES O=c1c(O)c(-c2ccc(O)c(O)c2)oc2cc(O)cc(O)c12
REMARK SMILES IDX 5 1 3 2 2 3 1 4 22 5 20 6 19 7 17 8 16 9 15 10 14 11 6 12
REMARK SMILES IDX 7 13 8 14 9 15 13 16 11 17 10 18 12 20 4 22 21 24 18 26
REMARK H PARENT 10 19 12 21 4 23 21 25 18 27
REMARK Flexibility Score: inf
ROOT
ATOM      1  C   UNL     1      52.054 -41.846 -29.367  1.00  0.00     0.180 A 
ATOM      2  C   UNL     1      53.226 -41.936 -28.594  1.00  0.00     0.208 A 
ATOM      3  C   UNL     1      54.452 -41.575 -29.172  1.00  0.00     0.238 A 
ATOM      4  O   UNL     1      55.503 -41.709 -28.493  1.00  0.00    -0.285 OA
ATOM      5  C   UNL     1      54.492 -41.113 -30.510  1.00  0.00     0.111 A 
ATOM      6  C   UNL     1      55.674 -40.681 -31.184  1.00  0.00     0.134 A 
ATOM      7  C   UNL     1      55.616 -40.368 -32.548  1.00  0.00     0.093 A 
ATOM      8  C   UNL     1      54.406 -40.408 -33.246  1.00  0.00     0.123 A 
ATOM      9  C   UNL     1      53.236 -40.770 -32.581  1.00  0.00     0.094 A 
ATOM     10  C   UNL     1      53.268 -41.123 -31.230  1.00  0.00     0.146 A 
ATOM     11  O   UNL     1      52.133 -41.471 -30.638  1.00  0.00    -0.452 OA
ENDROOT
BRANCH   1  12
ATOM     12  C   UNL     1      50.720 -42.186 -28.819  1.00  0.00     0.025 A 
ATOM     13  C   UNL     1      50.321 -43.522 -28.645  1.00  0.00     0.016 A 
ATOM     14  C   UNL     1      49.067 -43.820 -28.104  1.00  0.00     0.051 A 
ATOM     15  C   UNL     1      48.202 -42.789 -27.716  1.00  0.00     0.157 A 
ATOM     16  C   UNL     1      49.859 -41.156 -28.409  1.00  0.00     0.062 A 
ATOM     17  C   UNL     1      48.602 -41.450 -27.868  1.00  0.00     0.158 A 
BRANCH  15  18
ATOM     18  O   UNL     1      46.951 -43.088 -27.179  1.00  0.00    -0.504 OA
ATOM     19  H   UNL     1      46.315 -42.359 -26.877  1.00  0.00     0.293 HD
ENDBRANCH  15  18
BRANCH  17  20
ATOM     20  O   UNL     1      47.767 -40.401 -27.485  1.00  0.00    -0.504 OA
ATOM     21  H   UNL     1      47.600 -39.601 -28.085  1.00  0.00     0.293 HD
ENDBRANCH  17  20
ENDBRANCH   1  12
BRANCH   2  22
ATOM     22  O   UNL     1      53.166 -42.416 -27.283  1.00  0.00    -0.502 OA
ATOM     23  H   UNL     1      52.658 -43.257 -27.034  1.00  0.00     0.293 HD
ENDBRANCH   2  22
BRANCH   6  24
ATOM     24  O   UNL     1      56.914 -40.519 -30.559  1.00  0.00    -0.507 OA
ATOM     25  H   UNL     1      57.746 -40.176 -31.014  1.00  0.00     0.293 HD
ENDBRANCH   6  24
BRANCH   8  26
ATOM     26  O   UNL     1      54.355 -40.079 -34.598  1.00  0.00    -0.508 OA
ATOM     27  H   UNL     1      54.771 -39.226 -34.953  1.00  0.00     0.293 HD
ENDBRANCH   8  26
TORSDOF 6
ENDMDL
MODEL 8
REMARK VINA RESULT:    -5.724     12.670     14.772
REMARK INTER + INTRA:          -7.066
REMARK INTER:                  -6.825
REMARK INTRA:                  -0.242
REMARK UNBOUND:                -0.171
REMARK SMILES O=c1c(O)c(-c2ccc(O)c(O)c2)oc2cc(O)cc(O)c12
REMARK SMILES IDX 5 1 3 2 2 3 1 4 22 5 20 6 19 7 17 8 16 9 15 10 14 11 6 12
REMARK SMILES IDX 7 13 8 14 9 15 13 16 11 17 10 18 12 20 4 22 21 24 18 26
REMARK H PARENT 10 19 12 21 4 23 21 25 18 27
REMARK Flexibility Score: inf
ROOT
ATOM      1  C   UNL     1      50.957 -28.608 -30.704  1.00  0.00     0.180 A 
ATOM      2  C   UNL     1      50.512 -28.058 -31.920  1.00  0.00     0.208 A 
ATOM      3  C   UNL     1      49.144 -28.107 -32.229  1.00  0.00     0.238 A 
ATOM      4  O   UNL     1      48.760 -27.662 -33.342  1.00  0.00    -0.285 OA
ATOM      5  C   UNL     1      48.235 -28.688 -31.312  1.00  0.00     0.111 A 
ATOM      6  C   UNL     1      46.822 -28.755 -31.504  1.00  0.00     0.134 A 
ATOM      7  C   UNL     1      46.034 -29.469 -30.593  1.00  0.00     0.093 A 
ATOM      8  C   UNL     1      46.600 -30.064 -29.462  1.00  0.00     0.123 A 
ATOM      9  C   UNL     1      47.971 -29.953 -29.236  1.00  0.00     0.094 A 
ATOM     10  C   UNL     1      48.788 -29.278 -30.145  1.00  0.00     0.146 A 
ATOM     11  O   UNL     1      50.090 -29.204 -29.896  1.00  0.00    -0.452 OA
ENDROOT
BRANCH   1  12
ATOM     12  C   UNL     1      52.381 -28.573 -30.298  1.00  0.00     0.025 A 
ATOM     13  C   UNL     1      53.008 -27.369 -29.934  1.00  0.00     0.016 A 
ATOM     14  C   UNL     1      54.347 -27.364 -29.530  1.00  0.00     0.051 A 
ATOM     15  C   UNL     1      55.072 -28.561 -29.471  1.00  0.00     0.157 A 
ATOM     16  C   UNL     1      53.106 -29.773 -30.216  1.00  0.00     0.062 A 
ATOM     17  C   UNL     1      54.446 -29.772 -29.813  1.00  0.00     0.158 A 
BRANCH  15  18
ATOM     18  O   UNL     1      56.407 -28.552 -29.070  1.00  0.00    -0.504 OA
ATOM     19  H   UNL     1      56.758 -27.870 -28.407  1.00  0.00     0.293 HD
ENDBRANCH  15  18
BRANCH  17  20
ATOM     20  O   UNL     1      55.138 -30.981 -29.758  1.00  0.00    -0.504 OA
ATOM     21  H   UNL     1      55.887 -31.201 -30.404  1.00  0.00     0.293 HD
ENDBRANCH  17  20
ENDBRANCH   1  12
BRANCH   2  22
ATOM     22  O   UNL     1      51.430 -27.509 -32.819  1.00  0.00    -0.502 OA
ATOM     23  H   UNL     1      51.324 -26.577 -33.204  1.00  0.00     0.293 HD
ENDBRANCH   2  22
BRANCH   6  24
ATOM     24  O   UNL     1      46.145 -28.119 -32.550  1.00  0.00    -0.507 OA
ATOM     25  H   UNL     1      45.153 -28.192 -32.720  1.00  0.00     0.293 HD
ENDBRANCH   6  24
BRANCH   8  26
ATOM     26  O   UNL     1      45.807 -30.759 -28.552  1.00  0.00    -0.508 OA
ATOM     27  H   UNL     1      44.957 -30.358 -28.175  1.00  0.00     0.293 HD
ENDBRANCH   8  26
TORSDOF 6
ENDMDL
MODEL 9
REMARK VINA RESULT:    -5.710     14.866     16.741
REMARK INTER + INTRA:          -7.049
REMARK INTER:                  -7.031
REMARK INTRA:                  -0.018
REMARK UNBOUND:                -0.171
REMARK SMILES O=c1c(O)c(-c2ccc(O)c(O)c2)oc2cc(O)cc(O)c12
REMARK SMILES IDX 5 1 3 2 2 3 1 4 22 5 20 6 19 7 17 8 16 9 15 10 14 11 6 12
REMARK SMILES IDX 7 13 8 14 9 15 13 16 11 17 10 18 12 20 4 22 21 24 18 26
REMARK H PARENT 10 19 12 21 4 23 21 25 18 27
REMARK Flexibility Score: inf
ROOT
ATOM      1  C   UNL     1      47.007 -28.712 -30.470  1.00  0.00     0.180 A 
ATOM      2  C   UNL     1      46.944 -29.493 -29.303  1.00  0.00     0.208 A 
ATOM      3  C   UNL     1      45.697 -29.972 -28.871  1.00  0.00     0.238 A 
ATOM      4  O   UNL     1      45.640 -30.625 -27.796  1.00  0.00    -0.285 OA
ATOM      5  C   UNL     1      44.531 -29.679 -29.620  1.00  0.00     0.111 A 
ATOM      6  C   UNL     1      43.222 -30.148 -29.298  1.00  0.00     0.134 A 
ATOM      7  C   UNL     1      42.124 -29.689 -30.036  1.00  0.00     0.093 A 
ATOM      8  C   UNL     1      42.295 -28.829 -31.124  1.00  0.00     0.123 A 
ATOM      9  C   UNL     1      43.576 -28.415 -31.483  1.00  0.00     0.094 A 
ATOM     10  C   UNL     1      44.688 -28.827 -30.744  1.00  0.00     0.146 A 
ATOM     11  O   UNL     1      45.889 -28.400 -31.114  1.00  0.00    -0.452 OA
ENDROOT
BRANCH   1  12
ATOM     12  C   UNL     1      48.288 -28.190 -31.001  1.00  0.00     0.025 A 
ATOM     13  C   UNL     1      49.170 -27.455 -30.191  1.00  0.00     0.016 A 
ATOM     14  C   UNL     1      50.385 -26.994 -30.706  1.00  0.00     0.051 A 
ATOM     15  C   UNL     1      50.741 -27.272 -32.032  1.00  0.00     0.157 A 
ATOM     16  C   UNL     1      48.659 -28.485 -32.323  1.00  0.00     0.062 A 
ATOM     17  C   UNL     1      49.874 -28.024 -32.843  1.00  0.00     0.158 A 
BRANCH  15  18
ATOM     18  O   UNL     1      51.952 -26.809 -32.545  1.00  0.00    -0.504 OA
ATOM     19  H   UNL     1      52.739 -26.601 -31.941  1.00  0.00     0.293 HD
ENDBRANCH  15  18
BRANCH  17  20
ATOM     20  O   UNL     1      50.202 -28.324 -34.165  1.00  0.00    -0.504 OA
ATOM     21  H   UNL     1      49.494 -28.481 -34.872  1.00  0.00     0.293 HD
ENDBRANCH  17  20
ENDBRANCH   1  12
BRANCH   2  22
ATOM     22  O   UNL     1      48.103 -29.751 -28.567  1.00  0.00    -0.502 OA
ATOM     23  H   UNL     1      48.099 -30.316 -27.726  1.00  0.00     0.293 HD
ENDBRANCH   2  22
BRANCH   6  24
ATOM     24  O   UNL     1      42.952 -31.077 -28.289  1.00  0.00    -0.507 OA
ATOM     25  H   UNL     1      42.077 -31.569 -28.181  1.00  0.00     0.293 HD
ENDBRANCH   6  24
BRANCH   8  26
ATOM     26  O   UNL     1      41.198 -28.390 -31.862  1.00  0.00    -0.508 OA
ATOM     27  H   UNL     1      40.299 -28.221 -31.426  1.00  0.00     0.293 HD
ENDBRANCH   8  26
TORSDOF 6
ENDMDL
