MODEL 1
REMARK VINA RESULT:    -7.043      0.000      0.000
REMARK INTER + INTRA:          -8.547
REMARK INTER:                  -8.278
REMARK INTRA:                  -0.269
REMARK UNBOUND:                -0.269
REMARK SMILES O=c1cc(-c2ccc(O)c(O)c2)oc2cc(O)cc(O)c12
REMARK SMILES IDX 4 1 3 2 2 3 1 4 21 5 19 6 18 7 16 8 15 9 14 10 13 11 5 12
REMARK SMILES IDX 6 13 7 14 8 15 12 16 10 17 9 18 11 20 20 22 17 24
REMARK H PARENT 9 19 11 21 20 23 17 25
REMARK Flexibility Score: inf
ROOT
ATOM      1  C   UNL     1     -10.651   7.062   5.598  1.00  0.00     0.138 A 
ATOM      2  C   UNL     1     -11.556   8.118   5.426  1.00  0.00     0.100 A 
ATOM      3  C   UNL     1     -11.093   9.435   5.452  1.00  0.00     0.197 A 
ATOM      4  O   UNL     1     -11.938  10.364   5.358  1.00  0.00    -0.289 OA
ATOM      5  C   UNL     1      -9.712   9.692   5.617  1.00  0.00     0.107 A 
ATOM      6  C   UNL     1      -9.122  10.992   5.618  1.00  0.00     0.134 A 
ATOM      7  C   UNL     1      -7.758  11.130   5.906  1.00  0.00     0.093 A 
ATOM      8  C   UNL     1      -6.953  10.010   6.136  1.00  0.00     0.123 A 
ATOM      9  C   UNL     1      -7.509   8.734   6.084  1.00  0.00     0.094 A 
ATOM     10  C   UNL     1      -8.873   8.567   5.833  1.00  0.00     0.146 A 
ATOM     11  O   UNL     1      -9.366   7.333   5.806  1.00  0.00    -0.456 OA
ENDROOT
BRANCH   1  12
ATOM     12  C   UNL     1     -11.088   5.643   5.579  1.00  0.00     0.021 A 
ATOM     13  C   UNL     1     -11.864   5.145   6.640  1.00  0.00     0.016 A 
ATOM     14  C   UNL     1     -12.282   3.811   6.649  1.00  0.00     0.051 A 
ATOM     15  C   UNL     1     -11.924   2.952   5.604  1.00  0.00     0.157 A 
ATOM     16  C   UNL     1     -10.721   4.769   4.536  1.00  0.00     0.062 A 
ATOM     17  C   UNL     1     -11.139   3.431   4.547  1.00  0.00     0.158 A 
BRANCH  15  18
ATOM     18  O   UNL     1     -12.341   1.622   5.609  1.00  0.00    -0.504 OA
ATOM     19  H   UNL     1     -12.361   1.077   6.462  1.00  0.00     0.293 HD
ENDBRANCH  15  18
BRANCH  17  20
ATOM     20  O   UNL     1     -10.777   2.570   3.513  1.00  0.00    -0.504 OA
ATOM     21  H   UNL     1      -9.871   2.115   3.495  1.00  0.00     0.293 HD
ENDBRANCH  17  20
ENDBRANCH   1  12
BRANCH   6  22
ATOM     22  O   UNL     1      -9.818  12.166   5.318  1.00  0.00    -0.507 OA
ATOM     23  H   UNL     1     -10.491  12.263   4.574  1.00  0.00     0.293 HD
ENDBRANCH   6  22
BRANCH   8  24
ATOM     24  O   UNL     1      -5.594  10.157   6.408  1.00  0.00    -0.508 OA
ATOM     25  H   UNL     1      -5.206  11.046   6.703  1.00  0.00     0.293 HD
ENDBRANCH   8  24
TORSDOF 5
ENDMDL
MODEL 2
REMARK VINA RESULT:    -7.008      1.216      2.775
REMARK INTER + INTRA:          -8.506
REMARK INTER:                  -8.243
REMARK INTRA:                  -0.263
REMARK UNBOUND:                -0.269
REMARK SMILES O=c1cc(-c2ccc(O)c(O)c2)oc2cc(O)cc(O)c12
REMARK SMILES IDX 4 1 3 2 2 3 1 4 21 5 19 6 18 7 16 8 15 9 14 10 13 11 5 12
REMARK SMILES IDX 6 13 7 14 8 15 12 16 10 17 9 18 11 20 20 22 17 24
REMARK H PARENT 9 19 11 21 20 23 17 25
REMARK Flexibility Score: inf
ROOT
ATOM      1  C   UNL     1     -10.404   7.114   5.673  1.00  0.00     0.138 A 
ATOM      2  C   UNL     1      -9.084   7.418   6.032  1.00  0.00     0.100 A 
ATOM      3  C   UNL     1      -8.657   8.747   6.030  1.00  0.00     0.197 A 
ATOM      4  O   UNL     1      -7.449   8.984   6.296  1.00  0.00    -0.289 OA
ATOM      5  C   UNL     1      -9.567   9.778   5.698  1.00  0.00     0.107 A 
ATOM      6  C   UNL     1      -9.254  11.171   5.702  1.00  0.00     0.134 A 
ATOM      7  C   UNL     1     -10.204  12.092   5.243  1.00  0.00     0.093 A 
ATOM      8  C   UNL     1     -11.475  11.675   4.836  1.00  0.00     0.123 A 
ATOM      9  C   UNL     1     -11.808  10.323   4.879  1.00  0.00     0.094 A 
ATOM     10  C   UNL     1     -10.870   9.377   5.300  1.00  0.00     0.146 A 
ATOM     11  O   UNL     1     -11.223   8.096   5.313  1.00  0.00    -0.456 OA
ENDROOT
BRANCH   1  12
ATOM     12  C   UNL     1     -10.911   5.718   5.659  1.00  0.00     0.021 A 
ATOM     13  C   UNL     1     -11.644   5.238   6.758  1.00  0.00     0.016 A 
ATOM     14  C   UNL     1     -12.125   3.926   6.772  1.00  0.00     0.051 A 
ATOM     15  C   UNL     1     -11.874   3.070   5.694  1.00  0.00     0.157 A 
ATOM     16  C   UNL     1     -10.650   4.847   4.582  1.00  0.00     0.062 A 
ATOM     17  C   UNL     1     -11.132   3.530   4.598  1.00  0.00     0.158 A 
BRANCH  15  18
ATOM     18  O   UNL     1     -12.354   1.761   5.704  1.00  0.00    -0.504 OA
ATOM     19  H   UNL     1     -11.963   1.049   5.099  1.00  0.00     0.293 HD
ENDBRANCH  15  18
BRANCH  17  20
ATOM     20  O   UNL     1     -10.875   2.672   3.532  1.00  0.00    -0.504 OA
ATOM     21  H   UNL     1     -11.570   2.011   3.203  1.00  0.00     0.293 HD
ENDBRANCH  17  20
ENDBRANCH   1  12
BRANCH   6  22
ATOM     22  O   UNL     1      -8.047  11.699   6.167  1.00  0.00    -0.507 OA
ATOM     23  H   UNL     1      -7.620  11.470   7.051  1.00  0.00     0.293 HD
ENDBRANCH   6  22
BRANCH   8  24
ATOM     24  O   UNL     1     -12.418  12.601   4.394  1.00  0.00    -0.508 OA
ATOM     25  H   UNL     1     -12.157  13.382   3.804  1.00  0.00     0.293 HD
ENDBRANCH   8  24
TORSDOF 5
ENDMDL
MODEL 3
REMARK VINA RESULT:    -6.823      1.422      7.251
REMARK INTER + INTRA:          -8.289
REMARK INTER:                  -8.024
REMARK INTRA:                  -0.264
REMARK UNBOUND:                -0.269
REMARK SMILES O=c1cc(-c2ccc(O)c(O)c2)oc2cc(O)cc(O)c12
REMARK SMILES IDX 4 1 3 2 2 3 1 4 21 5 19 6 18 7 16 8 15 9 14 10 13 11 5 12
REMARK SMILES IDX 6 13 7 14 8 15 12 16 10 17 9 18 11 20 20 22 17 24
REMARK H PARENT 9 19 11 21 20 23 17 25
REMARK Flexibility Score: inf
ROOT
ATOM      1  C   UNL     1      -9.981   7.050   5.335  1.00  0.00     0.138 A 
ATOM      2  C   UNL     1      -9.308   6.327   4.341  1.00  0.00     0.100 A 
ATOM      3  C   UNL     1      -9.680   5.008   4.076  1.00  0.00     0.197 A 
ATOM      4  O   UNL     1      -9.016   4.364   3.222  1.00  0.00    -0.289 OA
ATOM      5  C   UNL     1     -10.753   4.423   4.788  1.00  0.00     0.107 A 
ATOM      6  C   UNL     1     -11.246   3.100   4.573  1.00  0.00     0.134 A 
ATOM      7  C   UNL     1     -12.238   2.589   5.419  1.00  0.00     0.093 A 
ATOM      8  C   UNL     1     -12.796   3.372   6.433  1.00  0.00     0.123 A 
ATOM      9  C   UNL     1     -12.360   4.682   6.616  1.00  0.00     0.094 A 
ATOM     10  C   UNL     1     -11.347   5.210   5.811  1.00  0.00     0.146 A 
ATOM     11  O   UNL     1     -10.950   6.459   6.027  1.00  0.00    -0.456 OA
ENDROOT
BRANCH   1  12
ATOM     12  C   UNL     1      -9.627   8.456   5.658  1.00  0.00     0.021 A 
ATOM     13  C   UNL     1     -10.519   9.488   5.320  1.00  0.00     0.016 A 
ATOM     14  C   UNL     1     -10.205  10.820   5.607  1.00  0.00     0.051 A 
ATOM     15  C   UNL     1      -8.992  11.142   6.225  1.00  0.00     0.157 A 
ATOM     16  C   UNL     1      -8.402   8.789   6.269  1.00  0.00     0.062 A 
ATOM     17  C   UNL     1      -8.087  10.125   6.554  1.00  0.00     0.158 A 
BRANCH  15  18
ATOM     18  O   UNL     1      -8.677  12.469   6.514  1.00  0.00    -0.504 OA
ATOM     19  H   UNL     1      -8.759  12.840   7.453  1.00  0.00     0.293 HD
ENDBRANCH  15  18
BRANCH  17  20
ATOM     20  O   UNL     1      -6.876  10.451   7.161  1.00  0.00    -0.504 OA
ATOM     21  H   UNL     1      -6.789  10.522   8.168  1.00  0.00     0.293 HD
ENDBRANCH  17  20
ENDBRANCH   1  12
BRANCH   6  22
ATOM     22  O   UNL     1     -10.818   2.265   3.537  1.00  0.00    -0.507 OA
ATOM     23  H   UNL     1     -11.400   1.942   2.780  1.00  0.00     0.293 HD
ENDBRANCH   6  22
BRANCH   8  24
ATOM     24  O   UNL     1     -13.793   2.858   7.260  1.00  0.00    -0.508 OA
ATOM     25  H   UNL     1     -14.378   3.464   7.824  1.00  0.00     0.293 HD
ENDBRANCH   8  24
TORSDOF 5
ENDMDL
MODEL 4
REMARK VINA RESULT:    -6.646      1.195      1.871
REMARK INTER + INTRA:          -8.081
REMARK INTER:                  -7.801
REMARK INTRA:                  -0.281
REMARK UNBOUND:                -0.269
REMARK SMILES O=c1cc(-c2ccc(O)c(O)c2)oc2cc(O)cc(O)c12
REMARK SMILES IDX 4 1 3 2 2 3 1 4 21 5 19 6 18 7 16 8 15 9 14 10 13 11 5 12
REMARK SMILES IDX 6 13 7 14 8 15 12 16 10 17 9 18 11 20 20 22 17 24
REMARK H PARENT 9 19 11 21 20 23 17 25
REMARK Flexibility Score: inf
ROOT
ATOM      1  C   UNL     1     -11.438   6.825   5.545  1.00  0.00     0.138 A 
ATOM      2  C   UNL     1     -12.522   7.678   5.791  1.00  0.00     0.100 A 
ATOM      3  C   UNL     1     -12.317   9.058   5.850  1.00  0.00     0.197 A 
ATOM      4  O   UNL     1     -13.298   9.793   6.136  1.00  0.00    -0.289 OA
ATOM      5  C   UNL     1     -11.023   9.586   5.628  1.00  0.00     0.107 A 
ATOM      6  C   UNL     1     -10.703  10.977   5.623  1.00  0.00     0.134 A 
ATOM      7  C   UNL     1      -9.366  11.376   5.507  1.00  0.00     0.093 A 
ATOM      8  C   UNL     1      -8.345  10.437   5.337  1.00  0.00     0.123 A 
ATOM      9  C   UNL     1      -8.653   9.080   5.286  1.00  0.00     0.094 A 
ATOM     10  C   UNL     1      -9.974   8.648   5.434  1.00  0.00     0.146 A 
ATOM     11  O   UNL     1     -10.224   7.344   5.394  1.00  0.00    -0.456 OA
ENDROOT
BRANCH   1  12
ATOM     12  C   UNL     1     -11.601   5.351   5.471  1.00  0.00     0.021 A 
ATOM     13  C   UNL     1     -10.892   4.626   4.498  1.00  0.00     0.016 A 
ATOM     14  C   UNL     1     -11.034   3.238   4.403  1.00  0.00     0.051 A 
ATOM     15  C   UNL     1     -11.892   2.555   5.272  1.00  0.00     0.157 A 
ATOM     16  C   UNL     1     -12.473   4.658   6.334  1.00  0.00     0.062 A 
ATOM     17  C   UNL     1     -12.616   3.267   6.237  1.00  0.00     0.158 A 
BRANCH  15  18
ATOM     18  O   UNL     1     -12.034   1.172   5.181  1.00  0.00    -0.504 OA
ATOM     19  H   UNL     1     -12.801   0.687   5.633  1.00  0.00     0.293 HD
ENDBRANCH  15  18
BRANCH  17  20
ATOM     20  O   UNL     1     -13.477   2.585   7.093  1.00  0.00    -0.504 OA
ATOM     21  H   UNL     1     -13.233   2.407   8.060  1.00  0.00     0.293 HD
ENDBRANCH  17  20
ENDBRANCH   1  12
BRANCH   6  22
ATOM     22  O   UNL     1     -11.655  11.998   5.702  1.00  0.00    -0.507 OA
ATOM     23  H   UNL     1     -12.004  12.394   6.561  1.00  0.00     0.293 HD
ENDBRANCH   6  22
BRANCH   8  24
ATOM     24  O   UNL     1      -7.019  10.846   5.209  1.00  0.00    -0.508 OA
ATOM     25  H   UNL     1      -6.780  11.795   4.945  1.00  0.00     0.293 HD
ENDBRANCH   8  24
TORSDOF 5
ENDMDL
MODEL 5
REMARK VINA RESULT:    -6.538      1.689      7.171
REMARK INTER + INTRA:          -7.954
REMARK INTER:                  -7.686
REMARK INTRA:                  -0.268
REMARK UNBOUND:                -0.269
REMARK SMILES O=c1cc(-c2ccc(O)c(O)c2)oc2cc(O)cc(O)c12
REMARK SMILES IDX 4 1 3 2 2 3 1 4 21 5 19 6 18 7 16 8 15 9 14 10 13 11 5 12
REMARK SMILES IDX 6 13 7 14 8 15 12 16 10 17 9 18 11 20 20 22 17 24
REMARK H PARENT 9 19 11 21 20 23 17 25
REMARK Flexibility Score: inf
ROOT
ATOM      1  C   UNL     1     -10.012   6.489   6.021  1.00  0.00     0.138 A 
ATOM      2  C   UNL     1     -10.183   5.712   4.867  1.00  0.00     0.100 A 
ATOM      3  C   UNL     1     -10.780   4.454   4.964  1.00  0.00     0.197 A 
ATOM      4  O   UNL     1     -10.863   3.754   3.921  1.00  0.00    -0.289 OA
ATOM      5  C   UNL     1     -11.237   3.987   6.219  1.00  0.00     0.107 A 
ATOM      6  C   UNL     1     -11.896   2.739   6.431  1.00  0.00     0.134 A 
ATOM      7  C   UNL     1     -12.199   2.332   7.736  1.00  0.00     0.093 A 
ATOM      8  C   UNL     1     -11.920   3.154   8.831  1.00  0.00     0.123 A 
ATOM      9  C   UNL     1     -11.325   4.397   8.630  1.00  0.00     0.094 A 
ATOM     10  C   UNL     1     -10.979   4.816   7.343  1.00  0.00     0.146 A 
ATOM     11  O   UNL     1     -10.400   6.004   7.196  1.00  0.00    -0.456 OA
ENDROOT
BRANCH   1  12
ATOM     12  C   UNL     1      -9.384   7.834   5.976  1.00  0.00     0.021 A 
ATOM     13  C   UNL     1      -8.214   8.076   6.715  1.00  0.00     0.016 A 
ATOM     14  C   UNL     1      -7.608   9.336   6.694  1.00  0.00     0.051 A 
ATOM     15  C   UNL     1      -8.167  10.376   5.943  1.00  0.00     0.157 A 
ATOM     16  C   UNL     1      -9.949   8.889   5.231  1.00  0.00     0.062 A 
ATOM     17  C   UNL     1      -9.342  10.153   5.213  1.00  0.00     0.158 A 
BRANCH  15  18
ATOM     18  O   UNL     1      -7.565  11.632   5.919  1.00  0.00    -0.504 OA
ATOM     19  H   UNL     1      -6.710  11.800   5.402  1.00  0.00     0.293 HD
ENDBRANCH  15  18
BRANCH  17  20
ATOM     20  O   UNL     1      -9.901  11.194   4.474  1.00  0.00    -0.504 OA
ATOM     21  H   UNL     1      -9.564  12.146   4.560  1.00  0.00     0.293 HD
ENDBRANCH  17  20
ENDBRANCH   1  12
BRANCH   6  22
ATOM     22  O   UNL     1     -12.296   1.882   5.401  1.00  0.00    -0.507 OA
ATOM     23  H   UNL     1     -13.079   1.249   5.450  1.00  0.00     0.293 HD
ENDBRANCH   6  22
BRANCH   8  24
ATOM     24  O   UNL     1     -12.238   2.745  10.125  1.00  0.00    -0.508 OA
ATOM     25  H   UNL     1     -11.980   1.828  10.469  1.00  0.00     0.293 HD
ENDBRANCH   8  24
TORSDOF 5
ENDMDL
MODEL 6
REMARK VINA RESULT:    -6.244      1.846      3.475
REMARK INTER + INTRA:          -7.608
REMARK INTER:                  -7.344
REMARK INTRA:                  -0.264
REMARK UNBOUND:                -0.269
REMARK SMILES O=c1cc(-c2ccc(O)c(O)c2)oc2cc(O)cc(O)c12
REMARK SMILES IDX 4 1 3 2 2 3 1 4 21 5 19 6 18 7 16 8 15 9 14 10 13 11 5 12
REMARK SMILES IDX 6 13 7 14 8 15 12 16 10 17 9 18 11 20 20 22 17 24
REMARK H PARENT 9 19 11 21 20 23 17 25
REMARK Flexibility Score: inf
ROOT
ATOM      1  C   UNL     1     -11.025   6.705   6.252  1.00  0.00     0.138 A 
ATOM      2  C   UNL     1      -9.717   7.108   5.953  1.00  0.00     0.100 A 
ATOM      3  C   UNL     1      -9.493   8.367   5.392  1.00  0.00     0.197 A 
ATOM      4  O   UNL     1      -8.314   8.676   5.077  1.00  0.00    -0.289 OA
ATOM      5  C   UNL     1     -10.584   9.238   5.161  1.00  0.00     0.107 A 
ATOM      6  C   UNL     1     -10.471  10.559   4.633  1.00  0.00     0.134 A 
ATOM      7  C   UNL     1     -11.632  11.285   4.339  1.00  0.00     0.093 A 
ATOM      8  C   UNL     1     -12.899  10.760   4.609  1.00  0.00     0.123 A 
ATOM      9  C   UNL     1     -13.018   9.493   5.175  1.00  0.00     0.094 A 
ATOM     10  C   UNL     1     -11.879   8.730   5.448  1.00  0.00     0.146 A 
ATOM     11  O   UNL     1     -12.037   7.520   5.974  1.00  0.00    -0.456 OA
ENDROOT
BRANCH   1  12
ATOM     12  C   UNL     1     -11.320   5.378   6.849  1.00  0.00     0.021 A 
ATOM     13  C   UNL     1     -11.345   5.239   8.248  1.00  0.00     0.016 A 
ATOM     14  C   UNL     1     -11.612   3.999   8.834  1.00  0.00     0.051 A 
ATOM     15  C   UNL     1     -11.849   2.876   8.034  1.00  0.00     0.157 A 
ATOM     16  C   UNL     1     -11.547   4.240   6.049  1.00  0.00     0.062 A 
ATOM     17  C   UNL     1     -11.814   2.996   6.639  1.00  0.00     0.158 A 
BRANCH  15  18
ATOM     18  O   UNL     1     -12.118   1.638   8.616  1.00  0.00    -0.504 OA
ATOM     19  H   UNL     1     -11.487   1.222   9.289  1.00  0.00     0.293 HD
ENDBRANCH  15  18
BRANCH  17  20
ATOM     20  O   UNL     1     -12.040   1.873   5.846  1.00  0.00    -0.504 OA
ATOM     21  H   UNL     1     -11.352   1.133   5.764  1.00  0.00     0.293 HD
ENDBRANCH  17  20
ENDBRANCH   1  12
BRANCH   6  22
ATOM     22  O   UNL     1      -9.254  11.208   4.405  1.00  0.00    -0.507 OA
ATOM     23  H   UNL     1      -8.706  11.126   3.562  1.00  0.00     0.293 HD
ENDBRANCH   6  22
BRANCH   8  24
ATOM     24  O   UNL     1     -14.047  11.497   4.326  1.00  0.00    -0.508 OA
ATOM     25  H   UNL     1     -14.023  12.300   3.708  1.00  0.00     0.293 HD
ENDBRANCH   8  24
TORSDOF 5
ENDMDL
MODEL 7
REMARK VINA RESULT:    -6.016      2.334      3.261
REMARK INTER + INTRA:          -7.341
REMARK INTER:                  -7.075
REMARK INTRA:                  -0.266
REMARK UNBOUND:                -0.269
REMARK SMILES O=c1cc(-c2ccc(O)c(O)c2)oc2cc(O)cc(O)c12
REMARK SMILES IDX 4 1 3 2 2 3 1 4 21 5 19 6 18 7 16 8 15 9 14 10 13 11 5 12
REMARK SMILES IDX 6 13 7 14 8 15 12 16 10 17 9 18 11 20 20 22 17 24
REMARK H PARENT 9 19 11 21 20 23 17 25
REMARK Flexibility Score: inf
ROOT
ATOM      1  C   UNL     1     -12.721   6.898   5.958  1.00  0.00     0.138 A 
ATOM      2  C   UNL     1     -14.020   7.282   5.600  1.00  0.00     0.100 A 
ATOM      3  C   UNL     1     -14.237   8.543   5.041  1.00  0.00     0.197 A 
ATOM      4  O   UNL     1     -15.422   8.884   4.787  1.00  0.00    -0.289 OA
ATOM      5  C   UNL     1     -13.142   9.408   4.810  1.00  0.00     0.107 A 
ATOM      6  C   UNL     1     -13.239  10.699   4.208  1.00  0.00     0.134 A 
ATOM      7  C   UNL     1     -12.103  11.514   4.137  1.00  0.00     0.093 A 
ATOM      8  C   UNL     1     -10.861  11.061   4.592  1.00  0.00     0.123 A 
ATOM      9  C   UNL     1     -10.745   9.782   5.132  1.00  0.00     0.094 A 
ATOM     10  C   UNL     1     -11.868   8.959   5.248  1.00  0.00     0.146 A 
ATOM     11  O   UNL     1     -11.717   7.751   5.781  1.00  0.00    -0.456 OA
ENDROOT
BRANCH   1  12
ATOM     12  C   UNL     1     -12.433   5.569   6.556  1.00  0.00     0.021 A 
ATOM     13  C   UNL     1     -12.022   5.489   7.898  1.00  0.00     0.016 A 
ATOM     14  C   UNL     1     -11.738   4.251   8.481  1.00  0.00     0.051 A 
ATOM     15  C   UNL     1     -11.850   3.075   7.731  1.00  0.00     0.157 A 
ATOM     16  C   UNL     1     -12.531   4.382   5.803  1.00  0.00     0.062 A 
ATOM     17  C   UNL     1     -12.244   3.140   6.388  1.00  0.00     0.158 A 
BRANCH  15  18
ATOM     18  O   UNL     1     -11.569   1.838   8.310  1.00  0.00    -0.504 OA
ATOM     19  H   UNL     1     -12.306   1.183   8.542  1.00  0.00     0.293 HD
ENDBRANCH  15  18
BRANCH  17  20
ATOM     20  O   UNL     1     -12.344   1.969   5.642  1.00  0.00    -0.504 OA
ATOM     21  H   UNL     1     -12.122   1.064   6.042  1.00  0.00     0.293 HD
ENDBRANCH  17  20
ENDBRANCH   1  12
BRANCH   6  22
ATOM     22  O   UNL     1     -14.412  11.213   3.647  1.00  0.00    -0.507 OA
ATOM     23  H   UNL     1     -15.307  10.749   3.657  1.00  0.00     0.293 HD
ENDBRANCH   6  22
BRANCH   8  24
ATOM     24  O   UNL     1      -9.733  11.874   4.504  1.00  0.00    -0.508 OA
ATOM     25  H   UNL     1      -9.258  12.028   3.622  1.00  0.00     0.293 HD
ENDBRANCH   8  24
TORSDOF 5
ENDMDL
MODEL 8
REMARK VINA RESULT:    -5.884      1.793      6.892
REMARK INTER + INTRA:          -7.185
REMARK INTER:                  -6.892
REMARK INTRA:                  -0.293
REMARK UNBOUND:                -0.269
REMARK SMILES O=c1cc(-c2ccc(O)c(O)c2)oc2cc(O)cc(O)c12
REMARK SMILES IDX 4 1 3 2 2 3 1 4 21 5 19 6 18 7 16 8 15 9 14 10 13 11 5 12
REMARK SMILES IDX 6 13 7 14 8 15 12 16 10 17 9 18 11 20 20 22 17 24
REMARK H PARENT 9 19 11 21 20 23 17 25
REMARK Flexibility Score: inf
ROOT
ATOM      1  C   UNL     1     -10.385   8.410   5.758  1.00  0.00     0.138 A 
ATOM      2  C   UNL     1     -11.680   8.945   5.719  1.00  0.00     0.100 A 
ATOM      3  C   UNL     1     -12.772   8.096   5.526  1.00  0.00     0.197 A 
ATOM      4  O   UNL     1     -13.916   8.613   5.432  1.00  0.00    -0.289 OA
ATOM      5  C   UNL     1     -12.566   6.702   5.404  1.00  0.00     0.107 A 
ATOM      6  C   UNL     1     -13.607   5.738   5.244  1.00  0.00     0.134 A 
ATOM      7  C   UNL     1     -13.275   4.396   5.017  1.00  0.00     0.093 A 
ATOM      8  C   UNL     1     -11.942   3.976   5.002  1.00  0.00     0.123 A 
ATOM      9  C   UNL     1     -10.921   4.900   5.210  1.00  0.00     0.094 A 
ATOM     10  C   UNL     1     -11.219   6.251   5.405  1.00  0.00     0.146 A 
ATOM     11  O   UNL     1     -10.215   7.103   5.586  1.00  0.00    -0.456 OA
ENDROOT
BRANCH   1  12
ATOM     12  C   UNL     1      -9.189   9.266   5.962  1.00  0.00     0.021 A 
ATOM     13  C   UNL     1      -7.922   8.781   5.595  1.00  0.00     0.016 A 
ATOM     14  C   UNL     1      -6.780   9.565   5.784  1.00  0.00     0.051 A 
ATOM     15  C   UNL     1      -6.884  10.840   6.351  1.00  0.00     0.157 A 
ATOM     16  C   UNL     1      -9.285  10.546   6.544  1.00  0.00     0.062 A 
ATOM     17  C   UNL     1      -8.139  11.330   6.735  1.00  0.00     0.158 A 
BRANCH  15  18
ATOM     18  O   UNL     1      -5.748  11.625   6.539  1.00  0.00    -0.504 OA
ATOM     19  H   UNL     1      -5.507  12.370   5.896  1.00  0.00     0.293 HD
ENDBRANCH  15  18
BRANCH  17  20
ATOM     20  O   UNL     1      -8.237  12.596   7.308  1.00  0.00    -0.504 OA
ATOM     21  H   UNL     1      -9.130  12.979   7.598  1.00  0.00     0.293 HD
ENDBRANCH  17  20
ENDBRANCH   1  12
BRANCH   6  22
ATOM     22  O   UNL     1     -14.970   6.038   5.326  1.00  0.00    -0.507 OA
ATOM     23  H   UNL     1     -15.393   6.890   4.991  1.00  0.00     0.293 HD
ENDBRANCH   6  22
BRANCH   8  24
ATOM     24  O   UNL     1     -11.623   2.636   4.789  1.00  0.00    -0.508 OA
ATOM     25  H   UNL     1     -11.742   2.201   3.882  1.00  0.00     0.293 HD
ENDBRANCH   8  24
TORSDOF 5
ENDMDL
MODEL 9
REMARK VINA RESULT:    -5.567      4.481      5.287
REMARK INTER + INTRA:          -6.812
REMARK INTER:                  -6.544
REMARK INTRA:                  -0.268
REMARK UNBOUND:                -0.269
REMARK SMILES O=c1cc(-c2ccc(O)c(O)c2)oc2cc(O)cc(O)c12
REMARK SMILES IDX 4 1 3 2 2 3 1 4 21 5 19 6 18 7 16 8 15 9 14 10 13 11 5 12
REMARK SMILES IDX 6 13 7 14 8 15 12 16 10 17 9 18 11 20 20 22 17 24
REMARK H PARENT 9 19 11 21 20 23 17 25
REMARK Flexibility Score: inf
ROOT
ATOM      1  C   UNL     1     -11.166  11.041   5.235  1.00  0.00     0.138 A 
ATOM      2  C   UNL     1     -11.482  11.646   6.459  1.00  0.00     0.100 A 
ATOM      3  C   UNL     1     -10.474  11.872   7.398  1.00  0.00     0.197 A 
ATOM      4  O   UNL     1     -10.798  12.360   8.512  1.00  0.00    -0.289 OA
ATOM      5  C   UNL     1      -9.138  11.520   7.094  1.00  0.00     0.107 A 
ATOM      6  C   UNL     1      -8.023  11.741   7.957  1.00  0.00     0.134 A 
ATOM      7  C   UNL     1      -6.763  11.244   7.598  1.00  0.00     0.093 A 
ATOM      8  C   UNL     1      -6.568  10.587   6.380  1.00  0.00     0.123 A 
ATOM      9  C   UNL     1      -7.639  10.413   5.507  1.00  0.00     0.094 A 
ATOM     10  C   UNL     1      -8.915  10.867   5.852  1.00  0.00     0.146 A 
ATOM     11  O   UNL     1      -9.912  10.670   4.997  1.00  0.00    -0.456 OA
ENDROOT
BRANCH   1  12
ATOM     12  C   UNL     1     -12.198  10.778   4.201  1.00  0.00     0.021 A 
ATOM     13  C   UNL     1     -12.058  11.347   2.924  1.00  0.00     0.016 A 
ATOM     14  C   UNL     1     -13.020  11.120   1.935  1.00  0.00     0.051 A 
ATOM     15  C   UNL     1     -14.142  10.330   2.210  1.00  0.00     0.157 A 
ATOM     16  C   UNL     1     -13.337   9.993   4.474  1.00  0.00     0.062 A 
ATOM     17  C   UNL     1     -14.302   9.768   3.483  1.00  0.00     0.158 A 
BRANCH  15  18
ATOM     18  O   UNL     1     -15.102  10.101   1.226  1.00  0.00    -0.504 OA
ATOM     19  H   UNL     1     -15.823  10.782   1.020  1.00  0.00     0.293 HD
ENDBRANCH  15  18
BRANCH  17  20
ATOM     20  O   UNL     1     -15.425   8.990   3.755  1.00  0.00    -0.504 OA
ATOM     21  H   UNL     1     -15.366   8.152   4.323  1.00  0.00     0.293 HD
ENDBRANCH  17  20
ENDBRANCH   1  12
BRANCH   6  22
ATOM     22  O   UNL     1      -8.092  12.458   9.155  1.00  0.00    -0.507 OA
ATOM     23  H   UNL     1      -8.930  12.878   9.528  1.00  0.00     0.293 HD
ENDBRANCH   6  22
BRANCH   8  24
ATOM     24  O   UNL     1      -5.308  10.109   6.026  1.00  0.00    -0.508 OA
ATOM     25  H   UNL     1      -5.122   9.742   5.100  1.00  0.00     0.293 HD
ENDBRANCH   8  24
TORSDOF 5
ENDMDL
