MODEL 1
REMARK VINA RESULT:    -4.546      0.000      0.000
REMARK INTER + INTRA:          -6.229
REMARK INTER:                  -5.874
REMARK INTRA:                  -0.355
REMARK UNBOUND:                -0.355
REMARK SMILES C=CC(=O)CCCCC
REMARK SMILES IDX 6 1 7 2 8 3 9 4 5 5 3 6 4 7 2 8 1 9
REMARK H PARENT
REMARK Flexibility Score: inf
ROOT
ATOM      1  C   UNL     1       6.558  31.355  27.975  1.00  0.00     0.008 C 
ENDROOT
BRANCH   1   2
ATOM      2  C   UNL     1       6.467  30.207  28.991  1.00  0.00     0.000 C 
BRANCH   2   3
ATOM      3  C   UNL     1       7.433  29.056  28.669  1.00  0.00    -0.003 C 
ATOM      4  C   UNL     1       6.739  27.875  27.990  1.00  0.00     0.004 C 
ENDBRANCH   2   3
ENDBRANCH   1   2
BRANCH   1   5
ATOM      5  C   UNL     1       6.860  32.684  28.675  1.00  0.00     0.080 C 
BRANCH   5   6
ATOM      6  C   UNL     1       8.289  33.084  28.453  1.00  0.00     0.155 C 
ATOM      7  O   UNL     1       8.728  34.134  28.996  1.00  0.00    -0.295 OA
BRANCH   6   8
ATOM      8  C   UNL     1       9.153  32.277  27.568  1.00  0.00     0.039 C 
ATOM      9  C   UNL     1      10.125  31.498  28.037  1.00  0.00     0.012 C 
ENDBRANCH   6   8
ENDBRANCH   5   6
ENDBRANCH   1   5
TORSDOF 5
ENDMDL
MODEL 2
REMARK VINA RESULT:    -4.478     16.455     17.399
REMARK INTER + INTRA:          -6.142
REMARK INTER:                  -5.757
REMARK INTRA:                  -0.385
REMARK UNBOUND:                -0.355
REMARK SMILES C=CC(=O)CCCCC
REMARK SMILES IDX 6 1 7 2 8 3 9 4 5 5 3 6 4 7 2 8 1 9
REMARK H PARENT
REMARK Flexibility Score: inf
ROOT
ATOM      1  C   UNL     1      -7.435  31.331  23.448  1.00  0.00     0.008 C 
ENDROOT
BRANCH   1   2
ATOM      2  C   UNL     1      -7.153  29.856  23.125  1.00  0.00     0.000 C 
BRANCH   2   3
ATOM      3  C   UNL     1      -8.341  28.941  23.457  1.00  0.00    -0.003 C 
ATOM      4  C   UNL     1      -8.594  27.887  22.379  1.00  0.00     0.004 C 
ENDBRANCH   2   3
ENDBRANCH   1   2
BRANCH   1   5
ATOM      5  C   UNL     1      -8.871  31.710  23.074  1.00  0.00     0.080 C 
BRANCH   5   6
ATOM      6  C   UNL     1      -8.946  32.141  21.639  1.00  0.00     0.155 C 
ATOM      7  O   UNL     1      -9.698  31.515  20.844  1.00  0.00    -0.295 OA
BRANCH   6   8
ATOM      8  C   UNL     1      -8.110  33.259  21.159  1.00  0.00     0.039 C 
ATOM      9  C   UNL     1      -7.287  33.140  20.119  1.00  0.00     0.012 C 
ENDBRANCH   6   8
ENDBRANCH   5   6
ENDBRANCH   1   5
TORSDOF 5
ENDMDL
MODEL 3
REMARK VINA RESULT:    -4.424     16.186     17.081
REMARK INTER + INTRA:          -6.072
REMARK INTER:                  -5.760
REMARK INTRA:                  -0.312
REMARK UNBOUND:                -0.355
REMARK SMILES C=CC(=O)CCCCC
REMARK SMILES IDX 6 1 7 2 8 3 9 4 5 5 3 6 4 7 2 8 1 9
REMARK H PARENT
REMARK Flexibility Score: inf
ROOT
ATOM      1  C   UNL     1      -8.569  31.115  21.730  1.00  0.00     0.008 C 
ENDROOT
BRANCH   1   2
ATOM      2  C   UNL     1      -7.523  30.998  22.848  1.00  0.00     0.000 C 
BRANCH   2   3
ATOM      3  C   UNL     1      -7.087  29.547  23.101  1.00  0.00    -0.003 C 
ATOM      4  C   UNL     1      -8.169  28.532  22.730  1.00  0.00     0.004 C 
ENDBRANCH   2   3
ENDBRANCH   1   2
BRANCH   1   5
ATOM      5  C   UNL     1      -9.073  32.555  21.599  1.00  0.00     0.080 C 
BRANCH   5   6
ATOM      6  C   UNL     1      -7.977  33.456  21.110  1.00  0.00     0.155 C 
ATOM      7  O   UNL     1      -7.306  33.118  20.097  1.00  0.00    -0.295 OA
BRANCH   6   8
ATOM      8  C   UNL     1      -7.662  34.700  21.840  1.00  0.00     0.039 C 
ATOM      9  C   UNL     1      -7.647  34.763  23.169  1.00  0.00     0.012 C 
ENDBRANCH   6   8
ENDBRANCH   5   6
ENDBRANCH   1   5
TORSDOF 5
ENDMDL
MODEL 4
REMARK VINA RESULT:    -4.375     16.509     17.584
REMARK INTER + INTRA:          -6.008
REMARK INTER:                  -5.674
REMARK INTRA:                  -0.334
REMARK UNBOUND:                -0.355
REMARK SMILES C=CC(=O)CCCCC
REMARK SMILES IDX 6 1 7 2 8 3 9 4 5 5 3 6 4 7 2 8 1 9
REMARK H PARENT
REMARK Flexibility Score: inf
ROOT
ATOM      1  C   UNL     1      -9.399  31.822  22.770  1.00  0.00     0.008 C 
ENDROOT
BRANCH   1   2
ATOM      2  C   UNL     1      -9.309  32.741  21.543  1.00  0.00     0.000 C 
BRANCH   2   3
ATOM      3  C   UNL     1      -7.959  33.467  21.445  1.00  0.00    -0.003 C 
ATOM      4  C   UNL     1      -7.274  33.260  20.094  1.00  0.00     0.004 C 
ENDBRANCH   2   3
ENDBRANCH   1   2
BRANCH   1   5
ATOM      5  C   UNL     1      -8.003  31.451  23.281  1.00  0.00     0.080 C 
BRANCH   5   6
ATOM      6  C   UNL     1      -7.660  30.041  22.900  1.00  0.00     0.155 C 
ATOM      7  O   UNL     1      -6.492  29.612  23.108  1.00  0.00    -0.295 OA
BRANCH   6   8
ATOM      8  C   UNL     1      -8.670  29.185  22.247  1.00  0.00     0.039 C 
ATOM      9  C   UNL     1      -8.973  27.969  22.696  1.00  0.00     0.012 C 
ENDBRANCH   6   8
ENDBRANCH   5   6
ENDBRANCH   1   5
TORSDOF 5
ENDMDL
MODEL 5
REMARK VINA RESULT:    -4.288     16.199     17.475
REMARK INTER + INTRA:          -5.896
REMARK INTER:                  -5.411
REMARK INTRA:                  -0.485
REMARK UNBOUND:                -0.355
REMARK SMILES C=CC(=O)CCCCC
REMARK SMILES IDX 6 1 7 2 8 3 9 4 5 5 3 6 4 7 2 8 1 9
REMARK H PARENT
REMARK Flexibility Score: inf
ROOT
ATOM      1  C   UNL     1      -9.239  32.625  21.421  1.00  0.00     0.008 C 
ENDROOT
BRANCH   1   2
ATOM      2  C   UNL     1      -7.906  33.365  21.234  1.00  0.00     0.000 C 
BRANCH   2   3
ATOM      3  C   UNL     1      -7.860  34.701  21.990  1.00  0.00    -0.003 C 
ATOM      4  C   UNL     1      -7.506  34.532  23.468  1.00  0.00     0.004 C 
ENDBRANCH   2   3
ENDBRANCH   1   2
BRANCH   1   5
ATOM      5  C   UNL     1      -9.005  31.175  21.857  1.00  0.00     0.080 C 
BRANCH   5   6
ATOM      6  C   UNL     1      -8.800  31.097  23.341  1.00  0.00     0.155 C 
ATOM      7  O   UNL     1      -9.647  31.627  24.111  1.00  0.00    -0.295 OA
BRANCH   6   8
ATOM      8  C   UNL     1      -7.593  30.445  23.887  1.00  0.00     0.039 C 
ATOM      9  C   UNL     1      -6.751  29.750  23.125  1.00  0.00     0.012 C 
ENDBRANCH   6   8
ENDBRANCH   5   6
ENDBRANCH   1   5
TORSDOF 5
ENDMDL
MODEL 6
REMARK VINA RESULT:    -4.236     16.220     17.288
REMARK INTER + INTRA:          -5.829
REMARK INTER:                  -5.371
REMARK INTRA:                  -0.458
REMARK UNBOUND:                -0.355
REMARK SMILES C=CC(=O)CCCCC
REMARK SMILES IDX 6 1 7 2 8 3 9 4 5 5 3 6 4 7 2 8 1 9
REMARK H PARENT
REMARK Flexibility Score: inf
ROOT
ATOM      1  C   UNL     1      -7.671  34.863  22.140  1.00  0.00     0.008 C 
ENDROOT
BRANCH   1   2
ATOM      2  C   UNL     1      -7.189  34.619  23.578  1.00  0.00     0.000 C 
BRANCH   2   3
ATOM      3  C   UNL     1      -8.349  34.473  24.574  1.00  0.00    -0.003 C 
ATOM      4  C   UNL     1      -8.886  35.821  25.055  1.00  0.00     0.004 C 
ENDBRANCH   2   3
ENDBRANCH   1   2
BRANCH   1   5
ATOM      5  C   UNL     1      -8.646  33.768  21.695  1.00  0.00     0.080 C 
BRANCH   5   6
ATOM      6  C   UNL     1      -7.898  32.547  21.247  1.00  0.00     0.155 C 
ATOM      7  O   UNL     1      -7.124  32.626  20.254  1.00  0.00    -0.295 OA
BRANCH   6   8
ATOM      8  C   UNL     1      -8.106  31.258  21.937  1.00  0.00     0.039 C 
ATOM      9  C   UNL     1      -7.257  30.793  22.852  1.00  0.00     0.012 C 
ENDBRANCH   6   8
ENDBRANCH   5   6
ENDBRANCH   1   5
TORSDOF 5
ENDMDL
MODEL 7
REMARK VINA RESULT:    -4.194     15.892     16.787
REMARK INTER + INTRA:          -5.774
REMARK INTER:                  -5.311
REMARK INTRA:                  -0.464
REMARK UNBOUND:                -0.355
REMARK SMILES C=CC(=O)CCCCC
REMARK SMILES IDX 6 1 7 2 8 3 9 4 5 5 3 6 4 7 2 8 1 9
REMARK H PARENT
REMARK Flexibility Score: inf
ROOT
ATOM      1  C   UNL     1      -7.615  34.134  23.619  1.00  0.00     0.008 C 
ENDROOT
BRANCH   1   2
ATOM      2  C   UNL     1      -7.679  34.630  22.167  1.00  0.00     0.000 C 
BRANCH   2   3
ATOM      3  C   UNL     1      -8.212  33.562  21.200  1.00  0.00    -0.003 C 
ATOM      4  C   UNL     1      -7.211  33.207  20.101  1.00  0.00     0.004 C 
ENDBRANCH   2   3
ENDBRANCH   1   2
BRANCH   1   5
ATOM      5  C   UNL     1      -8.536  32.928  23.827  1.00  0.00     0.080 C 
BRANCH   5   6
ATOM      6  C   UNL     1      -7.926  31.960  24.797  1.00  0.00     0.155 C 
ATOM      7  O   UNL     1      -7.846  32.274  26.016  1.00  0.00    -0.295 OA
BRANCH   6   8
ATOM      8  C   UNL     1      -7.383  30.674  24.316  1.00  0.00     0.039 C 
ATOM      9  C   UNL     1      -7.143  30.438  23.027  1.00  0.00     0.012 C 
ENDBRANCH   6   8
ENDBRANCH   5   6
ENDBRANCH   1   5
TORSDOF 5
ENDMDL
MODEL 8
REMARK VINA RESULT:    -4.149     16.853     17.706
REMARK INTER + INTRA:          -5.717
REMARK INTER:                  -5.347
REMARK INTRA:                  -0.370
REMARK UNBOUND:                -0.355
REMARK SMILES C=CC(=O)CCCCC
REMARK SMILES IDX 6 1 7 2 8 3 9 4 5 5 3 6 4 7 2 8 1 9
REMARK H PARENT
REMARK Flexibility Score: inf
ROOT
ATOM      1  C   UNL     1      -7.995  32.630  23.957  1.00  0.00     0.008 C 
ENDROOT
BRANCH   1   2
ATOM      2  C   UNL     1      -8.121  33.545  25.184  1.00  0.00     0.000 C 
BRANCH   2   3
ATOM      3  C   UNL     1      -7.776  35.008  24.868  1.00  0.00    -0.003 C 
ATOM      4  C   UNL     1      -8.989  35.934  24.963  1.00  0.00     0.004 C 
ENDBRANCH   2   3
ENDBRANCH   1   2
BRANCH   1   5
ATOM      5  C   UNL     1      -9.301  32.601  23.157  1.00  0.00     0.080 C 
BRANCH   5   6
ATOM      6  C   UNL     1      -9.023  32.705  21.687  1.00  0.00     0.155 C 
ATOM      7  O   UNL     1      -9.635  31.947  20.887  1.00  0.00    -0.295 OA
BRANCH   6   8
ATOM      8  C   UNL     1      -8.006  33.655  21.193  1.00  0.00     0.039 C 
ATOM      9  C   UNL     1      -7.263  33.409  20.116  1.00  0.00     0.012 C 
ENDBRANCH   6   8
ENDBRANCH   5   6
ENDBRANCH   1   5
TORSDOF 5
ENDMDL
MODEL 9
REMARK VINA RESULT:    -4.063     16.529     17.095
REMARK INTER + INTRA:          -5.605
REMARK INTER:                  -5.447
REMARK INTRA:                  -0.158
REMARK UNBOUND:                -0.355
REMARK SMILES C=CC(=O)CCCCC
REMARK SMILES IDX 6 1 7 2 8 3 9 4 5 5 3 6 4 7 2 8 1 9
REMARK H PARENT
REMARK Flexibility Score: inf
ROOT
ATOM      1  C   UNL     1      -7.720  30.169  22.593  1.00  0.00     0.008 C 
ENDROOT
BRANCH   1   2
ATOM      2  C   UNL     1      -8.778  29.258  21.954  1.00  0.00     0.000 C 
BRANCH   2   3
ATOM      3  C   UNL     1      -8.988  27.955  22.740  1.00  0.00    -0.003 C 
ATOM      4  C   UNL     1      -9.545  28.194  24.143  1.00  0.00     0.004 C 
ENDBRANCH   2   3
ENDBRANCH   1   2
BRANCH   1   5
ATOM      5  C   UNL     1      -7.865  31.611  22.096  1.00  0.00     0.080 C 
BRANCH   5   6
ATOM      6  C   UNL     1      -7.788  32.575  23.243  1.00  0.00     0.155 C 
ATOM      7  O   UNL     1      -7.716  32.129  24.420  1.00  0.00    -0.295 OA
BRANCH   6   8
ATOM      8  C   UNL     1      -7.844  34.028  22.992  1.00  0.00     0.039 C 
ATOM      9  C   UNL     1      -7.845  34.541  21.763  1.00  0.00     0.012 C 
ENDBRANCH   6   8
ENDBRANCH   5   6
ENDBRANCH   1   5
TORSDOF 5
ENDMDL
