MODEL 1
REMARK VINA RESULT:    -6.169      0.000      0.000
REMARK INTER + INTRA:         -10.258
REMARK INTER:                  -8.514
REMARK INTRA:                  -1.744
REMARK UNBOUND:                -1.744
REMARK SMILES CC[C@H](CC[C@@H](C)[C@@H]1CC[C@H]2[C@H]3CC=C4C[C@@H](O)CC[C@]4(C)[C@H]3CC[C@]21C)C(C)C
REMARK SMILES IDX 5 1 4 2 3 3 2 4 1 5 28 6 29 7 30 8 6 9 7 10 8 11 9 12 26 13
REMARK SMILES IDX 10 14 11 15 25 16 27 17 12 18 24 19 23 20 13 21 21 22 14 23
REMARK SMILES IDX 15 24 20 25 22 26 16 27 19 28 17 29 18 30
REMARK H PARENT 18 31
REMARK Flexibility Score: inf
ROOT
ATOM      1  C   UNL     1       4.211 -15.181 -37.983  1.00  0.00     0.004 C 
ENDROOT
BRANCH   1   2
ATOM      2  C   UNL     1       5.074 -14.891 -36.737  1.00  0.00     0.004 C 
BRANCH   2   3
ATOM      3  C   UNL     1       4.275 -15.036 -35.402  1.00  0.00    -0.009 C 
BRANCH   3   4
ATOM      4  C   UNL     1       2.944 -15.804 -35.660  1.00  0.00     0.000 C 
ATOM      5  C   UNL     1       1.687 -14.933 -35.537  1.00  0.00     0.004 C 
ENDBRANCH   3   4
BRANCH   3   6
ATOM      6  C   UNL     1       5.123 -15.665 -34.240  1.00  0.00    -0.014 C 
ATOM      7  C   UNL     1       4.907 -17.186 -34.135  1.00  0.00     0.007 C 
ATOM      8  C   UNL     1       4.802 -15.028 -32.877  1.00  0.00     0.007 C 
ENDBRANCH   3   6
ENDBRANCH   2   3
ENDBRANCH   1   2
BRANCH   1   9
ATOM      9  C   UNL     1       4.850 -16.131 -39.035  1.00  0.00    -0.011 C 
ATOM     10  C   UNL     1       4.948 -15.470 -40.424  1.00  0.00     0.008 C 
BRANCH   9  11
ATOM     11  C   UNL     1       6.172 -16.830 -38.523  1.00  0.00    -0.002 C 
ATOM     12  C   UNL     1       7.296 -16.901 -39.572  1.00  0.00     0.005 C 
ATOM     13  C   UNL     1       6.067 -18.303 -37.951  1.00  0.00    -0.026 C 
ATOM     14  C   UNL     1       7.264 -18.302 -40.144  1.00  0.00     0.005 C 
ATOM     15  C   UNL     1       6.771 -19.215 -39.016  1.00  0.00    -0.001 C 
ATOM     16  C   UNL     1       6.803 -18.350 -36.578  1.00  0.00     0.007 C 
ATOM     17  C   UNL     1       4.609 -18.792 -37.710  1.00  0.00     0.012 C 
ATOM     18  C   UNL     1       7.843 -20.218 -38.466  1.00  0.00     0.000 C 
ATOM     19  C   UNL     1       7.150 -19.760 -36.057  1.00  0.00     0.005 C 
ATOM     20  C   UNL     1       7.342 -20.856 -37.150  1.00  0.00     0.003 C 
ATOM     21  C   UNL     1       9.282 -19.678 -38.268  1.00  0.00     0.031 C 
ATOM     22  C   UNL     1       8.259 -22.060 -36.690  1.00  0.00    -0.008 C 
ATOM     23  C   UNL     1      10.184 -20.707 -37.641  1.00  0.00    -0.027 C 
ATOM     24  C   UNL     1       9.746 -21.755 -36.901  1.00  0.00    -0.065 C 
ATOM     25  C   UNL     1       7.927 -23.332 -37.539  1.00  0.00     0.014 C 
ATOM     26  C   UNL     1       7.986 -22.394 -35.194  1.00  0.00     0.016 C 
ATOM     27  C   UNL     1      10.720 -22.867 -36.581  1.00  0.00     0.063 C 
ATOM     28  C   UNL     1       8.904 -24.510 -37.314  1.00  0.00     0.033 C 
ATOM     29  C   UNL     1      10.382 -24.083 -37.462  1.00  0.00     0.118 C 
BRANCH  29  30
ATOM     30  O   UNL     1      11.241 -25.157 -37.177  1.00  0.00    -0.393 OA
ATOM     31  H   UNL     1      12.148 -24.909 -37.494  1.00  0.00     0.210 HD
ENDBRANCH  29  30
ENDBRANCH   9  11
ENDBRANCH   1   9
TORSDOF 7
ENDMDL
MODEL 2
REMARK VINA RESULT:    -6.112      3.109      8.274
REMARK INTER + INTRA:         -10.178
REMARK INTER:                  -8.387
REMARK INTRA:                  -1.791
REMARK UNBOUND:                -1.744
REMARK SMILES CC[C@H](CC[C@@H](C)[C@@H]1CC[C@H]2[C@H]3CC=C4C[C@@H](O)CC[C@]4(C)[C@H]3CC[C@]21C)C(C)C
REMARK SMILES IDX 5 1 4 2 3 3 2 4 1 5 28 6 29 7 30 8 6 9 7 10 8 11 9 12 26 13
REMARK SMILES IDX 10 14 11 15 25 16 27 17 12 18 24 19 23 20 13 21 21 22 14 23
REMARK SMILES IDX 15 24 20 25 22 26 16 27 19 28 17 29 18 30
REMARK H PARENT 18 31
REMARK Flexibility Score: inf
ROOT
ATOM      1  C   UNL     1      11.685 -23.348 -37.775  1.00  0.00     0.004 C 
ENDROOT
BRANCH   1   2
ATOM      2  C   UNL     1      12.350 -22.130 -38.450  1.00  0.00     0.004 C 
BRANCH   2   3
ATOM      3  C   UNL     1      13.050 -21.180 -37.426  1.00  0.00    -0.009 C 
BRANCH   3   4
ATOM      4  C   UNL     1      14.584 -21.452 -37.410  1.00  0.00     0.000 C 
ATOM      5  C   UNL     1      15.191 -21.685 -38.799  1.00  0.00     0.004 C 
ENDBRANCH   3   4
BRANCH   3   6
ATOM      6  C   UNL     1      12.704 -19.665 -37.653  1.00  0.00    -0.014 C 
ATOM      7  C   UNL     1      11.674 -19.155 -36.628  1.00  0.00     0.007 C 
ATOM      8  C   UNL     1      12.160 -19.400 -39.068  1.00  0.00     0.007 C 
ENDBRANCH   3   6
ENDBRANCH   2   3
ENDBRANCH   1   2
BRANCH   1   9
ATOM      9  C   UNL     1      10.131 -23.327 -37.733  1.00  0.00    -0.011 C 
ATOM     10  C   UNL     1       9.557 -24.560 -37.009  1.00  0.00     0.008 C 
BRANCH   9  11
ATOM     11  C   UNL     1       9.538 -21.935 -37.275  1.00  0.00    -0.002 C 
ATOM     12  C   UNL     1       9.172 -21.864 -35.783  1.00  0.00     0.005 C 
ATOM     13  C   UNL     1       8.258 -21.383 -38.027  1.00  0.00    -0.026 C 
ATOM     14  C   UNL     1       7.675 -22.069 -35.695  1.00  0.00     0.005 C 
ATOM     15  C   UNL     1       7.088 -21.489 -36.986  1.00  0.00    -0.001 C 
ATOM     16  C   UNL     1       8.528 -19.905 -38.438  1.00  0.00     0.007 C 
ATOM     17  C   UNL     1       7.891 -22.163 -39.323  1.00  0.00     0.012 C 
ATOM     18  C   UNL     1       6.218 -20.199 -36.792  1.00  0.00     0.000 C 
ATOM     19  C   UNL     1       7.281 -19.081 -38.820  1.00  0.00     0.005 C 
ATOM     20  C   UNL     1       5.942 -19.537 -38.162  1.00  0.00     0.003 C 
ATOM     21  C   UNL     1       6.742 -19.135 -35.795  1.00  0.00     0.031 C 
ATOM     22  C   UNL     1       4.861 -18.388 -38.057  1.00  0.00    -0.008 C 
ATOM     23  C   UNL     1       5.872 -17.907 -35.779  1.00  0.00    -0.027 C 
ATOM     24  C   UNL     1       5.055 -17.537 -36.796  1.00  0.00    -0.065 C 
ATOM     25  C   UNL     1       3.429 -19.014 -37.971  1.00  0.00     0.014 C 
ATOM     26  C   UNL     1       4.917 -17.487 -39.326  1.00  0.00     0.016 C 
ATOM     27  C   UNL     1       4.026 -16.459 -36.538  1.00  0.00     0.063 C 
ATOM     28  C   UNL     1       2.313 -17.990 -37.659  1.00  0.00     0.033 C 
ATOM     29  C   UNL     1       2.641 -17.122 -36.424  1.00  0.00     0.118 C 
BRANCH  29  30
ATOM     30  O   UNL     1       1.644 -16.155 -36.217  1.00  0.00    -0.393 OA
ATOM     31  H   UNL     1       0.884 -16.600 -35.758  1.00  0.00     0.210 HD
ENDBRANCH  29  30
ENDBRANCH   9  11
ENDBRANCH   1   9
TORSDOF 7
ENDMDL
MODEL 3
REMARK VINA RESULT:    -6.075      2.673      4.409
REMARK INTER + INTRA:         -10.127
REMARK INTER:                  -8.478
REMARK INTRA:                  -1.650
REMARK UNBOUND:                -1.744
REMARK SMILES CC[C@H](CC[C@@H](C)[C@@H]1CC[C@H]2[C@H]3CC=C4C[C@@H](O)CC[C@]4(C)[C@H]3CC[C@]21C)C(C)C
REMARK SMILES IDX 5 1 4 2 3 3 2 4 1 5 28 6 29 7 30 8 6 9 7 10 8 11 9 12 26 13
REMARK SMILES IDX 10 14 11 15 25 16 27 17 12 18 24 19 23 20 13 21 21 22 14 23
REMARK SMILES IDX 15 24 20 25 22 26 16 27 19 28 17 29 18 30
REMARK H PARENT 18 31
REMARK Flexibility Score: inf
ROOT
ATOM      1  C   UNL     1       5.257 -18.760 -36.828  1.00  0.00     0.004 C 
ENDROOT
BRANCH   1   2
ATOM      2  C   UNL     1       5.966 -17.873 -35.783  1.00  0.00     0.004 C 
BRANCH   2   3
ATOM      3  C   UNL     1       6.416 -16.495 -36.366  1.00  0.00    -0.009 C 
BRANCH   3   4
ATOM      4  C   UNL     1       6.093 -16.431 -37.889  1.00  0.00     0.000 C 
ATOM      5  C   UNL     1       7.333 -16.374 -38.789  1.00  0.00     0.004 C 
ENDBRANCH   3   4
BRANCH   3   6
ATOM      6  C   UNL     1       5.841 -15.270 -35.571  1.00  0.00    -0.014 C 
ATOM      7  C   UNL     1       5.343 -15.680 -34.172  1.00  0.00     0.007 C 
ATOM      8  C   UNL     1       4.685 -14.584 -36.320  1.00  0.00     0.007 C 
ENDBRANCH   3   6
ENDBRANCH   2   3
ENDBRANCH   1   2
BRANCH   1   9
ATOM      9  C   UNL     1       5.959 -20.109 -37.150  1.00  0.00    -0.011 C 
ATOM     10  C   UNL     1       4.966 -21.167 -37.669  1.00  0.00     0.008 C 
BRANCH   9  11
ATOM     11  C   UNL     1       7.276 -19.938 -38.007  1.00  0.00    -0.002 C 
ATOM     12  C   UNL     1       7.227 -20.621 -39.384  1.00  0.00     0.005 C 
ATOM     13  C   UNL     1       8.648 -20.413 -37.374  1.00  0.00    -0.026 C 
ATOM     14  C   UNL     1       7.977 -21.929 -39.244  1.00  0.00     0.005 C 
ATOM     15  C   UNL     1       9.061 -21.690 -38.188  1.00  0.00    -0.001 C 
ATOM     16  C   UNL     1       9.689 -19.266 -37.539  1.00  0.00     0.007 C 
ATOM     17  C   UNL     1       8.570 -20.750 -35.857  1.00  0.00     0.012 C 
ATOM     18  C   UNL     1      10.530 -21.714 -38.737  1.00  0.00     0.000 C 
ATOM     19  C   UNL     1      11.165 -19.673 -37.350  1.00  0.00     0.005 C 
ATOM     20  C   UNL     1      11.501 -21.162 -37.667  1.00  0.00     0.003 C 
ATOM     21  C   UNL     1      10.792 -21.009 -40.091  1.00  0.00     0.031 C 
ATOM     22  C   UNL     1      13.014 -21.403 -38.062  1.00  0.00    -0.008 C 
ATOM     23  C   UNL     1      12.253 -21.015 -40.452  1.00  0.00    -0.027 C 
ATOM     24  C   UNL     1      13.260 -21.151 -39.554  1.00  0.00    -0.065 C 
ATOM     25  C   UNL     1      13.404 -22.892 -37.778  1.00  0.00     0.014 C 
ATOM     26  C   UNL     1      13.939 -20.490 -37.204  1.00  0.00     0.016 C 
ATOM     27  C   UNL     1      14.652 -21.435 -40.071  1.00  0.00     0.063 C 
ATOM     28  C   UNL     1      14.799 -23.290 -38.318  1.00  0.00     0.033 C 
ATOM     29  C   UNL     1      14.980 -22.916 -39.806  1.00  0.00     0.118 C 
BRANCH  29  30
ATOM     30  O   UNL     1      16.281 -23.221 -40.239  1.00  0.00    -0.393 OA
ATOM     31  H   UNL     1      16.244 -23.367 -41.221  1.00  0.00     0.210 HD
ENDBRANCH  29  30
ENDBRANCH   9  11
ENDBRANCH   1   9
TORSDOF 7
ENDMDL
MODEL 4
REMARK VINA RESULT:    -6.052      1.862      2.476
REMARK INTER + INTRA:         -10.095
REMARK INTER:                  -8.594
REMARK INTRA:                  -1.501
REMARK UNBOUND:                -1.744
REMARK SMILES CC[C@H](CC[C@@H](C)[C@@H]1CC[C@H]2[C@H]3CC=C4C[C@@H](O)CC[C@]4(C)[C@H]3CC[C@]21C)C(C)C
REMARK SMILES IDX 5 1 4 2 3 3 2 4 1 5 28 6 29 7 30 8 6 9 7 10 8 11 9 12 26 13
REMARK SMILES IDX 10 14 11 15 25 16 27 17 12 18 24 19 23 20 13 21 21 22 14 23
REMARK SMILES IDX 15 24 20 25 22 26 16 27 19 28 17 29 18 30
REMARK H PARENT 18 31
REMARK Flexibility Score: inf
ROOT
ATOM      1  C   UNL     1       3.845 -17.276 -36.755  1.00  0.00     0.004 C 
ENDROOT
BRANCH   1   2
ATOM      2  C   UNL     1       4.457 -17.328 -35.339  1.00  0.00     0.004 C 
BRANCH   2   3
ATOM      3  C   UNL     1       4.764 -15.909 -34.762  1.00  0.00    -0.009 C 
BRANCH   3   4
ATOM      4  C   UNL     1       3.572 -14.948 -35.050  1.00  0.00     0.000 C 
ATOM      5  C   UNL     1       3.921 -13.784 -35.985  1.00  0.00     0.004 C 
ENDBRANCH   3   4
BRANCH   3   6
ATOM      6  C   UNL     1       5.171 -15.935 -33.246  1.00  0.00    -0.014 C 
ATOM      7  C   UNL     1       4.978 -17.332 -32.627  1.00  0.00     0.007 C 
ATOM      8  C   UNL     1       4.374 -14.915 -32.414  1.00  0.00     0.007 C 
ENDBRANCH   3   6
ENDBRANCH   2   3
ENDBRANCH   1   2
BRANCH   1   9
ATOM      9  C   UNL     1       4.855 -17.420 -37.928  1.00  0.00    -0.011 C 
ATOM     10  C   UNL     1       4.680 -16.308 -38.980  1.00  0.00     0.008 C 
BRANCH   9  11
ATOM     11  C   UNL     1       6.340 -17.669 -37.447  1.00  0.00    -0.002 C 
ATOM     12  C   UNL     1       7.359 -16.652 -37.989  1.00  0.00     0.005 C 
ATOM     13  C   UNL     1       6.994 -19.082 -37.735  1.00  0.00    -0.026 C 
ATOM     14  C   UNL     1       8.058 -17.321 -39.153  1.00  0.00     0.005 C 
ATOM     15  C   UNL     1       8.083 -18.820 -38.833  1.00  0.00    -0.001 C 
ATOM     16  C   UNL     1       7.627 -19.610 -36.413  1.00  0.00     0.007 C 
ATOM     17  C   UNL     1       5.988 -20.163 -38.228  1.00  0.00     0.012 C 
ATOM     18  C   UNL     1       9.508 -19.407 -38.547  1.00  0.00     0.000 C 
ATOM     19  C   UNL     1       8.639 -20.764 -36.573  1.00  0.00     0.005 C 
ATOM     20  C   UNL     1       9.383 -20.825 -37.942  1.00  0.00     0.003 C 
ATOM     21  C   UNL     1      10.465 -18.553 -37.677  1.00  0.00     0.031 C 
ATOM     22  C   UNL     1      10.779 -21.565 -37.875  1.00  0.00    -0.008 C 
ATOM     23  C   UNL     1      11.755 -19.273 -37.392  1.00  0.00    -0.027 C 
ATOM     24  C   UNL     1      11.904 -20.620 -37.438  1.00  0.00    -0.065 C 
ATOM     25  C   UNL     1      11.160 -22.106 -39.293  1.00  0.00     0.014 C 
ATOM     26  C   UNL     1      10.691 -22.779 -36.904  1.00  0.00     0.016 C 
ATOM     27  C   UNL     1      13.304 -21.190 -37.423  1.00  0.00     0.063 C 
ATOM     28  C   UNL     1      12.598 -22.667 -39.387  1.00  0.00     0.033 C 
ATOM     29  C   UNL     1      13.651 -21.676 -38.842  1.00  0.00     0.118 C 
BRANCH  29  30
ATOM     30  O   UNL     1      14.934 -22.247 -38.872  1.00  0.00    -0.393 OA
ATOM     31  H   UNL     1      14.842 -23.203 -38.618  1.00  0.00     0.210 HD
ENDBRANCH  29  30
ENDBRANCH   9  11
ENDBRANCH   1   9
TORSDOF 7
ENDMDL
MODEL 5
REMARK VINA RESULT:    -6.048      1.701      2.301
REMARK INTER + INTRA:         -10.090
REMARK INTER:                  -8.265
REMARK INTRA:                  -1.824
REMARK UNBOUND:                -1.744
REMARK SMILES CC[C@H](CC[C@@H](C)[C@@H]1CC[C@H]2[C@H]3CC=C4C[C@@H](O)CC[C@]4(C)[C@H]3CC[C@]21C)C(C)C
REMARK SMILES IDX 5 1 4 2 3 3 2 4 1 5 28 6 29 7 30 8 6 9 7 10 8 11 9 12 26 13
REMARK SMILES IDX 10 14 11 15 25 16 27 17 12 18 24 19 23 20 13 21 21 22 14 23
REMARK SMILES IDX 15 24 20 25 22 26 16 27 19 28 17 29 18 30
REMARK H PARENT 18 31
REMARK Flexibility Score: inf
ROOT
ATOM      1  C   UNL     1       2.573 -17.629 -37.362  1.00  0.00     0.004 C 
ENDROOT
BRANCH   1   2
ATOM      2  C   UNL     1       3.193 -17.176 -36.023  1.00  0.00     0.004 C 
BRANCH   2   3
ATOM      3  C   UNL     1       3.696 -15.698 -36.060  1.00  0.00    -0.009 C 
BRANCH   3   4
ATOM      4  C   UNL     1       2.511 -14.726 -35.777  1.00  0.00     0.000 C 
ATOM      5  C   UNL     1       2.582 -14.036 -34.409  1.00  0.00     0.004 C 
ENDBRANCH   3   4
BRANCH   3   6
ATOM      6  C   UNL     1       4.928 -15.442 -35.122  1.00  0.00    -0.014 C 
ATOM      7  C   UNL     1       6.214 -15.180 -35.928  1.00  0.00     0.007 C 
ATOM      8  C   UNL     1       5.182 -16.618 -34.163  1.00  0.00     0.007 C 
ENDBRANCH   3   6
ENDBRANCH   2   3
ENDBRANCH   1   2
BRANCH   1   9
ATOM      9  C   UNL     1       3.578 -18.170 -38.417  1.00  0.00    -0.011 C 
ATOM     10  C   UNL     1       3.238 -17.681 -39.839  1.00  0.00     0.008 C 
BRANCH   9  11
ATOM     11  C   UNL     1       5.089 -18.000 -37.985  1.00  0.00    -0.002 C 
ATOM     12  C   UNL     1       5.935 -17.165 -38.962  1.00  0.00     0.005 C 
ATOM     13  C   UNL     1       5.946 -19.307 -37.731  1.00  0.00    -0.026 C 
ATOM     14  C   UNL     1       6.714 -18.149 -39.808  1.00  0.00     0.005 C 
ATOM     15  C   UNL     1       6.970 -19.370 -38.918  1.00  0.00    -0.001 C 
ATOM     16  C   UNL     1       6.668 -19.161 -36.358  1.00  0.00     0.007 C 
ATOM     17  C   UNL     1       5.110 -20.619 -37.676  1.00  0.00     0.012 C 
ATOM     18  C   UNL     1       8.471 -19.593 -38.525  1.00  0.00     0.000 C 
ATOM     19  C   UNL     1       7.841 -20.133 -36.115  1.00  0.00     0.005 C 
ATOM     20  C   UNL     1       8.569 -20.646 -37.396  1.00  0.00     0.003 C 
ATOM     21  C   UNL     1       9.297 -18.340 -38.141  1.00  0.00     0.031 C 
ATOM     22  C   UNL     1      10.062 -21.100 -37.139  1.00  0.00    -0.008 C 
ATOM     23  C   UNL     1      10.685 -18.702 -37.686  1.00  0.00    -0.027 C 
ATOM     24  C   UNL     1      11.036 -19.918 -37.200  1.00  0.00    -0.065 C 
ATOM     25  C   UNL     1      10.504 -22.115 -38.246  1.00  0.00     0.014 C 
ATOM     26  C   UNL     1      10.171 -21.814 -35.759  1.00  0.00     0.016 C 
ATOM     27  C   UNL     1      12.507 -20.240 -37.059  1.00  0.00     0.063 C 
ATOM     28  C   UNL     1      12.010 -22.467 -38.211  1.00  0.00     0.033 C 
ATOM     29  C   UNL     1      12.906 -21.209 -38.186  1.00  0.00     0.118 C 
BRANCH  29  30
ATOM     30  O   UNL     1      14.260 -21.566 -38.077  1.00  0.00    -0.393 OA
ATOM     31  H   UNL     1      14.630 -21.101 -37.281  1.00  0.00     0.210 HD
ENDBRANCH  29  30
ENDBRANCH   9  11
ENDBRANCH   1   9
TORSDOF 7
ENDMDL
MODEL 6
REMARK VINA RESULT:    -5.899      3.180      8.405
REMARK INTER + INTRA:          -9.884
REMARK INTER:                  -8.015
REMARK INTRA:                  -1.869
REMARK UNBOUND:                -1.744
REMARK SMILES CC[C@H](CC[C@@H](C)[C@@H]1CC[C@H]2[C@H]3CC=C4C[C@@H](O)CC[C@]4(C)[C@H]3CC[C@]21C)C(C)C
REMARK SMILES IDX 5 1 4 2 3 3 2 4 1 5 28 6 29 7 30 8 6 9 7 10 8 11 9 12 26 13
REMARK SMILES IDX 10 14 11 15 25 16 27 17 12 18 24 19 23 20 13 21 21 22 14 23
REMARK SMILES IDX 15 24 20 25 22 26 16 27 19 28 17 29 18 30
REMARK H PARENT 18 31
REMARK Flexibility Score: inf
ROOT
ATOM      1  C   UNL     1      11.464 -23.107 -38.689  1.00  0.00     0.004 C 
ENDROOT
BRANCH   1   2
ATOM      2  C   UNL     1      11.761 -21.674 -39.180  1.00  0.00     0.004 C 
BRANCH   2   3
ATOM      3  C   UNL     1      13.154 -21.150 -38.706  1.00  0.00    -0.009 C 
BRANCH   3   4
ATOM      4  C   UNL     1      12.975 -20.169 -37.509  1.00  0.00     0.000 C 
ATOM      5  C   UNL     1      12.005 -19.014 -37.789  1.00  0.00     0.004 C 
ENDBRANCH   3   4
BRANCH   3   6
ATOM      6  C   UNL     1      14.175 -22.303 -38.398  1.00  0.00    -0.014 C 
ATOM      7  C   UNL     1      15.004 -22.008 -37.133  1.00  0.00     0.007 C 
ATOM      8  C   UNL     1      15.140 -22.552 -39.569  1.00  0.00     0.007 C 
ENDBRANCH   3   6
ENDBRANCH   2   3
ENDBRANCH   1   2
BRANCH   1   9
ATOM      9  C   UNL     1      10.269 -23.244 -37.704  1.00  0.00    -0.011 C 
ATOM     10  C   UNL     1      10.583 -24.214 -36.549  1.00  0.00     0.008 C 
BRANCH   9  11
ATOM     11  C   UNL     1       9.653 -21.853 -37.272  1.00  0.00    -0.002 C 
ATOM     12  C   UNL     1       9.328 -21.745 -35.772  1.00  0.00     0.005 C 
ATOM     13  C   UNL     1       8.339 -21.358 -38.003  1.00  0.00    -0.026 C 
ATOM     14  C   UNL     1       7.840 -21.983 -35.635  1.00  0.00     0.005 C 
ATOM     15  C   UNL     1       7.201 -21.459 -36.926  1.00  0.00    -0.001 C 
ATOM     16  C   UNL     1       8.560 -19.887 -38.467  1.00  0.00     0.007 C 
ATOM     17  C   UNL     1       7.956 -22.187 -39.263  1.00  0.00     0.012 C 
ATOM     18  C   UNL     1       6.305 -20.186 -36.746  1.00  0.00     0.000 C 
ATOM     19  C   UNL     1       7.281 -19.106 -38.838  1.00  0.00     0.005 C 
ATOM     20  C   UNL     1       5.974 -19.575 -38.128  1.00  0.00     0.003 C 
ATOM     21  C   UNL     1       6.829 -19.078 -35.799  1.00  0.00     0.031 C 
ATOM     22  C   UNL     1       4.867 -18.449 -38.026  1.00  0.00    -0.008 C 
ATOM     23  C   UNL     1       5.929 -17.872 -35.795  1.00  0.00    -0.027 C 
ATOM     24  C   UNL     1       5.075 -17.555 -36.799  1.00  0.00    -0.065 C 
ATOM     25  C   UNL     1       3.455 -19.108 -37.880  1.00  0.00     0.014 C 
ATOM     26  C   UNL     1       4.864 -17.588 -39.324  1.00  0.00     0.016 C 
ATOM     27  C   UNL     1       4.026 -16.495 -36.544  1.00  0.00     0.063 C 
ATOM     28  C   UNL     1       2.321 -18.103 -37.567  1.00  0.00     0.033 C 
ATOM     29  C   UNL     1       2.662 -17.188 -36.369  1.00  0.00     0.118 C 
BRANCH  29  30
ATOM     30  O   UNL     1       1.647 -16.240 -36.163  1.00  0.00    -0.393 OA
ATOM     31  H   UNL     1       1.171 -16.117 -37.027  1.00  0.00     0.210 HD
ENDBRANCH  29  30
ENDBRANCH   9  11
ENDBRANCH   1   9
TORSDOF 7
ENDMDL
MODEL 7
REMARK VINA RESULT:    -5.899      9.662     11.946
REMARK INTER + INTRA:          -9.884
REMARK INTER:                  -8.185
REMARK INTRA:                  -1.699
REMARK UNBOUND:                -1.744
REMARK SMILES CC[C@H](CC[C@@H](C)[C@@H]1CC[C@H]2[C@H]3CC=C4C[C@@H](O)CC[C@]4(C)[C@H]3CC[C@]21C)C(C)C
REMARK SMILES IDX 5 1 4 2 3 3 2 4 1 5 28 6 29 7 30 8 6 9 7 10 8 11 9 12 26 13
REMARK SMILES IDX 10 14 11 15 25 16 27 17 12 18 24 19 23 20 13 21 21 22 14 23
REMARK SMILES IDX 15 24 20 25 22 26 16 27 19 28 17 29 18 30
REMARK H PARENT 18 31
REMARK Flexibility Score: inf
ROOT
ATOM      1  C   UNL     1      12.429 -10.657 -44.095  1.00  0.00     0.004 C 
ENDROOT
BRANCH   1   2
ATOM      2  C   UNL     1      13.121 -11.858 -43.416  1.00  0.00     0.004 C 
BRANCH   2   3
ATOM      3  C   UNL     1      14.509 -12.192 -44.049  1.00  0.00    -0.009 C 
BRANCH   3   4
ATOM      4  C   UNL     1      15.649 -11.840 -43.048  1.00  0.00     0.000 C 
ATOM      5  C   UNL     1      17.054 -11.876 -43.664  1.00  0.00     0.004 C 
ENDBRANCH   3   4
BRANCH   3   6
ATOM      6  C   UNL     1      14.604 -13.665 -44.584  1.00  0.00    -0.014 C 
ATOM      7  C   UNL     1      14.314 -13.744 -46.095  1.00  0.00     0.007 C 
ATOM      8  C   UNL     1      13.640 -14.613 -43.851  1.00  0.00     0.007 C 
ENDBRANCH   3   6
ENDBRANCH   2   3
ENDBRANCH   1   2
BRANCH   1   9
ATOM      9  C   UNL     1      10.884 -10.763 -44.234  1.00  0.00    -0.011 C 
ATOM     10  C   UNL     1      10.205  -9.381 -44.187  1.00  0.00     0.008 C 
BRANCH   9  11
ATOM     11  C   UNL     1      10.427 -11.702 -45.420  1.00  0.00    -0.002 C 
ATOM     12  C   UNL     1       9.354 -11.087 -46.335  1.00  0.00     0.005 C 
ATOM     13  C   UNL     1       9.870 -13.141 -45.064  1.00  0.00    -0.026 C 
ATOM     14  C   UNL     1       8.028 -11.675 -45.901  1.00  0.00     0.005 C 
ATOM     15  C   UNL     1       8.334 -13.083 -45.380  1.00  0.00    -0.001 C 
ATOM     16  C   UNL     1      10.601 -14.186 -45.958  1.00  0.00     0.007 C 
ATOM     17  C   UNL     1      10.094 -13.565 -43.583  1.00  0.00     0.012 C 
ATOM     18  C   UNL     1       7.766 -14.249 -46.262  1.00  0.00     0.000 C 
ATOM     19  C   UNL     1       9.932 -15.574 -46.045  1.00  0.00     0.005 C 
ATOM     20  C   UNL     1       8.388 -15.594 -45.821  1.00  0.00     0.003 C 
ATOM     21  C   UNL     1       7.886 -14.097 -47.799  1.00  0.00     0.031 C 
ATOM     22  C   UNL     1       7.664 -16.829 -46.495  1.00  0.00    -0.008 C 
ATOM     23  C   UNL     1       7.399 -15.325 -48.521  1.00  0.00    -0.027 C 
ATOM     24  C   UNL     1       7.331 -16.560 -47.967  1.00  0.00    -0.065 C 
ATOM     25  C   UNL     1       6.311 -17.113 -45.762  1.00  0.00     0.014 C 
ATOM     26  C   UNL     1       8.555 -18.100 -46.371  1.00  0.00     0.016 C 
ATOM     27  C   UNL     1       6.555 -17.634 -48.696  1.00  0.00     0.063 C 
ATOM     28  C   UNL     1       5.424 -18.167 -46.466  1.00  0.00     0.033 C 
ATOM     29  C   UNL     1       5.218 -17.855 -47.965  1.00  0.00     0.118 C 
BRANCH  29  30
ATOM     30  O   UNL     1       4.475 -18.871 -48.587  1.00  0.00    -0.393 OA
ATOM     31  H   UNL     1       3.672 -18.450 -48.993  1.00  0.00     0.210 HD
ENDBRANCH  29  30
ENDBRANCH   9  11
ENDBRANCH   1   9
TORSDOF 7
ENDMDL
MODEL 8
REMARK VINA RESULT:    -5.794      2.096      3.164
REMARK INTER + INTRA:          -9.740
REMARK INTER:                  -8.114
REMARK INTRA:                  -1.626
REMARK UNBOUND:                -1.744
REMARK SMILES CC[C@H](CC[C@@H](C)[C@@H]1CC[C@H]2[C@H]3CC=C4C[C@@H](O)CC[C@]4(C)[C@H]3CC[C@]21C)C(C)C
REMARK SMILES IDX 5 1 4 2 3 3 2 4 1 5 28 6 29 7 30 8 6 9 7 10 8 11 9 12 26 13
REMARK SMILES IDX 10 14 11 15 25 16 27 17 12 18 24 19 23 20 13 21 21 22 14 23
REMARK SMILES IDX 15 24 20 25 22 26 16 27 19 28 17 29 18 30
REMARK H PARENT 18 31
REMARK Flexibility Score: inf
ROOT
ATOM      1  C   UNL     1       4.147 -18.050 -36.776  1.00  0.00     0.004 C 
ENDROOT
BRANCH   1   2
ATOM      2  C   UNL     1       3.450 -16.719 -36.427  1.00  0.00     0.004 C 
BRANCH   2   3
ATOM      3  C   UNL     1       3.923 -16.130 -35.060  1.00  0.00    -0.009 C 
BRANCH   3   4
ATOM      4  C   UNL     1       5.005 -17.056 -34.427  1.00  0.00     0.000 C 
ATOM      5  C   UNL     1       5.013 -17.050 -32.894  1.00  0.00     0.004 C 
ENDBRANCH   3   4
BRANCH   3   6
ATOM      6  C   UNL     1       4.387 -14.634 -35.159  1.00  0.00    -0.014 C 
ATOM      7  C   UNL     1       3.283 -13.731 -35.742  1.00  0.00     0.007 C 
ATOM      8  C   UNL     1       5.654 -14.475 -36.018  1.00  0.00     0.007 C 
ENDBRANCH   3   6
ENDBRANCH   2   3
ENDBRANCH   1   2
BRANCH   1   9
ATOM      9  C   UNL     1       5.194 -17.979 -37.923  1.00  0.00    -0.011 C 
ATOM     10  C   UNL     1       4.950 -16.774 -38.852  1.00  0.00     0.008 C 
BRANCH   9  11
ATOM     11  C   UNL     1       6.683 -18.157 -37.421  1.00  0.00    -0.002 C 
ATOM     12  C   UNL     1       7.634 -17.028 -37.853  1.00  0.00     0.005 C 
ATOM     13  C   UNL     1       7.447 -19.491 -37.801  1.00  0.00    -0.026 C 
ATOM     14  C   UNL     1       8.407 -17.548 -39.046  1.00  0.00     0.005 C 
ATOM     15  C   UNL     1       8.538 -19.062 -38.845  1.00  0.00    -0.001 C 
ATOM     16  C   UNL     1       8.088 -20.075 -36.507  1.00  0.00     0.007 C 
ATOM     17  C   UNL     1       6.536 -20.599 -38.406  1.00  0.00     0.012 C 
ATOM     18  C   UNL     1       9.996 -19.565 -38.565  1.00  0.00     0.000 C 
ATOM     19  C   UNL     1       9.187 -21.136 -36.729  1.00  0.00     0.005 C 
ATOM     20  C   UNL     1       9.963 -21.032 -38.078  1.00  0.00     0.003 C 
ATOM     21  C   UNL     1      10.866 -18.716 -37.605  1.00  0.00     0.031 C 
ATOM     22  C   UNL     1      11.410 -21.671 -38.030  1.00  0.00    -0.008 C 
ATOM     23  C   UNL     1      12.201 -19.360 -37.342  1.00  0.00    -0.027 C 
ATOM     24  C   UNL     1      12.451 -20.685 -37.489  1.00  0.00    -0.065 C 
ATOM     25  C   UNL     1      11.861 -22.067 -39.475  1.00  0.00     0.014 C 
ATOM     26  C   UNL     1      11.391 -22.963 -37.160  1.00  0.00     0.016 C 
ATOM     27  C   UNL     1      13.889 -21.151 -37.479  1.00  0.00     0.063 C 
ATOM     28  C   UNL     1      13.339 -22.512 -39.572  1.00  0.00     0.033 C 
ATOM     29  C   UNL     1      14.302 -21.494 -38.922  1.00  0.00     0.118 C 
BRANCH  29  30
ATOM     30  O   UNL     1      15.625 -21.966 -38.961  1.00  0.00    -0.393 OA
ATOM     31  H   UNL     1      15.741 -22.596 -38.201  1.00  0.00     0.210 HD
ENDBRANCH  29  30
ENDBRANCH   9  11
ENDBRANCH   1   9
TORSDOF 7
ENDMDL
MODEL 9
REMARK VINA RESULT:    -5.618      3.981      6.448
REMARK INTER + INTRA:          -9.497
REMARK INTER:                  -7.276
REMARK INTRA:                  -2.221
REMARK UNBOUND:                -1.744
REMARK SMILES CC[C@H](CC[C@@H](C)[C@@H]1CC[C@H]2[C@H]3CC=C4C[C@@H](O)CC[C@]4(C)[C@H]3CC[C@]21C)C(C)C
REMARK SMILES IDX 5 1 4 2 3 3 2 4 1 5 28 6 29 7 30 8 6 9 7 10 8 11 9 12 26 13
REMARK SMILES IDX 10 14 11 15 25 16 27 17 12 18 24 19 23 20 13 21 21 22 14 23
REMARK SMILES IDX 15 24 20 25 22 26 16 27 19 28 17 29 18 30
REMARK H PARENT 18 31
REMARK Flexibility Score: inf
ROOT
ATOM      1  C   UNL     1       6.378 -19.775 -37.473  1.00  0.00     0.004 C 
ENDROOT
BRANCH   1   2
ATOM      2  C   UNL     1       7.148 -20.128 -36.183  1.00  0.00     0.004 C 
BRANCH   2   3
ATOM      3  C   UNL     1       7.444 -21.656 -36.056  1.00  0.00    -0.009 C 
BRANCH   3   4
ATOM      4  C   UNL     1       6.907 -22.409 -37.310  1.00  0.00     0.000 C 
ATOM      5  C   UNL     1       7.870 -23.467 -37.863  1.00  0.00     0.004 C 
ENDBRANCH   3   4
BRANCH   3   6
ATOM      6  C   UNL     1       8.954 -21.970 -35.760  1.00  0.00    -0.014 C 
ATOM      7  C   UNL     1       9.110 -23.086 -34.710  1.00  0.00     0.007 C 
ATOM      8  C   UNL     1       9.720 -20.728 -35.273  1.00  0.00     0.007 C 
ENDBRANCH   3   6
ENDBRANCH   2   3
ENDBRANCH   1   2
BRANCH   1   9
ATOM      9  C   UNL     1       7.179 -18.968 -38.533  1.00  0.00    -0.011 C 
ATOM     10  C   UNL     1       6.713 -17.501 -38.614  1.00  0.00     0.008 C 
BRANCH   9  11
ATOM     11  C   UNL     1       8.742 -19.177 -38.426  1.00  0.00    -0.002 C 
ATOM     12  C   UNL     1       9.554 -17.871 -38.393  1.00  0.00     0.005 C 
ATOM     13  C   UNL     1       9.456 -20.063 -39.528  1.00  0.00    -0.026 C 
ATOM     14  C   UNL     1      10.089 -17.660 -39.793  1.00  0.00     0.005 C 
ATOM     15  C   UNL     1      10.304 -19.057 -40.384  1.00  0.00    -0.001 C 
ATOM     16  C   UNL     1      10.360 -21.108 -38.809  1.00  0.00     0.007 C 
ATOM     17  C   UNL     1       8.478 -20.852 -40.446  1.00  0.00     0.012 C 
ATOM     18  C   UNL     1      11.803 -19.447 -40.623  1.00  0.00     0.000 C 
ATOM     19  C   UNL     1      11.424 -21.789 -39.694  1.00  0.00     0.005 C 
ATOM     20  C   UNL     1      11.913 -20.960 -40.921  1.00  0.00     0.003 C 
ATOM     21  C   UNL     1      12.820 -19.058 -39.521  1.00  0.00     0.031 C 
ATOM     22  C   UNL     1      13.359 -21.360 -41.424  1.00  0.00    -0.008 C 
ATOM     23  C   UNL     1      14.200 -19.579 -39.824  1.00  0.00    -0.027 C 
ATOM     24  C   UNL     1      14.456 -20.630 -40.640  1.00  0.00    -0.065 C 
ATOM     25  C   UNL     1      13.526 -20.961 -42.927  1.00  0.00     0.014 C 
ATOM     26  C   UNL     1      13.554 -22.901 -41.310  1.00  0.00     0.016 C 
ATOM     27  C   UNL     1      15.881 -20.863 -41.089  1.00  0.00     0.063 C 
ATOM     28  C   UNL     1      14.968 -21.119 -43.463  1.00  0.00     0.033 C 
ATOM     29  C   UNL     1      16.010 -20.422 -42.559  1.00  0.00     0.118 C 
BRANCH  29  30
ATOM     30  O   UNL     1      17.312 -20.651 -43.034  1.00  0.00    -0.393 OA
ATOM     31  H   UNL     1      17.566 -19.875 -43.599  1.00  0.00     0.210 HD
ENDBRANCH  29  30
ENDBRANCH   9  11
ENDBRANCH   1   9
TORSDOF 7
ENDMDL
