MODEL 1
REMARK VINA RESULT:    -4.799      0.000      0.000
REMARK INTER + INTRA:         -14.652
REMARK INTER:                 -10.971
REMARK INTRA:                  -3.680
REMARK UNBOUND:                -3.680
REMARK SMILES CCCCCCCCCCCCCCCCCCCCCCCC(=O)[O-]
REMARK SMILES IDX 13 1 14 2 15 3 16 4 17 5 18 6 19 7 20 8 21 9 22 10 23 11
REMARK SMILES IDX 24 12 25 13 26 14 12 15 11 16 10 17 9 18 8 19 7 20 6 21 5 22
REMARK SMILES IDX 4 23 3 24 2 25 1 26
REMARK H PARENT
REMARK Flexibility Score: inf
ROOT
ATOM      1  C   UNL     1     -22.699  19.160 -22.074  1.00  0.00     0.000 C 
ENDROOT
BRANCH   1   2
ATOM      2  C   UNL     1     -23.865  18.161 -22.127  1.00  0.00     0.000 C 
BRANCH   2   3
ATOM      3  C   UNL     1     -24.003  17.500 -23.515  1.00  0.00     0.000 C 
BRANCH   3   4
ATOM      4  C   UNL     1     -23.339  18.295 -24.652  1.00  0.00     0.000 C 
BRANCH   4   5
ATOM      5  C   UNL     1     -22.244  17.499 -25.378  1.00  0.00     0.000 C 
BRANCH   5   6
ATOM      6  C   UNL     1     -20.837  18.080 -25.156  1.00  0.00     0.000 C 
BRANCH   6   7
ATOM      7  C   UNL     1     -20.078  17.425 -23.981  1.00  0.00     0.000 C 
BRANCH   7   8
ATOM      8  C   UNL     1     -20.553  15.985 -23.719  1.00  0.00     0.000 C 
BRANCH   8   9
ATOM      9  C   UNL     1     -20.914  15.732 -22.245  1.00  0.00     0.000 C 
BRANCH   9  10
ATOM     10  C   UNL     1     -21.041  14.249 -21.853  1.00  0.00     0.006 C 
BRANCH  10  11
ATOM     11  C   UNL     1     -21.107  14.034 -20.336  1.00  0.00     0.053 C 
BRANCH  11  12
ATOM     12  C   UNL     1     -22.482  13.607 -19.927  1.00  0.00     0.041 C 
ATOM     13  O   UNL     1     -22.710  13.251 -18.740  1.00  0.00    -0.550 OA
ATOM     14  O   UNL     1     -23.502  13.553 -20.868  1.00  0.00    -0.550 OA
ENDBRANCH  11  12
ENDBRANCH  10  11
ENDBRANCH   9  10
ENDBRANCH   8   9
ENDBRANCH   7   8
ENDBRANCH   6   7
ENDBRANCH   5   6
ENDBRANCH   4   5
ENDBRANCH   3   4
ENDBRANCH   2   3
ENDBRANCH   1   2
BRANCH   1  15
ATOM     15  C   UNL     1     -23.043  20.367 -21.187  1.00  0.00     0.000 C 
BRANCH  15  16
ATOM     16  C   UNL     1     -24.530  20.754 -21.260  1.00  0.00     0.000 C 
BRANCH  16  17
ATOM     17  C   UNL     1     -24.802  22.171 -20.732  1.00  0.00     0.000 C 
BRANCH  17  18
ATOM     18  C   UNL     1     -23.489  22.904 -20.413  1.00  0.00    -0.000 C 
BRANCH  18  19
ATOM     19  C   UNL     1     -23.436  24.308 -21.035  1.00  0.00    -0.000 C 
BRANCH  19  20
ATOM     20  C   UNL     1     -22.063  24.629 -21.650  1.00  0.00    -0.000 C 
BRANCH  20  21
ATOM     21  C   UNL     1     -22.180  25.383 -22.985  1.00  0.00    -0.000 C 
BRANCH  21  22
ATOM     22  C   UNL     1     -23.572  25.235 -23.626  1.00  0.00    -0.000 C 
BRANCH  22  23
ATOM     23  C   UNL     1     -23.561  24.270 -24.832  1.00  0.00    -0.000 C 
BRANCH  23  24
ATOM     24  C   UNL     1     -23.859  22.809 -24.453  1.00  0.00    -0.000 C 
BRANCH  24  25
ATOM     25  C   UNL     1     -22.607  21.922 -24.455  1.00  0.00    -0.003 C 
ATOM     26  C   UNL     1     -21.494  22.542 -25.298  1.00  0.00     0.004 C 
ENDBRANCH  24  25
ENDBRANCH  23  24
ENDBRANCH  22  23
ENDBRANCH  21  22
ENDBRANCH  20  21
ENDBRANCH  19  20
ENDBRANCH  18  19
ENDBRANCH  17  18
ENDBRANCH  16  17
ENDBRANCH  15  16
ENDBRANCH   1  15
TORSDOF 22
ENDMDL
MODEL 2
REMARK VINA RESULT:    -4.751      3.629      8.642
REMARK INTER + INTRA:         -14.542
REMARK INTER:                 -10.976
REMARK INTRA:                  -3.566
REMARK UNBOUND:                -3.680
REMARK SMILES CCCCCCCCCCCCCCCCCCCCCCCC(=O)[O-]
REMARK SMILES IDX 13 1 14 2 15 3 16 4 17 5 18 6 19 7 20 8 21 9 22 10 23 11
REMARK SMILES IDX 24 12 25 13 26 14 12 15 11 16 10 17 9 18 8 19 7 20 6 21 5 22
REMARK SMILES IDX 4 23 3 24 2 25 1 26
REMARK H PARENT
REMARK Flexibility Score: inf
ROOT
ATOM      1  C   UNL     1     -20.574  18.483 -25.247  1.00  0.00     0.000 C 
ENDROOT
BRANCH   1   2
ATOM      2  C   UNL     1     -21.348  19.803 -25.387  1.00  0.00     0.000 C 
BRANCH   2   3
ATOM      3  C   UNL     1     -22.697  19.770 -24.637  1.00  0.00     0.000 C 
BRANCH   3   4
ATOM      4  C   UNL     1     -22.823  20.834 -23.533  1.00  0.00     0.000 C 
BRANCH   4   5
ATOM      5  C   UNL     1     -23.624  20.341 -22.318  1.00  0.00     0.000 C 
BRANCH   5   6
ATOM      6  C   UNL     1     -23.253  21.078 -21.020  1.00  0.00     0.000 C 
BRANCH   6   7
ATOM      7  C   UNL     1     -24.367  22.014 -20.502  1.00  0.00     0.000 C 
BRANCH   7   8
ATOM      8  C   UNL     1     -24.273  23.420 -21.120  1.00  0.00     0.000 C 
BRANCH   8   9
ATOM      9  C   UNL     1     -22.821  23.895 -21.310  1.00  0.00     0.000 C 
BRANCH   9  10
ATOM     10  C   UNL     1     -22.563  24.686 -22.604  1.00  0.00     0.006 C 
BRANCH  10  11
ATOM     11  C   UNL     1     -23.617  24.421 -23.687  1.00  0.00     0.053 C 
BRANCH  11  12
ATOM     12  C   UNL     1     -22.999  24.492 -25.048  1.00  0.00     0.041 C 
ATOM     13  O   UNL     1     -22.101  23.675 -25.382  1.00  0.00    -0.550 OA
ATOM     14  O   UNL     1     -23.380  25.494 -25.933  1.00  0.00    -0.550 OA
ENDBRANCH  11  12
ENDBRANCH  10  11
ENDBRANCH   9  10
ENDBRANCH   8   9
ENDBRANCH   7   8
ENDBRANCH   6   7
ENDBRANCH   5   6
ENDBRANCH   4   5
ENDBRANCH   3   4
ENDBRANCH   2   3
ENDBRANCH   1   2
BRANCH   1  15
ATOM     15  C   UNL     1     -21.512  17.274 -25.385  1.00  0.00     0.000 C 
BRANCH  15  16
ATOM     16  C   UNL     1     -21.322  16.242 -24.260  1.00  0.00     0.000 C 
BRANCH  16  17
ATOM     17  C   UNL     1     -20.726  16.858 -22.983  1.00  0.00     0.000 C 
BRANCH  17  18
ATOM     18  C   UNL     1     -21.825  17.168 -21.955  1.00  0.00    -0.000 C 
BRANCH  18  19
ATOM     19  C   UNL     1     -23.209  16.678 -22.410  1.00  0.00    -0.000 C 
BRANCH  19  20
ATOM     20  C   UNL     1     -24.285  16.858 -21.325  1.00  0.00    -0.000 C 
BRANCH  20  21
ATOM     21  C   UNL     1     -25.115  15.583 -21.106  1.00  0.00    -0.000 C 
BRANCH  21  22
ATOM     22  C   UNL     1     -24.990  15.036 -19.672  1.00  0.00    -0.000 C 
BRANCH  22  23
ATOM     23  C   UNL     1     -23.868  13.982 -19.545  1.00  0.00    -0.000 C 
BRANCH  23  24
ATOM     24  C   UNL     1     -23.569  13.242 -20.859  1.00  0.00    -0.000 C 
BRANCH  24  25
ATOM     25  C   UNL     1     -22.074  13.223 -21.208  1.00  0.00    -0.003 C 
ATOM     26  C   UNL     1     -21.255  13.976 -20.162  1.00  0.00     0.004 C 
ENDBRANCH  24  25
ENDBRANCH  23  24
ENDBRANCH  22  23
ENDBRANCH  21  22
ENDBRANCH  20  21
ENDBRANCH  19  20
ENDBRANCH  18  19
ENDBRANCH  17  18
ENDBRANCH  16  17
ENDBRANCH  15  16
ENDBRANCH   1  15
TORSDOF 22
ENDMDL
MODEL 3
REMARK VINA RESULT:    -4.706      3.256      7.585
REMARK INTER + INTRA:         -14.440
REMARK INTER:                 -10.706
REMARK INTRA:                  -3.733
REMARK UNBOUND:                -3.680
REMARK SMILES CCCCCCCCCCCCCCCCCCCCCCCC(=O)[O-]
REMARK SMILES IDX 13 1 14 2 15 3 16 4 17 5 18 6 19 7 20 8 21 9 22 10 23 11
REMARK SMILES IDX 24 12 25 13 26 14 12 15 11 16 10 17 9 18 8 19 7 20 6 21 5 22
REMARK SMILES IDX 4 23 3 24 2 25 1 26
REMARK H PARENT
REMARK Flexibility Score: inf
ROOT
ATOM      1  C   UNL     1     -21.043  23.069 -24.653  1.00  0.00     0.000 C 
ENDROOT
BRANCH   1   2
ATOM      2  C   UNL     1     -20.432  24.069 -25.646  1.00  0.00     0.000 C 
BRANCH   2   3
ATOM      3  C   UNL     1     -21.485  24.636 -26.622  1.00  0.00     0.000 C 
BRANCH   3   4
ATOM      4  C   UNL     1     -22.340  25.768 -26.027  1.00  0.00     0.000 C 
BRANCH   4   5
ATOM      5  C   UNL     1     -23.805  25.359 -25.812  1.00  0.00     0.000 C 
BRANCH   5   6
ATOM      6  C   UNL     1     -24.101  24.940 -24.361  1.00  0.00     0.000 C 
BRANCH   6   7
ATOM      7  C   UNL     1     -24.212  26.132 -23.385  1.00  0.00     0.000 C 
BRANCH   7   8
ATOM      8  C   UNL     1     -23.004  26.215 -22.436  1.00  0.00     0.000 C 
BRANCH   8   9
ATOM      9  C   UNL     1     -22.654  24.862 -21.791  1.00  0.00     0.000 C 
BRANCH   9  10
ATOM     10  C   UNL     1     -23.661  24.366 -20.738  1.00  0.00     0.006 C 
BRANCH  10  11
ATOM     11  C   UNL     1     -23.070  23.309 -19.797  1.00  0.00     0.053 C 
BRANCH  11  12
ATOM     12  C   UNL     1     -23.843  23.255 -18.517  1.00  0.00     0.041 C 
ATOM     13  O   UNL     1     -24.739  22.385 -18.351  1.00  0.00    -0.550 OA
ATOM     14  O   UNL     1     -23.609  24.199 -17.524  1.00  0.00    -0.550 OA
ENDBRANCH  11  12
ENDBRANCH  10  11
ENDBRANCH   9  10
ENDBRANCH   8   9
ENDBRANCH   7   8
ENDBRANCH   6   7
ENDBRANCH   5   6
ENDBRANCH   4   5
ENDBRANCH   3   4
ENDBRANCH   2   3
ENDBRANCH   1   2
BRANCH   1  15
ATOM     15  C   UNL     1     -21.634  21.853 -25.384  1.00  0.00     0.000 C 
BRANCH  15  16
ATOM     16  C   UNL     1     -22.830  21.236 -24.639  1.00  0.00     0.000 C 
BRANCH  16  17
ATOM     17  C   UNL     1     -22.863  21.614 -23.149  1.00  0.00     0.000 C 
BRANCH  17  18
ATOM     18  C   UNL     1     -23.853  20.729 -22.375  1.00  0.00    -0.000 C 
BRANCH  18  19
ATOM     19  C   UNL     1     -23.162  19.891 -21.288  1.00  0.00    -0.000 C 
BRANCH  19  20
ATOM     20  C   UNL     1     -22.417  18.675 -21.866  1.00  0.00    -0.000 C 
BRANCH  20  21
ATOM     21  C   UNL     1     -23.316  17.809 -22.763  1.00  0.00    -0.000 C 
BRANCH  21  22
ATOM     22  C   UNL     1     -22.585  17.308 -24.023  1.00  0.00    -0.000 C 
BRANCH  22  23
ATOM     23  C   UNL     1     -21.085  17.675 -24.014  1.00  0.00    -0.000 C 
BRANCH  23  24
ATOM     24  C   UNL     1     -20.600  18.310 -25.328  1.00  0.00    -0.000 C 
BRANCH  24  25
ATOM     25  C   UNL     1     -21.598  18.136 -26.481  1.00  0.00    -0.003 C 
ATOM     26  C   UNL     1     -20.876  18.000 -27.819  1.00  0.00     0.004 C 
ENDBRANCH  24  25
ENDBRANCH  23  24
ENDBRANCH  22  23
ENDBRANCH  21  22
ENDBRANCH  20  21
ENDBRANCH  19  20
ENDBRANCH  18  19
ENDBRANCH  17  18
ENDBRANCH  16  17
ENDBRANCH  15  16
ENDBRANCH   1  15
TORSDOF 22
ENDMDL
MODEL 4
REMARK VINA RESULT:    -4.700      3.974      7.877
REMARK INTER + INTRA:         -14.426
REMARK INTER:                 -11.018
REMARK INTRA:                  -3.407
REMARK UNBOUND:                -3.680
REMARK SMILES CCCCCCCCCCCCCCCCCCCCCCCC(=O)[O-]
REMARK SMILES IDX 13 1 14 2 15 3 16 4 17 5 18 6 19 7 20 8 21 9 22 10 23 11
REMARK SMILES IDX 24 12 25 13 26 14 12 15 11 16 10 17 9 18 8 19 7 20 6 21 5 22
REMARK SMILES IDX 4 23 3 24 2 25 1 26
REMARK H PARENT
REMARK Flexibility Score: inf
ROOT
ATOM      1  C   UNL     1     -21.009  19.047 -25.323  1.00  0.00     0.000 C 
ENDROOT
BRANCH   1   2
ATOM      2  C   UNL     1     -21.431  20.508 -25.544  1.00  0.00     0.000 C 
BRANCH   2   3
ATOM      3  C   UNL     1     -22.744  20.852 -24.808  1.00  0.00     0.000 C 
BRANCH   3   4
ATOM      4  C   UNL     1     -22.837  22.319 -24.353  1.00  0.00     0.000 C 
BRANCH   4   5
ATOM      5  C   UNL     1     -24.222  22.934 -24.600  1.00  0.00     0.000 C 
BRANCH   5   6
ATOM      6  C   UNL     1     -24.426  24.265 -23.857  1.00  0.00     0.000 C 
BRANCH   6   7
ATOM      7  C   UNL     1     -24.477  25.493 -24.793  1.00  0.00     0.000 C 
BRANCH   7   8
ATOM      8  C   UNL     1     -23.097  25.822 -25.389  1.00  0.00     0.000 C 
BRANCH   8   9
ATOM      9  C   UNL     1     -22.987  25.465 -26.881  1.00  0.00     0.000 C 
BRANCH   9  10
ATOM     10  C   UNL     1     -21.798  26.109 -27.616  1.00  0.00     0.006 C 
BRANCH  10  11
ATOM     11  C   UNL     1     -20.510  26.109 -26.783  1.00  0.00     0.053 C 
BRANCH  11  12
ATOM     12  C   UNL     1     -19.910  24.739 -26.744  1.00  0.00     0.041 C 
ATOM     13  O   UNL     1     -19.997  24.037 -25.702  1.00  0.00    -0.550 OA
ATOM     14  O   UNL     1     -19.210  24.255 -27.842  1.00  0.00    -0.550 OA
ENDBRANCH  11  12
ENDBRANCH  10  11
ENDBRANCH   9  10
ENDBRANCH   8   9
ENDBRANCH   7   8
ENDBRANCH   6   7
ENDBRANCH   5   6
ENDBRANCH   4   5
ENDBRANCH   3   4
ENDBRANCH   2   3
ENDBRANCH   1   2
BRANCH   1  15
ATOM     15  C   UNL     1     -22.045  18.293 -24.474  1.00  0.00     0.000 C 
BRANCH  15  16
ATOM     16  C   UNL     1     -21.461  17.768 -23.152  1.00  0.00     0.000 C 
BRANCH  16  17
ATOM     17  C   UNL     1     -22.474  17.812 -21.996  1.00  0.00     0.000 C 
BRANCH  17  18
ATOM     18  C   UNL     1     -22.778  19.261 -21.582  1.00  0.00    -0.000 C 
BRANCH  18  19
ATOM     19  C   UNL     1     -24.265  19.614 -21.737  1.00  0.00    -0.000 C 
BRANCH  19  20
ATOM     20  C   UNL     1     -24.598  21.015 -21.195  1.00  0.00    -0.000 C 
BRANCH  20  21
ATOM     21  C   UNL     1     -23.339  21.811 -20.814  1.00  0.00    -0.000 C 
BRANCH  21  22
ATOM     22  C   UNL     1     -23.636  22.945 -19.816  1.00  0.00    -0.000 C 
BRANCH  22  23
ATOM     23  C   UNL     1     -22.567  24.058 -19.860  1.00  0.00    -0.000 C 
BRANCH  23  24
ATOM     24  C   UNL     1     -23.123  25.427 -20.285  1.00  0.00    -0.000 C 
BRANCH  24  25
ATOM     25  C   UNL     1     -22.330  26.065 -21.434  1.00  0.00    -0.003 C 
ATOM     26  C   UNL     1     -21.406  25.046 -22.097  1.00  0.00     0.004 C 
ENDBRANCH  24  25
ENDBRANCH  23  24
ENDBRANCH  22  23
ENDBRANCH  21  22
ENDBRANCH  20  21
ENDBRANCH  19  20
ENDBRANCH  18  19
ENDBRANCH  17  18
ENDBRANCH  16  17
ENDBRANCH  15  16
ENDBRANCH   1  15
TORSDOF 22
ENDMDL
MODEL 5
REMARK VINA RESULT:    -4.681      3.615      6.127
REMARK INTER + INTRA:         -14.382
REMARK INTER:                 -10.927
REMARK INTRA:                  -3.455
REMARK UNBOUND:                -3.680
REMARK SMILES CCCCCCCCCCCCCCCCCCCCCCCC(=O)[O-]
REMARK SMILES IDX 13 1 14 2 15 3 16 4 17 5 18 6 19 7 20 8 21 9 22 10 23 11
REMARK SMILES IDX 24 12 25 13 26 14 12 15 11 16 10 17 9 18 8 19 7 20 6 21 5 22
REMARK SMILES IDX 4 23 3 24 2 25 1 26
REMARK H PARENT
REMARK Flexibility Score: inf
ROOT
ATOM      1  C   UNL     1     -23.417  14.766 -21.228  1.00  0.00     0.000 C 
ENDROOT
BRANCH   1   2
ATOM      2  C   UNL     1     -21.905  14.946 -21.017  1.00  0.00     0.000 C 
BRANCH   2   3
ATOM      3  C   UNL     1     -21.144  15.088 -22.351  1.00  0.00     0.000 C 
BRANCH   3   4
ATOM      4  C   UNL     1     -20.241  16.331 -22.424  1.00  0.00     0.000 C 
BRANCH   4   5
ATOM      5  C   UNL     1     -20.381  17.094 -23.751  1.00  0.00     0.000 C 
BRANCH   5   6
ATOM      6  C   UNL     1     -21.656  16.717 -24.524  1.00  0.00     0.000 C 
BRANCH   6   7
ATOM      7  C   UNL     1     -21.940  17.637 -25.731  1.00  0.00     0.000 C 
BRANCH   7   8
ATOM      8  C   UNL     1     -21.302  19.027 -25.559  1.00  0.00     0.000 C 
BRANCH   8   9
ATOM      9  C   UNL     1     -22.275  20.066 -24.973  1.00  0.00     0.000 C 
BRANCH   9  10
ATOM     10  C   UNL     1     -21.777  21.521 -25.024  1.00  0.00     0.006 C 
BRANCH  10  11
ATOM     11  C   UNL     1     -22.859  22.536 -24.632  1.00  0.00     0.053 C 
BRANCH  11  12
ATOM     12  C   UNL     1     -22.393  23.932 -24.909  1.00  0.00     0.041 C 
ATOM     13  O   UNL     1     -22.932  24.909 -24.326  1.00  0.00    -0.550 OA
ATOM     14  O   UNL     1     -21.396  24.158 -25.850  1.00  0.00    -0.550 OA
ENDBRANCH  11  12
ENDBRANCH  10  11
ENDBRANCH   9  10
ENDBRANCH   8   9
ENDBRANCH   7   8
ENDBRANCH   6   7
ENDBRANCH   5   6
ENDBRANCH   4   5
ENDBRANCH   3   4
ENDBRANCH   2   3
ENDBRANCH   1   2
BRANCH   1  15
ATOM     15  C   UNL     1     -24.170  16.085 -20.993  1.00  0.00     0.000 C 
BRANCH  15  16
ATOM     16  C   UNL     1     -24.627  16.749 -22.303  1.00  0.00     0.000 C 
BRANCH  16  17
ATOM     17  C   UNL     1     -24.354  18.262 -22.329  1.00  0.00     0.000 C 
BRANCH  17  18
ATOM     18  C   UNL     1     -23.036  18.598 -21.612  1.00  0.00    -0.000 C 
BRANCH  18  19
ATOM     19  C   UNL     1     -22.836  20.111 -21.434  1.00  0.00    -0.000 C 
BRANCH  19  20
ATOM     20  C   UNL     1     -24.153  20.898 -21.558  1.00  0.00    -0.000 C 
BRANCH  20  21
ATOM     21  C   UNL     1     -24.410  21.805 -20.344  1.00  0.00    -0.000 C 
BRANCH  21  22
ATOM     22  C   UNL     1     -23.451  23.008 -20.292  1.00  0.00    -0.000 C 
BRANCH  22  23
ATOM     23  C   UNL     1     -24.040  24.257 -20.983  1.00  0.00    -0.000 C 
BRANCH  23  24
ATOM     24  C   UNL     1     -23.179  25.519 -20.811  1.00  0.00    -0.000 C 
BRANCH  24  25
ATOM     25  C   UNL     1     -21.688  25.266 -21.072  1.00  0.00    -0.003 C 
ATOM     26  C   UNL     1     -20.834  25.755 -19.905  1.00  0.00     0.004 C 
ENDBRANCH  24  25
ENDBRANCH  23  24
ENDBRANCH  22  23
ENDBRANCH  21  22
ENDBRANCH  20  21
ENDBRANCH  19  20
ENDBRANCH  18  19
ENDBRANCH  17  18
ENDBRANCH  16  17
ENDBRANCH  15  16
ENDBRANCH   1  15
TORSDOF 22
ENDMDL
MODEL 6
REMARK VINA RESULT:    -4.671      4.057      8.388
REMARK INTER + INTRA:         -14.359
REMARK INTER:                 -11.373
REMARK INTRA:                  -2.986
REMARK UNBOUND:                -3.680
REMARK SMILES CCCCCCCCCCCCCCCCCCCCCCCC(=O)[O-]
REMARK SMILES IDX 13 1 14 2 15 3 16 4 17 5 18 6 19 7 20 8 21 9 22 10 23 11
REMARK SMILES IDX 24 12 25 13 26 14 12 15 11 16 10 17 9 18 8 19 7 20 6 21 5 22
REMARK SMILES IDX 4 23 3 24 2 25 1 26
REMARK H PARENT
REMARK Flexibility Score: inf
ROOT
ATOM      1  C   UNL     1     -24.078  16.022 -20.891  1.00  0.00     0.000 C 
ENDROOT
BRANCH   1   2
ATOM      2  C   UNL     1     -24.408  16.761 -22.197  1.00  0.00     0.000 C 
BRANCH   2   3
ATOM      3  C   UNL     1     -24.315  18.293 -22.038  1.00  0.00     0.000 C 
BRANCH   3   4
ATOM      4  C   UNL     1     -22.915  18.794 -21.641  1.00  0.00     0.000 C 
BRANCH   4   5
ATOM      5  C   UNL     1     -22.909  20.267 -21.205  1.00  0.00     0.000 C 
BRANCH   5   6
ATOM      6  C   UNL     1     -23.444  21.213 -22.293  1.00  0.00     0.000 C 
BRANCH   6   7
ATOM      7  C   UNL     1     -23.756  22.635 -21.777  1.00  0.00     0.000 C 
BRANCH   7   8
ATOM      8  C   UNL     1     -22.946  23.710 -22.524  1.00  0.00     0.000 C 
BRANCH   8   9
ATOM      9  C   UNL     1     -22.530  23.271 -23.939  1.00  0.00     0.000 C 
BRANCH   9  10
ATOM     10  C   UNL     1     -21.665  24.289 -24.705  1.00  0.00     0.006 C 
BRANCH  10  11
ATOM     11  C   UNL     1     -20.582  23.625 -25.564  1.00  0.00     0.053 C 
BRANCH  11  12
ATOM     12  C   UNL     1     -20.484  24.299 -26.897  1.00  0.00     0.041 C 
ATOM     13  O   UNL     1     -19.384  24.339 -27.509  1.00  0.00    -0.550 OA
ATOM     14  O   UNL     1     -21.596  24.928 -27.441  1.00  0.00    -0.550 OA
ENDBRANCH  11  12
ENDBRANCH  10  11
ENDBRANCH   9  10
ENDBRANCH   8   9
ENDBRANCH   7   8
ENDBRANCH   6   7
ENDBRANCH   5   6
ENDBRANCH   4   5
ENDBRANCH   3   4
ENDBRANCH   2   3
ENDBRANCH   1   2
BRANCH   1  15
ATOM     15  C   UNL     1     -24.718  14.624 -20.868  1.00  0.00     0.000 C 
BRANCH  15  16
ATOM     16  C   UNL     1     -23.675  13.495 -20.824  1.00  0.00     0.000 C 
BRANCH  16  17
ATOM     17  C   UNL     1     -22.898  13.454 -19.498  1.00  0.00     0.000 C 
BRANCH  17  18
ATOM     18  C   UNL     1     -21.400  13.710 -19.727  1.00  0.00    -0.000 C 
BRANCH  18  19
ATOM     19  C   UNL     1     -20.953  13.339 -21.150  1.00  0.00    -0.000 C 
BRANCH  19  20
ATOM     20  C   UNL     1     -20.152  14.464 -21.828  1.00  0.00    -0.000 C 
BRANCH  20  21
ATOM     21  C   UNL     1     -20.945  15.155 -22.949  1.00  0.00    -0.000 C 
BRANCH  21  22
ATOM     22  C   UNL     1     -20.510  16.616 -23.165  1.00  0.00    -0.000 C 
BRANCH  22  23
ATOM     23  C   UNL     1     -20.947  17.158 -24.543  1.00  0.00    -0.000 C 
BRANCH  23  24
ATOM     24  C   UNL     1     -20.264  18.481 -24.928  1.00  0.00    -0.000 C 
BRANCH  24  25
ATOM     25  C   UNL     1     -21.257  19.638 -25.105  1.00  0.00    -0.003 C 
ATOM     26  C   UNL     1     -22.687  19.121 -25.246  1.00  0.00     0.004 C 
ENDBRANCH  24  25
ENDBRANCH  23  24
ENDBRANCH  22  23
ENDBRANCH  21  22
ENDBRANCH  20  21
ENDBRANCH  19  20
ENDBRANCH  18  19
ENDBRANCH  17  18
ENDBRANCH  16  17
ENDBRANCH  15  16
ENDBRANCH   1  15
TORSDOF 22
ENDMDL
MODEL 7
REMARK VINA RESULT:    -4.647      4.086      8.322
REMARK INTER + INTRA:         -14.304
REMARK INTER:                 -10.888
REMARK INTRA:                  -3.416
REMARK UNBOUND:                -3.680
REMARK SMILES CCCCCCCCCCCCCCCCCCCCCCCC(=O)[O-]
REMARK SMILES IDX 13 1 14 2 15 3 16 4 17 5 18 6 19 7 20 8 21 9 22 10 23 11
REMARK SMILES IDX 24 12 25 13 26 14 12 15 11 16 10 17 9 18 8 19 7 20 6 21 5 22
REMARK SMILES IDX 4 23 3 24 2 25 1 26
REMARK H PARENT
REMARK Flexibility Score: inf
ROOT
ATOM      1  C   UNL     1     -23.953  21.045 -20.998  1.00  0.00     0.000 C 
ENDROOT
BRANCH   1   2
ATOM      2  C   UNL     1     -23.417  22.396 -20.501  1.00  0.00     0.000 C 
BRANCH   2   3
ATOM      3  C   UNL     1     -24.483  23.509 -20.578  1.00  0.00     0.000 C 
BRANCH   3   4
ATOM      4  C   UNL     1     -23.987  24.802 -21.248  1.00  0.00     0.000 C 
BRANCH   4   5
ATOM      5  C   UNL     1     -23.264  24.545 -22.579  1.00  0.00     0.000 C 
BRANCH   5   6
ATOM      6  C   UNL     1     -24.233  24.272 -23.742  1.00  0.00     0.000 C 
BRANCH   6   7
ATOM      7  C   UNL     1     -23.952  22.947 -24.482  1.00  0.00     0.000 C 
BRANCH   7   8
ATOM      8  C   UNL     1     -22.536  22.415 -24.194  1.00  0.00     0.000 C 
BRANCH   8   9
ATOM      9  C   UNL     1     -21.586  22.556 -25.396  1.00  0.00     0.000 C 
BRANCH   9  10
ATOM     10  C   UNL     1     -20.749  23.848 -25.413  1.00  0.00     0.006 C 
BRANCH  10  11
ATOM     11  C   UNL     1     -20.913  24.648 -26.711  1.00  0.00     0.053 C 
BRANCH  11  12
ATOM     12  C   UNL     1     -22.052  25.612 -26.593  1.00  0.00     0.041 C 
ATOM     13  O   UNL     1     -22.894  25.717 -27.524  1.00  0.00    -0.550 OA
ATOM     14  O   UNL     1     -22.156  26.431 -25.476  1.00  0.00    -0.550 OA
ENDBRANCH  11  12
ENDBRANCH  10  11
ENDBRANCH   9  10
ENDBRANCH   8   9
ENDBRANCH   7   8
ENDBRANCH   6   7
ENDBRANCH   5   6
ENDBRANCH   4   5
ENDBRANCH   3   4
ENDBRANCH   2   3
ENDBRANCH   1   2
BRANCH   1  15
ATOM     15  C   UNL     1     -22.803  20.075 -21.314  1.00  0.00     0.000 C 
BRANCH  15  16
ATOM     16  C   UNL     1     -23.289  18.637 -21.563  1.00  0.00     0.000 C 
BRANCH  16  17
ATOM     17  C   UNL     1     -24.252  18.534 -22.757  1.00  0.00     0.000 C 
BRANCH  17  18
ATOM     18  C   UNL     1     -23.765  17.487 -23.771  1.00  0.00    -0.000 C 
BRANCH  18  19
ATOM     19  C   UNL     1     -23.302  18.121 -25.092  1.00  0.00    -0.000 C 
BRANCH  19  20
ATOM     20  C   UNL     1     -22.089  19.049 -24.906  1.00  0.00    -0.000 C 
BRANCH  20  21
ATOM     21  C   UNL     1     -20.806  18.467 -25.520  1.00  0.00    -0.000 C 
BRANCH  21  22
ATOM     22  C   UNL     1     -19.843  17.907 -24.457  1.00  0.00    -0.000 C 
BRANCH  22  23
ATOM     23  C   UNL     1     -20.332  16.563 -23.875  1.00  0.00    -0.000 C 
BRANCH  23  24
ATOM     24  C   UNL     1     -20.299  16.511 -22.338  1.00  0.00    -0.000 C 
BRANCH  24  25
ATOM     25  C   UNL     1     -21.305  15.510 -21.753  1.00  0.00    -0.003 C 
ATOM     26  C   UNL     1     -20.794  14.077 -21.880  1.00  0.00     0.004 C 
ENDBRANCH  24  25
ENDBRANCH  23  24
ENDBRANCH  22  23
ENDBRANCH  21  22
ENDBRANCH  20  21
ENDBRANCH  19  20
ENDBRANCH  18  19
ENDBRANCH  17  18
ENDBRANCH  16  17
ENDBRANCH  15  16
ENDBRANCH   1  15
TORSDOF 22
ENDMDL
MODEL 8
REMARK VINA RESULT:    -4.635      3.817      8.201
REMARK INTER + INTRA:         -14.277
REMARK INTER:                 -10.867
REMARK INTRA:                  -3.410
REMARK UNBOUND:                -3.680
REMARK SMILES CCCCCCCCCCCCCCCCCCCCCCCC(=O)[O-]
REMARK SMILES IDX 13 1 14 2 15 3 16 4 17 5 18 6 19 7 20 8 21 9 22 10 23 11
REMARK SMILES IDX 24 12 25 13 26 14 12 15 11 16 10 17 9 18 8 19 7 20 6 21 5 22
REMARK SMILES IDX 4 23 3 24 2 25 1 26
REMARK H PARENT
REMARK Flexibility Score: inf
ROOT
ATOM      1  C   UNL     1     -23.125  19.274 -21.620  1.00  0.00     0.000 C 
ENDROOT
BRANCH   1   2
ATOM      2  C   UNL     1     -23.191  20.774 -21.290  1.00  0.00     0.000 C 
BRANCH   2   3
ATOM      3  C   UNL     1     -24.609  21.216 -20.872  1.00  0.00     0.000 C 
BRANCH   3   4
ATOM      4  C   UNL     1     -24.632  22.463 -19.972  1.00  0.00     0.000 C 
BRANCH   4   5
ATOM      5  C   UNL     1     -23.226  22.990 -19.646  1.00  0.00     0.000 C 
BRANCH   5   6
ATOM      6  C   UNL     1     -22.923  24.339 -20.320  1.00  0.00     0.000 C 
BRANCH   6   7
ATOM      7  C   UNL     1     -24.026  24.802 -21.297  1.00  0.00     0.000 C 
BRANCH   7   8
ATOM      8  C   UNL     1     -23.485  24.999 -22.725  1.00  0.00     0.000 C 
BRANCH   8   9
ATOM      9  C   UNL     1     -22.306  24.066 -23.054  1.00  0.00     0.000 C 
BRANCH   9  10
ATOM     10  C   UNL     1     -22.562  23.081 -24.208  1.00  0.00     0.006 C 
BRANCH  10  11
ATOM     11  C   UNL     1     -21.328  22.864 -25.093  1.00  0.00     0.053 C 
BRANCH  11  12
ATOM     12  C   UNL     1     -21.121  24.038 -25.999  1.00  0.00     0.041 C 
ATOM     13  O   UNL     1     -22.106  24.709 -26.404  1.00  0.00    -0.550 OA
ATOM     14  O   UNL     1     -19.842  24.360 -26.438  1.00  0.00    -0.550 OA
ENDBRANCH  11  12
ENDBRANCH  10  11
ENDBRANCH   9  10
ENDBRANCH   8   9
ENDBRANCH   7   8
ENDBRANCH   6   7
ENDBRANCH   5   6
ENDBRANCH   4   5
ENDBRANCH   3   4
ENDBRANCH   2   3
ENDBRANCH   1   2
BRANCH   1  15
ATOM     15  C   UNL     1     -24.508  18.732 -22.014  1.00  0.00     0.000 C 
BRANCH  15  16
ATOM     16  C   UNL     1     -24.461  17.269 -22.486  1.00  0.00     0.000 C 
BRANCH  16  17
ATOM     17  C   UNL     1     -25.040  16.291 -21.451  1.00  0.00     0.000 C 
BRANCH  17  18
ATOM     18  C   UNL     1     -24.036  15.174 -21.124  1.00  0.00    -0.000 C 
BRANCH  18  19
ATOM     19  C   UNL     1     -22.578  15.644 -21.241  1.00  0.00    -0.000 C 
BRANCH  19  20
ATOM     20  C   UNL     1     -21.640  14.534 -21.747  1.00  0.00    -0.000 C 
BRANCH  20  21
ATOM     21  C   UNL     1     -20.720  15.015 -22.880  1.00  0.00    -0.000 C 
BRANCH  21  22
ATOM     22  C   UNL     1     -20.235  16.462 -22.673  1.00  0.00    -0.000 C 
BRANCH  22  23
ATOM     23  C   UNL     1     -20.735  17.410 -23.785  1.00  0.00    -0.000 C 
BRANCH  23  24
ATOM     24  C   UNL     1     -21.602  16.711 -24.845  1.00  0.00    -0.000 C 
BRANCH  24  25
ATOM     25  C   UNL     1     -22.541  17.677 -25.581  1.00  0.00    -0.003 C 
ATOM     26  C   UNL     1     -22.277  19.123 -25.170  1.00  0.00     0.004 C 
ENDBRANCH  24  25
ENDBRANCH  23  24
ENDBRANCH  22  23
ENDBRANCH  21  22
ENDBRANCH  20  21
ENDBRANCH  19  20
ENDBRANCH  18  19
ENDBRANCH  17  18
ENDBRANCH  16  17
ENDBRANCH  15  16
ENDBRANCH   1  15
TORSDOF 22
ENDMDL
MODEL 9
REMARK VINA RESULT:    -4.607      2.728      4.020
REMARK INTER + INTRA:         -14.213
REMARK INTER:                 -10.982
REMARK INTRA:                  -3.230
REMARK UNBOUND:                -3.680
REMARK SMILES CCCCCCCCCCCCCCCCCCCCCCCC(=O)[O-]
REMARK SMILES IDX 13 1 14 2 15 3 16 4 17 5 18 6 19 7 20 8 21 9 22 10 23 11
REMARK SMILES IDX 24 12 25 13 26 14 12 15 11 16 10 17 9 18 8 19 7 20 6 21 5 22
REMARK SMILES IDX 4 23 3 24 2 25 1 26
REMARK H PARENT
REMARK Flexibility Score: inf
ROOT
ATOM      1  C   UNL     1     -23.063  20.117 -21.390  1.00  0.00     0.000 C 
ENDROOT
BRANCH   1   2
ATOM      2  C   UNL     1     -23.142  19.582 -22.828  1.00  0.00     0.000 C 
BRANCH   2   3
ATOM      3  C   UNL     1     -23.761  18.170 -22.890  1.00  0.00     0.000 C 
BRANCH   3   4
ATOM      4  C   UNL     1     -23.580  17.353 -21.599  1.00  0.00     0.000 C 
BRANCH   4   5
ATOM      5  C   UNL     1     -23.066  15.929 -21.862  1.00  0.00     0.000 C 
BRANCH   5   6
ATOM      6  C   UNL     1     -21.629  15.711 -21.360  1.00  0.00     0.000 C 
BRANCH   6   7
ATOM      7  C   UNL     1     -20.654  15.246 -22.464  1.00  0.00     0.000 C 
BRANCH   7   8
ATOM      8  C   UNL     1     -20.865  16.015 -23.780  1.00  0.00     0.000 C 
BRANCH   8   9
ATOM      9  C   UNL     1     -19.931  17.230 -23.922  1.00  0.00     0.000 C 
BRANCH   9  10
ATOM     10  C   UNL     1     -20.358  18.256 -24.987  1.00  0.00     0.006 C 
BRANCH  10  11
ATOM     11  C   UNL     1     -21.537  17.774 -25.842  1.00  0.00     0.053 C 
BRANCH  11  12
ATOM     12  C   UNL     1     -21.146  17.704 -27.284  1.00  0.00     0.041 C 
ATOM     13  O   UNL     1     -21.298  18.705 -28.033  1.00  0.00    -0.550 OA
ATOM     14  O   UNL     1     -20.659  16.516 -27.816  1.00  0.00    -0.550 OA
ENDBRANCH  11  12
ENDBRANCH  10  11
ENDBRANCH   9  10
ENDBRANCH   8   9
ENDBRANCH   7   8
ENDBRANCH   6   7
ENDBRANCH   5   6
ENDBRANCH   4   5
ENDBRANCH   3   4
ENDBRANCH   2   3
ENDBRANCH   1   2
BRANCH   1  15
ATOM     15  C   UNL     1     -23.225  21.646 -21.358  1.00  0.00     0.000 C 
BRANCH  15  16
ATOM     16  C   UNL     1     -23.560  22.178 -19.954  1.00  0.00     0.000 C 
BRANCH  16  17
ATOM     17  C   UNL     1     -23.019  23.596 -19.712  1.00  0.00     0.000 C 
BRANCH  17  18
ATOM     18  C   UNL     1     -23.075  24.437 -20.997  1.00  0.00    -0.000 C 
BRANCH  18  19
ATOM     19  C   UNL     1     -21.741  25.139 -21.296  1.00  0.00    -0.000 C 
BRANCH  19  20
ATOM     20  C   UNL     1     -21.768  25.915 -22.625  1.00  0.00    -0.000 C 
BRANCH  20  21
ATOM     21  C   UNL     1     -23.189  26.057 -23.192  1.00  0.00    -0.000 C 
BRANCH  21  22
ATOM     22  C   UNL     1     -23.269  25.691 -24.685  1.00  0.00    -0.000 C 
BRANCH  22  23
ATOM     23  C   UNL     1     -24.232  24.514 -24.949  1.00  0.00    -0.000 C 
BRANCH  23  24
ATOM     24  C   UNL     1     -23.638  23.141 -24.591  1.00  0.00    -0.000 C 
BRANCH  24  25
ATOM     25  C   UNL     1     -22.132  23.050 -24.873  1.00  0.00    -0.003 C 
ATOM     26  C   UNL     1     -21.753  21.670 -25.405  1.00  0.00     0.004 C 
ENDBRANCH  24  25
ENDBRANCH  23  24
ENDBRANCH  22  23
ENDBRANCH  21  22
ENDBRANCH  20  21
ENDBRANCH  19  20
ENDBRANCH  18  19
ENDBRANCH  17  18
ENDBRANCH  16  17
ENDBRANCH  15  16
ENDBRANCH   1  15
TORSDOF 22
ENDMDL
