MODEL 1
REMARK VINA RESULT:    -4.442      0.000      0.000
REMARK INTER + INTRA:          -5.409
REMARK INTER:                  -5.222
REMARK INTRA:                  -0.187
REMARK UNBOUND:                -0.187
REMARK SMILES C=C[C@]1(C)CC[C@@H](C(=C)C)C[C@@H]1C(=C)C
REMARK SMILES IDX 7 1 6 2 5 3 3 4 12 5 11 6 4 7 8 8 10 9 9 10 13 11 14 12
REMARK SMILES IDX 15 13 2 14 1 15
REMARK H PARENT
REMARK Flexibility Score: inf
ROOT
ATOM      1  C   UNL     1      18.764  65.056  16.689  1.00  0.00     0.015 C 
ATOM      2  C   UNL     1      19.621  65.819  15.648  1.00  0.00     0.009 C 
ATOM      3  C   UNL     1      20.133  64.987  14.453  1.00  0.00     0.012 C 
ATOM      4  C   UNL     1      20.528  63.502  14.770  1.00  0.00    -0.008 C 
ATOM      5  C   UNL     1      20.608  63.237  16.319  1.00  0.00     0.024 C 
ATOM      6  C   UNL     1      19.291  63.635  17.027  1.00  0.00     0.017 C 
ATOM      7  C   UNL     1      19.456  62.556  14.161  1.00  0.00     0.016 C 
ENDROOT
BRANCH   1   8
ATOM      8  C   UNL     1      17.262  65.032  16.391  1.00  0.00    -0.077 C 
ATOM      9  C   UNL     1      16.708  65.076  14.988  1.00  0.00     0.039 C 
ATOM     10  C   UNL     1      16.402  65.057  17.425  1.00  0.00     0.008 C 
ENDBRANCH   1   8
BRANCH   5  11
ATOM     11  C   UNL     1      21.829  63.771  17.095  1.00  0.00    -0.077 C 
ATOM     12  C   UNL     1      22.098  65.076  17.283  1.00  0.00     0.008 C 
ATOM     13  C   UNL     1      22.782  62.771  17.709  1.00  0.00     0.039 C 
ENDBRANCH   5  11
BRANCH   4  14
ATOM     14  C   UNL     1      21.856  63.125  14.109  1.00  0.00    -0.028 C 
ATOM     15  C   UNL     1      22.655  64.018  13.514  1.00  0.00     0.004 C 
ENDBRANCH   4  14
TORSDOF 3
ENDMDL
MODEL 2
REMARK VINA RESULT:    -4.183      1.650      4.284
REMARK INTER + INTRA:          -5.104
REMARK INTER:                  -5.014
REMARK INTRA:                  -0.090
REMARK UNBOUND:                -0.187
REMARK SMILES C=C[C@]1(C)CC[C@@H](C(=C)C)C[C@@H]1C(=C)C
REMARK SMILES IDX 7 1 6 2 5 3 3 4 12 5 11 6 4 7 8 8 10 9 9 10 13 11 14 12
REMARK SMILES IDX 15 13 2 14 1 15
REMARK H PARENT
REMARK Flexibility Score: inf
ROOT
ATOM      1  C   UNL     1      21.676  63.798  18.325  1.00  0.00     0.015 C 
ATOM      2  C   UNL     1      22.164  65.037  17.531  1.00  0.00     0.009 C 
ATOM      3  C   UNL     1      21.068  66.022  17.075  1.00  0.00     0.012 C 
ATOM      4  C   UNL     1      19.700  65.381  16.651  1.00  0.00    -0.008 C 
ATOM      5  C   UNL     1      19.814  63.820  16.486  1.00  0.00     0.024 C 
ATOM      6  C   UNL     1      20.376  63.159  17.767  1.00  0.00     0.017 C 
ATOM      7  C   UNL     1      18.640  65.687  17.745  1.00  0.00     0.016 C 
ENDROOT
BRANCH   1   8
ATOM      8  C   UNL     1      21.587  64.001  19.840  1.00  0.00    -0.077 C 
ATOM      9  C   UNL     1      20.719  65.061  20.472  1.00  0.00     0.039 C 
ATOM     10  C   UNL     1      22.378  63.258  20.635  1.00  0.00     0.008 C 
ENDBRANCH   1   8
BRANCH   5  11
ATOM     11  C   UNL     1      20.514  63.261  15.231  1.00  0.00    -0.077 C 
ATOM     12  C   UNL     1      21.845  63.273  15.035  1.00  0.00     0.008 C 
ATOM     13  C   UNL     1      19.659  62.636  14.152  1.00  0.00     0.039 C 
ENDBRANCH   5  11
BRANCH   4  14
ATOM     14  C   UNL     1      19.170  66.002  15.356  1.00  0.00    -0.028 C 
ATOM     15  C   UNL     1      17.883  65.951  14.996  1.00  0.00     0.004 C 
ENDBRANCH   4  14
TORSDOF 3
ENDMDL
MODEL 3
REMARK VINA RESULT:    -4.104      2.018      3.994
REMARK INTER + INTRA:          -5.011
REMARK INTER:                  -4.887
REMARK INTRA:                  -0.123
REMARK UNBOUND:                -0.187
REMARK SMILES C=C[C@]1(C)CC[C@@H](C(=C)C)C[C@@H]1C(=C)C
REMARK SMILES IDX 7 1 6 2 5 3 3 4 12 5 11 6 4 7 8 8 10 9 9 10 13 11 14 12
REMARK SMILES IDX 15 13 2 14 1 15
REMARK H PARENT
REMARK Flexibility Score: inf
ROOT
ATOM      1  C   UNL     1      20.559  64.047  15.902  1.00  0.00     0.015 C 
ATOM      2  C   UNL     1      21.662  65.132  15.995  1.00  0.00     0.009 C 
ATOM      3  C   UNL     1      22.984  64.696  16.661  1.00  0.00     0.012 C 
ATOM      4  C   UNL     1      22.852  63.691  17.859  1.00  0.00    -0.008 C 
ATOM      5  C   UNL     1      21.361  63.555  18.344  1.00  0.00     0.024 C 
ATOM      6  C   UNL     1      20.422  63.170  17.176  1.00  0.00     0.017 C 
ATOM      7  C   UNL     1      23.352  62.293  17.400  1.00  0.00     0.016 C 
ENDROOT
BRANCH   1   8
ATOM      8  C   UNL     1      20.614  63.182  14.639  1.00  0.00    -0.077 C 
ATOM      9  C   UNL     1      21.903  62.861  13.925  1.00  0.00     0.039 C 
ATOM     10  C   UNL     1      19.456  62.762  14.098  1.00  0.00     0.008 C 
ENDBRANCH   1   8
BRANCH   5  11
ATOM     11  C   UNL     1      20.751  64.698  19.181  1.00  0.00    -0.077 C 
ATOM     12  C   UNL     1      20.008  65.699  18.672  1.00  0.00     0.008 C 
ATOM     13  C   UNL     1      20.979  64.693  20.675  1.00  0.00     0.039 C 
ENDBRANCH   5  11
BRANCH   4  14
ATOM     14  C   UNL     1      23.744  64.101  19.032  1.00  0.00    -0.028 C 
ATOM     15  C   UNL     1      24.380  65.277  19.089  1.00  0.00     0.004 C 
ENDBRANCH   4  14
TORSDOF 3
ENDMDL
MODEL 4
REMARK VINA RESULT:    -4.076      1.725      3.929
REMARK INTER + INTRA:          -4.978
REMARK INTER:                  -4.782
REMARK INTRA:                  -0.197
REMARK UNBOUND:                -0.187
REMARK SMILES C=C[C@]1(C)CC[C@@H](C(=C)C)C[C@@H]1C(=C)C
REMARK SMILES IDX 7 1 6 2 5 3 3 4 12 5 11 6 4 7 8 8 10 9 9 10 13 11 14 12
REMARK SMILES IDX 15 13 2 14 1 15
REMARK H PARENT
REMARK Flexibility Score: inf
ROOT
ATOM      1  C   UNL     1      20.166  64.248  18.154  1.00  0.00     0.015 C 
ATOM      2  C   UNL     1      20.807  62.916  17.692  1.00  0.00     0.009 C 
ATOM      3  C   UNL     1      21.992  63.040  16.710  1.00  0.00     0.012 C 
ATOM      4  C   UNL     1      21.894  64.202  15.660  1.00  0.00    -0.008 C 
ATOM      5  C   UNL     1      20.453  64.832  15.619  1.00  0.00     0.024 C 
ATOM      6  C   UNL     1      20.004  65.301  17.024  1.00  0.00     0.017 C 
ATOM      7  C   UNL     1      22.910  65.313  16.043  1.00  0.00     0.016 C 
ENDROOT
BRANCH   1   8
ATOM      8  C   UNL     1      20.803  64.869  19.401  1.00  0.00    -0.077 C 
ATOM      9  C   UNL     1      21.724  64.101  20.315  1.00  0.00     0.039 C 
ATOM     10  C   UNL     1      20.459  66.125  19.739  1.00  0.00     0.008 C 
ENDBRANCH   1   8
BRANCH   5  11
ATOM     11  C   UNL     1      19.325  64.048  14.919  1.00  0.00    -0.077 C 
ATOM     12  C   UNL     1      19.505  62.894  14.250  1.00  0.00     0.008 C 
ATOM     13  C   UNL     1      17.917  64.590  15.001  1.00  0.00     0.039 C 
ENDBRANCH   5  11
BRANCH   4  14
ATOM     14  C   UNL     1      22.291  63.723  14.261  1.00  0.00    -0.028 C 
ATOM     15  C   UNL     1      23.194  62.759  14.049  1.00  0.00     0.004 C 
ENDBRANCH   4  14
TORSDOF 3
ENDMDL
MODEL 5
REMARK VINA RESULT:    -3.934      1.569      2.714
REMARK INTER + INTRA:          -4.810
REMARK INTER:                  -4.508
REMARK INTRA:                  -0.302
REMARK UNBOUND:                -0.187
REMARK SMILES C=C[C@]1(C)CC[C@@H](C(=C)C)C[C@@H]1C(=C)C
REMARK SMILES IDX 7 1 6 2 5 3 3 4 12 5 11 6 4 7 8 8 10 9 9 10 13 11 14 12
REMARK SMILES IDX 15 13 2 14 1 15
REMARK H PARENT
REMARK Flexibility Score: inf
ROOT
ATOM      1  C   UNL     1      20.499  63.957  15.994  1.00  0.00     0.015 C 
ATOM      2  C   UNL     1      21.608  65.029  16.143  1.00  0.00     0.009 C 
ATOM      3  C   UNL     1      22.069  65.711  14.838  1.00  0.00     0.012 C 
ATOM      4  C   UNL     1      22.109  64.799  13.562  1.00  0.00    -0.008 C 
ATOM      5  C   UNL     1      21.957  63.276  13.930  1.00  0.00     0.024 C 
ATOM      6  C   UNL     1      20.679  63.024  14.766  1.00  0.00     0.017 C 
ATOM      7  C   UNL     1      20.940  65.200  12.620  1.00  0.00     0.016 C 
ENDROOT
BRANCH   1   8
ATOM      8  C   UNL     1      19.069  64.498  16.073  1.00  0.00    -0.077 C 
ATOM      9  C   UNL     1      18.120  64.469  14.900  1.00  0.00     0.039 C 
ATOM     10  C   UNL     1      18.672  65.098  17.209  1.00  0.00     0.008 C 
ENDBRANCH   1   8
BRANCH   5  11
ATOM     11  C   UNL     1      23.166  62.542  14.544  1.00  0.00    -0.077 C 
ATOM     12  C   UNL     1      23.526  62.623  15.838  1.00  0.00     0.008 C 
ATOM     13  C   UNL     1      23.996  61.653  13.647  1.00  0.00     0.039 C 
ENDBRANCH   5  11
BRANCH   4  14
ATOM     14  C   UNL     1      23.396  65.014  12.763  1.00  0.00    -0.028 C 
ATOM     15  C   UNL     1      24.410  65.768  13.202  1.00  0.00     0.004 C 
ENDBRANCH   4  14
TORSDOF 3
ENDMDL
MODEL 6
REMARK VINA RESULT:    -3.932      1.638      5.299
REMARK INTER + INTRA:          -4.809
REMARK INTER:                  -4.571
REMARK INTRA:                  -0.238
REMARK UNBOUND:                -0.187
REMARK SMILES C=C[C@]1(C)CC[C@@H](C(=C)C)C[C@@H]1C(=C)C
REMARK SMILES IDX 7 1 6 2 5 3 3 4 12 5 11 6 4 7 8 8 10 9 9 10 13 11 14 12
REMARK SMILES IDX 15 13 2 14 1 15
REMARK H PARENT
REMARK Flexibility Score: inf
ROOT
ATOM      1  C   UNL     1      22.864  64.207  13.464  1.00  0.00     0.015 C 
ATOM      2  C   UNL     1      22.569  65.480  14.297  1.00  0.00     0.009 C 
ATOM      3  C   UNL     1      22.586  65.303  15.831  1.00  0.00     0.012 C 
ATOM      4  C   UNL     1      22.034  63.937  16.371  1.00  0.00    -0.008 C 
ATOM      5  C   UNL     1      21.285  63.126  15.249  1.00  0.00     0.024 C 
ATOM      6  C   UNL     1      22.185  62.921  14.007  1.00  0.00     0.017 C 
ATOM      7  C   UNL     1      23.225  63.083  16.888  1.00  0.00     0.016 C 
ENDROOT
BRANCH   1   8
ATOM      8  C   UNL     1      24.346  63.966  13.163  1.00  0.00    -0.077 C 
ATOM      9  C   UNL     1      25.020  62.637  13.397  1.00  0.00     0.039 C 
ATOM     10  C   UNL     1      25.095  65.006  12.753  1.00  0.00     0.008 C 
ENDBRANCH   1   8
BRANCH   5  11
ATOM     11  C   UNL     1      19.872  63.580  14.831  1.00  0.00    -0.077 C 
ATOM     12  C   UNL     1      19.261  64.686  15.295  1.00  0.00     0.008 C 
ATOM     13  C   UNL     1      19.122  62.747  13.817  1.00  0.00     0.039 C 
ENDBRANCH   5  11
BRANCH   4  14
ATOM     14  C   UNL     1      21.105  64.146  17.569  1.00  0.00    -0.028 C 
ATOM     15  C   UNL     1      20.701  63.147  18.362  1.00  0.00     0.004 C 
ENDBRANCH   4  14
TORSDOF 3
ENDMDL
MODEL 7
REMARK VINA RESULT:    -3.898      1.515      5.015
REMARK INTER + INTRA:          -4.769
REMARK INTER:                  -4.725
REMARK INTRA:                  -0.043
REMARK UNBOUND:                -0.187
REMARK SMILES C=C[C@]1(C)CC[C@@H](C(=C)C)C[C@@H]1C(=C)C
REMARK SMILES IDX 7 1 6 2 5 3 3 4 12 5 11 6 4 7 8 8 10 9 9 10 13 11 14 12
REMARK SMILES IDX 15 13 2 14 1 15
REMARK H PARENT
REMARK Flexibility Score: inf
ROOT
ATOM      1  C   UNL     1      21.976  63.704  14.624  1.00  0.00     0.015 C 
ATOM      2  C   UNL     1      22.214  65.069  15.317  1.00  0.00     0.009 C 
ATOM      3  C   UNL     1      21.741  65.175  16.783  1.00  0.00     0.012 C 
ATOM      4  C   UNL     1      20.423  64.401  17.136  1.00  0.00    -0.008 C 
ATOM      5  C   UNL     1      19.670  63.910  15.844  1.00  0.00     0.024 C 
ATOM      6  C   UNL     1      20.598  63.062  14.941  1.00  0.00     0.017 C 
ATOM      7  C   UNL     1      20.784  63.161  18.001  1.00  0.00     0.016 C 
ENDROOT
BRANCH   1   8
ATOM      8  C   UNL     1      23.111  62.690  14.795  1.00  0.00    -0.077 C 
ATOM      9  C   UNL     1      23.757  62.406  16.128  1.00  0.00     0.039 C 
ATOM     10  C   UNL     1      23.606  62.090  13.697  1.00  0.00     0.008 C 
ENDBRANCH   1   8
BRANCH   5  11
ATOM     11  C   UNL     1      18.889  64.943  15.009  1.00  0.00    -0.077 C 
ATOM     12  C   UNL     1      19.462  65.910  14.268  1.00  0.00     0.008 C 
ATOM     13  C   UNL     1      17.380  64.863  14.996  1.00  0.00     0.039 C 
ENDBRANCH   5  11
BRANCH   4  14
ATOM     14  C   UNL     1      19.484  65.258  17.989  1.00  0.00    -0.028 C 
ATOM     15  C   UNL     1      19.900  65.963  19.048  1.00  0.00     0.004 C 
ENDBRANCH   4  14
TORSDOF 3
ENDMDL
MODEL 8
REMARK VINA RESULT:    -3.874      2.028      4.160
REMARK INTER + INTRA:          -4.741
REMARK INTER:                  -4.565
REMARK INTRA:                  -0.176
REMARK UNBOUND:                -0.187
REMARK SMILES C=C[C@]1(C)CC[C@@H](C(=C)C)C[C@@H]1C(=C)C
REMARK SMILES IDX 7 1 6 2 5 3 3 4 12 5 11 6 4 7 8 8 10 9 9 10 13 11 14 12
REMARK SMILES IDX 15 13 2 14 1 15
REMARK H PARENT
REMARK Flexibility Score: inf
ROOT
ATOM      1  C   UNL     1      23.022  64.443  18.898  1.00  0.00     0.015 C 
ATOM      2  C   UNL     1      23.096  65.369  17.657  1.00  0.00     0.009 C 
ATOM      3  C   UNL     1      21.912  65.276  16.672  1.00  0.00     0.012 C 
ATOM      4  C   UNL     1      21.293  63.848  16.475  1.00  0.00    -0.008 C 
ATOM      5  C   UNL     1      22.202  62.726  17.101  1.00  0.00     0.024 C 
ATOM      6  C   UNL     1      22.503  63.012  18.591  1.00  0.00     0.017 C 
ATOM      7  C   UNL     1      19.903  63.803  17.170  1.00  0.00     0.016 C 
ENDROOT
BRANCH   1   8
ATOM      8  C   UNL     1      22.300  65.046  20.107  1.00  0.00    -0.077 C 
ATOM      9  C   UNL     1      22.910  66.124  20.967  1.00  0.00     0.039 C 
ATOM     10  C   UNL     1      21.108  64.533  20.463  1.00  0.00     0.008 C 
ENDBRANCH   1   8
BRANCH   5  11
ATOM     11  C   UNL     1      23.487  62.317  16.352  1.00  0.00    -0.077 C 
ATOM     12  C   UNL     1      23.888  62.852  15.184  1.00  0.00     0.008 C 
ATOM     13  C   UNL     1      24.374  61.262  16.973  1.00  0.00     0.039 C 
ENDBRANCH   5  11
BRANCH   4  14
ATOM     14  C   UNL     1      21.041  63.548  14.996  1.00  0.00    -0.028 C 
ATOM     15  C   UNL     1      19.947  62.916  14.555  1.00  0.00     0.004 C 
ENDBRANCH   4  14
TORSDOF 3
ENDMDL
MODEL 9
REMARK VINA RESULT:    -3.000      1.302      2.651
REMARK INTER + INTRA:          -3.713
REMARK INTER:                  -3.575
REMARK INTRA:                  -0.139
REMARK UNBOUND:                -0.187
REMARK SMILES C=C[C@]1(C)CC[C@@H](C(=C)C)C[C@@H]1C(=C)C
REMARK SMILES IDX 7 1 6 2 5 3 3 4 12 5 11 6 4 7 8 8 10 9 9 10 13 11 14 12
REMARK SMILES IDX 15 13 2 14 1 15
REMARK H PARENT
REMARK Flexibility Score: inf
ROOT
ATOM      1  C   UNL     1      18.651  65.219  14.996  1.00  0.00     0.015 C 
ATOM      2  C   UNL     1      19.272  63.973  14.316  1.00  0.00     0.009 C 
ATOM      3  C   UNL     1      20.088  63.039  15.234  1.00  0.00     0.012 C 
ATOM      4  C   UNL     1      20.921  63.740  16.363  1.00  0.00    -0.008 C 
ATOM      5  C   UNL     1      20.999  65.297  16.149  1.00  0.00     0.024 C 
ATOM      6  C   UNL     1      19.588  65.918  16.019  1.00  0.00     0.017 C 
ATOM      7  C   UNL     1      20.243  63.462  17.734  1.00  0.00     0.016 C 
ENDROOT
BRANCH   1   8
ATOM      8  C   UNL     1      17.255  65.000  15.585  1.00  0.00    -0.077 C 
ATOM      9  C   UNL     1      16.036  64.763  14.729  1.00  0.00     0.039 C 
ATOM     10  C   UNL     1      17.097  65.106  16.917  1.00  0.00     0.008 C 
ENDBRANCH   1   8
BRANCH   5  11
ATOM     11  C   UNL     1      21.940  65.844  15.057  1.00  0.00    -0.077 C 
ATOM     12  C   UNL     1      21.563  66.110  13.793  1.00  0.00     0.008 C 
ATOM     13  C   UNL     1      23.379  66.125  15.425  1.00  0.00     0.039 C 
ENDBRANCH   5  11
BRANCH   4  14
ATOM     14  C   UNL     1      22.333  63.158  16.458  1.00  0.00    -0.028 C 
ATOM     15  C   UNL     1      22.859  62.701  17.601  1.00  0.00     0.004 C 
ENDBRANCH   4  14
TORSDOF 3
ENDMDL
