MODEL 1
REMARK VINA RESULT:    -4.861      0.000      0.000
REMARK INTER + INTRA:          -5.473
REMARK INTER:                  -5.429
REMARK INTRA:                  -0.044
REMARK UNBOUND:                -0.044
REMARK SMILES O=C([O-])c1ccc(O)c(O)c1
REMARK SMILES IDX 4 1 11 2 5 3 9 4 6 5 7 6 2 7 1 8 3 9 10 10 8 12
REMARK H PARENT 10 11 8 13
REMARK Flexibility Score: inf
ROOT
ATOM      1  C   UNL     1      11.600 -15.617   8.192  1.00  0.00     0.001 A 
ATOM      2  C   UNL     1      12.868 -16.165   8.462  1.00  0.00     0.060 A 
ATOM      3  C   UNL     1      11.519 -14.371   7.549  1.00  0.00     0.014 A 
ATOM      4  C   UNL     1      14.033 -15.479   8.096  1.00  0.00     0.158 A 
ATOM      5  C   UNL     1      12.680 -13.685   7.184  1.00  0.00     0.051 A 
ATOM      6  C   UNL     1      13.940 -14.234   7.454  1.00  0.00     0.157 A 
ENDROOT
BRANCH   1   7
ATOM      7  C   UNL     1      10.368 -16.340   8.578  1.00  0.00     0.072 C 
ATOM      8  O   UNL     1       9.266 -15.734   8.656  1.00  0.00    -0.545 OA
ATOM      9  O   UNL     1      10.410 -17.700   8.863  1.00  0.00    -0.545 OA
ENDBRANCH   1   7
BRANCH   4  10
ATOM     10  O   UNL     1      15.272 -16.053   8.380  1.00  0.00    -0.504 OA
ATOM     11  H   UNL     1      15.909 -15.652   9.059  1.00  0.00     0.293 HD
ENDBRANCH   4  10
BRANCH   6  12
ATOM     12  O   UNL     1      15.097 -13.547   7.088  1.00  0.00    -0.504 OA
ATOM     13  H   UNL     1      15.069 -12.769   6.440  1.00  0.00     0.293 HD
ENDBRANCH   6  12
TORSDOF 3
ENDMDL
MODEL 2
REMARK VINA RESULT:    -4.818      1.912      3.555
REMARK INTER + INTRA:          -5.425
REMARK INTER:                  -5.387
REMARK INTRA:                  -0.038
REMARK UNBOUND:                -0.044
REMARK SMILES O=C([O-])c1ccc(O)c(O)c1
REMARK SMILES IDX 4 1 11 2 5 3 9 4 6 5 7 6 2 7 1 8 3 9 10 10 8 12
REMARK H PARENT 10 11 8 13
REMARK Flexibility Score: inf
ROOT
ATOM      1  C   UNL     1      12.899 -16.120   7.715  1.00  0.00     0.001 A 
ATOM      2  C   UNL     1      11.531 -16.160   7.386  1.00  0.00     0.060 A 
ATOM      3  C   UNL     1      13.558 -14.879   7.735  1.00  0.00     0.014 A 
ATOM      4  C   UNL     1      10.835 -14.984   7.083  1.00  0.00     0.158 A 
ATOM      5  C   UNL     1      12.865 -13.704   7.434  1.00  0.00     0.051 A 
ATOM      6  C   UNL     1      11.504 -13.749   7.107  1.00  0.00     0.157 A 
ENDROOT
BRANCH   1   7
ATOM      7  C   UNL     1      13.635 -17.363   8.034  1.00  0.00     0.072 C 
ATOM      8  O   UNL     1      13.240 -18.123   8.958  1.00  0.00    -0.545 OA
ATOM      9  O   UNL     1      14.775 -17.709   7.318  1.00  0.00    -0.545 OA
ENDBRANCH   1   7
BRANCH   4  10
ATOM     10  O   UNL     1       9.480 -15.063   6.762  1.00  0.00    -0.504 OA
ATOM     11  H   UNL     1       8.762 -15.136   7.473  1.00  0.00     0.293 HD
ENDBRANCH   4  10
BRANCH   6  12
ATOM     12  O   UNL     1      10.816 -12.574   6.807  1.00  0.00    -0.504 OA
ATOM     13  H   UNL     1      11.187 -11.664   7.054  1.00  0.00     0.293 HD
ENDBRANCH   6  12
TORSDOF 3
ENDMDL
MODEL 3
REMARK VINA RESULT:    -4.767      0.150      0.984
REMARK INTER + INTRA:          -5.368
REMARK INTER:                  -5.324
REMARK INTRA:                  -0.044
REMARK UNBOUND:                -0.044
REMARK SMILES O=C([O-])c1ccc(O)c(O)c1
REMARK SMILES IDX 4 1 11 2 5 3 9 4 6 5 7 6 2 7 1 8 3 9 10 10 8 12
REMARK H PARENT 10 11 8 13
REMARK Flexibility Score: inf
ROOT
ATOM      1  C   UNL     1      11.504 -15.724   8.176  1.00  0.00     0.001 A 
ATOM      2  C   UNL     1      12.777 -16.276   8.414  1.00  0.00     0.060 A 
ATOM      3  C   UNL     1      11.412 -14.455   7.581  1.00  0.00     0.014 A 
ATOM      4  C   UNL     1      13.935 -15.573   8.063  1.00  0.00     0.158 A 
ATOM      5  C   UNL     1      12.567 -13.751   7.231  1.00  0.00     0.051 A 
ATOM      6  C   UNL     1      13.832 -14.304   7.469  1.00  0.00     0.157 A 
ENDROOT
BRANCH   1   7
ATOM      7  C   UNL     1      10.279 -16.466   8.547  1.00  0.00     0.072 C 
ATOM      8  O   UNL     1      10.331 -17.695   8.820  1.00  0.00    -0.545 OA
ATOM      9  O   UNL     1       9.051 -15.818   8.596  1.00  0.00    -0.545 OA
ENDBRANCH   1   7
BRANCH   4  10
ATOM     10  O   UNL     1      15.179 -16.151   8.313  1.00  0.00    -0.504 OA
ATOM     11  H   UNL     1      15.397 -17.101   8.035  1.00  0.00     0.293 HD
ENDBRANCH   4  10
BRANCH   6  12
ATOM     12  O   UNL     1      14.982 -13.599   7.118  1.00  0.00    -0.504 OA
ATOM     13  H   UNL     1      15.295 -13.539   6.156  1.00  0.00     0.293 HD
ENDBRANCH   6  12
TORSDOF 3
ENDMDL
MODEL 4
REMARK VINA RESULT:    -4.655      1.804      4.137
REMARK INTER + INTRA:          -5.243
REMARK INTER:                  -5.207
REMARK INTRA:                  -0.036
REMARK UNBOUND:                -0.044
REMARK SMILES O=C([O-])c1ccc(O)c(O)c1
REMARK SMILES IDX 4 1 11 2 5 3 9 4 6 5 7 6 2 7 1 8 3 9 10 10 8 12
REMARK H PARENT 10 11 8 13
REMARK Flexibility Score: inf
ROOT
ATOM      1  C   UNL     1      12.733 -15.556   8.312  1.00  0.00     0.001 A 
ATOM      2  C   UNL     1      12.345 -14.298   7.814  1.00  0.00     0.060 A 
ATOM      3  C   UNL     1      11.868 -16.651   8.145  1.00  0.00     0.014 A 
ATOM      4  C   UNL     1      11.117 -14.138   7.161  1.00  0.00     0.158 A 
ATOM      5  C   UNL     1      10.642 -16.492   7.493  1.00  0.00     0.051 A 
ATOM      6  C   UNL     1      10.261 -15.239   6.999  1.00  0.00     0.157 A 
ENDROOT
BRANCH   1   7
ATOM      7  C   UNL     1      14.030 -15.727   9.003  1.00  0.00     0.072 C 
ATOM      8  O   UNL     1      14.102 -15.655  10.259  1.00  0.00    -0.545 OA
ATOM      9  O   UNL     1      15.189 -15.968   8.275  1.00  0.00    -0.545 OA
ENDBRANCH   1   7
BRANCH   4  10
ATOM     10  O   UNL     1      10.767 -12.876   6.680  1.00  0.00    -0.504 OA
ATOM     11  H   UNL     1      11.298 -12.045   6.912  1.00  0.00     0.293 HD
ENDBRANCH   4  10
BRANCH   6  12
ATOM     12  O   UNL     1       9.037 -15.084   6.350  1.00  0.00    -0.504 OA
ATOM     13  H   UNL     1       8.633 -15.830   5.795  1.00  0.00     0.293 HD
ENDBRANCH   6  12
TORSDOF 3
ENDMDL
MODEL 5
REMARK VINA RESULT:    -4.576      1.810      2.786
REMARK INTER + INTRA:          -5.155
REMARK INTER:                  -5.117
REMARK INTRA:                  -0.037
REMARK UNBOUND:                -0.044
REMARK SMILES O=C([O-])c1ccc(O)c(O)c1
REMARK SMILES IDX 4 1 11 2 5 3 9 4 6 5 7 6 2 7 1 8 3 9 10 10 8 12
REMARK H PARENT 10 11 8 13
REMARK Flexibility Score: inf
ROOT
ATOM      1  C   UNL     1      10.573 -16.507   7.643  1.00  0.00     0.001 A 
ATOM      2  C   UNL     1      10.290 -15.176   7.283  1.00  0.00     0.060 A 
ATOM      3  C   UNL     1      11.879 -16.842   8.039  1.00  0.00     0.014 A 
ATOM      4  C   UNL     1      11.291 -14.199   7.319  1.00  0.00     0.158 A 
ATOM      5  C   UNL     1      12.880 -15.868   8.075  1.00  0.00     0.051 A 
ATOM      6  C   UNL     1      12.593 -14.545   7.716  1.00  0.00     0.157 A 
ENDROOT
BRANCH   1   7
ATOM      7  C   UNL     1       9.516 -17.541   7.605  1.00  0.00     0.072 C 
ATOM      8  O   UNL     1       9.149 -18.123   8.661  1.00  0.00    -0.545 OA
ATOM      9  O   UNL     1       8.912 -17.887   6.402  1.00  0.00    -0.545 OA
ENDBRANCH   1   7
BRANCH   4  10
ATOM     10  O   UNL     1      10.973 -12.891   6.955  1.00  0.00    -0.504 OA
ATOM     11  H   UNL     1      10.307 -12.333   7.478  1.00  0.00     0.293 HD
ENDBRANCH   4  10
BRANCH   6  12
ATOM     12  O   UNL     1      13.594 -13.576   7.754  1.00  0.00    -0.504 OA
ATOM     13  H   UNL     1      13.521 -12.760   8.351  1.00  0.00     0.293 HD
ENDBRANCH   6  12
TORSDOF 3
ENDMDL
MODEL 6
REMARK VINA RESULT:    -4.379      1.121      2.299
REMARK INTER + INTRA:          -4.935
REMARK INTER:                  -4.898
REMARK INTRA:                  -0.037
REMARK UNBOUND:                -0.044
REMARK SMILES O=C([O-])c1ccc(O)c(O)c1
REMARK SMILES IDX 4 1 11 2 5 3 9 4 6 5 7 6 2 7 1 8 3 9 10 10 8 12
REMARK H PARENT 10 11 8 13
REMARK Flexibility Score: inf
ROOT
ATOM      1  C   UNL     1      11.046 -15.782   7.956  1.00  0.00     0.001 A 
ATOM      2  C   UNL     1      11.850 -14.716   7.511  1.00  0.00     0.060 A 
ATOM      3  C   UNL     1      11.662 -16.906   8.530  1.00  0.00     0.014 A 
ATOM      4  C   UNL     1      13.243 -14.772   7.637  1.00  0.00     0.158 A 
ATOM      5  C   UNL     1      13.052 -16.965   8.656  1.00  0.00     0.051 A 
ATOM      6  C   UNL     1      13.849 -15.902   8.212  1.00  0.00     0.157 A 
ENDROOT
BRANCH   1   7
ATOM      7  C   UNL     1       9.573 -15.723   7.823  1.00  0.00     0.072 C 
ATOM      8  O   UNL     1       9.030 -15.758   6.686  1.00  0.00    -0.545 OA
ATOM      9  O   UNL     1       8.768 -15.626   8.951  1.00  0.00    -0.545 OA
ENDBRANCH   1   7
BRANCH   4  10
ATOM     10  O   UNL     1      14.007 -13.697   7.185  1.00  0.00    -0.504 OA
ATOM     11  H   UNL     1      14.102 -13.480   6.199  1.00  0.00     0.293 HD
ENDBRANCH   4  10
BRANCH   6  12
ATOM     12  O   UNL     1      15.235 -15.963   8.340  1.00  0.00    -0.504 OA
ATOM     13  H   UNL     1      15.688 -16.708   8.857  1.00  0.00     0.293 HD
ENDBRANCH   6  12
TORSDOF 3
ENDMDL
MODEL 7
REMARK VINA RESULT:    -4.317      0.794      4.285
REMARK INTER + INTRA:          -4.866
REMARK INTER:                  -4.821
REMARK INTRA:                  -0.044
REMARK UNBOUND:                -0.044
REMARK SMILES O=C([O-])c1ccc(O)c(O)c1
REMARK SMILES IDX 4 1 11 2 5 3 9 4 6 5 7 6 2 7 1 8 3 9 10 10 8 12
REMARK H PARENT 10 11 8 13
REMARK Flexibility Score: inf
ROOT
ATOM      1  C   UNL     1      12.787 -15.443   7.956  1.00  0.00     0.001 A 
ATOM      2  C   UNL     1      12.353 -16.607   8.617  1.00  0.00     0.060 A 
ATOM      3  C   UNL     1      11.828 -14.557   7.436  1.00  0.00     0.014 A 
ATOM      4  C   UNL     1      10.988 -16.881   8.757  1.00  0.00     0.158 A 
ATOM      5  C   UNL     1      10.464 -14.830   7.574  1.00  0.00     0.051 A 
ATOM      6  C   UNL     1      10.037 -15.989   8.233  1.00  0.00     0.157 A 
ENDROOT
BRANCH   1   7
ATOM      7  C   UNL     1      14.230 -15.153   7.808  1.00  0.00     0.072 C 
ATOM      8  O   UNL     1      15.095 -15.961   8.240  1.00  0.00    -0.545 OA
ATOM      9  O   UNL     1      14.653 -13.981   7.191  1.00  0.00    -0.545 OA
ENDBRANCH   1   7
BRANCH   4  10
ATOM     10  O   UNL     1      10.595 -18.045   9.418  1.00  0.00    -0.504 OA
ATOM     11  H   UNL     1       9.651 -18.177   9.762  1.00  0.00     0.293 HD
ENDBRANCH   4  10
BRANCH   6  12
ATOM     12  O   UNL     1       8.676 -16.257   8.369  1.00  0.00    -0.504 OA
ATOM     13  H   UNL     1       8.237 -17.031   7.884  1.00  0.00     0.293 HD
ENDBRANCH   6  12
TORSDOF 3
ENDMDL
MODEL 8
REMARK VINA RESULT:    -4.274      1.909      4.925
REMARK INTER + INTRA:          -4.818
REMARK INTER:                  -4.774
REMARK INTRA:                  -0.044
REMARK UNBOUND:                -0.044
REMARK SMILES O=C([O-])c1ccc(O)c(O)c1
REMARK SMILES IDX 4 1 11 2 5 3 9 4 6 5 7 6 2 7 1 8 3 9 10 10 8 12
REMARK H PARENT 10 11 8 13
REMARK Flexibility Score: inf
ROOT
ATOM      1  C   UNL     1      11.500 -15.870   8.155  1.00  0.00     0.001 A 
ATOM      2  C   UNL     1      10.548 -15.320   7.276  1.00  0.00     0.060 A 
ATOM      3  C   UNL     1      11.275 -17.150   8.689  1.00  0.00     0.014 A 
ATOM      4  C   UNL     1       9.393 -16.036   6.938  1.00  0.00     0.158 A 
ATOM      5  C   UNL     1      10.123 -17.865   8.354  1.00  0.00     0.051 A 
ATOM      6  C   UNL     1       9.178 -17.314   7.479  1.00  0.00     0.157 A 
ENDROOT
BRANCH   1   7
ATOM      7  C   UNL     1      12.721 -15.115   8.513  1.00  0.00     0.072 C 
ATOM      8  O   UNL     1      13.455 -15.496   9.464  1.00  0.00    -0.545 OA
ATOM      9  O   UNL     1      13.074 -13.971   7.807  1.00  0.00    -0.545 OA
ENDBRANCH   1   7
BRANCH   4  10
ATOM     10  O   UNL     1       8.472 -15.459   6.064  1.00  0.00    -0.504 OA
ATOM     11  H   UNL     1       8.759 -14.872   5.290  1.00  0.00     0.293 HD
ENDBRANCH   4  10
BRANCH   6  12
ATOM     12  O   UNL     1       8.030 -18.031   7.145  1.00  0.00    -0.504 OA
ATOM     13  H   UNL     1       8.068 -18.843   6.541  1.00  0.00     0.293 HD
ENDBRANCH   6  12
TORSDOF 3
ENDMDL
MODEL 9
REMARK VINA RESULT:    -4.100      2.040      2.996
REMARK INTER + INTRA:          -4.623
REMARK INTER:                  -4.583
REMARK INTRA:                  -0.041
REMARK UNBOUND:                -0.044
REMARK SMILES O=C([O-])c1ccc(O)c(O)c1
REMARK SMILES IDX 4 1 11 2 5 3 9 4 6 5 7 6 2 7 1 8 3 9 10 10 8 12
REMARK H PARENT 10 11 8 13
REMARK Flexibility Score: inf
ROOT
ATOM      1  C   UNL     1       9.585 -16.476   7.644  1.00  0.00     0.001 A 
ATOM      2  C   UNL     1      10.245 -15.236   7.733  1.00  0.00     0.060 A 
ATOM      3  C   UNL     1      10.327 -17.620   7.305  1.00  0.00     0.014 A 
ATOM      4  C   UNL     1      11.620 -15.141   7.488  1.00  0.00     0.158 A 
ATOM      5  C   UNL     1      11.700 -17.526   7.060  1.00  0.00     0.051 A 
ATOM      6  C   UNL     1      12.353 -16.291   7.150  1.00  0.00     0.157 A 
ENDROOT
BRANCH   1   7
ATOM      7  C   UNL     1       8.132 -16.577   7.902  1.00  0.00     0.072 C 
ATOM      8  O   UNL     1       7.600 -15.923   8.838  1.00  0.00    -0.545 OA
ATOM      9  O   UNL     1       7.333 -17.398   7.115  1.00  0.00    -0.545 OA
ENDBRANCH   1   7
BRANCH   4  10
ATOM     10  O   UNL     1      12.240 -13.895   7.586  1.00  0.00    -0.504 OA
ATOM     11  H   UNL     1      13.195 -13.743   7.282  1.00  0.00     0.293 HD
ENDBRANCH   4  10
BRANCH   6  12
ATOM     12  O   UNL     1      13.722 -16.202   6.906  1.00  0.00    -0.504 OA
ATOM     13  H   UNL     1      14.224 -15.328   7.012  1.00  0.00     0.293 HD
ENDBRANCH   6  12
TORSDOF 3
ENDMDL
