MODEL 1
REMARK VINA RESULT:    -5.275      0.000      0.000
REMARK INTER + INTRA:          -6.840
REMARK INTER:                  -6.508
REMARK INTRA:                  -0.332
REMARK UNBOUND:                -0.332
REMARK SMILES CCOC(=O)c1ccc(O)c(O)c1
REMARK SMILES IDX 4 1 5 2 3 3 2 4 1 5 6 6 13 7 7 8 11 9 8 10 9 11 12 12 10 14
REMARK H PARENT 12 13 10 15
REMARK Flexibility Score: inf
ROOT
ATOM      1  C   UNL     1      11.098 -25.969 -10.517  1.00  0.00     0.338 C 
ATOM      2  O   UNL     1      11.925 -25.346  -9.796  1.00  0.00    -0.246 OA
ENDROOT
BRANCH   1   3
ATOM      3  O   UNL     1      11.489 -27.134 -11.189  1.00  0.00    -0.462 OA
BRANCH   3   4
ATOM      4  C   UNL     1      10.769 -28.364 -11.117  1.00  0.00     0.230 C 
ATOM      5  C   UNL     1      10.740 -28.886  -9.686  1.00  0.00     0.049 C 
ENDBRANCH   3   4
ENDBRANCH   1   3
BRANCH   1   6
ATOM      6  C   UNL     1       9.713 -25.467 -10.661  1.00  0.00     0.064 A 
ATOM      7  C   UNL     1       8.819 -25.527  -9.578  1.00  0.00     0.065 A 
ATOM      8  C   UNL     1       9.271 -24.923 -11.881  1.00  0.00     0.020 A 
ATOM      9  C   UNL     1       7.506 -25.051  -9.708  1.00  0.00     0.158 A 
ATOM     10  C   UNL     1       7.964 -24.449 -12.011  1.00  0.00     0.051 A 
ATOM     11  C   UNL     1       7.078 -24.510 -10.932  1.00  0.00     0.157 A 
BRANCH   9  12
ATOM     12  O   UNL     1       6.628 -25.115  -8.627  1.00  0.00    -0.504 OA
ATOM     13  H   UNL     1       6.100 -25.955  -8.421  1.00  0.00     0.293 HD
ENDBRANCH   9  12
BRANCH  11  14
ATOM     14  O   UNL     1       5.779 -24.030 -11.093  1.00  0.00    -0.504 OA
ATOM     15  H   UNL     1       5.386 -23.324 -10.481  1.00  0.00     0.293 HD
ENDBRANCH  11  14
ENDBRANCH   1   6
TORSDOF 5
ENDMDL
MODEL 2
REMARK VINA RESULT:    -5.215      2.715      3.395
REMARK INTER + INTRA:          -6.767
REMARK INTER:                  -6.614
REMARK INTRA:                  -0.153
REMARK UNBOUND:                -0.332
REMARK SMILES CCOC(=O)c1ccc(O)c(O)c1
REMARK SMILES IDX 4 1 5 2 3 3 2 4 1 5 6 6 13 7 7 8 11 9 8 10 9 11 12 12 10 14
REMARK H PARENT 12 13 10 15
REMARK Flexibility Score: inf
ROOT
ATOM      1  C   UNL     1      10.707 -28.705 -10.462  1.00  0.00     0.338 C 
ATOM      2  O   UNL     1      10.692 -29.112  -9.268  1.00  0.00    -0.246 OA
ENDROOT
BRANCH   1   3
ATOM      3  O   UNL     1      10.787 -29.622 -11.517  1.00  0.00    -0.462 OA
BRANCH   3   4
ATOM      4  C   UNL     1      11.662 -30.749 -11.516  1.00  0.00     0.230 C 
ATOM      5  C   UNL     1      10.865 -32.047 -11.464  1.00  0.00     0.049 C 
ENDBRANCH   3   4
ENDBRANCH   1   3
BRANCH   1   6
ATOM      6  C   UNL     1      10.647 -27.255 -10.752  1.00  0.00     0.064 A 
ATOM      7  C   UNL     1      11.344 -26.338  -9.946  1.00  0.00     0.065 A 
ATOM      8  C   UNL     1       9.893 -26.771 -11.838  1.00  0.00     0.020 A 
ATOM      9  C   UNL     1      11.292 -24.963 -10.217  1.00  0.00     0.158 A 
ATOM     10  C   UNL     1       9.840 -25.402 -12.108  1.00  0.00     0.051 A 
ATOM     11  C   UNL     1      10.536 -24.495 -11.304  1.00  0.00     0.157 A 
BRANCH   9  12
ATOM     12  O   UNL     1      11.988 -24.063  -9.411  1.00  0.00    -0.504 OA
ATOM     13  H   UNL     1      12.547 -23.317  -9.807  1.00  0.00     0.293 HD
ENDBRANCH   9  12
BRANCH  11  14
ATOM     14  O   UNL     1      10.463 -23.133 -11.599  1.00  0.00    -0.504 OA
ATOM     15  H   UNL     1      10.280 -22.437 -10.886  1.00  0.00     0.293 HD
ENDBRANCH  11  14
ENDBRANCH   1   6
TORSDOF 5
ENDMDL
MODEL 3
REMARK VINA RESULT:    -5.052     12.265     15.026
REMARK INTER + INTRA:          -6.565
REMARK INTER:                  -6.273
REMARK INTRA:                  -0.292
REMARK UNBOUND:                -0.332
REMARK SMILES CCOC(=O)c1ccc(O)c(O)c1
REMARK SMILES IDX 4 1 5 2 3 3 2 4 1 5 6 6 13 7 7 8 11 9 8 10 9 11 12 12 10 14
REMARK H PARENT 12 13 10 15
REMARK Flexibility Score: inf
ROOT
ATOM      1  C   UNL     1      14.745 -33.267 -20.362  1.00  0.00     0.338 C 
ATOM      2  O   UNL     1      13.909 -33.618 -21.239  1.00  0.00    -0.246 OA
ENDROOT
BRANCH   1   3
ATOM      3  O   UNL     1      14.403 -33.316 -19.004  1.00  0.00    -0.462 OA
BRANCH   3   4
ATOM      4  C   UNL     1      15.313 -33.702 -17.976  1.00  0.00     0.230 C 
ATOM      5  C   UNL     1      15.631 -32.520 -17.068  1.00  0.00     0.049 C 
ENDBRANCH   3   4
ENDBRANCH   1   3
BRANCH   1   6
ATOM      6  C   UNL     1      16.089 -32.795 -20.764  1.00  0.00     0.064 A 
ATOM      7  C   UNL     1      17.098 -33.718 -21.091  1.00  0.00     0.065 A 
ATOM      8  C   UNL     1      16.378 -31.420 -20.824  1.00  0.00     0.020 A 
ATOM      9  C   UNL     1      18.373 -33.276 -21.475  1.00  0.00     0.158 A 
ATOM     10  C   UNL     1      17.648 -30.979 -21.205  1.00  0.00     0.051 A 
ATOM     11  C   UNL     1      18.647 -31.900 -21.531  1.00  0.00     0.157 A 
BRANCH   9  12
ATOM     12  O   UNL     1      19.366 -34.200 -21.799  1.00  0.00    -0.504 OA
ATOM     13  H   UNL     1      19.500 -34.525 -22.749  1.00  0.00     0.293 HD
ENDBRANCH   9  12
BRANCH  11  14
ATOM     14  O   UNL     1      19.905 -31.430 -21.907  1.00  0.00    -0.504 OA
ATOM     15  H   UNL     1      20.325 -30.614 -21.478  1.00  0.00     0.293 HD
ENDBRANCH  11  14
ENDBRANCH   1   6
TORSDOF 5
ENDMDL
MODEL 4
REMARK VINA RESULT:    -4.795     12.168     14.899
REMARK INTER + INTRA:          -6.249
REMARK INTER:                  -5.970
REMARK INTRA:                  -0.279
REMARK UNBOUND:                -0.332
REMARK SMILES CCOC(=O)c1ccc(O)c(O)c1
REMARK SMILES IDX 4 1 5 2 3 3 2 4 1 5 6 6 13 7 7 8 11 9 8 10 9 11 12 12 10 14
REMARK H PARENT 12 13 10 15
REMARK Flexibility Score: inf
ROOT
ATOM      1  C   UNL     1      15.305 -33.304 -19.644  1.00  0.00     0.338 C 
ATOM      2  O   UNL     1      15.429 -33.733 -18.465  1.00  0.00    -0.246 OA
ENDROOT
BRANCH   1   3
ATOM      3  O   UNL     1      14.093 -33.467 -20.328  1.00  0.00    -0.462 OA
BRANCH   3   4
ATOM      4  C   UNL     1      12.827 -33.090 -19.789  1.00  0.00     0.230 C 
ATOM      5  C   UNL     1      12.784 -31.591 -19.516  1.00  0.00     0.049 C 
ENDBRANCH   3   4
ENDBRANCH   1   3
BRANCH   1   6
ATOM      6  C   UNL     1      16.441 -32.632 -20.313  1.00  0.00     0.064 A 
ATOM      7  C   UNL     1      17.254 -33.340 -21.215  1.00  0.00     0.065 A 
ATOM      8  C   UNL     1      16.725 -31.278 -20.058  1.00  0.00     0.020 A 
ATOM      9  C   UNL     1      18.332 -32.709 -21.854  1.00  0.00     0.158 A 
ATOM     10  C   UNL     1      17.799 -30.648 -20.693  1.00  0.00     0.051 A 
ATOM     11  C   UNL     1      18.604 -31.356 -21.590  1.00  0.00     0.157 A 
BRANCH   9  12
ATOM     12  O   UNL     1      19.132 -33.421 -22.747  1.00  0.00    -0.504 OA
ATOM     13  H   UNL     1      19.714 -32.950 -23.430  1.00  0.00     0.293 HD
ENDBRANCH   9  12
BRANCH  11  14
ATOM     14  O   UNL     1      19.669 -30.701 -22.207  1.00  0.00    -0.504 OA
ATOM     15  H   UNL     1      19.536 -29.863 -22.762  1.00  0.00     0.293 HD
ENDBRANCH  11  14
ENDBRANCH   1   6
TORSDOF 5
ENDMDL
MODEL 5
REMARK VINA RESULT:    -4.787     14.598     16.132
REMARK INTER + INTRA:          -6.239
REMARK INTER:                  -5.942
REMARK INTRA:                  -0.297
REMARK UNBOUND:                -0.332
REMARK SMILES CCOC(=O)c1ccc(O)c(O)c1
REMARK SMILES IDX 4 1 5 2 3 3 2 4 1 5 6 6 13 7 7 8 11 9 8 10 9 11 12 12 10 14
REMARK H PARENT 12 13 10 15
REMARK Flexibility Score: inf
ROOT
ATOM      1  C   UNL     1      18.427 -29.138 -21.681  1.00  0.00     0.338 C 
ATOM      2  O   UNL     1      18.554 -28.474 -20.616  1.00  0.00    -0.246 OA
ENDROOT
BRANCH   1   3
ATOM      3  O   UNL     1      18.236 -28.479 -22.902  1.00  0.00    -0.462 OA
BRANCH   3   4
ATOM      4  C   UNL     1      19.088 -27.437 -23.376  1.00  0.00     0.230 C 
ATOM      5  C   UNL     1      20.509 -27.952 -23.572  1.00  0.00     0.049 C 
ENDBRANCH   3   4
ENDBRANCH   1   3
BRANCH   1   6
ATOM      6  C   UNL     1      18.472 -30.617 -21.644  1.00  0.00     0.064 A 
ATOM      7  C   UNL     1      17.419 -31.346 -21.064  1.00  0.00     0.065 A 
ATOM      8  C   UNL     1      19.566 -31.315 -22.187  1.00  0.00     0.020 A 
ATOM      9  C   UNL     1      17.455 -32.748 -21.028  1.00  0.00     0.158 A 
ATOM     10  C   UNL     1      19.603 -32.711 -22.150  1.00  0.00     0.051 A 
ATOM     11  C   UNL     1      18.553 -33.432 -21.574  1.00  0.00     0.157 A 
BRANCH   9  12
ATOM     12  O   UNL     1      16.404 -33.460 -20.451  1.00  0.00    -0.504 OA
ATOM     13  H   UNL     1      15.477 -33.463 -20.859  1.00  0.00     0.293 HD
ENDBRANCH   9  12
BRANCH  11  14
ATOM     14  O   UNL     1      18.619 -34.825 -21.551  1.00  0.00    -0.504 OA
ATOM     15  H   UNL     1      18.231 -35.370 -20.790  1.00  0.00     0.293 HD
ENDBRANCH  11  14
ENDBRANCH   1   6
TORSDOF 5
ENDMDL
MODEL 6
REMARK VINA RESULT:    -4.706      2.839      4.611
REMARK INTER + INTRA:          -6.138
REMARK INTER:                  -5.961
REMARK INTRA:                  -0.177
REMARK UNBOUND:                -0.332
REMARK SMILES CCOC(=O)c1ccc(O)c(O)c1
REMARK SMILES IDX 4 1 5 2 3 3 2 4 1 5 6 6 13 7 7 8 11 9 8 10 9 11 12 12 10 14
REMARK H PARENT 12 13 10 15
REMARK Flexibility Score: inf
ROOT
ATOM      1  C   UNL     1       9.277 -27.435 -13.203  1.00  0.00     0.338 C 
ATOM      2  O   UNL     1       9.853 -28.464 -13.651  1.00  0.00    -0.246 OA
ENDROOT
BRANCH   1   3
ATOM      3  O   UNL     1       8.002 -27.084 -13.667  1.00  0.00    -0.462 OA
BRANCH   3   4
ATOM      4  C   UNL     1       7.757 -26.539 -14.962  1.00  0.00     0.230 C 
ATOM      5  C   UNL     1       7.182 -27.601 -15.892  1.00  0.00     0.049 C 
ENDBRANCH   3   4
ENDBRANCH   1   3
BRANCH   1   6
ATOM      6  C   UNL     1       9.949 -26.588 -12.192  1.00  0.00     0.064 A 
ATOM      7  C   UNL     1       9.931 -25.188 -12.312  1.00  0.00     0.065 A 
ATOM      8  C   UNL     1      10.614 -27.170 -11.098  1.00  0.00     0.020 A 
ATOM      9  C   UNL     1      10.564 -24.380 -11.355  1.00  0.00     0.158 A 
ATOM     10  C   UNL     1      11.246 -26.368 -10.145  1.00  0.00     0.051 A 
ATOM     11  C   UNL     1      11.225 -24.975 -10.268  1.00  0.00     0.157 A 
BRANCH   9  12
ATOM     12  O   UNL     1      10.539 -22.992 -11.483  1.00  0.00    -0.504 OA
ATOM     13  H   UNL     1      10.426 -22.387 -10.679  1.00  0.00     0.293 HD
ENDBRANCH   9  12
BRANCH  11  14
ATOM     14  O   UNL     1      11.865 -24.200  -9.301  1.00  0.00    -0.504 OA
ATOM     15  H   UNL     1      12.120 -23.234  -9.469  1.00  0.00     0.293 HD
ENDBRANCH  11  14
ENDBRANCH   1   6
TORSDOF 5
ENDMDL
MODEL 7
REMARK VINA RESULT:    -4.696      9.932     12.023
REMARK INTER + INTRA:          -6.126
REMARK INTER:                  -5.957
REMARK INTRA:                  -0.170
REMARK UNBOUND:                -0.332
REMARK SMILES CCOC(=O)c1ccc(O)c(O)c1
REMARK SMILES IDX 4 1 5 2 3 3 2 4 1 5 6 6 13 7 7 8 11 9 8 10 9 11 12 12 10 14
REMARK H PARENT 12 13 10 15
REMARK Flexibility Score: inf
ROOT
ATOM      1  C   UNL     1       7.866 -32.380 -19.308  1.00  0.00     0.338 C 
ATOM      2  O   UNL     1       7.352 -32.891 -20.340  1.00  0.00    -0.246 OA
ENDROOT
BRANCH   1   3
ATOM      3  O   UNL     1       7.412 -31.141 -18.836  1.00  0.00    -0.462 OA
BRANCH   3   4
ATOM      4  C   UNL     1       7.940 -29.890 -19.272  1.00  0.00     0.230 C 
ATOM      5  C   UNL     1       7.319 -29.479 -20.601  1.00  0.00     0.049 C 
ENDBRANCH   3   4
ENDBRANCH   1   3
BRANCH   1   6
ATOM      6  C   UNL     1       8.956 -33.083 -18.596  1.00  0.00     0.064 A 
ATOM      7  C   UNL     1       9.607 -34.175 -19.194  1.00  0.00     0.065 A 
ATOM      8  C   UNL     1       9.357 -32.669 -17.312  1.00  0.00     0.020 A 
ATOM      9  C   UNL     1      10.643 -34.844 -18.524  1.00  0.00     0.158 A 
ATOM     10  C   UNL     1      10.387 -33.336 -16.644  1.00  0.00     0.051 A 
ATOM     11  C   UNL     1      11.033 -34.421 -17.243  1.00  0.00     0.157 A 
BRANCH   9  12
ATOM     12  O   UNL     1      11.282 -35.927 -19.127  1.00  0.00    -0.504 OA
ATOM     13  H   UNL     1      11.816 -35.819 -19.981  1.00  0.00     0.293 HD
ENDBRANCH   9  12
BRANCH  11  14
ATOM     14  O   UNL     1      12.057 -35.066 -16.551  1.00  0.00    -0.504 OA
ATOM     15  H   UNL     1      11.887 -35.582 -15.695  1.00  0.00     0.293 HD
ENDBRANCH  11  14
ENDBRANCH   1   6
TORSDOF 5
ENDMDL
MODEL 8
REMARK VINA RESULT:    -4.691     10.938     11.366
REMARK INTER + INTRA:          -6.120
REMARK INTER:                  -5.949
REMARK INTRA:                  -0.171
REMARK UNBOUND:                -0.332
REMARK SMILES CCOC(=O)c1ccc(O)c(O)c1
REMARK SMILES IDX 4 1 5 2 3 3 2 4 1 5 6 6 13 7 7 8 11 9 8 10 9 11 12 12 10 14
REMARK H PARENT 12 13 10 15
REMARK Flexibility Score: inf
ROOT
ATOM      1  C   UNL     1       8.471 -32.517 -20.120  1.00  0.00     0.338 C 
ATOM      2  O   UNL     1       7.460 -33.058 -19.594  1.00  0.00    -0.246 OA
ENDROOT
BRANCH   1   3
ATOM      3  O   UNL     1       9.622 -33.274 -20.372  1.00  0.00    -0.462 OA
BRANCH   3   4
ATOM      4  C   UNL     1      10.592 -33.589 -19.374  1.00  0.00     0.230 C 
ATOM      5  C   UNL     1      10.306 -34.953 -18.759  1.00  0.00     0.049 C 
ENDBRANCH   3   4
ENDBRANCH   1   3
BRANCH   1   6
ATOM      6  C   UNL     1       8.447 -31.078 -20.467  1.00  0.00     0.064 A 
ATOM      7  C   UNL     1       7.268 -30.329 -20.313  1.00  0.00     0.065 A 
ATOM      8  C   UNL     1       9.602 -30.440 -20.956  1.00  0.00     0.020 A 
ATOM      9  C   UNL     1       7.240 -28.965 -20.638  1.00  0.00     0.158 A 
ATOM     10  C   UNL     1       9.575 -29.081 -21.281  1.00  0.00     0.051 A 
ATOM     11  C   UNL     1       8.400 -28.340 -21.125  1.00  0.00     0.157 A 
BRANCH   9  12
ATOM     12  O   UNL     1       6.065 -28.231 -20.480  1.00  0.00    -0.504 OA
ATOM     13  H   UNL     1       5.840 -27.771 -19.607  1.00  0.00     0.293 HD
ENDBRANCH   9  12
BRANCH  11  14
ATOM     14  O   UNL     1       8.404 -26.986 -21.458  1.00  0.00    -0.504 OA
ATOM     15  H   UNL     1       7.706 -26.580 -22.071  1.00  0.00     0.293 HD
ENDBRANCH  11  14
ENDBRANCH   1   6
TORSDOF 5
ENDMDL
MODEL 9
REMARK VINA RESULT:    -4.679     14.370     16.666
REMARK INTER + INTRA:          -6.105
REMARK INTER:                  -5.979
REMARK INTRA:                  -0.126
REMARK UNBOUND:                -0.332
REMARK SMILES CCOC(=O)c1ccc(O)c(O)c1
REMARK SMILES IDX 4 1 5 2 3 3 2 4 1 5 6 6 13 7 7 8 11 9 8 10 9 11 12 12 10 14
REMARK H PARENT 12 13 10 15
REMARK Flexibility Score: inf
ROOT
ATOM      1  C   UNL     1      19.818 -34.371 -22.201  1.00  0.00     0.338 C 
ATOM      2  O   UNL     1      20.592 -34.301 -23.195  1.00  0.00    -0.246 OA
ENDROOT
BRANCH   1   3
ATOM      3  O   UNL     1      19.745 -35.550 -21.448  1.00  0.00    -0.462 OA
BRANCH   3   4
ATOM      4  C   UNL     1      20.447 -36.745 -21.786  1.00  0.00     0.230 C 
ATOM      5  C   UNL     1      20.497 -37.694 -20.595  1.00  0.00     0.049 C 
ENDBRANCH   3   4
ENDBRANCH   1   3
BRANCH   1   6
ATOM      6  C   UNL     1      18.978 -33.210 -21.831  1.00  0.00     0.064 A 
ATOM      7  C   UNL     1      19.468 -31.901 -21.983  1.00  0.00     0.065 A 
ATOM      8  C   UNL     1      17.680 -33.397 -21.323  1.00  0.00     0.020 A 
ATOM      9  C   UNL     1      18.676 -30.796 -21.636  1.00  0.00     0.158 A 
ATOM     10  C   UNL     1      16.891 -32.298 -20.976  1.00  0.00     0.051 A 
ATOM     11  C   UNL     1      17.381 -30.998 -21.130  1.00  0.00     0.157 A 
BRANCH   9  12
ATOM     12  O   UNL     1      19.172 -29.502 -21.791  1.00  0.00    -0.504 OA
ATOM     13  H   UNL     1      18.556 -28.699 -21.832  1.00  0.00     0.293 HD
ENDBRANCH   9  12
BRANCH  11  14
ATOM     14  O   UNL     1      16.570 -29.921 -20.775  1.00  0.00    -0.504 OA
ATOM     15  H   UNL     1      16.945 -28.991 -20.624  1.00  0.00     0.293 HD
ENDBRANCH  11  14
ENDBRANCH   1   6
TORSDOF 5
ENDMDL
