MODEL 1
REMARK VINA RESULT:    -4.940      0.000      0.000
REMARK INTER + INTRA:          -6.069
REMARK INTER:                  -5.806
REMARK INTRA:                  -0.262
REMARK UNBOUND:                -0.262
REMARK SMILES O=c1cc(-c2ccc(O)c(O)c2)oc2cc(O)cc(O)c12
REMARK SMILES IDX 4 1 3 2 2 3 1 4 21 5 19 6 18 7 16 8 15 9 14 10 13 11 5 12
REMARK SMILES IDX 6 13 7 14 8 15 12 16 10 17 9 18 11 20 20 22 17 24
REMARK H PARENT 9 19 11 21 20 23 17 25
REMARK Flexibility Score: inf
ROOT
ATOM      1  C   UNL     1      23.591   7.798  -6.648  1.00  0.00     0.138 A 
ATOM      2  C   UNL     1      24.475   7.817  -5.561  1.00  0.00     0.100 A 
ATOM      3  C   UNL     1      24.920   6.614  -5.012  1.00  0.00     0.197 A 
ATOM      4  O   UNL     1      25.760   6.663  -4.077  1.00  0.00    -0.289 OA
ATOM      5  C   UNL     1      24.452   5.386  -5.537  1.00  0.00     0.107 A 
ATOM      6  C   UNL     1      24.805   4.099  -5.032  1.00  0.00     0.134 A 
ATOM      7  C   UNL     1      24.372   2.950  -5.705  1.00  0.00     0.093 A 
ATOM      8  C   UNL     1      23.551   3.039  -6.828  1.00  0.00     0.123 A 
ATOM      9  C   UNL     1      23.154   4.292  -7.299  1.00  0.00     0.094 A 
ATOM     10  C   UNL     1      23.598   5.457  -6.669  1.00  0.00     0.146 A 
ATOM     11  O   UNL     1      23.210   6.631  -7.157  1.00  0.00    -0.456 OA
ENDROOT
BRANCH   1  12
ATOM     12  C   UNL     1      23.086   9.048  -7.270  1.00  0.00     0.021 A 
ATOM     13  C   UNL     1      23.667   9.583  -8.435  1.00  0.00     0.016 A 
ATOM     14  C   UNL     1      23.178  10.768  -8.992  1.00  0.00     0.051 A 
ATOM     15  C   UNL     1      22.106  11.441  -8.392  1.00  0.00     0.157 A 
ATOM     16  C   UNL     1      22.019   9.740  -6.666  1.00  0.00     0.062 A 
ATOM     17  C   UNL     1      21.528  10.927  -7.226  1.00  0.00     0.158 A 
BRANCH  15  18
ATOM     18  O   UNL     1      21.616  12.622  -8.946  1.00  0.00    -0.504 OA
ATOM     19  H   UNL     1      20.621  12.789  -9.044  1.00  0.00     0.293 HD
ENDBRANCH  15  18
BRANCH  17  20
ATOM     20  O   UNL     1      20.464  11.602  -6.629  1.00  0.00    -0.504 OA
ATOM     21  H   UNL     1      19.948  11.199  -5.855  1.00  0.00     0.293 HD
ENDBRANCH  17  20
ENDBRANCH   1  12
BRANCH   6  22
ATOM     22  O   UNL     1      25.553   3.895  -3.867  1.00  0.00    -0.507 OA
ATOM     23  H   UNL     1      25.300   3.263  -3.123  1.00  0.00     0.293 HD
ENDBRANCH   6  22
BRANCH   8  24
ATOM     24  O   UNL     1      23.126   1.875  -7.464  1.00  0.00    -0.508 OA
ATOM     25  H   UNL     1      23.106   1.800  -8.474  1.00  0.00     0.293 HD
ENDBRANCH   8  24
TORSDOF 5
ENDMDL
MODEL 2
REMARK VINA RESULT:    -4.887      1.005      2.646
REMARK INTER + INTRA:          -6.006
REMARK INTER:                  -5.743
REMARK INTRA:                  -0.263
REMARK UNBOUND:                -0.262
REMARK SMILES O=c1cc(-c2ccc(O)c(O)c2)oc2cc(O)cc(O)c12
REMARK SMILES IDX 4 1 3 2 2 3 1 4 21 5 19 6 18 7 16 8 15 9 14 10 13 11 5 12
REMARK SMILES IDX 6 13 7 14 8 15 12 16 10 17 9 18 11 20 20 22 17 24
REMARK H PARENT 9 19 11 21 20 23 17 25
REMARK Flexibility Score: inf
ROOT
ATOM      1  C   UNL     1      23.045   7.392  -7.544  1.00  0.00     0.138 A 
ATOM      2  C   UNL     1      22.387   6.367  -8.238  1.00  0.00     0.100 A 
ATOM      3  C   UNL     1      22.621   5.036  -7.891  1.00  0.00     0.197 A 
ATOM      4  O   UNL     1      21.969   4.143  -8.490  1.00  0.00    -0.289 OA
ATOM      5  C   UNL     1      23.544   4.730  -6.863  1.00  0.00     0.107 A 
ATOM      6  C   UNL     1      23.894   3.410  -6.451  1.00  0.00     0.134 A 
ATOM      7  C   UNL     1      24.732   3.231  -5.344  1.00  0.00     0.093 A 
ATOM      8  C   UNL     1      25.282   4.322  -4.672  1.00  0.00     0.123 A 
ATOM      9  C   UNL     1      24.990   5.618  -5.100  1.00  0.00     0.094 A 
ATOM     10  C   UNL     1      24.130   5.830  -6.179  1.00  0.00     0.146 A 
ATOM     11  O   UNL     1      23.866   7.080  -6.547  1.00  0.00    -0.456 OA
ENDROOT
BRANCH   1  12
ATOM     12  C   UNL     1      22.833   8.824  -7.874  1.00  0.00     0.021 A 
ATOM     13  C   UNL     1      23.614   9.484  -8.841  1.00  0.00     0.016 A 
ATOM     14  C   UNL     1      23.399  10.836  -9.125  1.00  0.00     0.051 A 
ATOM     15  C   UNL     1      22.408  11.552  -8.442  1.00  0.00     0.157 A 
ATOM     16  C   UNL     1      21.849   9.555  -7.184  1.00  0.00     0.062 A 
ATOM     17  C   UNL     1      21.633  10.911  -7.469  1.00  0.00     0.158 A 
BRANCH  15  18
ATOM     18  O   UNL     1      22.191  12.899  -8.723  1.00  0.00    -0.504 OA
ATOM     19  H   UNL     1      21.402  13.204  -9.281  1.00  0.00     0.293 HD
ENDBRANCH  15  18
BRANCH  17  20
ATOM     20  O   UNL     1      20.650  11.627  -6.788  1.00  0.00    -0.504 OA
ATOM     21  H   UNL     1      20.780  12.602  -6.540  1.00  0.00     0.293 HD
ENDBRANCH  17  20
ENDBRANCH   1  12
BRANCH   6  22
ATOM     22  O   UNL     1      23.468   2.249  -7.105  1.00  0.00    -0.507 OA
ATOM     23  H   UNL     1      22.508   2.024  -7.314  1.00  0.00     0.293 HD
ENDBRANCH   6  22
BRANCH   8  24
ATOM     24  O   UNL     1      26.124   4.107  -3.583  1.00  0.00    -0.508 OA
ATOM     25  H   UNL     1      25.932   3.386  -2.899  1.00  0.00     0.293 HD
ENDBRANCH   8  24
TORSDOF 5
ENDMDL
MODEL 3
REMARK VINA RESULT:    -4.681      1.695      7.192
REMARK INTER + INTRA:          -5.764
REMARK INTER:                  -5.490
REMARK INTRA:                  -0.274
REMARK UNBOUND:                -0.262
REMARK SMILES O=c1cc(-c2ccc(O)c(O)c2)oc2cc(O)cc(O)c12
REMARK SMILES IDX 4 1 3 2 2 3 1 4 21 5 19 6 18 7 16 8 15 9 14 10 13 11 5 12
REMARK SMILES IDX 6 13 7 14 8 15 12 16 10 17 9 18 11 20 20 22 17 24
REMARK H PARENT 9 19 11 21 20 23 17 25
REMARK Flexibility Score: inf
ROOT
ATOM      1  C   UNL     1      23.816   6.866  -6.159  1.00  0.00     0.138 A 
ATOM      2  C   UNL     1      22.464   7.208  -6.019  1.00  0.00     0.100 A 
ATOM      3  C   UNL     1      22.006   8.432  -6.508  1.00  0.00     0.197 A 
ATOM      4  O   UNL     1      20.777   8.684  -6.422  1.00  0.00    -0.289 OA
ATOM      5  C   UNL     1      22.916   9.331  -7.114  1.00  0.00     0.107 A 
ATOM      6  C   UNL     1      22.572  10.623  -7.612  1.00  0.00     0.134 A 
ATOM      7  C   UNL     1      23.533  11.377  -8.297  1.00  0.00     0.093 A 
ATOM      8  C   UNL     1      24.839  10.915  -8.448  1.00  0.00     0.123 A 
ATOM      9  C   UNL     1      25.201   9.676  -7.917  1.00  0.00     0.094 A 
ATOM     10  C   UNL     1      24.257   8.884  -7.259  1.00  0.00     0.146 A 
ATOM     11  O   UNL     1      24.638   7.704  -6.781  1.00  0.00    -0.456 OA
ENDROOT
BRANCH   1  12
ATOM     12  C   UNL     1      24.354   5.577  -5.656  1.00  0.00     0.021 A 
ATOM     13  C   UNL     1      25.559   5.512  -4.930  1.00  0.00     0.016 A 
ATOM     14  C   UNL     1      26.048   4.284  -4.477  1.00  0.00     0.051 A 
ATOM     15  C   UNL     1      25.349   3.101  -4.748  1.00  0.00     0.157 A 
ATOM     16  C   UNL     1      23.666   4.382  -5.935  1.00  0.00     0.062 A 
ATOM     17  C   UNL     1      24.157   3.151  -5.479  1.00  0.00     0.158 A 
BRANCH  15  18
ATOM     18  O   UNL     1      25.834   1.875  -4.296  1.00  0.00    -0.504 OA
ATOM     19  H   UNL     1      25.717   1.026  -4.838  1.00  0.00     0.293 HD
ENDBRANCH  15  18
BRANCH  17  20
ATOM     20  O   UNL     1      23.465   1.971  -5.751  1.00  0.00    -0.504 OA
ATOM     21  H   UNL     1      22.667   1.957  -6.376  1.00  0.00     0.293 HD
ENDBRANCH  17  20
ENDBRANCH   1  12
BRANCH   6  22
ATOM     22  O   UNL     1      21.317  11.218  -7.441  1.00  0.00    -0.507 OA
ATOM     23  H   UNL     1      21.103  11.923  -6.753  1.00  0.00     0.293 HD
ENDBRANCH   6  22
BRANCH   8  24
ATOM     24  O   UNL     1      25.773  11.699  -9.121  1.00  0.00    -0.508 OA
ATOM     25  H   UNL     1      26.401  12.319  -8.624  1.00  0.00     0.293 HD
ENDBRANCH   8  24
TORSDOF 5
ENDMDL
MODEL 4
REMARK VINA RESULT:    -4.577     21.202     22.746
REMARK INTER + INTRA:          -5.642
REMARK INTER:                  -5.329
REMARK INTRA:                  -0.312
REMARK UNBOUND:                -0.262
REMARK SMILES O=c1cc(-c2ccc(O)c(O)c2)oc2cc(O)cc(O)c12
REMARK SMILES IDX 4 1 3 2 2 3 1 4 21 5 19 6 18 7 16 8 15 9 14 10 13 11 5 12
REMARK SMILES IDX 6 13 7 14 8 15 12 16 10 17 9 18 11 20 20 22 17 24
REMARK H PARENT 9 19 11 21 20 23 17 25
REMARK Flexibility Score: inf
ROOT
ATOM      1  C   UNL     1       6.979  19.765   2.065  1.00  0.00     0.138 A 
ATOM      2  C   UNL     1       6.989  20.991   2.744  1.00  0.00     0.100 A 
ATOM      3  C   UNL     1       7.054  21.009   4.137  1.00  0.00     0.197 A 
ATOM      4  O   UNL     1       7.123  22.124   4.715  1.00  0.00    -0.289 OA
ATOM      5  C   UNL     1       7.079  19.790   4.855  1.00  0.00     0.107 A 
ATOM      6  C   UNL     1       7.104  19.684   6.278  1.00  0.00     0.134 A 
ATOM      7  C   UNL     1       7.246  18.426   6.875  1.00  0.00     0.093 A 
ATOM      8  C   UNL     1       7.301  17.265   6.106  1.00  0.00     0.123 A 
ATOM      9  C   UNL     1       7.223  17.351   4.715  1.00  0.00     0.094 A 
ATOM     10  C   UNL     1       7.117  18.595   4.088  1.00  0.00     0.146 A 
ATOM     11  O   UNL     1       7.059  18.635   2.760  1.00  0.00    -0.456 OA
ENDROOT
BRANCH   1  12
ATOM     12  C   UNL     1       6.910  19.689   0.584  1.00  0.00     0.021 A 
ATOM     13  C   UNL     1       7.229  20.794  -0.229  1.00  0.00     0.016 A 
ATOM     14  C   UNL     1       7.144  20.697  -1.621  1.00  0.00     0.051 A 
ATOM     15  C   UNL     1       6.733  19.501  -2.223  1.00  0.00     0.157 A 
ATOM     16  C   UNL     1       6.484  18.497  -0.030  1.00  0.00     0.062 A 
ATOM     17  C   UNL     1       6.401  18.400  -1.426  1.00  0.00     0.158 A 
BRANCH  15  18
ATOM     18  O   UNL     1       6.649  19.402  -3.610  1.00  0.00    -0.504 OA
ATOM     19  H   UNL     1       7.206  18.733  -4.129  1.00  0.00     0.293 HD
ENDBRANCH  15  18
BRANCH  17  20
ATOM     20  O   UNL     1       5.987  17.213  -2.028  1.00  0.00    -0.504 OA
ATOM     21  H   UNL     1       5.534  17.208  -2.935  1.00  0.00     0.293 HD
ENDBRANCH  17  20
ENDBRANCH   1  12
BRANCH   6  22
ATOM     22  O   UNL     1       6.970  20.775   7.144  1.00  0.00    -0.507 OA
ATOM     23  H   UNL     1       7.059  21.741   6.873  1.00  0.00     0.293 HD
ENDBRANCH   6  22
BRANCH   8  24
ATOM     24  O   UNL     1       7.427  16.028   6.734  1.00  0.00    -0.508 OA
ATOM     25  H   UNL     1       7.134  15.171   6.280  1.00  0.00     0.293 HD
ENDBRANCH   8  24
TORSDOF 5
ENDMDL
MODEL 5
REMARK VINA RESULT:    -4.191     22.565     23.822
REMARK INTER + INTRA:          -5.189
REMARK INTER:                  -4.880
REMARK INTRA:                  -0.309
REMARK UNBOUND:                -0.262
REMARK SMILES O=c1cc(-c2ccc(O)c(O)c2)oc2cc(O)cc(O)c12
REMARK SMILES IDX 4 1 3 2 2 3 1 4 21 5 19 6 18 7 16 8 15 9 14 10 13 11 5 12
REMARK SMILES IDX 6 13 7 14 8 15 12 16 10 17 9 18 11 20 20 22 17 24
REMARK H PARENT 9 19 11 21 20 23 17 25
REMARK Flexibility Score: inf
ROOT
ATOM      1  C   UNL     1       8.776  20.386   6.045  1.00  0.00     0.138 A 
ATOM      2  C   UNL     1       8.345  21.348   5.121  1.00  0.00     0.100 A 
ATOM      3  C   UNL     1       7.502  20.972   4.075  1.00  0.00     0.197 A 
ATOM      4  O   UNL     1       7.082  21.868   3.299  1.00  0.00    -0.289 OA
ATOM      5  C   UNL     1       7.113  19.618   3.938  1.00  0.00     0.107 A 
ATOM      6  C   UNL     1       6.290  19.111   2.888  1.00  0.00     0.134 A 
ATOM      7  C   UNL     1       5.875  17.774   2.920  1.00  0.00     0.093 A 
ATOM      8  C   UNL     1       6.302  16.911   3.928  1.00  0.00     0.123 A 
ATOM      9  C   UNL     1       7.152  17.382   4.930  1.00  0.00     0.094 A 
ATOM     10  C   UNL     1       7.555  18.719   4.945  1.00  0.00     0.146 A 
ATOM     11  O   UNL     1       8.353  19.132   5.925  1.00  0.00    -0.456 OA
ENDROOT
BRANCH   1  12
ATOM     12  C   UNL     1       9.675  20.732   7.175  1.00  0.00     0.021 A 
ATOM     13  C   UNL     1      10.578  21.809   7.099  1.00  0.00     0.016 A 
ATOM     14  C   UNL     1      11.420  22.106   8.175  1.00  0.00     0.051 A 
ATOM     15  C   UNL     1      11.380  21.328   9.339  1.00  0.00     0.157 A 
ATOM     16  C   UNL     1       9.652  19.948   8.343  1.00  0.00     0.062 A 
ATOM     17  C   UNL     1      10.496  20.247   9.422  1.00  0.00     0.158 A 
BRANCH  15  18
ATOM     18  O   UNL     1      12.218  21.623  10.413  1.00  0.00    -0.504 OA
ATOM     19  H   UNL     1      12.202  21.073  11.264  1.00  0.00     0.293 HD
ENDBRANCH  15  18
BRANCH  17  20
ATOM     20  O   UNL     1      10.462  19.472  10.581  1.00  0.00    -0.504 OA
ATOM     21  H   UNL     1      10.260  19.881  11.486  1.00  0.00     0.293 HD
ENDBRANCH  17  20
ENDBRANCH   1  12
BRANCH   6  22
ATOM     22  O   UNL     1       5.875  19.867   1.787  1.00  0.00    -0.507 OA
ATOM     23  H   UNL     1       5.270  19.533   1.053  1.00  0.00     0.293 HD
ENDBRANCH   6  22
BRANCH   8  24
ATOM     24  O   UNL     1       5.883  15.583   3.920  1.00  0.00    -0.508 OA
ATOM     25  H   UNL     1       4.904  15.335   4.005  1.00  0.00     0.293 HD
ENDBRANCH   8  24
TORSDOF 5
ENDMDL
MODEL 6
REMARK VINA RESULT:    -4.077      2.411      2.850
REMARK INTER + INTRA:          -5.055
REMARK INTER:                  -4.737
REMARK INTRA:                  -0.318
REMARK UNBOUND:                -0.262
REMARK SMILES O=c1cc(-c2ccc(O)c(O)c2)oc2cc(O)cc(O)c12
REMARK SMILES IDX 4 1 3 2 2 3 1 4 21 5 19 6 18 7 16 8 15 9 14 10 13 11 5 12
REMARK SMILES IDX 6 13 7 14 8 15 12 16 10 17 9 18 11 20 20 22 17 24
REMARK H PARENT 9 19 11 21 20 23 17 25
REMARK Flexibility Score: inf
ROOT
ATOM      1  C   UNL     1      24.756   8.828  -6.267  1.00  0.00     0.138 A 
ATOM      2  C   UNL     1      25.123   8.182  -5.079  1.00  0.00     0.100 A 
ATOM      3  C   UNL     1      24.785   6.842  -4.888  1.00  0.00     0.197 A 
ATOM      4  O   UNL     1      25.182   6.273  -3.838  1.00  0.00    -0.289 OA
ATOM      5  C   UNL     1      24.048   6.155  -5.881  1.00  0.00     0.107 A 
ATOM      6  C   UNL     1      23.612   4.800  -5.778  1.00  0.00     0.134 A 
ATOM      7  C   UNL     1      22.990   4.190  -6.874  1.00  0.00     0.093 A 
ATOM      8  C   UNL     1      22.733   4.901  -8.045  1.00  0.00     0.123 A 
ATOM      9  C   UNL     1      23.106   6.243  -8.137  1.00  0.00     0.094 A 
ATOM     10  C   UNL     1      23.760   6.870  -7.074  1.00  0.00     0.146 A 
ATOM     11  O   UNL     1      24.112   8.145  -7.207  1.00  0.00    -0.456 OA
ENDROOT
BRANCH   1  12
ATOM     12  C   UNL     1      25.090  10.253  -6.521  1.00  0.00     0.021 A 
ATOM     13  C   UNL     1      25.834  11.014  -5.599  1.00  0.00     0.016 A 
ATOM     14  C   UNL     1      26.125  12.356  -5.859  1.00  0.00     0.051 A 
ATOM     15  C   UNL     1      25.671  12.962  -7.037  1.00  0.00     0.157 A 
ATOM     16  C   UNL     1      24.626  10.874  -7.695  1.00  0.00     0.062 A 
ATOM     17  C   UNL     1      24.919  12.220  -7.955  1.00  0.00     0.158 A 
BRANCH  15  18
ATOM     18  O   UNL     1      25.960  14.300  -7.299  1.00  0.00    -0.504 OA
ATOM     19  H   UNL     1      26.909  14.655  -7.259  1.00  0.00     0.293 HD
ENDBRANCH  15  18
BRANCH  17  20
ATOM     20  O   UNL     1      24.465  12.828  -9.125  1.00  0.00    -0.504 OA
ATOM     21  H   UNL     1      24.156  12.281  -9.921  1.00  0.00     0.293 HD
ENDBRANCH  17  20
ENDBRANCH   1  12
BRANCH   6  22
ATOM     22  O   UNL     1      23.742   4.023  -4.622  1.00  0.00    -0.507 OA
ATOM     23  H   UNL     1      23.935   3.034  -4.611  1.00  0.00     0.293 HD
ENDBRANCH   6  22
BRANCH   8  24
ATOM     24  O   UNL     1      22.098   4.266  -9.110  1.00  0.00    -0.508 OA
ATOM     25  H   UNL     1      22.546   4.170 -10.013  1.00  0.00     0.293 HD
ENDBRANCH   8  24
TORSDOF 5
ENDMDL
MODEL 7
REMARK VINA RESULT:    -3.864      1.995      2.256
REMARK INTER + INTRA:          -4.804
REMARK INTER:                  -4.511
REMARK INTRA:                  -0.293
REMARK UNBOUND:                -0.262
REMARK SMILES O=c1cc(-c2ccc(O)c(O)c2)oc2cc(O)cc(O)c12
REMARK SMILES IDX 4 1 3 2 2 3 1 4 21 5 19 6 18 7 16 8 15 9 14 10 13 11 5 12
REMARK SMILES IDX 6 13 7 14 8 15 12 16 10 17 9 18 11 20 20 22 17 24
REMARK H PARENT 9 19 11 21 20 23 17 25
REMARK Flexibility Score: inf
ROOT
ATOM      1  C   UNL     1      24.523   6.990  -6.512  1.00  0.00     0.138 A 
ATOM      2  C   UNL     1      25.002   6.470  -5.302  1.00  0.00     0.100 A 
ATOM      3  C   UNL     1      24.886   5.103  -5.044  1.00  0.00     0.197 A 
ATOM      4  O   UNL     1      25.380   4.656  -3.977  1.00  0.00    -0.289 OA
ATOM      5  C   UNL     1      24.257   4.260  -5.991  1.00  0.00     0.107 A 
ATOM      6  C   UNL     1      24.045   2.859  -5.818  1.00  0.00     0.134 A 
ATOM      7  C   UNL     1      23.517   2.106  -6.874  1.00  0.00     0.093 A 
ATOM      8  C   UNL     1      23.137   2.709  -8.071  1.00  0.00     0.123 A 
ATOM      9  C   UNL     1      23.289   4.087  -8.232  1.00  0.00     0.094 A 
ATOM     10  C   UNL     1      23.845   4.861  -7.210  1.00  0.00     0.146 A 
ATOM     11  O   UNL     1      23.987   6.169  -7.408  1.00  0.00    -0.456 OA
ENDROOT
BRANCH   1  12
ATOM     12  C   UNL     1      24.621   8.436  -6.837  1.00  0.00     0.021 A 
ATOM     13  C   UNL     1      24.430   8.915  -8.147  1.00  0.00     0.016 A 
ATOM     14  C   UNL     1      24.538  10.280  -8.425  1.00  0.00     0.051 A 
ATOM     15  C   UNL     1      24.847  11.188  -7.404  1.00  0.00     0.157 A 
ATOM     16  C   UNL     1      24.944   9.354  -5.820  1.00  0.00     0.062 A 
ATOM     17  C   UNL     1      25.052  10.723  -6.100  1.00  0.00     0.158 A 
BRANCH  15  18
ATOM     18  O   UNL     1      24.955  12.549  -7.679  1.00  0.00    -0.504 OA
ATOM     19  H   UNL     1      24.551  12.955  -8.515  1.00  0.00     0.293 HD
ENDBRANCH  15  18
BRANCH  17  20
ATOM     20  O   UNL     1      25.363  11.628  -5.087  1.00  0.00    -0.504 OA
ATOM     21  H   UNL     1      25.712  11.317  -4.187  1.00  0.00     0.293 HD
ENDBRANCH  17  20
ENDBRANCH   1  12
BRANCH   6  22
ATOM     22  O   UNL     1      24.312   2.170  -4.631  1.00  0.00    -0.507 OA
ATOM     23  H   UNL     1      24.815   2.549  -3.844  1.00  0.00     0.293 HD
ENDBRANCH   6  22
BRANCH   8  24
ATOM     24  O   UNL     1      22.600   1.931  -9.094  1.00  0.00    -0.508 OA
ATOM     25  H   UNL     1      21.882   2.290  -9.711  1.00  0.00     0.293 HD
ENDBRANCH   8  24
TORSDOF 5
ENDMDL
MODEL 8
REMARK VINA RESULT:    -2.994      2.367      3.651
REMARK INTER + INTRA:          -3.781
REMARK INTER:                  -3.487
REMARK INTRA:                  -0.294
REMARK UNBOUND:                -0.262
REMARK SMILES O=c1cc(-c2ccc(O)c(O)c2)oc2cc(O)cc(O)c12
REMARK SMILES IDX 4 1 3 2 2 3 1 4 21 5 19 6 18 7 16 8 15 9 14 10 13 11 5 12
REMARK SMILES IDX 6 13 7 14 8 15 12 16 10 17 9 18 11 20 20 22 17 24
REMARK H PARENT 9 19 11 21 20 23 17 25
REMARK Flexibility Score: inf
ROOT
ATOM      1  C   UNL     1      24.239   9.333  -6.920  1.00  0.00     0.138 A 
ATOM      2  C   UNL     1      23.126   8.867  -7.633  1.00  0.00     0.100 A 
ATOM      3  C   UNL     1      22.717   7.541  -7.485  1.00  0.00     0.197 A 
ATOM      4  O   UNL     1      21.678   7.170  -8.090  1.00  0.00    -0.289 OA
ATOM      5  C   UNL     1      23.446   6.670  -6.642  1.00  0.00     0.107 A 
ATOM      6  C   UNL     1      23.147   5.288  -6.447  1.00  0.00     0.134 A 
ATOM      7  C   UNL     1      23.869   4.553  -5.498  1.00  0.00     0.093 A 
ATOM      8  C   UNL     1      24.917   5.131  -4.783  1.00  0.00     0.123 A 
ATOM      9  C   UNL     1      25.254   6.467  -5.006  1.00  0.00     0.094 A 
ATOM     10  C   UNL     1      24.531   7.236  -5.920  1.00  0.00     0.146 A 
ATOM     11  O   UNL     1      24.874   8.509  -6.093  1.00  0.00    -0.456 OA
ENDROOT
BRANCH   1  12
ATOM     12  C   UNL     1      24.718  10.733  -7.041  1.00  0.00     0.021 A 
ATOM     13  C   UNL     1      25.701  11.256  -6.179  1.00  0.00     0.016 A 
ATOM     14  C   UNL     1      26.125  12.582  -6.309  1.00  0.00     0.051 A 
ATOM     15  C   UNL     1      25.569  13.408  -7.294  1.00  0.00     0.157 A 
ATOM     16  C   UNL     1      24.156  11.575  -8.018  1.00  0.00     0.062 A 
ATOM     17  C   UNL     1      24.582  12.904  -8.148  1.00  0.00     0.158 A 
BRANCH  15  18
ATOM     18  O   UNL     1      25.991  14.730  -7.427  1.00  0.00    -0.504 OA
ATOM     19  H   UNL     1      26.154  15.146  -8.336  1.00  0.00     0.293 HD
ENDBRANCH  15  18
BRANCH  17  20
ATOM     20  O   UNL     1      24.028  13.731  -9.125  1.00  0.00    -0.504 OA
ATOM     21  H   UNL     1      23.113  13.545  -9.520  1.00  0.00     0.293 HD
ENDBRANCH  17  20
ENDBRANCH   1  12
BRANCH   6  22
ATOM     22  O   UNL     1      22.175   4.590  -7.170  1.00  0.00    -0.507 OA
ATOM     23  H   UNL     1      22.273   4.291  -8.128  1.00  0.00     0.293 HD
ENDBRANCH   6  22
BRANCH   8  24
ATOM     24  O   UNL     1      25.624   4.366  -3.859  1.00  0.00    -0.508 OA
ATOM     25  H   UNL     1      25.933   3.426  -4.075  1.00  0.00     0.293 HD
ENDBRANCH   8  24
TORSDOF 5
ENDMDL
