MODEL 1
REMARK VINA RESULT:    15.837      0.000      0.000
REMARK INTER + INTRA:          29.699
REMARK INTER:                  30.649
REMARK INTRA:                  -0.950
REMARK UNBOUND:                -0.950
REMARK SMILES CCCCCCCCCCCCCCCCCC(=O)[O-]
REMARK SMILES IDX 10 1 11 2 12 3 13 4 14 5 15 6 16 7 17 8 18 9 19 10 20 11
REMARK SMILES IDX 9 12 8 13 7 14 6 15 5 16 4 17 3 18 2 19 1 20
REMARK H PARENT
REMARK Flexibility Score: inf
ROOT
ATOM      1  C   UNL     1      -5.806 -10.837  23.802  1.00  0.00     0.000 C 
ENDROOT
BRANCH   1   2
ATOM      2  C   UNL     1      -6.494 -12.207  23.936  1.00  0.00     0.000 C 
BRANCH   2   3
ATOM      3  C   UNL     1      -6.168 -12.904  25.265  1.00  0.00     0.000 C 
BRANCH   3   4
ATOM      4  C   UNL     1      -5.073 -13.977  25.117  1.00  0.00     0.000 C 
BRANCH   4   5
ATOM      5  C   UNL     1      -4.812 -14.728  26.440  1.00  0.00     0.000 C 
BRANCH   5   6
ATOM      6  C   UNL     1      -5.647 -16.012  26.593  1.00  0.00     0.000 C 
BRANCH   6   7
ATOM      7  C   UNL     1      -4.824 -17.290  26.364  1.00  0.00     0.006 C 
BRANCH   7   8
ATOM      8  C   UNL     1      -5.664 -18.416  25.748  1.00  0.00     0.053 C 
BRANCH   8   9
ATOM      9  C   UNL     1      -5.518 -18.463  24.257  1.00  0.00     0.041 C 
ATOM     10  O   UNL     1      -6.280 -19.190  23.568  1.00  0.00    -0.550 OA
ATOM     11  O   UNL     1      -4.562 -17.677  23.627  1.00  0.00    -0.550 OA
ENDBRANCH   8   9
ENDBRANCH   7   8
ENDBRANCH   6   7
ENDBRANCH   5   6
ENDBRANCH   4   5
ENDBRANCH   3   4
ENDBRANCH   2   3
ENDBRANCH   1   2
BRANCH   1  12
ATOM     12  C   UNL     1      -5.911  -9.991  25.084  1.00  0.00     0.000 C 
BRANCH  12  13
ATOM     13  C   UNL     1      -4.834  -8.896  25.226  1.00  0.00    -0.000 C 
BRANCH  13  14
ATOM     14  C   UNL     1      -4.459  -8.175  23.916  1.00  0.00    -0.000 C 
BRANCH  14  15
ATOM     15  C   UNL     1      -2.952  -7.903  23.729  1.00  0.00    -0.000 C 
BRANCH  15  16
ATOM     16  C   UNL     1      -2.041  -9.117  23.982  1.00  0.00    -0.000 C 
BRANCH  16  17
ATOM     17  C   UNL     1      -1.227  -8.991  25.280  1.00  0.00    -0.000 C 
BRANCH  17  18
ATOM     18  C   UNL     1      -0.132  -7.912  25.196  1.00  0.00    -0.000 C 
BRANCH  18  19
ATOM     19  C   UNL     1       0.782  -7.824  26.431  1.00  0.00    -0.003 C 
ATOM     20  C   UNL     1       0.981  -9.172  27.125  1.00  0.00     0.004 C 
ENDBRANCH  18  19
ENDBRANCH  17  18
ENDBRANCH  16  17
ENDBRANCH  15  16
ENDBRANCH  14  15
ENDBRANCH  13  14
ENDBRANCH  12  13
ENDBRANCH   1  12
TORSDOF 16
ENDMDL
MODEL 2
REMARK VINA RESULT:    15.922      3.875      8.813
REMARK INTER + INTRA:          29.865
REMARK INTER:                  30.553
REMARK INTRA:                  -0.688
REMARK UNBOUND:                -0.950
REMARK SMILES CCCCCCCCCCCCCCCCCC(=O)[O-]
REMARK SMILES IDX 10 1 11 2 12 3 13 4 14 5 15 6 16 7 17 8 18 9 19 10 20 11
REMARK SMILES IDX 9 12 8 13 7 14 6 15 5 16 4 17 3 18 2 19 1 20
REMARK H PARENT
REMARK Flexibility Score: inf
ROOT
ATOM      1  C   UNL     1      -6.074 -11.075  23.595  1.00  0.00     0.000 C 
ENDROOT
BRANCH   1   2
ATOM      2  C   UNL     1      -5.985 -10.244  24.887  1.00  0.00     0.000 C 
BRANCH   2   3
ATOM      3  C   UNL     1      -5.398  -8.845  24.649  1.00  0.00     0.000 C 
BRANCH   3   4
ATOM      4  C   UNL     1      -3.880  -8.790  24.899  1.00  0.00     0.000 C 
BRANCH   4   5
ATOM      5  C   UNL     1      -3.114  -8.186  23.703  1.00  0.00     0.000 C 
BRANCH   5   6
ATOM      6  C   UNL     1      -1.594  -8.105  23.924  1.00  0.00     0.000 C 
BRANCH   6   7
ATOM      7  C   UNL     1      -1.027  -9.347  24.633  1.00  0.00     0.006 C 
BRANCH   7   8
ATOM      8  C   UNL     1      -0.794  -9.103  26.129  1.00  0.00     0.053 C 
BRANCH   8   9
ATOM      9  C   UNL     1       0.542  -8.476  26.387  1.00  0.00     0.041 C 
ATOM     10  O   UNL     1       1.505  -9.179  26.790  1.00  0.00    -0.550 OA
ATOM     11  O   UNL     1       0.732  -7.120  26.149  1.00  0.00    -0.550 OA
ENDBRANCH   8   9
ENDBRANCH   7   8
ENDBRANCH   6   7
ENDBRANCH   5   6
ENDBRANCH   4   5
ENDBRANCH   3   4
ENDBRANCH   2   3
ENDBRANCH   1   2
BRANCH   1  12
ATOM     12  C   UNL     1      -6.562 -12.513  23.845  1.00  0.00     0.000 C 
BRANCH  12  13
ATOM     13  C   UNL     1      -6.326 -13.037  25.276  1.00  0.00    -0.000 C 
BRANCH  13  14
ATOM     14  C   UNL     1      -5.246 -14.129  25.403  1.00  0.00    -0.000 C 
BRANCH  14  15
ATOM     15  C   UNL     1      -5.031 -14.672  26.831  1.00  0.00    -0.000 C 
BRANCH  15  16
ATOM     16  C   UNL     1      -5.276 -16.182  26.991  1.00  0.00    -0.000 C 
BRANCH  16  17
ATOM     17  C   UNL     1      -4.847 -16.990  25.755  1.00  0.00    -0.000 C 
BRANCH  17  18
ATOM     18  C   UNL     1      -5.516 -18.375  25.685  1.00  0.00    -0.000 C 
BRANCH  18  19
ATOM     19  C   UNL     1      -5.807 -18.878  24.260  1.00  0.00    -0.003 C 
ATOM     20  C   UNL     1      -5.467 -17.849  23.181  1.00  0.00     0.004 C 
ENDBRANCH  18  19
ENDBRANCH  17  18
ENDBRANCH  16  17
ENDBRANCH  15  16
ENDBRANCH  14  15
ENDBRANCH  13  14
ENDBRANCH  12  13
ENDBRANCH   1  12
TORSDOF 16
ENDMDL
MODEL 3
REMARK VINA RESULT:    16.200      1.468      2.986
REMARK INTER + INTRA:          30.402
REMARK INTER:                  31.319
REMARK INTRA:                  -0.918
REMARK UNBOUND:                -0.950
REMARK SMILES CCCCCCCCCCCCCCCCCC(=O)[O-]
REMARK SMILES IDX 10 1 11 2 12 3 13 4 14 5 15 6 16 7 17 8 18 9 19 10 20 11
REMARK SMILES IDX 9 12 8 13 7 14 6 15 5 16 4 17 3 18 2 19 1 20
REMARK H PARENT
REMARK Flexibility Score: inf
ROOT
ATOM      1  C   UNL     1      -5.711 -10.871  23.751  1.00  0.00     0.000 C 
ENDROOT
BRANCH   1   2
ATOM      2  C   UNL     1      -6.575 -12.138  23.877  1.00  0.00     0.000 C 
BRANCH   2   3
ATOM      3  C   UNL     1      -6.413 -12.828  25.239  1.00  0.00     0.000 C 
BRANCH   3   4
ATOM      4  C   UNL     1      -5.479 -14.051  25.176  1.00  0.00     0.000 C 
BRANCH   4   5
ATOM      5  C   UNL     1      -4.955 -14.456  26.570  1.00  0.00     0.000 C 
BRANCH   5   6
ATOM      6  C   UNL     1      -5.249 -15.921  26.936  1.00  0.00     0.000 C 
BRANCH   6   7
ATOM      7  C   UNL     1      -4.573 -16.921  25.983  1.00  0.00     0.006 C 
BRANCH   7   8
ATOM      8  C   UNL     1      -5.502 -18.085  25.612  1.00  0.00     0.053 C 
BRANCH   8   9
ATOM      9  C   UNL     1      -5.576 -18.283  24.129  1.00  0.00     0.041 C 
ATOM     10  O   UNL     1      -4.731 -17.737  23.373  1.00  0.00    -0.550 OA
ATOM     11  O   UNL     1      -6.559 -19.101  23.585  1.00  0.00    -0.550 OA
ENDBRANCH   8   9
ENDBRANCH   7   8
ENDBRANCH   6   7
ENDBRANCH   5   6
ENDBRANCH   4   5
ENDBRANCH   3   4
ENDBRANCH   2   3
ENDBRANCH   1   2
BRANCH   1  12
ATOM     12  C   UNL     1      -6.089  -9.788  24.778  1.00  0.00     0.000 C 
BRANCH  12  13
ATOM     13  C   UNL     1      -4.891  -9.093  25.454  1.00  0.00    -0.000 C 
BRANCH  13  14
ATOM     14  C   UNL     1      -3.853  -8.491  24.487  1.00  0.00    -0.000 C 
BRANCH  14  15
ATOM     15  C   UNL     1      -2.484  -9.203  24.474  1.00  0.00    -0.000 C 
BRANCH  15  16
ATOM     16  C   UNL     1      -1.385  -8.474  23.682  1.00  0.00    -0.000 C 
BRANCH  16  17
ATOM     17  C   UNL     1      -1.918  -7.263  22.900  1.00  0.00    -0.000 C 
BRANCH  17  18
ATOM     18  C   UNL     1      -2.013  -7.526  21.386  1.00  0.00    -0.000 C 
BRANCH  18  19
ATOM     19  C   UNL     1      -3.336  -7.080  20.737  1.00  0.00    -0.003 C 
ATOM     20  C   UNL     1      -3.372  -7.315  19.228  1.00  0.00     0.004 C 
ENDBRANCH  18  19
ENDBRANCH  17  18
ENDBRANCH  16  17
ENDBRANCH  15  16
ENDBRANCH  14  15
ENDBRANCH  13  14
ENDBRANCH  12  13
ENDBRANCH   1  12
TORSDOF 16
ENDMDL
MODEL 4
REMARK VINA RESULT:    17.597      4.537      8.399
REMARK INTER + INTRA:          33.107
REMARK INTER:                  33.901
REMARK INTRA:                  -0.794
REMARK UNBOUND:                -0.950
REMARK SMILES CCCCCCCCCCCCCCCCCC(=O)[O-]
REMARK SMILES IDX 10 1 11 2 12 3 13 4 14 5 15 6 16 7 17 8 18 9 19 10 20 11
REMARK SMILES IDX 9 12 8 13 7 14 6 15 5 16 4 17 3 18 2 19 1 20
REMARK H PARENT
REMARK Flexibility Score: inf
ROOT
ATOM      1  C   UNL     1      -7.307 -13.051  22.791  1.00  0.00     0.000 C 
ENDROOT
BRANCH   1   2
ATOM      2  C   UNL     1      -6.349 -12.036  23.437  1.00  0.00     0.000 C 
BRANCH   2   3
ATOM      3  C   UNL     1      -6.477 -11.996  24.967  1.00  0.00     0.000 C 
BRANCH   3   4
ATOM      4  C   UNL     1      -6.581 -13.401  25.589  1.00  0.00     0.000 C 
BRANCH   4   5
ATOM      5  C   UNL     1      -5.199 -14.067  25.757  1.00  0.00     0.000 C 
BRANCH   5   6
ATOM      6  C   UNL     1      -5.150 -15.098  26.899  1.00  0.00     0.000 C 
BRANCH   6   7
ATOM      7  C   UNL     1      -5.166 -16.550  26.393  1.00  0.00     0.006 C 
BRANCH   7   8
ATOM      8  C   UNL     1      -4.490 -16.694  25.024  1.00  0.00     0.053 C 
BRANCH   8   9
ATOM      9  C   UNL     1      -5.079 -17.819  24.230  1.00  0.00     0.041 C 
ATOM     10  O   UNL     1      -5.011 -17.813  22.973  1.00  0.00    -0.550 OA
ATOM     11  O   UNL     1      -5.673 -18.893  24.882  1.00  0.00    -0.550 OA
ENDBRANCH   8   9
ENDBRANCH   7   8
ENDBRANCH   6   7
ENDBRANCH   5   6
ENDBRANCH   4   5
ENDBRANCH   3   4
ENDBRANCH   2   3
ENDBRANCH   1   2
BRANCH   1  12
ATOM     12  C   UNL     1      -8.110 -12.452  21.622  1.00  0.00     0.000 C 
BRANCH  12  13
ATOM     13  C   UNL     1      -9.088 -13.431  20.940  1.00  0.00    -0.000 C 
BRANCH  13  14
ATOM     14  C   UNL     1      -8.564 -14.082  19.645  1.00  0.00    -0.000 C 
BRANCH  14  15
ATOM     15  C   UNL     1      -9.186 -13.539  18.343  1.00  0.00    -0.000 C 
BRANCH  15  16
ATOM     16  C   UNL     1      -9.765 -14.613  17.406  1.00  0.00    -0.000 C 
BRANCH  16  17
ATOM     17  C   UNL     1      -9.115 -15.992  17.608  1.00  0.00    -0.000 C 
BRANCH  17  18
ATOM     18  C   UNL     1     -10.057 -17.003  18.286  1.00  0.00    -0.000 C 
BRANCH  18  19
ATOM     19  C   UNL     1     -10.146 -18.370  17.584  1.00  0.00    -0.003 C 
ATOM     20  C   UNL     1      -8.809 -18.837  17.011  1.00  0.00     0.004 C 
ENDBRANCH  18  19
ENDBRANCH  17  18
ENDBRANCH  16  17
ENDBRANCH  15  16
ENDBRANCH  14  15
ENDBRANCH  13  14
ENDBRANCH  12  13
ENDBRANCH   1  12
TORSDOF 16
ENDMDL
MODEL 5
REMARK VINA RESULT:    17.917      4.109      8.952
REMARK INTER + INTRA:          33.726
REMARK INTER:                  34.630
REMARK INTRA:                  -0.904
REMARK UNBOUND:                -0.950
REMARK SMILES CCCCCCCCCCCCCCCCCC(=O)[O-]
REMARK SMILES IDX 10 1 11 2 12 3 13 4 14 5 15 6 16 7 17 8 18 9 19 10 20 11
REMARK SMILES IDX 9 12 8 13 7 14 6 15 5 16 4 17 3 18 2 19 1 20
REMARK H PARENT
REMARK Flexibility Score: inf
ROOT
ATOM      1  C   UNL     1      -5.955 -10.988  23.625  1.00  0.00     0.000 C 
ENDROOT
BRANCH   1   2
ATOM      2  C   UNL     1      -5.714 -10.250  24.954  1.00  0.00     0.000 C 
BRANCH   2   3
ATOM      3  C   UNL     1      -5.236  -8.805  24.748  1.00  0.00     0.000 C 
BRANCH   3   4
ATOM      4  C   UNL     1      -3.701  -8.693  24.685  1.00  0.00     0.000 C 
BRANCH   4   5
ATOM      5  C   UNL     1      -3.235  -7.692  23.607  1.00  0.00     0.000 C 
BRANCH   5   6
ATOM      6  C   UNL     1      -1.798  -7.943  23.117  1.00  0.00     0.000 C 
BRANCH   6   7
ATOM      7  C   UNL     1      -1.676  -7.918  21.584  1.00  0.00     0.006 C 
BRANCH   7   8
ATOM      8  C   UNL     1      -2.743  -7.027  20.934  1.00  0.00     0.053 C 
BRANCH   8   9
ATOM      9  C   UNL     1      -3.209  -7.587  19.625  1.00  0.00     0.041 C 
ATOM     10  O   UNL     1      -2.389  -8.123  18.836  1.00  0.00    -0.550 OA
ATOM     11  O   UNL     1      -4.558  -7.546  19.293  1.00  0.00    -0.550 OA
ENDBRANCH   8   9
ENDBRANCH   7   8
ENDBRANCH   6   7
ENDBRANCH   5   6
ENDBRANCH   4   5
ENDBRANCH   3   4
ENDBRANCH   2   3
ENDBRANCH   1   2
BRANCH   1  12
ATOM     12  C   UNL     1      -6.659 -12.343  23.815  1.00  0.00     0.000 C 
BRANCH  12  13
ATOM     13  C   UNL     1      -6.427 -13.005  25.188  1.00  0.00    -0.000 C 
BRANCH  13  14
ATOM     14  C   UNL     1      -5.214 -13.954  25.260  1.00  0.00    -0.000 C 
BRANCH  14  15
ATOM     15  C   UNL     1      -4.854 -14.446  26.677  1.00  0.00    -0.000 C 
BRANCH  15  16
ATOM     16  C   UNL     1      -5.218 -15.913  26.963  1.00  0.00    -0.000 C 
BRANCH  16  17
ATOM     17  C   UNL     1      -4.756 -16.869  25.852  1.00  0.00    -0.000 C 
BRANCH  17  18
ATOM     18  C   UNL     1      -5.593 -18.159  25.787  1.00  0.00    -0.000 C 
BRANCH  18  19
ATOM     19  C   UNL     1      -5.744 -18.759  24.378  1.00  0.00    -0.003 C 
ATOM     20  C   UNL     1      -5.370 -17.778  23.267  1.00  0.00     0.004 C 
ENDBRANCH  18  19
ENDBRANCH  17  18
ENDBRANCH  16  17
ENDBRANCH  15  16
ENDBRANCH  14  15
ENDBRANCH  13  14
ENDBRANCH  12  13
ENDBRANCH   1  12
TORSDOF 16
ENDMDL
MODEL 6
REMARK VINA RESULT:    17.980      4.452      5.429
REMARK INTER + INTRA:          33.848
REMARK INTER:                  34.475
REMARK INTRA:                  -0.627
REMARK UNBOUND:                -0.950
REMARK SMILES CCCCCCCCCCCCCCCCCC(=O)[O-]
REMARK SMILES IDX 10 1 11 2 12 3 13 4 14 5 15 6 16 7 17 8 18 9 19 10 20 11
REMARK SMILES IDX 9 12 8 13 7 14 6 15 5 16 4 17 3 18 2 19 1 20
REMARK H PARENT
REMARK Flexibility Score: inf
ROOT
ATOM      1  C   UNL     1      -6.814 -12.301  23.672  1.00  0.00     0.000 C 
ENDROOT
BRANCH   1   2
ATOM      2  C   UNL     1      -7.768 -12.129  22.477  1.00  0.00     0.000 C 
BRANCH   2   3
ATOM      3  C   UNL     1      -8.019 -13.446  21.729  1.00  0.00     0.000 C 
BRANCH   3   4
ATOM      4  C   UNL     1      -8.865 -13.252  20.456  1.00  0.00     0.000 C 
BRANCH   4   5
ATOM      5  C   UNL     1      -8.935 -14.535  19.602  1.00  0.00     0.000 C 
BRANCH   5   6
ATOM      6  C   UNL     1      -8.872 -14.268  18.088  1.00  0.00     0.000 C 
BRANCH   6   7
ATOM      7  C   UNL     1      -9.259 -15.496  17.248  1.00  0.00     0.006 C 
BRANCH   7   8
ATOM      8  C   UNL     1      -9.963 -16.572  18.086  1.00  0.00     0.053 C 
BRANCH   8   9
ATOM      9  C   UNL     1      -9.603 -17.953  17.631  1.00  0.00     0.041 C 
ATOM     10  O   UNL     1     -10.397 -18.911  17.822  1.00  0.00    -0.550 OA
ATOM     11  O   UNL     1      -8.404 -18.175  16.965  1.00  0.00    -0.550 OA
ENDBRANCH   8   9
ENDBRANCH   7   8
ENDBRANCH   6   7
ENDBRANCH   5   6
ENDBRANCH   4   5
ENDBRANCH   3   4
ENDBRANCH   2   3
ENDBRANCH   1   2
BRANCH   1  12
ATOM     12  C   UNL     1      -5.725 -11.215  23.726  1.00  0.00     0.000 C 
BRANCH  12  13
ATOM     13  C   UNL     1      -5.946 -10.130  24.799  1.00  0.00    -0.000 C 
BRANCH  13  14
ATOM     14  C   UNL     1      -5.083  -8.863  24.635  1.00  0.00    -0.000 C 
BRANCH  14  15
ATOM     15  C   UNL     1      -3.582  -9.052  24.935  1.00  0.00    -0.000 C 
BRANCH  15  16
ATOM     16  C   UNL     1      -2.635  -8.264  24.012  1.00  0.00    -0.000 C 
BRANCH  16  17
ATOM     17  C   UNL     1      -1.164  -8.680  24.174  1.00  0.00    -0.000 C 
BRANCH  17  18
ATOM     18  C   UNL     1      -0.804  -9.052  25.624  1.00  0.00    -0.000 C 
BRANCH  18  19
ATOM     19  C   UNL     1       0.415  -8.306  26.195  1.00  0.00    -0.003 C 
ATOM     20  C   UNL     1       0.581  -6.900  25.620  1.00  0.00     0.004 C 
ENDBRANCH  18  19
ENDBRANCH  17  18
ENDBRANCH  16  17
ENDBRANCH  15  16
ENDBRANCH  14  15
ENDBRANCH  13  14
ENDBRANCH  12  13
ENDBRANCH   1  12
TORSDOF 16
ENDMDL
MODEL 7
REMARK VINA RESULT:    18.535      5.348      9.990
REMARK INTER + INTRA:          34.921
REMARK INTER:                  35.629
REMARK INTRA:                  -0.708
REMARK UNBOUND:                -0.950
REMARK SMILES CCCCCCCCCCCCCCCCCC(=O)[O-]
REMARK SMILES IDX 10 1 11 2 12 3 13 4 14 5 15 6 16 7 17 8 18 9 19 10 20 11
REMARK SMILES IDX 9 12 8 13 7 14 6 15 5 16 4 17 3 18 2 19 1 20
REMARK H PARENT
REMARK Flexibility Score: inf
ROOT
ATOM      1  C   UNL     1      -6.083 -12.071  24.112  1.00  0.00     0.000 C 
ENDROOT
BRANCH   1   2
ATOM      2  C   UNL     1      -5.707 -10.606  23.829  1.00  0.00     0.000 C 
BRANCH   2   3
ATOM      3  C   UNL     1      -5.803  -9.720  25.080  1.00  0.00     0.000 C 
BRANCH   3   4
ATOM      4  C   UNL     1      -4.600  -8.770  25.226  1.00  0.00     0.000 C 
BRANCH   4   5
ATOM      5  C   UNL     1      -3.404  -9.206  24.353  1.00  0.00     0.000 C 
BRANCH   5   6
ATOM      6  C   UNL     1      -2.609  -8.027  23.767  1.00  0.00     0.000 C 
BRANCH   6   7
ATOM      7  C   UNL     1      -1.124  -8.052  24.163  1.00  0.00     0.006 C 
BRANCH   7   8
ATOM      8  C   UNL     1      -0.853  -9.009  25.332  1.00  0.00     0.053 C 
BRANCH   8   9
ATOM      9  C   UNL     1       0.233  -8.496  26.228  1.00  0.00     0.041 C 
ATOM     10  O   UNL     1       0.731  -9.241  27.111  1.00  0.00    -0.550 OA
ATOM     11  O   UNL     1       0.717  -7.204  26.064  1.00  0.00    -0.550 OA
ENDBRANCH   8   9
ENDBRANCH   7   8
ENDBRANCH   6   7
ENDBRANCH   5   6
ENDBRANCH   4   5
ENDBRANCH   3   4
ENDBRANCH   2   3
ENDBRANCH   1   2
BRANCH   1  12
ATOM     12  C   UNL     1      -7.484 -12.438  23.589  1.00  0.00     0.000 C 
BRANCH  12  13
ATOM     13  C   UNL     1      -7.688 -12.215  22.077  1.00  0.00    -0.000 C 
BRANCH  13  14
ATOM     14  C   UNL     1      -8.691 -13.173  21.404  1.00  0.00    -0.000 C 
BRANCH  14  15
ATOM     15  C   UNL     1      -8.327 -13.592  19.965  1.00  0.00    -0.000 C 
BRANCH  15  16
ATOM     16  C   UNL     1      -9.472 -14.252  19.176  1.00  0.00    -0.000 C 
BRANCH  16  17
ATOM     17  C   UNL     1      -9.132 -14.455  17.691  1.00  0.00    -0.000 C 
BRANCH  17  18
ATOM     18  C   UNL     1      -8.996 -15.940  17.307  1.00  0.00    -0.000 C 
BRANCH  18  19
ATOM     19  C   UNL     1      -9.674 -16.921  18.280  1.00  0.00    -0.003 C 
ATOM     20  C   UNL     1     -10.180 -18.190  17.595  1.00  0.00     0.004 C 
ENDBRANCH  18  19
ENDBRANCH  17  18
ENDBRANCH  16  17
ENDBRANCH  15  16
ENDBRANCH  14  15
ENDBRANCH  13  14
ENDBRANCH  12  13
ENDBRANCH   1  12
TORSDOF 16
ENDMDL
