MODEL 1
REMARK VINA RESULT:    -5.204      0.000      0.000
REMARK INTER + INTRA:          -6.940
REMARK INTER:                  -6.725
REMARK INTRA:                  -0.215
REMARK UNBOUND:                -0.215
REMARK SMILES CCO[C@H]1O[C@H](CO)[C@H](O)[C@@H](O)[C@@H]1O
REMARK SMILES IDX 4 1 13 2 11 3 9 4 6 5 5 6 3 7 2 8 1 9 14 10 12 12 7 14 8 15
REMARK SMILES IDX 10 17
REMARK H PARENT 14 11 12 13 8 16 10 18
REMARK Flexibility Score: inf
ROOT
ATOM      1  C   UNL     1      39.439  28.278  10.182  1.00  0.00     0.281 C 
ATOM      2  C   UNL     1      39.896  28.490   8.721  1.00  0.00     0.202 C 
ATOM      3  C   UNL     1      38.697  28.786   7.800  1.00  0.00     0.179 C 
ATOM      4  C   UNL     1      37.564  27.768   8.033  1.00  0.00     0.177 C 
ATOM      5  C   UNL     1      37.263  27.666   9.545  1.00  0.00     0.178 C 
ATOM      6  O   UNL     1      38.425  27.283  10.264  1.00  0.00    -0.341 OA
ENDROOT
BRANCH   1   7
ATOM      7  O   UNL     1      39.009  29.511  10.739  1.00  0.00    -0.350 OA
BRANCH   7   8
ATOM      8  C   UNL     1      39.256  29.533  12.130  1.00  0.00     0.160 C 
ATOM      9  C   UNL     1      37.928  29.528  12.870  1.00  0.00     0.035 C 
ENDBRANCH   7   8
ENDBRANCH   1   7
BRANCH   2  10
ATOM     10  O   UNL     1      40.565  27.344   8.259  1.00  0.00    -0.385 OA
ATOM     11  H   UNL     1      39.870  26.656   8.083  1.00  0.00     0.211 HD
ENDBRANCH   2  10
BRANCH   3  12
ATOM     12  O   UNL     1      38.233  30.090   8.042  1.00  0.00    -0.387 OA
ATOM     13  H   UNL     1      39.024  30.689   8.008  1.00  0.00     0.211 HD
ENDBRANCH   3  12
BRANCH   5  14
ATOM     14  C   UNL     1      36.150  26.649   9.826  1.00  0.00     0.191 C 
BRANCH  14  15
ATOM     15  O   UNL     1      36.505  25.855  10.923  1.00  0.00    -0.394 OA
ATOM     16  H   UNL     1      36.512  26.460  11.709  1.00  0.00     0.210 HD
ENDBRANCH  14  15
ENDBRANCH   5  14
BRANCH   4  17
ATOM     17  O   UNL     1      37.956  26.517   7.522  1.00  0.00    -0.387 OA
ATOM     18  H   UNL     1      38.840  26.300   7.921  1.00  0.00     0.211 HD
ENDBRANCH   4  17
TORSDOF 7
ENDMDL
MODEL 2
REMARK VINA RESULT:    -5.151      1.539      2.327
REMARK INTER + INTRA:          -6.871
REMARK INTER:                  -6.456
REMARK INTRA:                  -0.415
REMARK UNBOUND:                -0.215
REMARK SMILES CCO[C@H]1O[C@H](CO)[C@H](O)[C@@H](O)[C@@H]1O
REMARK SMILES IDX 4 1 13 2 11 3 9 4 6 5 5 6 3 7 2 8 1 9 14 10 12 12 7 14 8 15
REMARK SMILES IDX 10 17
REMARK H PARENT 14 11 12 13 8 16 10 18
REMARK Flexibility Score: inf
ROOT
ATOM      1  C   UNL     1      39.132  27.561   9.604  1.00  0.00     0.281 C 
ATOM      2  C   UNL     1      38.452  27.858   8.248  1.00  0.00     0.202 C 
ATOM      3  C   UNL     1      37.371  28.946   8.394  1.00  0.00     0.179 C 
ATOM      4  C   UNL     1      36.442  28.639   9.585  1.00  0.00     0.177 C 
ATOM      5  C   UNL     1      37.292  28.339  10.840  1.00  0.00     0.178 C 
ATOM      6  O   UNL     1      38.169  27.248  10.604  1.00  0.00    -0.341 OA
ENDROOT
BRANCH   1   7
ATOM      7  O   UNL     1      39.947  28.658   9.987  1.00  0.00    -0.350 OA
BRANCH   7   8
ATOM      8  C   UNL     1      40.991  28.220  10.832  1.00  0.00     0.160 C 
ATOM      9  C   UNL     1      41.749  27.095  10.144  1.00  0.00     0.035 C 
ENDBRANCH   7   8
ENDBRANCH   1   7
BRANCH   2  10
ATOM     10  O   UNL     1      37.865  26.687   7.742  1.00  0.00    -0.385 OA
ATOM     11  H   UNL     1      38.300  25.923   8.204  1.00  0.00     0.211 HD
ENDBRANCH   2  10
BRANCH   3  12
ATOM     12  O   UNL     1      37.988  30.196   8.571  1.00  0.00    -0.387 OA
ATOM     13  H   UNL     1      37.342  30.771   9.060  1.00  0.00     0.211 HD
ENDBRANCH   3  12
BRANCH   5  14
ATOM     14  C   UNL     1      36.407  28.012  12.048  1.00  0.00     0.191 C 
BRANCH  14  15
ATOM     15  O   UNL     1      36.030  26.664  12.002  1.00  0.00    -0.394 OA
ATOM     16  H   UNL     1      35.256  26.574  12.617  1.00  0.00     0.210 HD
ENDBRANCH  14  15
ENDBRANCH   5  14
BRANCH   4  17
ATOM     17  O   UNL     1      35.630  27.536   9.264  1.00  0.00    -0.387 OA
ATOM     18  H   UNL     1      36.163  26.940   8.674  1.00  0.00     0.211 HD
ENDBRANCH   4  17
TORSDOF 7
ENDMDL
MODEL 3
REMARK VINA RESULT:    -5.054      1.779      3.874
REMARK INTER + INTRA:          -6.747
REMARK INTER:                  -6.590
REMARK INTRA:                  -0.157
REMARK UNBOUND:                -0.215
REMARK SMILES CCO[C@H]1O[C@H](CO)[C@H](O)[C@@H](O)[C@@H]1O
REMARK SMILES IDX 4 1 13 2 11 3 9 4 6 5 5 6 3 7 2 8 1 9 14 10 12 12 7 14 8 15
REMARK SMILES IDX 10 17
REMARK H PARENT 14 11 12 13 8 16 10 18
REMARK Flexibility Score: inf
ROOT
ATOM      1  C   UNL     1      38.367  28.386  10.380  1.00  0.00     0.281 C 
ATOM      2  C   UNL     1      37.412  28.145  11.572  1.00  0.00     0.202 C 
ATOM      3  C   UNL     1      36.258  27.203  11.177  1.00  0.00     0.179 C 
ATOM      4  C   UNL     1      35.616  27.650   9.850  1.00  0.00     0.177 C 
ATOM      5  C   UNL     1      36.718  27.870   8.790  1.00  0.00     0.178 C 
ATOM      6  O   UNL     1      37.656  28.838   9.235  1.00  0.00    -0.341 OA
ENDROOT
BRANCH   1   7
ATOM      7  O   UNL     1      39.106  27.205  10.107  1.00  0.00    -0.350 OA
BRANCH   7   8
ATOM      8  C   UNL     1      40.488  27.440  10.285  1.00  0.00     0.160 C 
ATOM      9  C   UNL     1      41.211  27.176   8.974  1.00  0.00     0.035 C 
ENDBRANCH   7   8
ENDBRANCH   1   7
BRANCH   2  10
ATOM     10  O   UNL     1      36.881  29.369  12.013  1.00  0.00    -0.385 OA
ATOM     11  H   UNL     1      36.000  29.479  11.568  1.00  0.00     0.211 HD
ENDBRANCH   2  10
BRANCH   3  12
ATOM     12  O   UNL     1      36.746  25.890  11.061  1.00  0.00    -0.387 OA
ATOM     13  H   UNL     1      37.432  25.773  11.770  1.00  0.00     0.211 HD
ENDBRANCH   3  12
BRANCH   5  14
ATOM     14  C   UNL     1      36.124  28.332   7.454  1.00  0.00     0.191 C 
BRANCH  14  15
ATOM     15  O   UNL     1      37.049  28.107   6.426  1.00  0.00    -0.394 OA
ATOM     16  H   UNL     1      37.576  27.312   6.701  1.00  0.00     0.210 HD
ENDBRANCH  14  15
ENDBRANCH   5  14
BRANCH   4  17
ATOM     17  O   UNL     1      34.893  28.838  10.064  1.00  0.00    -0.387 OA
ATOM     18  H   UNL     1      35.113  29.155  10.979  1.00  0.00     0.211 HD
ENDBRANCH   4  17
TORSDOF 7
ENDMDL
MODEL 4
REMARK VINA RESULT:    -5.030      1.653      3.020
REMARK INTER + INTRA:          -6.715
REMARK INTER:                  -6.297
REMARK INTRA:                  -0.419
REMARK UNBOUND:                -0.215
REMARK SMILES CCO[C@H]1O[C@H](CO)[C@H](O)[C@@H](O)[C@@H]1O
REMARK SMILES IDX 4 1 13 2 11 3 9 4 6 5 5 6 3 7 2 8 1 9 14 10 12 12 7 14 8 15
REMARK SMILES IDX 10 17
REMARK H PARENT 14 11 12 13 8 16 10 18
REMARK Flexibility Score: inf
ROOT
ATOM      1  C   UNL     1      36.310  28.333  10.784  1.00  0.00     0.281 C 
ATOM      2  C   UNL     1      37.258  27.114  10.859  1.00  0.00     0.202 C 
ATOM      3  C   UNL     1      38.249  27.107   9.679  1.00  0.00     0.179 C 
ATOM      4  C   UNL     1      37.513  27.335   8.344  1.00  0.00     0.177 C 
ATOM      5  C   UNL     1      36.594  28.571   8.465  1.00  0.00     0.178 C 
ATOM      6  O   UNL     1      35.660  28.402   9.521  1.00  0.00    -0.341 OA
ENDROOT
BRANCH   1   7
ATOM      7  O   UNL     1      37.029  29.523  11.070  1.00  0.00    -0.350 OA
BRANCH   7   8
ATOM      8  C   UNL     1      37.462  29.523  12.415  1.00  0.00     0.160 C 
ATOM      9  C   UNL     1      38.778  30.279  12.513  1.00  0.00     0.035 C 
ENDBRANCH   7   8
ENDBRANCH   1   7
BRANCH   2  10
ATOM     10  O   UNL     1      36.509  25.925  10.843  1.00  0.00    -0.385 OA
ATOM     11  H   UNL     1      35.612  26.144  11.209  1.00  0.00     0.211 HD
ENDBRANCH   2  10
BRANCH   3  12
ATOM     12  O   UNL     1      39.216  28.107   9.876  1.00  0.00    -0.387 OA
ATOM     13  H   UNL     1      39.986  27.679  10.333  1.00  0.00     0.211 HD
ENDBRANCH   3  12
BRANCH   5  14
ATOM     14  C   UNL     1      35.827  28.827   7.162  1.00  0.00     0.191 C 
BRANCH  14  15
ATOM     15  O   UNL     1      36.552  28.309   6.081  1.00  0.00    -0.394 OA
ATOM     16  H   UNL     1      35.920  27.732   5.579  1.00  0.00     0.210 HD
ENDBRANCH  14  15
ENDBRANCH   5  14
BRANCH   4  17
ATOM     17  O   UNL     1      36.759  26.189   8.031  1.00  0.00    -0.387 OA
ATOM     18  H   UNL     1      35.931  26.497   7.576  1.00  0.00     0.211 HD
ENDBRANCH   4  17
TORSDOF 7
ENDMDL
MODEL 5
REMARK VINA RESULT:    -5.024      1.635      2.468
REMARK INTER + INTRA:          -6.707
REMARK INTER:                  -6.309
REMARK INTRA:                  -0.398
REMARK UNBOUND:                -0.215
REMARK SMILES CCO[C@H]1O[C@H](CO)[C@H](O)[C@@H](O)[C@@H]1O
REMARK SMILES IDX 4 1 13 2 11 3 9 4 6 5 5 6 3 7 2 8 1 9 14 10 12 12 7 14 8 15
REMARK SMILES IDX 10 17
REMARK H PARENT 14 11 12 13 8 16 10 18
REMARK Flexibility Score: inf
ROOT
ATOM      1  C   UNL     1      38.921  28.096  11.091  1.00  0.00     0.281 C 
ATOM      2  C   UNL     1      40.466  28.135  11.041  1.00  0.00     0.202 C 
ATOM      3  C   UNL     1      40.963  28.949   9.831  1.00  0.00     0.179 C 
ATOM      4  C   UNL     1      40.237  28.514   8.543  1.00  0.00     0.177 C 
ATOM      5  C   UNL     1      38.711  28.505   8.787  1.00  0.00     0.178 C 
ATOM      6  O   UNL     1      38.379  27.635   9.859  1.00  0.00    -0.341 OA
ENDROOT
BRANCH   1   7
ATOM      7  O   UNL     1      38.415  29.375  11.440  1.00  0.00    -0.350 OA
BRANCH   7   8
ATOM      8  C   UNL     1      37.873  29.348  12.744  1.00  0.00     0.160 C 
ATOM      9  C   UNL     1      36.733  28.343  12.788  1.00  0.00     0.035 C 
ENDBRANCH   7   8
ENDBRANCH   1   7
BRANCH   2  10
ATOM     10  O   UNL     1      40.974  26.828  10.961  1.00  0.00    -0.385 OA
ATOM     11  H   UNL     1      40.387  26.327  10.337  1.00  0.00     0.211 HD
ENDBRANCH   2  10
BRANCH   3  12
ATOM     12  O   UNL     1      40.748  30.317  10.069  1.00  0.00    -0.387 OA
ATOM     13  H   UNL     1      41.242  30.547  10.900  1.00  0.00     0.211 HD
ENDBRANCH   3  12
BRANCH   5  14
ATOM     14  C   UNL     1      37.947  28.062   7.534  1.00  0.00     0.191 C 
BRANCH  14  15
ATOM     15  O   UNL     1      37.884  26.663   7.493  1.00  0.00    -0.394 OA
ATOM     16  H   UNL     1      36.954  26.423   7.741  1.00  0.00     0.210 HD
ENDBRANCH  14  15
ENDBRANCH   5  14
BRANCH   4  17
ATOM     17  O   UNL     1      40.685  27.234   8.171  1.00  0.00    -0.387 OA
ATOM     18  H   UNL     1      40.163  26.961   7.370  1.00  0.00     0.211 HD
ENDBRANCH   4  17
TORSDOF 7
ENDMDL
MODEL 6
REMARK VINA RESULT:    -5.017      1.830      4.564
REMARK INTER + INTRA:          -6.699
REMARK INTER:                  -6.226
REMARK INTRA:                  -0.473
REMARK UNBOUND:                -0.215
REMARK SMILES CCO[C@H]1O[C@H](CO)[C@H](O)[C@@H](O)[C@@H]1O
REMARK SMILES IDX 4 1 13 2 11 3 9 4 6 5 5 6 3 7 2 8 1 9 14 10 12 12 7 14 8 15
REMARK SMILES IDX 10 17
REMARK H PARENT 14 11 12 13 8 16 10 18
REMARK Flexibility Score: inf
ROOT
ATOM      1  C   UNL     1      37.556  27.336  10.137  1.00  0.00     0.281 C 
ATOM      2  C   UNL     1      36.211  27.641  10.836  1.00  0.00     0.202 C 
ATOM      3  C   UNL     1      36.126  29.120  11.256  1.00  0.00     0.179 C 
ATOM      4  C   UNL     1      37.407  29.555  11.994  1.00  0.00     0.177 C 
ATOM      5  C   UNL     1      38.645  29.144  11.167  1.00  0.00     0.178 C 
ATOM      6  O   UNL     1      38.657  27.743  10.941  1.00  0.00    -0.341 OA
ENDROOT
BRANCH   1   7
ATOM      7  O   UNL     1      37.587  27.950   8.858  1.00  0.00    -0.350 OA
BRANCH   7   8
ATOM      8  C   UNL     1      36.818  27.202   7.937  1.00  0.00     0.160 C 
ATOM      9  C   UNL     1      36.173  28.152   6.941  1.00  0.00     0.035 C 
ENDBRANCH   7   8
ENDBRANCH   1   7
BRANCH   2  10
ATOM     10  O   UNL     1      36.068  26.827  11.972  1.00  0.00    -0.385 OA
ATOM     11  H   UNL     1      36.476  25.948  11.751  1.00  0.00     0.211 HD
ENDBRANCH   2  10
BRANCH   3  12
ATOM     12  O   UNL     1      35.929  29.919  10.117  1.00  0.00    -0.387 OA
ATOM     13  H   UNL     1      35.474  30.748  10.419  1.00  0.00     0.211 HD
ENDBRANCH   3  12
BRANCH   5  14
ATOM     14  C   UNL     1      39.947  29.543  11.872  1.00  0.00     0.191 C 
BRANCH  14  15
ATOM     15  O   UNL     1      39.707  30.635  12.717  1.00  0.00    -0.394 OA
ATOM     16  H   UNL     1      40.269  31.377  12.371  1.00  0.00     0.210 HD
ENDBRANCH  14  15
ENDBRANCH   5  14
BRANCH   4  17
ATOM     17  O   UNL     1      37.437  28.946  13.263  1.00  0.00    -0.387 OA
ATOM     18  H   UNL     1      38.231  28.348  13.283  1.00  0.00     0.211 HD
ENDBRANCH   4  17
TORSDOF 7
ENDMDL
MODEL 7
REMARK VINA RESULT:    -4.993      1.872      3.666
REMARK INTER + INTRA:          -6.667
REMARK INTER:                  -6.405
REMARK INTRA:                  -0.262
REMARK UNBOUND:                -0.215
REMARK SMILES CCO[C@H]1O[C@H](CO)[C@H](O)[C@@H](O)[C@@H]1O
REMARK SMILES IDX 4 1 13 2 11 3 9 4 6 5 5 6 3 7 2 8 1 9 14 10 12 12 7 14 8 15
REMARK SMILES IDX 10 17
REMARK H PARENT 14 11 12 13 8 16 10 18
REMARK Flexibility Score: inf
ROOT
ATOM      1  C   UNL     1      37.046  29.587   8.667  1.00  0.00     0.281 C 
ATOM      2  C   UNL     1      38.402  29.048   8.156  1.00  0.00     0.202 C 
ATOM      3  C   UNL     1      38.626  27.591   8.603  1.00  0.00     0.179 C 
ATOM      4  C   UNL     1      38.335  27.428  10.107  1.00  0.00     0.177 C 
ATOM      5  C   UNL     1      36.958  28.046  10.438  1.00  0.00     0.178 C 
ATOM      6  O   UNL     1      36.923  29.418  10.074  1.00  0.00    -0.341 OA
ENDROOT
BRANCH   1   7
ATOM      7  O   UNL     1      35.982  28.958   7.969  1.00  0.00    -0.350 OA
BRANCH   7   8
ATOM      8  C   UNL     1      35.863  29.497   6.668  1.00  0.00     0.160 C 
ATOM      9  C   UNL     1      35.440  28.395   5.710  1.00  0.00     0.035 C 
ENDBRANCH   7   8
ENDBRANCH   1   7
BRANCH   2  10
ATOM     10  O   UNL     1      39.448  29.849   8.646  1.00  0.00    -0.385 OA
ATOM     11  H   UNL     1      39.430  30.696   8.128  1.00  0.00     0.211 HD
ENDBRANCH   2  10
BRANCH   3  12
ATOM     12  O   UNL     1      37.794  26.741   7.854  1.00  0.00    -0.387 OA
ATOM     13  H   UNL     1      37.020  26.512   8.431  1.00  0.00     0.211 HD
ENDBRANCH   3  12
BRANCH   5  14
ATOM     14  C   UNL     1      36.633  27.921  11.931  1.00  0.00     0.191 C 
BRANCH  14  15
ATOM     15  O   UNL     1      35.982  26.704  12.169  1.00  0.00    -0.394 OA
ATOM     16  H   UNL     1      36.600  25.995  11.854  1.00  0.00     0.210 HD
ENDBRANCH  14  15
ENDBRANCH   5  14
BRANCH   4  17
ATOM     17  O   UNL     1      39.351  28.063  10.845  1.00  0.00    -0.387 OA
ATOM     18  H   UNL     1      39.471  28.970  10.458  1.00  0.00     0.211 HD
ENDBRANCH   4  17
TORSDOF 7
ENDMDL
MODEL 8
REMARK VINA RESULT:    -4.839      6.583      8.450
REMARK INTER + INTRA:          -6.469
REMARK INTER:                  -6.054
REMARK INTRA:                  -0.415
REMARK UNBOUND:                -0.215
REMARK SMILES CCO[C@H]1O[C@H](CO)[C@H](O)[C@@H](O)[C@@H]1O
REMARK SMILES IDX 4 1 13 2 11 3 9 4 6 5 5 6 3 7 2 8 1 9 14 10 12 12 7 14 8 15
REMARK SMILES IDX 10 17
REMARK H PARENT 14 11 12 13 8 16 10 18
REMARK Flexibility Score: inf
ROOT
ATOM      1  C   UNL     1      46.151  28.544  13.121  1.00  0.00     0.281 C 
ATOM      2  C   UNL     1      45.870  27.454  14.181  1.00  0.00     0.202 C 
ATOM      3  C   UNL     1      44.565  26.698  13.868  1.00  0.00     0.179 C 
ATOM      4  C   UNL     1      43.420  27.684  13.565  1.00  0.00     0.177 C 
ATOM      5  C   UNL     1      43.889  28.713  12.511  1.00  0.00     0.178 C 
ATOM      6  O   UNL     1      45.035  29.414  12.970  1.00  0.00    -0.341 OA
ENDROOT
BRANCH   1   7
ATOM      7  O   UNL     1      46.515  27.939  11.890  1.00  0.00    -0.350 OA
BRANCH   7   8
ATOM      8  C   UNL     1      47.863  27.518  11.930  1.00  0.00     0.160 C 
ATOM      9  C   UNL     1      48.462  27.634  10.538  1.00  0.00     0.035 C 
ENDBRANCH   7   8
ENDBRANCH   1   7
BRANCH   2  10
ATOM     10  O   UNL     1      45.773  28.041  15.454  1.00  0.00    -0.385 OA
ATOM     11  H   UNL     1      44.812  28.237  15.609  1.00  0.00     0.211 HD
ENDBRANCH   2  10
BRANCH   3  12
ATOM     12  O   UNL     1      44.772  25.843  12.773  1.00  0.00    -0.387 OA
ATOM     13  H   UNL     1      44.804  24.917  13.130  1.00  0.00     0.211 HD
ENDBRANCH   3  12
BRANCH   5  14
ATOM     14  C   UNL     1      42.785  29.726  12.189  1.00  0.00     0.191 C 
BRANCH  14  15
ATOM     15  O   UNL     1      42.770  30.731  13.164  1.00  0.00    -0.394 OA
ATOM     16  H   UNL     1      43.260  30.362  13.945  1.00  0.00     0.210 HD
ENDBRANCH  14  15
ENDBRANCH   5  14
BRANCH   4  17
ATOM     17  O   UNL     1      43.042  28.333  14.754  1.00  0.00    -0.387 OA
ATOM     18  H   UNL     1      43.239  29.300  14.637  1.00  0.00     0.211 HD
ENDBRANCH   4  17
TORSDOF 7
ENDMDL
MODEL 9
REMARK VINA RESULT:    -4.762      1.895      3.375
REMARK INTER + INTRA:          -6.369
REMARK INTER:                  -6.184
REMARK INTRA:                  -0.186
REMARK UNBOUND:                -0.215
REMARK SMILES CCO[C@H]1O[C@H](CO)[C@H](O)[C@@H](O)[C@@H]1O
REMARK SMILES IDX 4 1 13 2 11 3 9 4 6 5 5 6 3 7 2 8 1 9 14 10 12 12 7 14 8 15
REMARK SMILES IDX 10 17
REMARK H PARENT 14 11 12 13 8 16 10 18
REMARK Flexibility Score: inf
ROOT
ATOM      1  C   UNL     1      38.252  29.258  10.418  1.00  0.00     0.281 C 
ATOM      2  C   UNL     1      37.065  29.727  11.290  1.00  0.00     0.202 C 
ATOM      3  C   UNL     1      36.114  28.558  11.611  1.00  0.00     0.179 C 
ATOM      4  C   UNL     1      35.769  27.766  10.336  1.00  0.00     0.177 C 
ATOM      5  C   UNL     1      37.069  27.409   9.580  1.00  0.00     0.178 C 
ATOM      6  O   UNL     1      37.797  28.583   9.251  1.00  0.00    -0.341 OA
ENDROOT
BRANCH   1   7
ATOM      7  O   UNL     1      39.125  28.445  11.187  1.00  0.00    -0.350 OA
BRANCH   7   8
ATOM      8  C   UNL     1      40.384  29.073  11.325  1.00  0.00     0.160 C 
ATOM      9  C   UNL     1      40.510  29.629  12.734  1.00  0.00     0.035 C 
ENDBRANCH   7   8
ENDBRANCH   1   7
BRANCH   2  10
ATOM     10  O   UNL     1      36.350  30.735  10.621  1.00  0.00    -0.385 OA
ATOM     11  H   UNL     1      35.890  30.303   9.854  1.00  0.00     0.211 HD
ENDBRANCH   2  10
BRANCH   3  12
ATOM     12  O   UNL     1      36.718  27.713  12.558  1.00  0.00    -0.387 OA
ATOM     13  H   UNL     1      36.924  28.270  13.354  1.00  0.00     0.211 HD
ENDBRANCH   3  12
BRANCH   5  14
ATOM     14  C   UNL     1      36.772  26.633   8.292  1.00  0.00     0.191 C 
BRANCH  14  15
ATOM     15  O   UNL     1      37.904  26.641   7.468  1.00  0.00    -0.394 OA
ATOM     16  H   UNL     1      37.960  25.733   7.070  1.00  0.00     0.210 HD
ENDBRANCH  14  15
ENDBRANCH   5  14
BRANCH   4  17
ATOM     17  O   UNL     1      34.925  28.545   9.523  1.00  0.00    -0.387 OA
ATOM     18  H   UNL     1      35.485  28.925   8.796  1.00  0.00     0.211 HD
ENDBRANCH   4  17
TORSDOF 7
ENDMDL
