MODEL 1
REMARK VINA RESULT:    -5.555      0.000      0.000
REMARK INTER + INTRA:          -8.758
REMARK INTER:                  -7.016
REMARK INTRA:                  -1.742
REMARK UNBOUND:                -1.742
REMARK SMILES O[C@H]1OC[C@H](Cc2ccc3c(c2)OCO3)[C@@H]1Cc1ccc2c(c1)OCO2
REMARK SMILES IDX 4 1 5 2 16 3 2 4 3 5 6 6 7 7 12 8 8 9 11 10 9 11 10 12 13 13
REMARK SMILES IDX 15 14 14 15 17 16 18 17 23 18 19 19 22 20 20 21 21 22 24 23
REMARK SMILES IDX 26 24 25 25 1 26
REMARK H PARENT 1 27
REMARK Flexibility Score: inf
ROOT
ATOM      1  C   UNL     1      12.212   8.401  22.487  1.00  0.00     0.168 C 
ATOM      2  C   UNL     1      12.016   7.498  23.696  1.00  0.00     0.028 C 
ATOM      3  C   UNL     1      10.928   6.584  23.159  1.00  0.00     0.055 C 
ATOM      4  C   UNL     1      11.293   6.478  21.678  1.00  0.00     0.250 C 
ATOM      5  O   UNL     1      12.029   7.631  21.318  1.00  0.00    -0.352 OA
ENDROOT
BRANCH   2   6
ATOM      6  C   UNL     1      13.350   6.854  24.192  1.00  0.00     0.042 C 
BRANCH   6   7
ATOM      7  C   UNL     1      13.362   6.243  25.584  1.00  0.00    -0.044 A 
ATOM      8  C   UNL     1      14.081   5.053  25.852  1.00  0.00     0.054 A 
ATOM      9  C   UNL     1      12.738   6.924  26.666  1.00  0.00     0.008 A 
ATOM     10  C   UNL     1      14.074   4.554  27.150  1.00  0.00     0.166 A 
ATOM     11  C   UNL     1      12.756   6.384  27.965  1.00  0.00     0.051 A 
ATOM     12  C   UNL     1      13.433   5.189  28.162  1.00  0.00     0.165 A 
ATOM     13  O   UNL     1      14.681   3.411  27.635  1.00  0.00    -0.454 OA
ATOM     14  O   UNL     1      13.599   4.476  29.333  1.00  0.00    -0.454 OA
ATOM     15  C   UNL     1      14.396   3.320  29.038  1.00  0.00     0.468 C 
ENDBRANCH   6   7
ENDBRANCH   2   6
BRANCH   3  16
ATOM     16  C   UNL     1      10.696   5.228  23.862  1.00  0.00     0.044 C 
BRANCH  16  17
ATOM     17  C   UNL     1       9.776   5.348  25.054  1.00  0.00    -0.044 A 
ATOM     18  C   UNL     1       8.830   6.397  25.119  1.00  0.00     0.054 A 
ATOM     19  C   UNL     1       9.826   4.388  26.100  1.00  0.00     0.008 A 
ATOM     20  C   UNL     1       7.998   6.462  26.233  1.00  0.00     0.166 A 
ATOM     21  C   UNL     1       8.966   4.493  27.208  1.00  0.00     0.051 A 
ATOM     22  C   UNL     1       8.065   5.551  27.235  1.00  0.00     0.165 A 
ATOM     23  O   UNL     1       7.015   7.389  26.518  1.00  0.00    -0.454 OA
ATOM     24  O   UNL     1       7.128   5.861  28.202  1.00  0.00    -0.454 OA
ATOM     25  C   UNL     1       6.428   7.039  27.780  1.00  0.00     0.468 C 
ENDBRANCH  16  17
ENDBRANCH   3  16
BRANCH   4  26
ATOM     26  O   UNL     1      10.137   6.405  20.885  1.00  0.00    -0.368 OA
ATOM     27  H   UNL     1      10.440   6.251  19.953  1.00  0.00     0.213 HD
ENDBRANCH   4  26
TORSDOF 5
ENDMDL
MODEL 2
REMARK VINA RESULT:    -5.426      9.280     11.676
REMARK INTER + INTRA:          -8.595
REMARK INTER:                  -6.853
REMARK INTRA:                  -1.742
REMARK UNBOUND:                -1.742
REMARK SMILES O[C@H]1OC[C@H](Cc2ccc3c(c2)OCO3)[C@@H]1Cc1ccc2c(c1)OCO2
REMARK SMILES IDX 4 1 5 2 16 3 2 4 3 5 6 6 7 7 12 8 8 9 11 10 9 11 10 12 13 13
REMARK SMILES IDX 15 14 14 15 17 16 18 17 23 18 19 19 22 20 20 21 21 22 24 23
REMARK SMILES IDX 26 24 25 25 1 26
REMARK H PARENT 1 27
REMARK Flexibility Score: inf
ROOT
ATOM      1  C   UNL     1      10.757  -4.702  21.460  1.00  0.00     0.168 C 
ATOM      2  C   UNL     1      11.960  -4.414  22.345  1.00  0.00     0.028 C 
ATOM      3  C   UNL     1      12.145  -2.934  22.053  1.00  0.00     0.055 C 
ATOM      4  C   UNL     1      10.704  -2.458  21.861  1.00  0.00     0.250 C 
ATOM      5  O   UNL     1       9.920  -3.564  21.456  1.00  0.00    -0.352 OA
ENDROOT
BRANCH   2   6
ATOM      6  C   UNL     1      11.742  -4.857  23.827  1.00  0.00     0.042 C 
BRANCH   6   7
ATOM      7  C   UNL     1      12.972  -5.219  24.643  1.00  0.00    -0.044 A 
ATOM      8  C   UNL     1      13.954  -6.101  24.129  1.00  0.00     0.054 A 
ATOM      9  C   UNL     1      13.208  -4.586  25.895  1.00  0.00     0.008 A 
ATOM     10  C   UNL     1      15.070  -6.376  24.912  1.00  0.00     0.166 A 
ATOM     11  C   UNL     1      14.351  -4.893  26.655  1.00  0.00     0.051 A 
ATOM     12  C   UNL     1      15.257  -5.803  26.126  1.00  0.00     0.165 A 
ATOM     13  O   UNL     1      16.133  -7.212  24.630  1.00  0.00    -0.454 OA
ATOM     14  O   UNL     1      16.444  -6.252  26.671  1.00  0.00    -0.454 OA
ATOM     15  C   UNL     1      17.041  -7.165  25.739  1.00  0.00     0.468 C 
ENDBRANCH   6   7
ENDBRANCH   2   6
BRANCH   3  16
ATOM     16  C   UNL     1      12.974  -2.088  23.044  1.00  0.00     0.044 C 
BRANCH  16  17
ATOM     17  C   UNL     1      14.452  -2.129  22.738  1.00  0.00    -0.044 A 
ATOM     18  C   UNL     1      15.364  -2.610  23.706  1.00  0.00     0.054 A 
ATOM     19  C   UNL     1      14.935  -1.724  21.466  1.00  0.00     0.008 A 
ATOM     20  C   UNL     1      16.716  -2.637  23.376  1.00  0.00     0.166 A 
ATOM     21  C   UNL     1      16.310  -1.767  21.175  1.00  0.00     0.051 A 
ATOM     22  C   UNL     1      17.170  -2.230  22.165  1.00  0.00     0.165 A 
ATOM     23  O   UNL     1      17.782  -3.052  24.151  1.00  0.00    -0.454 OA
ATOM     24  O   UNL     1      18.544  -2.368  22.117  1.00  0.00    -0.454 OA
ATOM     25  C   UNL     1      18.980  -2.895  23.378  1.00  0.00     0.468 C 
ENDBRANCH  16  17
ENDBRANCH   3  16
BRANCH   4  26
ATOM     26  O   UNL     1      10.637  -1.462  20.875  1.00  0.00    -0.368 OA
ATOM     27  H   UNL     1      10.175  -0.685  21.286  1.00  0.00     0.213 HD
ENDBRANCH   4  26
TORSDOF 5
ENDMDL
MODEL 3
REMARK VINA RESULT:    -5.342      3.389      4.331
REMARK INTER + INTRA:          -8.489
REMARK INTER:                  -7.276
REMARK INTRA:                  -1.213
REMARK UNBOUND:                -1.742
REMARK SMILES O[C@H]1OC[C@H](Cc2ccc3c(c2)OCO3)[C@@H]1Cc1ccc2c(c1)OCO2
REMARK SMILES IDX 4 1 5 2 16 3 2 4 3 5 6 6 7 7 12 8 8 9 11 10 9 11 10 12 13 13
REMARK SMILES IDX 15 14 14 15 17 16 18 17 23 18 19 19 22 20 20 21 21 22 24 23
REMARK SMILES IDX 26 24 25 25 1 26
REMARK H PARENT 1 27
REMARK Flexibility Score: inf
ROOT
ATOM      1  C   UNL     1      14.195   7.730  21.797  1.00  0.00     0.168 C 
ATOM      2  C   UNL     1      13.319   6.535  22.145  1.00  0.00     0.028 C 
ATOM      3  C   UNL     1      12.016   7.254  22.454  1.00  0.00     0.055 C 
ATOM      4  C   UNL     1      12.047   8.422  21.468  1.00  0.00     0.250 C 
ATOM      5  O   UNL     1      13.397   8.696  21.145  1.00  0.00    -0.352 OA
ENDROOT
BRANCH   2   6
ATOM      6  C   UNL     1      13.317   5.441  21.029  1.00  0.00     0.042 C 
BRANCH   6   7
ATOM      7  C   UNL     1      13.387   3.988  21.468  1.00  0.00    -0.044 A 
ATOM      8  C   UNL     1      14.307   3.090  20.875  1.00  0.00     0.054 A 
ATOM      9  C   UNL     1      12.600   3.536  22.564  1.00  0.00     0.008 A 
ATOM     10  C   UNL     1      14.340   1.777  21.335  1.00  0.00     0.166 A 
ATOM     11  C   UNL     1      12.665   2.200  22.998  1.00  0.00     0.051 A 
ATOM     12  C   UNL     1      13.548   1.349  22.347  1.00  0.00     0.165 A 
ATOM     13  O   UNL     1      15.132   0.733  20.896  1.00  0.00    -0.454 OA
ATOM     14  O   UNL     1      13.798   0.013  22.595  1.00  0.00    -0.454 OA
ATOM     15  C   UNL     1      14.811  -0.425  21.679  1.00  0.00     0.468 C 
ENDBRANCH   6   7
ENDBRANCH   2   6
BRANCH   3  16
ATOM     16  C   UNL     1      10.706   6.436  22.439  1.00  0.00     0.044 C 
BRANCH  16  17
ATOM     17  C   UNL     1      10.174   6.177  23.828  1.00  0.00    -0.044 A 
ATOM     18  C   UNL     1       8.972   5.453  24.004  1.00  0.00     0.054 A 
ATOM     19  C   UNL     1      10.894   6.621  24.969  1.00  0.00     0.008 A 
ATOM     20  C   UNL     1       8.525   5.231  25.304  1.00  0.00     0.166 A 
ATOM     21  C   UNL     1      10.405   6.376  26.264  1.00  0.00     0.051 A 
ATOM     22  C   UNL     1       9.210   5.676  26.386  1.00  0.00     0.165 A 
ATOM     23  O   UNL     1       7.387   4.566  25.720  1.00  0.00    -0.454 OA
ATOM     24  O   UNL     1       8.538   5.313  27.538  1.00  0.00    -0.454 OA
ATOM     25  C   UNL     1       7.357   4.595  27.154  1.00  0.00     0.468 C 
ENDBRANCH  16  17
ENDBRANCH   3  16
BRANCH   4  26
ATOM     26  O   UNL     1      11.471   9.568  22.038  1.00  0.00    -0.368 OA
ATOM     27  H   UNL     1      11.009   9.274  22.866  1.00  0.00     0.213 HD
ENDBRANCH   4  26
TORSDOF 5
ENDMDL
MODEL 4
REMARK VINA RESULT:    -5.246     15.376     17.391
REMARK INTER + INTRA:          -8.367
REMARK INTER:                  -6.362
REMARK INTRA:                  -2.005
REMARK UNBOUND:                -1.742
REMARK SMILES O[C@H]1OC[C@H](Cc2ccc3c(c2)OCO3)[C@@H]1Cc1ccc2c(c1)OCO2
REMARK SMILES IDX 4 1 5 2 16 3 2 4 3 5 6 6 7 7 12 8 8 9 11 10 9 11 10 12 13 13
REMARK SMILES IDX 15 14 14 15 17 16 18 17 23 18 19 19 22 20 20 21 21 22 24 23
REMARK SMILES IDX 26 24 25 25 1 26
REMARK H PARENT 1 27
REMARK Flexibility Score: inf
ROOT
ATOM      1  C   UNL     1      12.928  -3.002  38.041  1.00  0.00     0.168 C 
ATOM      2  C   UNL     1      11.629  -3.785  38.158  1.00  0.00     0.028 C 
ATOM      3  C   UNL     1      12.182  -5.139  38.570  1.00  0.00     0.055 C 
ATOM      4  C   UNL     1      13.385  -4.751  39.430  1.00  0.00     0.250 C 
ATOM      5  O   UNL     1      13.823  -3.466  39.031  1.00  0.00    -0.352 OA
ENDROOT
BRANCH   2   6
ATOM      6  C   UNL     1      10.587  -3.092  39.094  1.00  0.00     0.042 C 
BRANCH   6   7
ATOM      7  C   UNL     1       9.124  -3.161  38.692  1.00  0.00    -0.044 A 
ATOM      8  C   UNL     1       8.095  -2.946  39.641  1.00  0.00     0.054 A 
ATOM      9  C   UNL     1       8.768  -3.333  37.325  1.00  0.00     0.008 A 
ATOM     10  C   UNL     1       6.774  -2.999  39.209  1.00  0.00     0.166 A 
ATOM     11  C   UNL     1       7.419  -3.379  36.930  1.00  0.00     0.051 A 
ATOM     12  C   UNL     1       6.450  -3.214  37.911  1.00  0.00     0.165 A 
ATOM     13  O   UNL     1       5.619  -2.844  39.952  1.00  0.00    -0.454 OA
ATOM     14  O   UNL     1       5.076  -3.209  37.771  1.00  0.00    -0.454 OA
ATOM     15  C   UNL     1       4.500  -2.976  39.065  1.00  0.00     0.468 C 
ENDBRANCH   6   7
ENDBRANCH   2   6
BRANCH   3  16
ATOM     16  C   UNL     1      11.222  -6.154  39.229  1.00  0.00     0.044 C 
BRANCH  16  17
ATOM     17  C   UNL     1      10.091  -6.554  38.312  1.00  0.00    -0.044 A 
ATOM     18  C   UNL     1      10.332  -6.758  36.933  1.00  0.00     0.054 A 
ATOM     19  C   UNL     1       8.786  -6.767  38.830  1.00  0.00     0.008 A 
ATOM     20  C   UNL     1       9.261  -7.135  36.129  1.00  0.00     0.166 A 
ATOM     21  C   UNL     1       7.731  -7.147  37.981  1.00  0.00     0.051 A 
ATOM     22  C   UNL     1       8.014  -7.318  36.630  1.00  0.00     0.165 A 
ATOM     23  O   UNL     1       9.251  -7.380  34.769  1.00  0.00    -0.454 OA
ATOM     24  O   UNL     1       7.157  -7.688  35.611  1.00  0.00    -0.454 OA
ATOM     25  C   UNL     1       7.915  -7.740  34.393  1.00  0.00     0.468 C 
ENDBRANCH  16  17
ENDBRANCH   3  16
BRANCH   4  26
ATOM     26  O   UNL     1      14.434  -5.667  39.259  1.00  0.00    -0.368 OA
ATOM     27  H   UNL     1      14.097  -6.548  39.566  1.00  0.00     0.213 HD
ENDBRANCH   4  26
TORSDOF 5
ENDMDL
MODEL 5
REMARK VINA RESULT:    -5.239     11.498     14.677
REMARK INTER + INTRA:          -8.358
REMARK INTER:                  -6.681
REMARK INTRA:                  -1.677
REMARK UNBOUND:                -1.742
REMARK SMILES O[C@H]1OC[C@H](Cc2ccc3c(c2)OCO3)[C@@H]1Cc1ccc2c(c1)OCO2
REMARK SMILES IDX 4 1 5 2 16 3 2 4 3 5 6 6 7 7 12 8 8 9 11 10 9 11 10 12 13 13
REMARK SMILES IDX 15 14 14 15 17 16 18 17 23 18 19 19 22 20 20 21 21 22 24 23
REMARK SMILES IDX 26 24 25 25 1 26
REMARK H PARENT 1 27
REMARK Flexibility Score: inf
ROOT
ATOM      1  C   UNL     1      15.346   6.101  38.142  1.00  0.00     0.168 C 
ATOM      2  C   UNL     1      16.629   5.850  37.364  1.00  0.00     0.028 C 
ATOM      3  C   UNL     1      16.774   4.353  37.586  1.00  0.00     0.055 C 
ATOM      4  C   UNL     1      15.319   3.885  37.607  1.00  0.00     0.250 C 
ATOM      5  O   UNL     1      14.506   4.975  37.998  1.00  0.00    -0.352 OA
ENDROOT
BRANCH   2   6
ATOM      6  C   UNL     1      16.560   6.380  35.896  1.00  0.00     0.042 C 
BRANCH   6   7
ATOM      7  C   UNL     1      17.851   6.871  35.263  1.00  0.00    -0.044 A 
ATOM      8  C   UNL     1      18.278   6.383  34.004  1.00  0.00     0.054 A 
ATOM      9  C   UNL     1      18.596   7.914  35.880  1.00  0.00     0.008 A 
ATOM     10  C   UNL     1      19.457   6.887  33.464  1.00  0.00     0.166 A 
ATOM     11  C   UNL     1      19.783   8.396  35.300  1.00  0.00     0.051 A 
ATOM     12  C   UNL     1      20.182   7.847  34.089  1.00  0.00     0.165 A 
ATOM     13  O   UNL     1      20.071   6.548  32.273  1.00  0.00    -0.454 OA
ATOM     14  O   UNL     1      21.290   8.157  33.326  1.00  0.00    -0.454 OA
ATOM     15  C   UNL     1      21.260   7.341  32.147  1.00  0.00     0.468 C 
ENDBRANCH   6   7
ENDBRANCH   2   6
BRANCH   3  16
ATOM     16  C   UNL     1      17.692   3.556  36.633  1.00  0.00     0.044 C 
BRANCH  16  17
ATOM     17  C   UNL     1      19.153   3.713  36.977  1.00  0.00    -0.044 A 
ATOM     18  C   UNL     1      19.638   3.280  38.233  1.00  0.00     0.054 A 
ATOM     19  C   UNL     1      20.061   4.259  36.031  1.00  0.00     0.008 A 
ATOM     20  C   UNL     1      20.994   3.437  38.503  1.00  0.00     0.166 A 
ATOM     21  C   UNL     1      21.424   4.400  36.345  1.00  0.00     0.051 A 
ATOM     22  C   UNL     1      21.850   3.976  37.599  1.00  0.00     0.165 A 
ATOM     23  O   UNL     1      21.687   3.100  39.650  1.00  0.00    -0.454 OA
ATOM     24  O   UNL     1      23.124   4.007  38.133  1.00  0.00    -0.454 OA
ATOM     25  C   UNL     1      23.064   3.451  39.454  1.00  0.00     0.468 C 
ENDBRANCH  16  17
ENDBRANCH   3  16
BRANCH   4  26
ATOM     26  O   UNL     1      15.148   2.834  38.522  1.00  0.00    -0.368 OA
ATOM     27  H   UNL     1      14.291   2.390  38.290  1.00  0.00     0.213 HD
ENDBRANCH   4  26
TORSDOF 5
ENDMDL
MODEL 6
REMARK VINA RESULT:    -5.185      9.777     12.589
REMARK INTER + INTRA:          -8.291
REMARK INTER:                  -6.346
REMARK INTRA:                  -1.945
REMARK UNBOUND:                -1.742
REMARK SMILES O[C@H]1OC[C@H](Cc2ccc3c(c2)OCO3)[C@@H]1Cc1ccc2c(c1)OCO2
REMARK SMILES IDX 4 1 5 2 16 3 2 4 3 5 6 6 7 7 12 8 8 9 11 10 9 11 10 12 13 13
REMARK SMILES IDX 15 14 14 15 17 16 18 17 23 18 19 19 22 20 20 21 21 22 24 23
REMARK SMILES IDX 26 24 25 25 1 26
REMARK H PARENT 1 27
REMARK Flexibility Score: inf
ROOT
ATOM      1  C   UNL     1      12.160  -2.889  24.789  1.00  0.00     0.168 C 
ATOM      2  C   UNL     1      13.460  -3.679  24.769  1.00  0.00     0.028 C 
ATOM      3  C   UNL     1      12.916  -5.060  24.442  1.00  0.00     0.055 C 
ATOM      4  C   UNL     1      11.740  -4.735  23.519  1.00  0.00     0.250 C 
ATOM      5  O   UNL     1      11.295  -3.424  23.810  1.00  0.00    -0.352 OA
ENDROOT
BRANCH   2   6
ATOM      6  C   UNL     1      14.532  -3.058  23.817  1.00  0.00     0.042 C 
BRANCH   6   7
ATOM      7  C   UNL     1      15.989  -3.161  24.234  1.00  0.00    -0.044 A 
ATOM      8  C   UNL     1      17.032  -2.935  23.304  1.00  0.00     0.054 A 
ATOM      9  C   UNL     1      16.326  -3.378  25.600  1.00  0.00     0.008 A 
ATOM     10  C   UNL     1      18.347  -3.020  23.750  1.00  0.00     0.166 A 
ATOM     11  C   UNL     1      17.669  -3.456  26.009  1.00  0.00     0.051 A 
ATOM     12  C   UNL     1      18.652  -3.277  25.045  1.00  0.00     0.165 A 
ATOM     13  O   UNL     1      19.513  -2.861  23.025  1.00  0.00    -0.454 OA
ATOM     14  O   UNL     1      20.024  -3.297  25.201  1.00  0.00    -0.454 OA
ATOM     15  C   UNL     1      20.619  -3.036  23.922  1.00  0.00     0.468 C 
ENDBRANCH   6   7
ENDBRANCH   2   6
BRANCH   3  16
ATOM     16  C   UNL     1      13.892  -6.121  23.889  1.00  0.00     0.044 C 
BRANCH  16  17
ATOM     17  C   UNL     1      14.904  -6.563  24.919  1.00  0.00    -0.044 A 
ATOM     18  C   UNL     1      14.538  -6.655  26.281  1.00  0.00     0.054 A 
ATOM     19  C   UNL     1      16.219  -6.929  24.524  1.00  0.00     0.008 A 
ATOM     20  C   UNL     1      15.502  -7.075  27.193  1.00  0.00     0.166 A 
ATOM     21  C   UNL     1      17.162  -7.348  25.479  1.00  0.00     0.051 A 
ATOM     22  C   UNL     1      16.760  -7.404  26.809  1.00  0.00     0.165 A 
ATOM     23  O   UNL     1      15.382  -7.231  28.560  1.00  0.00    -0.454 OA
ATOM     24  O   UNL     1      17.495  -7.784  27.916  1.00  0.00    -0.454 OA
ATOM     25  C   UNL     1      16.644  -7.687  29.067  1.00  0.00     0.468 C 
ENDBRANCH  16  17
ENDBRANCH   3  16
BRANCH   4  26
ATOM     26  O   UNL     1      10.683  -5.636  23.726  1.00  0.00    -0.368 OA
ATOM     27  H   UNL     1      10.302  -5.428  24.618  1.00  0.00     0.213 HD
ENDBRANCH   4  26
TORSDOF 5
ENDMDL
MODEL 7
REMARK VINA RESULT:    -5.121     11.481     14.142
REMARK INTER + INTRA:          -8.210
REMARK INTER:                  -7.195
REMARK INTRA:                  -1.014
REMARK UNBOUND:                -1.742
REMARK SMILES O[C@H]1OC[C@H](Cc2ccc3c(c2)OCO3)[C@@H]1Cc1ccc2c(c1)OCO2
REMARK SMILES IDX 4 1 5 2 16 3 2 4 3 5 6 6 7 7 12 8 8 9 11 10 9 11 10 12 13 13
REMARK SMILES IDX 15 14 14 15 17 16 18 17 23 18 19 19 22 20 20 21 21 22 24 23
REMARK SMILES IDX 26 24 25 25 1 26
REMARK H PARENT 1 27
REMARK Flexibility Score: inf
ROOT
ATOM      1  C   UNL     1      17.212   3.514  38.519  1.00  0.00     0.168 C 
ATOM      2  C   UNL     1      16.617   4.820  38.014  1.00  0.00     0.028 C 
ATOM      3  C   UNL     1      17.521   5.068  36.818  1.00  0.00     0.055 C 
ATOM      4  C   UNL     1      17.798   3.650  36.320  1.00  0.00     0.250 C 
ATOM      5  O   UNL     1      17.642   2.757  37.407  1.00  0.00    -0.352 OA
ENDROOT
BRANCH   2   6
ATOM      6  C   UNL     1      15.076   4.730  37.774  1.00  0.00     0.042 C 
BRANCH   6   7
ATOM      7  C   UNL     1      14.231   5.932  38.163  1.00  0.00    -0.044 A 
ATOM      8  C   UNL     1      14.214   6.412  39.495  1.00  0.00     0.054 A 
ATOM      9  C   UNL     1      13.529   6.662  37.164  1.00  0.00     0.008 A 
ATOM     10  C   UNL     1      13.440   7.530  39.786  1.00  0.00     0.166 A 
ATOM     11  C   UNL     1      12.758   7.790  37.501  1.00  0.00     0.051 A 
ATOM     12  C   UNL     1      12.737   8.186  38.832  1.00  0.00     0.165 A 
ATOM     13  O   UNL     1      13.256   8.155  41.005  1.00  0.00    -0.454 OA
ATOM     14  O   UNL     1      12.071   9.254  39.401  1.00  0.00    -0.454 OA
ATOM     15  C   UNL     1      12.376   9.270  40.803  1.00  0.00     0.468 C 
ENDBRANCH   6   7
ENDBRANCH   2   6
BRANCH   3  16
ATOM     16  C   UNL     1      17.041   6.051  35.727  1.00  0.00     0.044 C 
BRANCH  16  17
ATOM     17  C   UNL     1      18.178   6.840  35.124  1.00  0.00    -0.044 A 
ATOM     18  C   UNL     1      18.700   6.482  33.860  1.00  0.00     0.054 A 
ATOM     19  C   UNL     1      18.706   7.972  35.801  1.00  0.00     0.008 A 
ATOM     20  C   UNL     1      19.741   7.245  33.340  1.00  0.00     0.166 A 
ATOM     21  C   UNL     1      19.760   8.715  35.239  1.00  0.00     0.051 A 
ATOM     22  C   UNL     1      20.251   8.313  34.002  1.00  0.00     0.165 A 
ATOM     23  O   UNL     1      20.411   7.083  32.142  1.00  0.00    -0.454 OA
ATOM     24  O   UNL     1      21.267   8.876  33.254  1.00  0.00    -0.454 OA
ATOM     25  C   UNL     1      21.403   8.114  32.046  1.00  0.00     0.468 C 
ENDBRANCH  16  17
ENDBRANCH   3  16
BRANCH   4  26
ATOM     26  O   UNL     1      19.107   3.544  35.824  1.00  0.00    -0.368 OA
ATOM     27  H   UNL     1      19.139   4.077  34.987  1.00  0.00     0.213 HD
ENDBRANCH   4  26
TORSDOF 5
ENDMDL
MODEL 8
REMARK VINA RESULT:    -5.080      8.747     12.832
REMARK INTER + INTRA:          -8.159
REMARK INTER:                  -6.183
REMARK INTRA:                  -1.976
REMARK UNBOUND:                -1.742
REMARK SMILES O[C@H]1OC[C@H](Cc2ccc3c(c2)OCO3)[C@@H]1Cc1ccc2c(c1)OCO2
REMARK SMILES IDX 4 1 5 2 16 3 2 4 3 5 6 6 7 7 12 8 8 9 11 10 9 11 10 12 13 13
REMARK SMILES IDX 15 14 14 15 17 16 18 17 23 18 19 19 22 20 20 21 21 22 24 23
REMARK SMILES IDX 26 24 25 25 1 26
REMARK H PARENT 1 27
REMARK Flexibility Score: inf
ROOT
ATOM      1  C   UNL     1      11.769   9.976  38.507  1.00  0.00     0.168 C 
ATOM      2  C   UNL     1      12.122   8.662  37.828  1.00  0.00     0.028 C 
ATOM      3  C   UNL     1      13.054   8.074  38.875  1.00  0.00     0.055 C 
ATOM      4  C   UNL     1      12.435   8.577  40.180  1.00  0.00     0.250 C 
ATOM      5  O   UNL     1      11.708   9.759  39.901  1.00  0.00    -0.352 OA
ENDROOT
BRANCH   2   6
ATOM      6  C   UNL     1      10.862   7.838  37.410  1.00  0.00     0.042 C 
BRANCH   6   7
ATOM      7  C   UNL     1      10.989   6.917  36.208  1.00  0.00    -0.044 A 
ATOM      8  C   UNL     1      10.305   5.678  36.163  1.00  0.00     0.054 A 
ATOM      9  C   UNL     1      11.714   7.341  35.059  1.00  0.00     0.008 A 
ATOM     10  C   UNL     1      10.441   4.888  35.026  1.00  0.00     0.166 A 
ATOM     11  C   UNL     1      11.826   6.511  33.929  1.00  0.00     0.051 A 
ATOM     12  C   UNL     1      11.176   5.284  33.959  1.00  0.00     0.165 A 
ATOM     13  O   UNL     1       9.891   3.647  34.771  1.00  0.00    -0.454 OA
ATOM     14  O   UNL     1      11.129   4.311  32.980  1.00  0.00    -0.454 OA
ATOM     15  C   UNL     1      10.312   3.235  33.463  1.00  0.00     0.468 C 
ENDBRANCH   6   7
ENDBRANCH   2   6
BRANCH   3  16
ATOM     16  C   UNL     1      13.333   6.556  38.840  1.00  0.00     0.044 C 
BRANCH  16  17
ATOM     17  C   UNL     1      14.239   6.164  37.697  1.00  0.00    -0.044 A 
ATOM     18  C   UNL     1      15.417   6.903  37.439  1.00  0.00     0.054 A 
ATOM     19  C   UNL     1      13.939   5.028  36.898  1.00  0.00     0.008 A 
ATOM     20  C   UNL     1      16.225   6.499  36.381  1.00  0.00     0.166 A 
ATOM     21  C   UNL     1      14.784   4.655  35.838  1.00  0.00     0.051 A 
ATOM     22  C   UNL     1      15.921   5.424  35.612  1.00  0.00     0.165 A 
ATOM     23  O   UNL     1      17.406   7.063  35.937  1.00  0.00    -0.454 OA
ATOM     24  O   UNL     1      16.894   5.258  34.645  1.00  0.00    -0.454 OA
ATOM     25  C   UNL     1      17.872   6.294  34.819  1.00  0.00     0.468 C 
ENDBRANCH  16  17
ENDBRANCH   3  16
BRANCH   4  26
ATOM     26  O   UNL     1      13.433   8.864  41.125  1.00  0.00    -0.368 OA
ATOM     27  H   UNL     1      13.373   9.836  41.317  1.00  0.00     0.213 HD
ENDBRANCH   4  26
TORSDOF 5
ENDMDL
MODEL 9
REMARK VINA RESULT:    -5.033      9.756     12.496
REMARK INTER + INTRA:          -8.098
REMARK INTER:                  -6.125
REMARK INTRA:                  -1.973
REMARK UNBOUND:                -1.742
REMARK SMILES O[C@H]1OC[C@H](Cc2ccc3c(c2)OCO3)[C@@H]1Cc1ccc2c(c1)OCO2
REMARK SMILES IDX 4 1 5 2 16 3 2 4 3 5 6 6 7 7 12 8 8 9 11 10 9 11 10 12 13 13
REMARK SMILES IDX 15 14 14 15 17 16 18 17 23 18 19 19 22 20 20 21 21 22 24 23
REMARK SMILES IDX 26 24 25 25 1 26
REMARK H PARENT 1 27
REMARK Flexibility Score: inf
ROOT
ATOM      1  C   UNL     1      12.267  -2.926  24.547  1.00  0.00     0.168 C 
ATOM      2  C   UNL     1      13.509  -3.789  24.714  1.00  0.00     0.028 C 
ATOM      3  C   UNL     1      12.953  -5.128  24.260  1.00  0.00     0.055 C 
ATOM      4  C   UNL     1      11.964  -4.717  23.170  1.00  0.00     0.250 C 
ATOM      5  O   UNL     1      11.547  -3.389  23.424  1.00  0.00    -0.352 OA
ENDROOT
BRANCH   2   6
ATOM      6  C   UNL     1      14.754  -3.210  23.968  1.00  0.00     0.042 C 
BRANCH   6   7
ATOM      7  C   UNL     1      16.107  -3.349  24.644  1.00  0.00    -0.044 A 
ATOM      8  C   UNL     1      16.209  -3.522  26.046  1.00  0.00     0.054 A 
ATOM      9  C   UNL     1      17.292  -3.418  23.859  1.00  0.00     0.008 A 
ATOM     10  C   UNL     1      17.474  -3.667  26.605  1.00  0.00     0.166 A 
ATOM     11  C   UNL     1      18.552  -3.567  24.465  1.00  0.00     0.051 A 
ATOM     12  C   UNL     1      18.598  -3.682  25.848  1.00  0.00     0.165 A 
ATOM     13  O   UNL     1      17.813  -3.825  27.936  1.00  0.00    -0.454 OA
ATOM     14  O   UNL     1      19.701  -3.846  26.663  1.00  0.00    -0.454 OA
ATOM     15  C   UNL     1      19.240  -3.940  28.018  1.00  0.00     0.468 C 
ENDBRANCH   6   7
ENDBRANCH   2   6
BRANCH   3  16
ATOM     16  C   UNL     1      13.949  -6.232  23.842  1.00  0.00     0.044 C 
BRANCH  16  17
ATOM     17  C   UNL     1      14.911  -6.589  24.950  1.00  0.00    -0.044 A 
ATOM     18  C   UNL     1      14.465  -6.634  26.291  1.00  0.00     0.054 A 
ATOM     19  C   UNL     1      16.260  -6.922  24.652  1.00  0.00     0.008 A 
ATOM     20  C   UNL     1      15.385  -6.977  27.277  1.00  0.00     0.166 A 
ATOM     21  C   UNL     1      17.156  -7.262  25.681  1.00  0.00     0.051 A 
ATOM     22  C   UNL     1      16.675  -7.275  26.985  1.00  0.00     0.165 A 
ATOM     23  O   UNL     1      15.186  -7.077  28.641  1.00  0.00    -0.454 OA
ATOM     24  O   UNL     1      17.353  -7.577  28.151  1.00  0.00    -0.454 OA
ATOM     25  C   UNL     1      16.430  -7.462  29.243  1.00  0.00     0.468 C 
ENDBRANCH  16  17
ENDBRANCH   3  16
BRANCH   4  26
ATOM     26  O   UNL     1      10.841  -5.560  23.174  1.00  0.00    -0.368 OA
ATOM     27  H   UNL     1      11.040  -6.297  23.807  1.00  0.00     0.213 HD
ENDBRANCH   4  26
TORSDOF 5
ENDMDL
