MODEL 1
REMARK VINA RESULT:    -6.101      0.000      0.000
REMARK INTER + INTRA:          -9.326
REMARK INTER:                  -8.063
REMARK INTRA:                  -1.263
REMARK UNBOUND:                -1.263
REMARK SMILES CC[C@H](C=C[C@H](C)[C@H]1CC[C@@H]2[C@@H]3CC[C@@H]4C[C@@H](O)CC[C@]4(C)[C@@H]3CC[C@]21C)C(C)C
REMARK SMILES IDX 6 1 7 2 5 3 4 4 3 5 2 6 1 7 28 8 29 9 30 10 8 11 9 12 26 13
REMARK SMILES IDX 10 14 11 15 25 16 27 17 12 18 24 19 23 20 13 21 21 22 14 23
REMARK SMILES IDX 15 24 20 25 22 26 16 27 19 28 17 29 18 30
REMARK H PARENT 18 31
REMARK Flexibility Score: inf
ROOT
ATOM      1  C   UNL     1     133.386 128.095 139.780  1.00  0.00     0.012 C 
ATOM      2  C   UNL     1     134.821 128.657 139.870  1.00  0.00     0.012 C 
ENDROOT
BRANCH   1   3
ATOM      3  C   UNL     1     132.575 128.458 141.012  1.00  0.00    -0.028 C 
ATOM      4  C   UNL     1     131.283 128.121 141.183  1.00  0.00    -0.027 C 
BRANCH   4   5
ATOM      5  C   UNL     1     130.484 128.481 142.423  1.00  0.00     0.014 C 
BRANCH   5   6
ATOM      6  C   UNL     1     129.654 127.271 142.927  1.00  0.00     0.004 C 
ATOM      7  C   UNL     1     129.977 125.971 142.189  1.00  0.00     0.004 C 
ENDBRANCH   5   6
BRANCH   5   8
ATOM      8  C   UNL     1     131.345 129.187 143.519  1.00  0.00    -0.011 C 
ATOM      9  C   UNL     1     130.948 130.646 143.797  1.00  0.00     0.008 C 
ATOM     10  C   UNL     1     131.341 128.385 144.830  1.00  0.00     0.008 C 
ENDBRANCH   5   8
ENDBRANCH   4   5
ENDBRANCH   1   3
BRANCH   1  11
ATOM     11  C   UNL     1     132.579 128.408 138.468  1.00  0.00     0.002 C 
ATOM     12  C   UNL     1     133.403 129.083 137.330  1.00  0.00     0.005 C 
ATOM     13  C   UNL     1     131.852 127.212 137.758  1.00  0.00    -0.026 C 
ATOM     14  C   UNL     1     133.417 128.123 136.128  1.00  0.00     0.005 C 
ATOM     15  C   UNL     1     132.892 126.818 136.696  1.00  0.00    -0.001 C 
ATOM     16  C   UNL     1     131.519 125.951 138.595  1.00  0.00     0.007 C 
ATOM     17  C   UNL     1     130.519 127.786 137.179  1.00  0.00     0.012 C 
ATOM     18  C   UNL     1     132.506 125.664 135.740  1.00  0.00    -0.004 C 
ATOM     19  C   UNL     1     131.040 124.782 137.697  1.00  0.00     0.005 C 
ATOM     20  C   UNL     1     132.059 124.410 136.571  1.00  0.00    -0.001 C 
ATOM     21  C   UNL     1     131.568 126.059 134.565  1.00  0.00     0.004 C 
ATOM     22  C   UNL     1     131.685 123.144 135.656  1.00  0.00    -0.026 C 
ATOM     23  C   UNL     1     130.667 124.909 134.105  1.00  0.00     0.004 C 
ATOM     24  C   UNL     1     131.441 123.581 134.162  1.00  0.00    -0.002 C 
ATOM     25  C   UNL     1     130.433 122.374 136.206  1.00  0.00     0.010 C 
ATOM     26  C   UNL     1     132.899 122.175 135.679  1.00  0.00     0.012 C 
ATOM     27  C   UNL     1     130.790 122.491 133.274  1.00  0.00     0.036 C 
ATOM     28  C   UNL     1     129.906 121.277 135.275  1.00  0.00     0.032 C 
ATOM     29  C   UNL     1     129.547 121.862 133.910  1.00  0.00     0.114 C 
BRANCH  29  30
ATOM     30  O   UNL     1     129.058 120.836 133.088  1.00  0.00    -0.393 OA
ATOM     31  H   UNL     1     128.067 120.898 133.110  1.00  0.00     0.210 HD
ENDBRANCH  29  30
ENDBRANCH   1  11
TORSDOF 6
ENDMDL
MODEL 2
REMARK VINA RESULT:    -6.086      6.947      9.890
REMARK INTER + INTRA:          -9.306
REMARK INTER:                  -8.019
REMARK INTRA:                  -1.286
REMARK UNBOUND:                -1.263
REMARK SMILES CC[C@H](C=C[C@H](C)[C@H]1CC[C@@H]2[C@@H]3CC[C@@H]4C[C@@H](O)CC[C@]4(C)[C@@H]3CC[C@]21C)C(C)C
REMARK SMILES IDX 6 1 7 2 5 3 4 4 3 5 2 6 1 7 28 8 29 9 30 10 8 11 9 12 26 13
REMARK SMILES IDX 10 14 11 15 25 16 27 17 12 18 24 19 23 20 13 21 21 22 14 23
REMARK SMILES IDX 15 24 20 25 22 26 16 27 19 28 17 29 18 30
REMARK H PARENT 18 31
REMARK Flexibility Score: inf
ROOT
ATOM      1  C   UNL     1     137.509 133.647 141.140  1.00  0.00     0.012 C 
ATOM      2  C   UNL     1     137.283 132.591 142.243  1.00  0.00     0.012 C 
ENDROOT
BRANCH   1   3
ATOM      3  C   UNL     1     137.635 135.041 141.731  1.00  0.00    -0.028 C 
ATOM      4  C   UNL     1     138.713 135.829 141.566  1.00  0.00    -0.027 C 
BRANCH   4   5
ATOM      5  C   UNL     1     138.825 137.226 142.153  1.00  0.00     0.014 C 
BRANCH   5   6
ATOM      6  C   UNL     1     137.547 137.606 142.944  1.00  0.00     0.004 C 
ATOM      7  C   UNL     1     137.751 137.588 144.460  1.00  0.00     0.004 C 
ENDBRANCH   5   6
BRANCH   5   8
ATOM      8  C   UNL     1     140.165 137.457 142.921  1.00  0.00    -0.011 C 
ATOM      9  C   UNL     1     140.921 136.168 143.285  1.00  0.00     0.008 C 
ATOM     10  C   UNL     1     141.094 138.404 142.145  1.00  0.00     0.008 C 
ENDBRANCH   5   8
ENDBRANCH   4   5
ENDBRANCH   1   3
BRANCH   1  11
ATOM     11  C   UNL     1     138.668 133.370 140.115  1.00  0.00     0.002 C 
ATOM     12  C   UNL     1     139.679 132.264 140.545  1.00  0.00     0.005 C 
ATOM     13  C   UNL     1     138.265 132.974 138.651  1.00  0.00    -0.026 C 
ATOM     14  C   UNL     1     139.589 131.122 139.517  1.00  0.00     0.005 C 
ATOM     15  C   UNL     1     138.335 131.440 138.725  1.00  0.00    -0.001 C 
ATOM     16  C   UNL     1     136.855 133.367 138.143  1.00  0.00     0.007 C 
ATOM     17  C   UNL     1     139.328 133.627 137.709  1.00  0.00     0.012 C 
ATOM     18  C   UNL     1     138.034 130.667 137.420  1.00  0.00    -0.004 C 
ATOM     19  C   UNL     1     136.529 132.689 136.788  1.00  0.00     0.005 C 
ATOM     20  C   UNL     1     136.656 131.132 136.831  1.00  0.00    -0.001 C 
ATOM     21  C   UNL     1     139.208 130.595 136.403  1.00  0.00     0.004 C 
ATOM     22  C   UNL     1     136.240 130.342 135.495  1.00  0.00    -0.026 C 
ATOM     23  C   UNL     1     138.737 130.499 134.948  1.00  0.00     0.004 C 
ATOM     24  C   UNL     1     137.484 129.612 134.860  1.00  0.00    -0.002 C 
ATOM     25  C   UNL     1     135.574 131.293 134.437  1.00  0.00     0.010 C 
ATOM     26  C   UNL     1     135.201 129.259 135.895  1.00  0.00     0.012 C 
ATOM     27  C   UNL     1     137.251 129.078 133.425  1.00  0.00     0.036 C 
ATOM     28  C   UNL     1     135.334 130.646 133.069  1.00  0.00     0.032 C 
ATOM     29  C   UNL     1     136.646 130.126 132.486  1.00  0.00     0.114 C 
BRANCH  29  30
ATOM     30  O   UNL     1     136.393 129.553 131.231  1.00  0.00    -0.393 OA
ATOM     31  H   UNL     1     137.275 129.325 130.836  1.00  0.00     0.210 HD
ENDBRANCH  29  30
ENDBRANCH   1  11
TORSDOF 6
ENDMDL
MODEL 3
REMARK VINA RESULT:    -6.057      3.737      6.347
REMARK INTER + INTRA:          -9.268
REMARK INTER:                  -8.211
REMARK INTRA:                  -1.057
REMARK UNBOUND:                -1.263
REMARK SMILES CC[C@H](C=C[C@H](C)[C@H]1CC[C@@H]2[C@@H]3CC[C@@H]4C[C@@H](O)CC[C@]4(C)[C@@H]3CC[C@]21C)C(C)C
REMARK SMILES IDX 6 1 7 2 5 3 4 4 3 5 2 6 1 7 28 8 29 9 30 10 8 11 9 12 26 13
REMARK SMILES IDX 10 14 11 15 25 16 27 17 12 18 24 19 23 20 13 21 21 22 14 23
REMARK SMILES IDX 15 24 20 25 22 26 16 27 19 28 17 29 18 30
REMARK H PARENT 18 31
REMARK Flexibility Score: inf
ROOT
ATOM      1  C   UNL     1     130.003 124.884 144.121  1.00  0.00     0.012 C 
ATOM      2  C   UNL     1     130.436 126.043 145.044  1.00  0.00     0.012 C 
ENDROOT
BRANCH   1   3
ATOM      3  C   UNL     1     129.624 123.653 144.926  1.00  0.00    -0.028 C 
ATOM      4  C   UNL     1     129.621 123.611 146.272  1.00  0.00    -0.027 C 
BRANCH   4   5
ATOM      5  C   UNL     1     129.230 122.378 147.068  1.00  0.00     0.014 C 
BRANCH   5   6
ATOM      6  C   UNL     1     128.909 121.184 146.132  1.00  0.00     0.004 C 
ATOM      7  C   UNL     1     127.409 120.961 145.936  1.00  0.00     0.004 C 
ENDBRANCH   5   6
BRANCH   5   8
ATOM      8  C   UNL     1     130.233 122.056 148.221  1.00  0.00    -0.011 C 
ATOM      9  C   UNL     1     130.756 120.610 148.225  1.00  0.00     0.008 C 
ATOM     10  C   UNL     1     131.416 123.039 148.219  1.00  0.00     0.008 C 
ENDBRANCH   5   8
ENDBRANCH   4   5
ENDBRANCH   1   3
BRANCH   1  11
ATOM     11  C   UNL     1     128.906 125.204 143.042  1.00  0.00     0.002 C 
ATOM     12  C   UNL     1     128.092 126.509 143.294  1.00  0.00     0.005 C 
ATOM     13  C   UNL     1     129.369 125.323 141.547  1.00  0.00    -0.026 C 
ATOM     14  C   UNL     1     128.370 127.469 142.124  1.00  0.00     0.005 C 
ATOM     15  C   UNL     1     129.554 126.843 141.411  1.00  0.00    -0.001 C 
ATOM     16  C   UNL     1     130.695 124.639 141.130  1.00  0.00     0.007 C 
ATOM     17  C   UNL     1     128.213 124.730 140.678  1.00  0.00     0.012 C 
ATOM     18  C   UNL     1     129.979 127.370 140.020  1.00  0.00    -0.004 C 
ATOM     19  C   UNL     1     131.129 125.061 139.703  1.00  0.00     0.005 C 
ATOM     20  C   UNL     1     131.261 126.609 139.531  1.00  0.00    -0.001 C 
ATOM     21  C   UNL     1     128.834 127.493 138.976  1.00  0.00     0.004 C 
ATOM     22  C   UNL     1     131.802 127.128 138.110  1.00  0.00    -0.026 C 
ATOM     23  C   UNL     1     129.314 127.309 137.533  1.00  0.00     0.004 C 
ATOM     24  C   UNL     1     130.696 127.958 137.354  1.00  0.00    -0.002 C 
ATOM     25  C   UNL     1     132.301 125.945 137.207  1.00  0.00     0.010 C 
ATOM     26  C   UNL     1     133.006 128.071 138.383  1.00  0.00     0.012 C 
ATOM     27  C   UNL     1     131.015 128.244 135.866  1.00  0.00     0.036 C 
ATOM     28  C   UNL     1     132.646 126.349 135.769  1.00  0.00     0.032 C 
ATOM     29  C   UNL     1     131.437 126.992 135.091  1.00  0.00     0.114 C 
BRANCH  29  30
ATOM     30  O   UNL     1     131.782 127.338 133.776  1.00  0.00    -0.393 OA
ATOM     31  H   UNL     1     132.130 126.514 133.345  1.00  0.00     0.210 HD
ENDBRANCH  29  30
ENDBRANCH   1  11
TORSDOF 6
ENDMDL
MODEL 4
REMARK VINA RESULT:    -6.037      8.930     12.261
REMARK INTER + INTRA:          -9.241
REMARK INTER:                  -7.434
REMARK INTRA:                  -1.807
REMARK UNBOUND:                -1.263
REMARK SMILES CC[C@H](C=C[C@H](C)[C@H]1CC[C@@H]2[C@@H]3CC[C@@H]4C[C@@H](O)CC[C@]4(C)[C@@H]3CC[C@]21C)C(C)C
REMARK SMILES IDX 6 1 7 2 5 3 4 4 3 5 2 6 1 7 28 8 29 9 30 10 8 11 9 12 26 13
REMARK SMILES IDX 10 14 11 15 25 16 27 17 12 18 24 19 23 20 13 21 21 22 14 23
REMARK SMILES IDX 15 24 20 25 22 26 16 27 19 28 17 29 18 30
REMARK H PARENT 18 31
REMARK Flexibility Score: inf
ROOT
ATOM      1  C   UNL     1     136.852 137.661 142.997  1.00  0.00     0.012 C 
ATOM      2  C   UNL     1     137.143 137.898 144.495  1.00  0.00     0.012 C 
ENDROOT
BRANCH   1   3
ATOM      3  C   UNL     1     138.136 137.437 142.217  1.00  0.00    -0.028 C 
ATOM      4  C   UNL     1     139.357 137.394 142.782  1.00  0.00    -0.027 C 
BRANCH   4   5
ATOM      5  C   UNL     1     140.634 137.159 141.994  1.00  0.00     0.014 C 
BRANCH   5   6
ATOM      6  C   UNL     1     141.683 138.263 142.283  1.00  0.00     0.004 C 
ATOM      7  C   UNL     1     143.125 137.764 142.181  1.00  0.00     0.004 C 
ENDBRANCH   5   6
BRANCH   5   8
ATOM      8  C   UNL     1     141.168 135.697 142.124  1.00  0.00    -0.011 C 
ATOM      9  C   UNL     1     140.919 135.047 143.496  1.00  0.00     0.008 C 
ATOM     10  C   UNL     1     140.604 134.798 141.012  1.00  0.00     0.008 C 
ENDBRANCH   5   8
ENDBRANCH   4   5
ENDBRANCH   1   3
BRANCH   1  11
ATOM     11  C   UNL     1     135.786 136.561 142.644  1.00  0.00     0.002 C 
ATOM     12  C   UNL     1     135.375 136.497 141.142  1.00  0.00     0.005 C 
ATOM     13  C   UNL     1     136.126 135.074 143.013  1.00  0.00    -0.026 C 
ATOM     14  C   UNL     1     135.790 135.118 140.600  1.00  0.00     0.005 C 
ATOM     15  C   UNL     1     136.695 134.558 141.682  1.00  0.00    -0.001 C 
ATOM     16  C   UNL     1     137.178 134.811 144.119  1.00  0.00     0.007 C 
ATOM     17  C   UNL     1     134.779 134.408 143.444  1.00  0.00     0.012 C 
ATOM     18  C   UNL     1     137.116 133.070 141.635  1.00  0.00    -0.004 C 
ATOM     19  C   UNL     1     137.576 133.315 144.182  1.00  0.00     0.005 C 
ATOM     20  C   UNL     1     138.099 132.758 142.818  1.00  0.00    -0.001 C 
ATOM     21  C   UNL     1     135.954 132.055 141.444  1.00  0.00     0.004 C 
ATOM     22  C   UNL     1     138.627 131.240 142.819  1.00  0.00    -0.026 C 
ATOM     23  C   UNL     1     136.234 130.693 142.088  1.00  0.00     0.004 C 
ATOM     24  C   UNL     1     137.717 130.326 141.913  1.00  0.00    -0.002 C 
ATOM     25  C   UNL     1     138.709 130.650 144.271  1.00  0.00     0.010 C 
ATOM     26  C   UNL     1     140.058 131.241 142.214  1.00  0.00     0.012 C 
ATOM     27  C   UNL     1     137.963 128.807 142.084  1.00  0.00     0.036 C 
ATOM     28  C   UNL     1     139.016 129.150 144.328  1.00  0.00     0.032 C 
ATOM     29  C   UNL     1     137.965 128.361 143.550  1.00  0.00     0.114 C 
BRANCH  29  30
ATOM     30  O   UNL     1     138.268 126.993 143.632  1.00  0.00    -0.393 OA
ATOM     31  H   UNL     1     138.476 126.803 144.584  1.00  0.00     0.210 HD
ENDBRANCH  29  30
ENDBRANCH   1  11
TORSDOF 6
ENDMDL
MODEL 5
REMARK VINA RESULT:    -6.025      7.135     11.825
REMARK INTER + INTRA:          -9.226
REMARK INTER:                  -8.273
REMARK INTRA:                  -0.952
REMARK UNBOUND:                -1.263
REMARK SMILES CC[C@H](C=C[C@H](C)[C@H]1CC[C@@H]2[C@@H]3CC[C@@H]4C[C@@H](O)CC[C@]4(C)[C@@H]3CC[C@]21C)C(C)C
REMARK SMILES IDX 6 1 7 2 5 3 4 4 3 5 2 6 1 7 28 8 29 9 30 10 8 11 9 12 26 13
REMARK SMILES IDX 10 14 11 15 25 16 27 17 12 18 24 19 23 20 13 21 21 22 14 23
REMARK SMILES IDX 15 24 20 25 22 26 16 27 19 28 17 29 18 30
REMARK H PARENT 18 31
REMARK Flexibility Score: inf
ROOT
ATOM      1  C   UNL     1     136.114 131.058 137.273  1.00  0.00     0.012 C 
ATOM      2  C   UNL     1     135.867 130.836 135.766  1.00  0.00     0.012 C 
ENDROOT
BRANCH   1   3
ATOM      3  C   UNL     1     135.645 129.864 138.088  1.00  0.00    -0.028 C 
ATOM      4  C   UNL     1     134.359 129.642 138.417  1.00  0.00    -0.027 C 
BRANCH   4   5
ATOM      5  C   UNL     1     133.899 128.440 139.223  1.00  0.00     0.014 C 
BRANCH   5   6
ATOM      6  C   UNL     1     133.474 128.854 140.656  1.00  0.00     0.004 C 
ATOM      7  C   UNL     1     134.657 129.233 141.548  1.00  0.00     0.004 C 
ENDBRANCH   5   6
BRANCH   5   8
ATOM      8  C   UNL     1     132.860 127.558 138.461  1.00  0.00    -0.011 C 
ATOM      9  C   UNL     1     131.752 126.967 139.349  1.00  0.00     0.008 C 
ATOM     10  C   UNL     1     132.232 128.328 137.288  1.00  0.00     0.008 C 
ENDBRANCH   5   8
ENDBRANCH   4   5
ENDBRANCH   1   3
BRANCH   1  11
ATOM     11  C   UNL     1     137.562 131.491 137.702  1.00  0.00     0.002 C 
ATOM     12  C   UNL     1     138.316 132.386 136.672  1.00  0.00     0.005 C 
ATOM     13  C   UNL     1     137.719 132.257 139.063  1.00  0.00    -0.026 C 
ATOM     14  C   UNL     1     138.585 133.746 137.340  1.00  0.00     0.005 C 
ATOM     15  C   UNL     1     137.719 133.719 138.587  1.00  0.00    -0.001 C 
ATOM     16  C   UNL     1     136.606 132.100 140.129  1.00  0.00     0.007 C 
ATOM     17  C   UNL     1     139.070 131.778 139.686  1.00  0.00     0.012 C 
ATOM     18  C   UNL     1     137.904 134.804 139.673  1.00  0.00    -0.004 C 
ATOM     19  C   UNL     1     136.787 133.107 141.294  1.00  0.00     0.005 C 
ATOM     20  C   UNL     1     136.852 134.595 140.819  1.00  0.00    -0.001 C 
ATOM     21  C   UNL     1     139.368 135.036 140.141  1.00  0.00     0.004 C 
ATOM     22  C   UNL     1     136.940 135.711 141.971  1.00  0.00    -0.026 C 
ATOM     23  C   UNL     1     139.465 135.514 141.594  1.00  0.00     0.004 C 
ATOM     24  C   UNL     1     138.312 136.482 141.905  1.00  0.00    -0.002 C 
ATOM     25  C   UNL     1     136.735 135.095 143.400  1.00  0.00     0.010 C 
ATOM     26  C   UNL     1     135.801 136.737 141.717  1.00  0.00     0.012 C 
ATOM     27  C   UNL     1     138.613 137.363 143.143  1.00  0.00     0.036 C 
ATOM     28  C   UNL     1     137.001 136.069 144.553  1.00  0.00     0.032 C 
ATOM     29  C   UNL     1     138.424 136.619 144.469  1.00  0.00     0.114 C 
BRANCH  29  30
ATOM     30  O   UNL     1     138.638 137.495 145.543  1.00  0.00    -0.393 OA
ATOM     31  H   UNL     1     138.287 137.044 146.355  1.00  0.00     0.210 HD
ENDBRANCH  29  30
ENDBRANCH   1  11
TORSDOF 6
ENDMDL
MODEL 6
REMARK VINA RESULT:    -6.016      6.539     11.077
REMARK INTER + INTRA:          -9.213
REMARK INTER:                  -7.806
REMARK INTRA:                  -1.407
REMARK UNBOUND:                -1.263
REMARK SMILES CC[C@H](C=C[C@H](C)[C@H]1CC[C@@H]2[C@@H]3CC[C@@H]4C[C@@H](O)CC[C@]4(C)[C@@H]3CC[C@]21C)C(C)C
REMARK SMILES IDX 6 1 7 2 5 3 4 4 3 5 2 6 1 7 28 8 29 9 30 10 8 11 9 12 26 13
REMARK SMILES IDX 10 14 11 15 25 16 27 17 12 18 24 19 23 20 13 21 21 22 14 23
REMARK SMILES IDX 15 24 20 25 22 26 16 27 19 28 17 29 18 30
REMARK H PARENT 18 31
REMARK Flexibility Score: inf
ROOT
ATOM      1  C   UNL     1     133.791 129.265 140.851  1.00  0.00     0.012 C 
ATOM      2  C   UNL     1     134.027 128.593 139.481  1.00  0.00     0.012 C 
ENDROOT
BRANCH   1   3
ATOM      3  C   UNL     1     132.525 128.743 141.508  1.00  0.00    -0.028 C 
ATOM      4  C   UNL     1     132.268 128.847 142.825  1.00  0.00    -0.027 C 
BRANCH   4   5
ATOM      5  C   UNL     1     130.994 128.331 143.470  1.00  0.00     0.014 C 
BRANCH   5   6
ATOM      6  C   UNL     1     130.292 127.283 142.568  1.00  0.00     0.004 C 
ATOM      7  C   UNL     1     128.919 127.740 142.073  1.00  0.00     0.004 C 
ENDBRANCH   5   6
BRANCH   5   8
ATOM      8  C   UNL     1     131.200 127.885 144.953  1.00  0.00    -0.011 C 
ATOM      9  C   UNL     1     130.794 126.431 145.243  1.00  0.00     0.008 C 
ATOM     10  C   UNL     1     132.649 128.123 145.408  1.00  0.00     0.008 C 
ENDBRANCH   5   8
ENDBRANCH   4   5
ENDBRANCH   1   3
BRANCH   1  11
ATOM     11  C   UNL     1     134.991 129.254 141.866  1.00  0.00     0.002 C 
ATOM     12  C   UNL     1     136.290 128.566 141.347  1.00  0.00     0.005 C 
ATOM     13  C   UNL     1     135.486 130.635 142.423  1.00  0.00    -0.026 C 
ATOM     14  C   UNL     1     137.398 129.632 141.296  1.00  0.00     0.005 C 
ATOM     15  C   UNL     1     136.652 130.942 141.471  1.00  0.00    -0.001 C 
ATOM     16  C   UNL     1     134.507 131.836 142.388  1.00  0.00     0.007 C 
ATOM     17  C   UNL     1     135.907 130.386 143.908  1.00  0.00     0.012 C 
ATOM     18  C   UNL     1     137.443 132.245 141.738  1.00  0.00    -0.004 C 
ATOM     19  C   UNL     1     135.225 133.165 142.735  1.00  0.00     0.005 C 
ATOM     20  C   UNL     1     136.453 133.462 141.814  1.00  0.00    -0.001 C 
ATOM     21  C   UNL     1     138.495 132.164 142.878  1.00  0.00     0.004 C 
ATOM     22  C   UNL     1     137.196 134.868 142.041  1.00  0.00    -0.026 C 
ATOM     23  C   UNL     1     138.721 133.506 143.583  1.00  0.00     0.004 C 
ATOM     24  C   UNL     1     138.668 134.651 142.558  1.00  0.00    -0.002 C 
ATOM     25  C   UNL     1     136.406 135.793 143.033  1.00  0.00     0.010 C 
ATOM     26  C   UNL     1     137.272 135.585 140.665  1.00  0.00     0.012 C 
ATOM     27  C   UNL     1     139.358 135.934 143.086  1.00  0.00     0.036 C 
ATOM     28  C   UNL     1     137.155 137.065 143.444  1.00  0.00     0.032 C 
ATOM     29  C   UNL     1     138.496 136.711 144.085  1.00  0.00     0.114 C 
BRANCH  29  30
ATOM     30  O   UNL     1     139.149 137.894 144.460  1.00  0.00    -0.393 OA
ATOM     31  H   UNL     1     138.492 138.631 144.354  1.00  0.00     0.210 HD
ENDBRANCH  29  30
ENDBRANCH   1  11
TORSDOF 6
ENDMDL
MODEL 7
REMARK VINA RESULT:    -5.998      8.023     10.217
REMARK INTER + INTRA:          -9.189
REMARK INTER:                  -8.234
REMARK INTRA:                  -0.956
REMARK UNBOUND:                -1.263
REMARK SMILES CC[C@H](C=C[C@H](C)[C@H]1CC[C@@H]2[C@@H]3CC[C@@H]4C[C@@H](O)CC[C@]4(C)[C@@H]3CC[C@]21C)C(C)C
REMARK SMILES IDX 6 1 7 2 5 3 4 4 3 5 2 6 1 7 28 8 29 9 30 10 8 11 9 12 26 13
REMARK SMILES IDX 10 14 11 15 25 16 27 17 12 18 24 19 23 20 13 21 21 22 14 23
REMARK SMILES IDX 15 24 20 25 22 26 16 27 19 28 17 29 18 30
REMARK H PARENT 18 31
REMARK Flexibility Score: inf
ROOT
ATOM      1  C   UNL     1     137.472 134.244 139.906  1.00  0.00     0.012 C 
ATOM      2  C   UNL     1     136.012 133.752 140.007  1.00  0.00     0.012 C 
ENDROOT
BRANCH   1   3
ATOM      3  C   UNL     1     137.918 134.909 141.196  1.00  0.00    -0.028 C 
ATOM      4  C   UNL     1     138.653 136.036 141.241  1.00  0.00    -0.027 C 
BRANCH   4   5
ATOM      5  C   UNL     1     139.085 136.700 142.537  1.00  0.00     0.014 C 
BRANCH   5   6
ATOM      6  C   UNL     1     139.892 137.995 142.263  1.00  0.00     0.004 C 
ATOM      7  C   UNL     1     141.400 137.813 142.439  1.00  0.00     0.004 C 
ENDBRANCH   5   6
BRANCH   5   8
ATOM      8  C   UNL     1     137.914 136.861 143.558  1.00  0.00    -0.011 C 
ATOM      9  C   UNL     1     138.362 136.993 145.024  1.00  0.00     0.008 C 
ATOM     10  C   UNL     1     137.007 138.043 143.181  1.00  0.00     0.008 C 
ENDBRANCH   5   8
ENDBRANCH   4   5
ENDBRANCH   1   3
BRANCH   1  11
ATOM     11  C   UNL     1     138.542 133.202 139.416  1.00  0.00     0.002 C 
ATOM     12  C   UNL     1     138.490 131.816 140.128  1.00  0.00     0.005 C 
ATOM     13  C   UNL     1     138.566 132.847 137.888  1.00  0.00    -0.026 C 
ATOM     14  C   UNL     1     138.153 130.756 139.065  1.00  0.00     0.005 C 
ATOM     15  C   UNL     1     137.713 131.569 137.863  1.00  0.00    -0.001 C 
ATOM     16  C   UNL     1     137.948 133.857 136.887  1.00  0.00     0.007 C 
ATOM     17  C   UNL     1     140.067 132.633 137.508  1.00  0.00     0.012 C 
ATOM     18  C   UNL     1     137.537 130.877 136.491  1.00  0.00    -0.004 C 
ATOM     19  C   UNL     1     137.827 133.249 135.467  1.00  0.00     0.005 C 
ATOM     20  C   UNL     1     137.014 131.914 135.435  1.00  0.00    -0.001 C 
ATOM     21  C   UNL     1     138.732 129.997 136.030  1.00  0.00     0.004 C 
ATOM     22  C   UNL     1     136.756 131.267 133.987  1.00  0.00    -0.026 C 
ATOM     23  C   UNL     1     138.874 129.927 134.506  1.00  0.00     0.004 C 
ATOM     24  C   UNL     1     137.484 129.877 133.852  1.00  0.00    -0.002 C 
ATOM     25  C   UNL     1     137.205 132.227 132.829  1.00  0.00     0.010 C 
ATOM     26  C   UNL     1     135.227 131.023 133.848  1.00  0.00     0.012 C 
ATOM     27  C   UNL     1     137.542 129.321 132.407  1.00  0.00     0.036 C 
ATOM     28  C   UNL     1     137.169 131.595 131.433  1.00  0.00     0.032 C 
ATOM     29  C   UNL     1     138.049 130.347 131.390  1.00  0.00     0.114 C 
BRANCH  29  30
ATOM     30  O   UNL     1     138.003 129.802 130.098  1.00  0.00    -0.393 OA
ATOM     31  H   UNL     1     137.758 130.542 129.483  1.00  0.00     0.210 HD
ENDBRANCH  29  30
ENDBRANCH   1  11
TORSDOF 6
ENDMDL
MODEL 8
REMARK VINA RESULT:    -5.915      6.382     11.089
REMARK INTER + INTRA:          -9.080
REMARK INTER:                  -8.028
REMARK INTRA:                  -1.053
REMARK UNBOUND:                -1.263
REMARK SMILES CC[C@H](C=C[C@H](C)[C@H]1CC[C@@H]2[C@@H]3CC[C@@H]4C[C@@H](O)CC[C@]4(C)[C@@H]3CC[C@]21C)C(C)C
REMARK SMILES IDX 6 1 7 2 5 3 4 4 3 5 2 6 1 7 28 8 29 9 30 10 8 11 9 12 26 13
REMARK SMILES IDX 10 14 11 15 25 16 27 17 12 18 24 19 23 20 13 21 21 22 14 23
REMARK SMILES IDX 15 24 20 25 22 26 16 27 19 28 17 29 18 30
REMARK H PARENT 18 31
REMARK Flexibility Score: inf
ROOT
ATOM      1  C   UNL     1     133.457 129.255 141.033  1.00  0.00     0.012 C 
ATOM      2  C   UNL     1     133.567 128.794 139.564  1.00  0.00     0.012 C 
ENDROOT
BRANCH   1   3
ATOM      3  C   UNL     1     132.325 128.540 141.750  1.00  0.00    -0.028 C 
ATOM      4  C   UNL     1     131.458 127.711 141.139  1.00  0.00    -0.027 C 
BRANCH   4   5
ATOM      5  C   UNL     1     130.335 126.993 141.867  1.00  0.00     0.014 C 
BRANCH   5   6
ATOM      6  C   UNL     1     129.062 127.874 141.945  1.00  0.00     0.004 C 
ATOM      7  C   UNL     1     128.170 127.752 140.709  1.00  0.00     0.004 C 
ENDBRANCH   5   6
BRANCH   5   8
ATOM      8  C   UNL     1     130.097 125.542 141.338  1.00  0.00    -0.011 C 
ATOM      9  C   UNL     1     131.066 125.104 140.226  1.00  0.00     0.008 C 
ATOM     10  C   UNL     1     130.125 124.521 142.486  1.00  0.00     0.008 C 
ENDBRANCH   5   8
ENDBRANCH   4   5
ENDBRANCH   1   3
BRANCH   1  11
ATOM     11  C   UNL     1     134.773 129.218 141.892  1.00  0.00     0.002 C 
ATOM     12  C   UNL     1     136.013 128.602 141.174  1.00  0.00     0.005 C 
ATOM     13  C   UNL     1     135.301 130.576 142.472  1.00  0.00    -0.026 C 
ATOM     14  C   UNL     1     137.081 129.703 141.058  1.00  0.00     0.005 C 
ATOM     15  C   UNL     1     136.334 130.977 141.407  1.00  0.00    -0.001 C 
ATOM     16  C   UNL     1     134.300 131.748 142.634  1.00  0.00     0.007 C 
ATOM     17  C   UNL     1     135.909 130.250 143.875  1.00  0.00     0.012 C 
ATOM     18  C   UNL     1     137.122 132.284 141.659  1.00  0.00    -0.004 C 
ATOM     19  C   UNL     1     135.025 133.074 142.976  1.00  0.00     0.005 C 
ATOM     20  C   UNL     1     136.124 133.463 141.934  1.00  0.00    -0.001 C 
ATOM     21  C   UNL     1     138.309 132.165 142.655  1.00  0.00     0.004 C 
ATOM     22  C   UNL     1     136.857 134.874 142.159  1.00  0.00    -0.026 C 
ATOM     23  C   UNL     1     138.590 133.467 143.412  1.00  0.00     0.004 C 
ATOM     24  C   UNL     1     138.386 134.671 142.478  1.00  0.00    -0.002 C 
ATOM     25  C   UNL     1     136.175 135.713 143.297  1.00  0.00     0.010 C 
ATOM     26  C   UNL     1     136.747 135.677 140.833  1.00  0.00     0.012 C 
ATOM     27  C   UNL     1     139.107 135.939 142.999  1.00  0.00     0.036 C 
ATOM     28  C   UNL     1     136.941 136.979 143.696  1.00  0.00     0.032 C 
ATOM     29  C   UNL     1     138.358 136.626 144.145  1.00  0.00     0.114 C 
BRANCH  29  30
ATOM     30  O   UNL     1     139.026 137.803 144.513  1.00  0.00    -0.393 OA
ATOM     31  H   UNL     1     138.450 138.264 145.178  1.00  0.00     0.210 HD
ENDBRANCH  29  30
ENDBRANCH   1  11
TORSDOF 6
ENDMDL
MODEL 9
REMARK VINA RESULT:    -5.859      3.235      6.096
REMARK INTER + INTRA:          -9.006
REMARK INTER:                  -7.341
REMARK INTRA:                  -1.666
REMARK UNBOUND:                -1.263
REMARK SMILES CC[C@H](C=C[C@H](C)[C@H]1CC[C@@H]2[C@@H]3CC[C@@H]4C[C@@H](O)CC[C@]4(C)[C@@H]3CC[C@]21C)C(C)C
REMARK SMILES IDX 6 1 7 2 5 3 4 4 3 5 2 6 1 7 28 8 29 9 30 10 8 11 9 12 26 13
REMARK SMILES IDX 10 14 11 15 25 16 27 17 12 18 24 19 23 20 13 21 21 22 14 23
REMARK SMILES IDX 15 24 20 25 22 26 16 27 19 28 17 29 18 30
REMARK H PARENT 18 31
REMARK Flexibility Score: inf
ROOT
ATOM      1  C   UNL     1     131.150 120.915 137.503  1.00  0.00     0.012 C 
ATOM      2  C   UNL     1     132.334 120.008 137.903  1.00  0.00     0.012 C 
ENDROOT
BRANCH   1   3
ATOM      3  C   UNL     1     131.081 122.149 138.386  1.00  0.00    -0.028 C 
ATOM      4  C   UNL     1     129.953 122.585 138.976  1.00  0.00    -0.027 C 
BRANCH   4   5
ATOM      5  C   UNL     1     129.896 123.815 139.865  1.00  0.00     0.014 C 
BRANCH   5   6
ATOM      6  C   UNL     1     130.724 123.610 141.160  1.00  0.00     0.004 C 
ATOM      7  C   UNL     1     129.879 123.691 142.432  1.00  0.00     0.004 C 
ENDBRANCH   5   6
BRANCH   5   8
ATOM      8  C   UNL     1     130.204 125.138 139.093  1.00  0.00    -0.011 C 
ATOM      9  C   UNL     1     128.958 125.948 138.698  1.00  0.00     0.008 C 
ATOM     10  C   UNL     1     131.176 126.028 139.883  1.00  0.00     0.008 C 
ENDBRANCH   5   8
ENDBRANCH   4   5
ENDBRANCH   1   3
BRANCH   1  11
ATOM     11  C   UNL     1     131.033 121.306 135.986  1.00  0.00     0.002 C 
ATOM     12  C   UNL     1     129.583 121.304 135.413  1.00  0.00     0.005 C 
ATOM     13  C   UNL     1     131.618 122.695 135.546  1.00  0.00    -0.026 C 
ATOM     14  C   UNL     1     129.250 122.741 134.976  1.00  0.00     0.005 C 
ATOM     15  C   UNL     1     130.360 123.577 135.587  1.00  0.00    -0.001 C 
ATOM     16  C   UNL     1     132.697 123.356 136.439  1.00  0.00     0.007 C 
ATOM     17  C   UNL     1     132.218 122.488 134.118  1.00  0.00     0.012 C 
ATOM     18  C   UNL     1     130.532 125.054 135.162  1.00  0.00    -0.004 C 
ATOM     19  C   UNL     1     132.979 124.816 136.005  1.00  0.00     0.005 C 
ATOM     20  C   UNL     1     131.698 125.711 135.981  1.00  0.00    -0.001 C 
ATOM     21  C   UNL     1     130.565 125.306 133.629  1.00  0.00     0.004 C 
ATOM     22  C   UNL     1     131.915 127.265 135.637  1.00  0.00    -0.026 C 
ATOM     23  C   UNL     1     131.405 126.527 133.239  1.00  0.00     0.004 C 
ATOM     24  C   UNL     1     131.216 127.645 134.278  1.00  0.00    -0.002 C 
ATOM     25  C   UNL     1     133.437 127.645 135.586  1.00  0.00     0.010 C 
ATOM     26  C   UNL     1     131.246 128.094 136.768  1.00  0.00     0.012 C 
ATOM     27  C   UNL     1     131.616 129.032 133.716  1.00  0.00     0.036 C 
ATOM     28  C   UNL     1     133.719 129.061 135.071  1.00  0.00     0.032 C 
ATOM     29  C   UNL     1     133.132 129.247 133.674  1.00  0.00     0.114 C 
BRANCH  29  30
ATOM     30  O   UNL     1     133.417 130.547 133.228  1.00  0.00    -0.393 OA
ATOM     31  H   UNL     1     134.353 130.743 133.497  1.00  0.00     0.210 HD
ENDBRANCH  29  30
ENDBRANCH   1  11
TORSDOF 6
ENDMDL
