MODEL 1
REMARK VINA RESULT:    12.357      0.000      0.000
REMARK INTER + INTRA:          25.837
REMARK INTER:                  26.806
REMARK INTRA:                  -0.969
REMARK UNBOUND:                -0.969
REMARK SMILES CCCCCCCCCCCCCCCCCCCCCC(=O)[O-]
REMARK SMILES IDX 12 1 11 2 10 3 9 4 8 5 7 6 6 7 5 8 4 9 3 10 2 11 1 12 13 13
REMARK SMILES IDX 14 14 15 15 16 16 17 17 18 18 19 19 20 20 21 21 22 22 23 23
REMARK SMILES IDX 24 24
REMARK H PARENT
REMARK Flexibility Score: inf
ROOT
ATOM      1  C   UNL     1       9.984 -30.176 -12.715  1.00  0.00     0.000 C 
ENDROOT
BRANCH   1   2
ATOM      2  C   UNL     1       9.755 -30.372 -11.203  1.00  0.00     0.000 C 
BRANCH   2   3
ATOM      3  C   UNL     1      10.434 -29.281 -10.357  1.00  0.00     0.000 C 
BRANCH   3   4
ATOM      4  C   UNL     1       9.563 -28.697  -9.227  1.00  0.00    -0.000 C 
BRANCH   4   5
ATOM      5  C   UNL     1       9.462 -27.161  -9.216  1.00  0.00    -0.000 C 
BRANCH   5   6
ATOM      6  C   UNL     1       9.424 -26.580  -7.793  1.00  0.00    -0.000 C 
BRANCH   6   7
ATOM      7  C   UNL     1       8.408 -25.433  -7.637  1.00  0.00    -0.000 C 
BRANCH   7   8
ATOM      8  C   UNL     1       8.409 -24.737  -6.263  1.00  0.00    -0.000 C 
BRANCH   8   9
ATOM      9  C   UNL     1       8.779 -25.681  -5.107  1.00  0.00    -0.000 C 
BRANCH   9  10
ATOM     10  C   UNL     1      10.188 -25.418  -4.545  1.00  0.00    -0.000 C 
BRANCH  10  11
ATOM     11  C   UNL     1      11.162 -26.599  -4.740  1.00  0.00    -0.003 C 
ATOM     12  C   UNL     1      12.555 -26.139  -5.168  1.00  0.00     0.004 C 
ENDBRANCH  10  11
ENDBRANCH   9  10
ENDBRANCH   8   9
ENDBRANCH   7   8
ENDBRANCH   6   7
ENDBRANCH   5   6
ENDBRANCH   4   5
ENDBRANCH   3   4
ENDBRANCH   2   3
ENDBRANCH   1   2
BRANCH   1  13
ATOM     13  C   UNL     1       8.669 -30.111 -13.516  1.00  0.00     0.000 C 
BRANCH  13  14
ATOM     14  C   UNL     1       8.875 -30.115 -15.044  1.00  0.00     0.000 C 
BRANCH  14  15
ATOM     15  C   UNL     1       9.401 -31.454 -15.594  1.00  0.00     0.000 C 
BRANCH  15  16
ATOM     16  C   UNL     1       9.720 -31.387 -17.098  1.00  0.00     0.000 C 
BRANCH  16  17
ATOM     17  C   UNL     1       9.729 -29.940 -17.619  1.00  0.00     0.000 C 
BRANCH  17  18
ATOM     18  C   UNL     1       8.626 -29.658 -18.663  1.00  0.00     0.000 C 
BRANCH  18  19
ATOM     19  C   UNL     1       7.358 -29.014 -18.055  1.00  0.00     0.000 C 
BRANCH  19  20
ATOM     20  C   UNL     1       6.284 -28.702 -19.112  1.00  0.00     0.006 C 
BRANCH  20  21
ATOM     21  C   UNL     1       6.856 -27.923 -20.306  1.00  0.00     0.053 C 
BRANCH  21  22
ATOM     22  C   UNL     1       6.703 -28.679 -21.590  1.00  0.00     0.041 C 
ATOM     23  O   UNL     1       6.399 -28.073 -22.652  1.00  0.00    -0.550 OA
ATOM     24  O   UNL     1       6.937 -30.048 -21.625  1.00  0.00    -0.550 OA
ENDBRANCH  21  22
ENDBRANCH  20  21
ENDBRANCH  19  20
ENDBRANCH  18  19
ENDBRANCH  17  18
ENDBRANCH  16  17
ENDBRANCH  15  16
ENDBRANCH  14  15
ENDBRANCH  13  14
ENDBRANCH   1  13
TORSDOF 20
ENDMDL
MODEL 2
REMARK VINA RESULT:    12.440      5.299     12.535
REMARK INTER + INTRA:          26.017
REMARK INTER:                  26.114
REMARK INTRA:                  -0.098
REMARK UNBOUND:                -0.969
REMARK SMILES CCCCCCCCCCCCCCCCCCCCCC(=O)[O-]
REMARK SMILES IDX 12 1 11 2 10 3 9 4 8 5 7 6 6 7 5 8 4 9 3 10 2 11 1 12 13 13
REMARK SMILES IDX 14 14 15 15 16 16 17 17 18 18 19 19 20 20 21 21 22 22 23 23
REMARK SMILES IDX 24 24
REMARK H PARENT
REMARK Flexibility Score: inf
ROOT
ATOM      1  C   UNL     1       9.140 -29.595 -11.765  1.00  0.00     0.000 C 
ENDROOT
BRANCH   1   2
ATOM      2  C   UNL     1       8.379 -30.302 -12.905  1.00  0.00     0.000 C 
BRANCH   2   3
ATOM      3  C   UNL     1       8.895 -29.899 -14.298  1.00  0.00     0.000 C 
BRANCH   3   4
ATOM      4  C   UNL     1       9.722 -30.980 -15.022  1.00  0.00    -0.000 C 
BRANCH   4   5
ATOM      5  C   UNL     1       9.273 -31.282 -16.463  1.00  0.00    -0.000 C 
BRANCH   5   6
ATOM      6  C   UNL     1       9.225 -30.023 -17.344  1.00  0.00    -0.000 C 
BRANCH   6   7
ATOM      7  C   UNL     1       8.264 -28.946 -16.804  1.00  0.00    -0.000 C 
BRANCH   7   8
ATOM      8  C   UNL     1       6.954 -28.778 -17.598  1.00  0.00    -0.000 C 
BRANCH   8   9
ATOM      9  C   UNL     1       7.029 -29.362 -19.019  1.00  0.00    -0.000 C 
BRANCH   9  10
ATOM     10  C   UNL     1       6.465 -28.410 -20.089  1.00  0.00    -0.000 C 
BRANCH  10  11
ATOM     11  C   UNL     1       6.965 -28.718 -21.515  1.00  0.00    -0.003 C 
ATOM     12  C   UNL     1       6.175 -27.962 -22.584  1.00  0.00     0.004 C 
ENDBRANCH  10  11
ENDBRANCH   9  10
ENDBRANCH   8   9
ENDBRANCH   7   8
ENDBRANCH   6   7
ENDBRANCH   5   6
ENDBRANCH   4   5
ENDBRANCH   3   4
ENDBRANCH   2   3
ENDBRANCH   1   2
BRANCH   1  13
ATOM     13  C   UNL     1       8.341 -29.555 -10.448  1.00  0.00     0.000 C 
BRANCH  13  14
ATOM     14  C   UNL     1       9.091 -28.865  -9.291  1.00  0.00     0.000 C 
BRANCH  14  15
ATOM     15  C   UNL     1       9.254 -27.345  -9.478  1.00  0.00     0.000 C 
BRANCH  15  16
ATOM     16  C   UNL     1       9.474 -26.609  -8.145  1.00  0.00     0.000 C 
BRANCH  16  17
ATOM     17  C   UNL     1       8.472 -25.459  -7.951  1.00  0.00     0.000 C 
BRANCH  17  18
ATOM     18  C   UNL     1       8.539 -24.818  -6.547  1.00  0.00     0.000 C 
BRANCH  18  19
ATOM     19  C   UNL     1       8.858 -25.833  -5.425  1.00  0.00     0.000 C 
BRANCH  19  20
ATOM     20  C   UNL     1      10.244 -25.607  -4.795  1.00  0.00     0.006 C 
BRANCH  20  21
ATOM     21  C   UNL     1      10.925 -26.927  -4.406  1.00  0.00     0.053 C 
BRANCH  21  22
ATOM     22  C   UNL     1      12.383 -26.924  -4.750  1.00  0.00     0.041 C 
ATOM     23  O   UNL     1      12.877 -25.973  -5.413  1.00  0.00    -0.550 OA
ATOM     24  O   UNL     1      13.207 -27.948  -4.302  1.00  0.00    -0.550 OA
ENDBRANCH  21  22
ENDBRANCH  20  21
ENDBRANCH  19  20
ENDBRANCH  18  19
ENDBRANCH  17  18
ENDBRANCH  16  17
ENDBRANCH  15  16
ENDBRANCH  14  15
ENDBRANCH  13  14
ENDBRANCH   1  13
TORSDOF 20
ENDMDL
MODEL 3
REMARK VINA RESULT:    12.512      5.266     12.446
REMARK INTER + INTRA:          26.173
REMARK INTER:                  26.973
REMARK INTRA:                  -0.801
REMARK UNBOUND:                -0.969
REMARK SMILES CCCCCCCCCCCCCCCCCCCCCC(=O)[O-]
REMARK SMILES IDX 12 1 11 2 10 3 9 4 8 5 7 6 6 7 5 8 4 9 3 10 2 11 1 12 13 13
REMARK SMILES IDX 14 14 15 15 16 16 17 17 18 18 19 19 20 20 21 21 22 22 23 23
REMARK SMILES IDX 24 24
REMARK H PARENT
REMARK Flexibility Score: inf
ROOT
ATOM      1  C   UNL     1       9.233 -29.216  -9.339  1.00  0.00     0.000 C 
ENDROOT
BRANCH   1   2
ATOM      2  C   UNL     1       8.289 -29.320 -10.553  1.00  0.00     0.000 C 
BRANCH   2   3
ATOM      3  C   UNL     1       9.036 -29.666 -11.854  1.00  0.00     0.000 C 
BRANCH   3   4
ATOM      4  C   UNL     1       8.130 -29.943 -13.070  1.00  0.00    -0.000 C 
BRANCH   4   5
ATOM      5  C   UNL     1       8.835 -29.857 -14.435  1.00  0.00    -0.000 C 
BRANCH   5   6
ATOM      6  C   UNL     1       9.370 -31.216 -14.913  1.00  0.00    -0.000 C 
BRANCH   6   7
ATOM      7  C   UNL     1       9.449 -31.326 -16.448  1.00  0.00    -0.000 C 
BRANCH   7   8
ATOM      8  C   UNL     1       9.485 -29.983 -17.202  1.00  0.00    -0.000 C 
BRANCH   8   9
ATOM      9  C   UNL     1       8.106 -29.545 -17.723  1.00  0.00    -0.000 C 
BRANCH   9  10
ATOM     10  C   UNL     1       8.072 -29.364 -19.251  1.00  0.00    -0.000 C 
BRANCH  10  11
ATOM     11  C   UNL     1       6.832 -28.598 -19.756  1.00  0.00    -0.003 C 
ATOM     12  C   UNL     1       6.579 -28.819 -21.247  1.00  0.00     0.004 C 
ENDBRANCH  10  11
ENDBRANCH   9  10
ENDBRANCH   8   9
ENDBRANCH   7   8
ENDBRANCH   6   7
ENDBRANCH   5   6
ENDBRANCH   4   5
ENDBRANCH   3   4
ENDBRANCH   2   3
ENDBRANCH   1   2
BRANCH   1  13
ATOM     13  C   UNL     1       9.999 -27.880  -9.289  1.00  0.00     0.000 C 
BRANCH  13  14
ATOM     14  C   UNL     1       9.080 -26.643  -9.220  1.00  0.00     0.000 C 
BRANCH  14  15
ATOM     15  C   UNL     1       8.736 -26.208  -7.783  1.00  0.00     0.000 C 
BRANCH  15  16
ATOM     16  C   UNL     1       8.554 -24.685  -7.657  1.00  0.00     0.000 C 
BRANCH  16  17
ATOM     17  C   UNL     1       7.751 -24.304  -6.403  1.00  0.00     0.000 C 
BRANCH  17  18
ATOM     18  C   UNL     1       7.919 -25.305  -5.240  1.00  0.00     0.000 C 
BRANCH  18  19
ATOM     19  C   UNL     1       9.224 -25.097  -4.436  1.00  0.00     0.000 C 
BRANCH  19  20
ATOM     20  C   UNL     1      10.288 -26.166  -4.744  1.00  0.00     0.006 C 
BRANCH  20  21
ATOM     21  C   UNL     1      11.690 -25.557  -4.904  1.00  0.00     0.053 C 
BRANCH  21  22
ATOM     22  C   UNL     1      12.743 -26.614  -5.042  1.00  0.00     0.041 C 
ATOM     23  O   UNL     1      13.631 -26.513  -5.929  1.00  0.00    -0.550 OA
ATOM     24  O   UNL     1      12.771 -27.689  -4.162  1.00  0.00    -0.550 OA
ENDBRANCH  21  22
ENDBRANCH  20  21
ENDBRANCH  19  20
ENDBRANCH  18  19
ENDBRANCH  17  18
ENDBRANCH  16  17
ENDBRANCH  15  16
ENDBRANCH  14  15
ENDBRANCH  13  14
ENDBRANCH   1  13
TORSDOF 20
ENDMDL
MODEL 4
REMARK VINA RESULT:    12.698      5.167     12.209
REMARK INTER + INTRA:          26.575
REMARK INTER:                  27.354
REMARK INTRA:                  -0.779
REMARK UNBOUND:                -0.969
REMARK SMILES CCCCCCCCCCCCCCCCCCCCCC(=O)[O-]
REMARK SMILES IDX 12 1 11 2 10 3 9 4 8 5 7 6 6 7 5 8 4 9 3 10 2 11 1 12 13 13
REMARK SMILES IDX 14 14 15 15 16 16 17 17 18 18 19 19 20 20 21 21 22 22 23 23
REMARK SMILES IDX 24 24
REMARK H PARENT
REMARK Flexibility Score: inf
ROOT
ATOM      1  C   UNL     1       8.964 -29.899 -12.420  1.00  0.00     0.000 C 
ENDROOT
BRANCH   1   2
ATOM      2  C   UNL     1       8.518 -29.990 -13.893  1.00  0.00     0.000 C 
BRANCH   2   3
ATOM      3  C   UNL     1       9.627 -30.533 -14.812  1.00  0.00     0.000 C 
BRANCH   3   4
ATOM      4  C   UNL     1       9.130 -31.378 -16.002  1.00  0.00    -0.000 C 
BRANCH   4   5
ATOM      5  C   UNL     1       9.698 -30.964 -17.371  1.00  0.00    -0.000 C 
BRANCH   5   6
ATOM      6  C   UNL     1       9.033 -29.696 -17.931  1.00  0.00    -0.000 C 
BRANCH   6   7
ATOM      7  C   UNL     1       7.790 -29.264 -17.130  1.00  0.00    -0.000 C 
BRANCH   7   8
ATOM      8  C   UNL     1       6.537 -28.963 -17.975  1.00  0.00    -0.000 C 
BRANCH   8   9
ATOM      9  C   UNL     1       6.857 -28.250 -19.299  1.00  0.00    -0.000 C 
BRANCH   9  10
ATOM     10  C   UNL     1       6.269 -28.969 -20.525  1.00  0.00    -0.000 C 
BRANCH  10  11
ATOM     11  C   UNL     1       6.945 -28.578 -21.855  1.00  0.00    -0.003 C 
ATOM     12  C   UNL     1       5.932 -28.171 -22.925  1.00  0.00     0.004 C 
ENDBRANCH  10  11
ENDBRANCH   9  10
ENDBRANCH   8   9
ENDBRANCH   7   8
ENDBRANCH   6   7
ENDBRANCH   5   6
ENDBRANCH   4   5
ENDBRANCH   3   4
ENDBRANCH   2   3
ENDBRANCH   1   2
BRANCH   1  13
ATOM     13  C   UNL     1       7.811 -29.524 -11.469  1.00  0.00     0.000 C 
BRANCH  13  14
ATOM     14  C   UNL     1       8.270 -29.224 -10.028  1.00  0.00     0.000 C 
BRANCH  14  15
ATOM     15  C   UNL     1       9.725 -28.729  -9.933  1.00  0.00     0.000 C 
BRANCH  15  16
ATOM     16  C   UNL     1       9.898 -27.610  -8.891  1.00  0.00     0.000 C 
BRANCH  16  17
ATOM     17  C   UNL     1       9.271 -26.287  -9.360  1.00  0.00     0.000 C 
BRANCH  17  18
ATOM     18  C   UNL     1       8.101 -25.814  -8.471  1.00  0.00     0.000 C 
BRANCH  18  19
ATOM     19  C   UNL     1       8.502 -24.708  -7.467  1.00  0.00     0.000 C 
BRANCH  19  20
ATOM     20  C   UNL     1       7.599 -24.680  -6.221  1.00  0.00     0.006 C 
BRANCH  20  21
ATOM     21  C   UNL     1       8.411 -24.573  -4.921  1.00  0.00     0.053 C 
BRANCH  21  22
ATOM     22  C   UNL     1       9.443 -25.653  -4.819  1.00  0.00     0.041 C 
ATOM     23  O   UNL     1      10.616 -25.378  -4.449  1.00  0.00    -0.550 OA
ATOM     24  O   UNL     1       9.101 -26.972  -5.089  1.00  0.00    -0.550 OA
ENDBRANCH  21  22
ENDBRANCH  20  21
ENDBRANCH  19  20
ENDBRANCH  18  19
ENDBRANCH  17  18
ENDBRANCH  16  17
ENDBRANCH  15  16
ENDBRANCH  14  15
ENDBRANCH  13  14
ENDBRANCH   1  13
TORSDOF 20
ENDMDL
MODEL 5
REMARK VINA RESULT:    12.701      5.365     12.033
REMARK INTER + INTRA:          26.582
REMARK INTER:                  25.630
REMARK INTRA:                   0.952
REMARK UNBOUND:                -0.969
REMARK SMILES CCCCCCCCCCCCCCCCCCCCCC(=O)[O-]
REMARK SMILES IDX 12 1 11 2 10 3 9 4 8 5 7 6 6 7 5 8 4 9 3 10 2 11 1 12 13 13
REMARK SMILES IDX 14 14 15 15 16 16 17 17 18 18 19 19 20 20 21 21 22 22 23 23
REMARK SMILES IDX 24 24
REMARK H PARENT
REMARK Flexibility Score: inf
ROOT
ATOM      1  C   UNL     1       8.482 -29.662 -14.327  1.00  0.00     0.000 C 
ENDROOT
BRANCH   1   2
ATOM      2  C   UNL     1       9.233 -30.989 -14.553  1.00  0.00     0.000 C 
BRANCH   2   3
ATOM      3  C   UNL     1      10.060 -30.985 -15.852  1.00  0.00     0.000 C 
BRANCH   3   4
ATOM      4  C   UNL     1       9.248 -31.232 -17.140  1.00  0.00    -0.000 C 
BRANCH   4   5
ATOM      5  C   UNL     1       8.900 -29.964 -17.939  1.00  0.00    -0.000 C 
BRANCH   5   6
ATOM      6  C   UNL     1       8.131 -28.929 -17.102  1.00  0.00    -0.000 C 
BRANCH   6   7
ATOM      7  C   UNL     1       6.666 -28.762 -17.548  1.00  0.00    -0.000 C 
BRANCH   7   8
ATOM      8  C   UNL     1       6.454 -28.623 -19.068  1.00  0.00    -0.000 C 
BRANCH   8   9
ATOM      9  C   UNL     1       7.640 -29.150 -19.894  1.00  0.00    -0.000 C 
BRANCH   9  10
ATOM     10  C   UNL     1       7.303 -29.317 -21.386  1.00  0.00    -0.000 C 
BRANCH  10  11
ATOM     11  C   UNL     1       6.107 -28.460 -21.850  1.00  0.00    -0.003 C 
ATOM     12  C   UNL     1       6.437 -27.622 -23.086  1.00  0.00     0.004 C 
ENDBRANCH  10  11
ENDBRANCH   9  10
ENDBRANCH   8   9
ENDBRANCH   7   8
ENDBRANCH   6   7
ENDBRANCH   5   6
ENDBRANCH   4   5
ENDBRANCH   3   4
ENDBRANCH   2   3
ENDBRANCH   1   2
BRANCH   1  13
ATOM     13  C   UNL     1       7.752 -29.613 -12.971  1.00  0.00     0.000 C 
BRANCH  13  14
ATOM     14  C   UNL     1       8.642 -30.007 -11.774  1.00  0.00     0.000 C 
BRANCH  14  15
ATOM     15  C   UNL     1       8.264 -29.296 -10.462  1.00  0.00     0.000 C 
BRANCH  15  16
ATOM     16  C   UNL     1       9.449 -29.195  -9.486  1.00  0.00     0.000 C 
BRANCH  16  17
ATOM     17  C   UNL     1       9.991 -27.760  -9.385  1.00  0.00     0.000 C 
BRANCH  17  18
ATOM     18  C   UNL     1       9.253 -26.899  -8.337  1.00  0.00     0.000 C 
BRANCH  18  19
ATOM     19  C   UNL     1       8.803 -25.523  -8.881  1.00  0.00     0.000 C 
BRANCH  19  20
ATOM     20  C   UNL     1       8.380 -24.551  -7.765  1.00  0.00     0.006 C 
BRANCH  20  21
ATOM     21  C   UNL     1       7.555 -25.248  -6.673  1.00  0.00     0.053 C 
BRANCH  21  22
ATOM     22  C   UNL     1       7.274 -24.334  -5.519  1.00  0.00     0.041 C 
ATOM     23  O   UNL     1       8.172 -24.089  -4.670  1.00  0.00    -0.550 OA
ATOM     24  O   UNL     1       6.034 -23.719  -5.404  1.00  0.00    -0.550 OA
ENDBRANCH  21  22
ENDBRANCH  20  21
ENDBRANCH  19  20
ENDBRANCH  18  19
ENDBRANCH  17  18
ENDBRANCH  16  17
ENDBRANCH  15  16
ENDBRANCH  14  15
ENDBRANCH  13  14
ENDBRANCH   1  13
TORSDOF 20
ENDMDL
MODEL 6
REMARK VINA RESULT:    12.764      1.150      1.970
REMARK INTER + INTRA:          26.719
REMARK INTER:                  25.975
REMARK INTRA:                   0.744
REMARK UNBOUND:                -0.969
REMARK SMILES CCCCCCCCCCCCCCCCCCCCCC(=O)[O-]
REMARK SMILES IDX 12 1 11 2 10 3 9 4 8 5 7 6 6 7 5 8 4 9 3 10 2 11 1 12 13 13
REMARK SMILES IDX 14 14 15 15 16 16 17 17 18 18 19 19 20 20 21 21 22 22 23 23
REMARK SMILES IDX 24 24
REMARK H PARENT
REMARK Flexibility Score: inf
ROOT
ATOM      1  C   UNL     1       8.680 -29.697 -12.132  1.00  0.00     0.000 C 
ENDROOT
BRANCH   1   2
ATOM      2  C   UNL     1      10.021 -30.166 -11.535  1.00  0.00     0.000 C 
BRANCH   2   3
ATOM      3  C   UNL     1      10.257 -29.624 -10.113  1.00  0.00     0.000 C 
BRANCH   3   4
ATOM      4  C   UNL     1       9.195 -28.623  -9.615  1.00  0.00    -0.000 C 
BRANCH   4   5
ATOM      5  C   UNL     1       9.759 -27.396  -8.877  1.00  0.00    -0.000 C 
BRANCH   5   6
ATOM      6  C   UNL     1       8.768 -26.222  -8.836  1.00  0.00    -0.000 C 
BRANCH   6   7
ATOM      7  C   UNL     1       8.850 -25.409  -7.529  1.00  0.00    -0.000 C 
BRANCH   7   8
ATOM      8  C   UNL     1       9.000 -26.247  -6.244  1.00  0.00    -0.000 C 
BRANCH   8   9
ATOM      9  C   UNL     1       9.164 -25.388  -4.979  1.00  0.00    -0.000 C 
BRANCH   9  10
ATOM     10  C   UNL     1       7.846 -24.744  -4.516  1.00  0.00    -0.000 C 
BRANCH  10  11
ATOM     11  C   UNL     1       7.019 -24.132  -5.666  1.00  0.00    -0.003 C 
ATOM     12  C   UNL     1       7.669 -22.875  -6.245  1.00  0.00     0.004 C 
ENDBRANCH  10  11
ENDBRANCH   9  10
ENDBRANCH   8   9
ENDBRANCH   7   8
ENDBRANCH   6   7
ENDBRANCH   5   6
ENDBRANCH   4   5
ENDBRANCH   3   4
ENDBRANCH   2   3
ENDBRANCH   1   2
BRANCH   1  13
ATOM     13  C   UNL     1       8.351 -30.379 -13.473  1.00  0.00     0.000 C 
BRANCH  13  14
ATOM     14  C   UNL     1       9.448 -30.203 -14.543  1.00  0.00     0.000 C 
BRANCH  14  15
ATOM     15  C   UNL     1       9.638 -31.438 -15.443  1.00  0.00     0.000 C 
BRANCH  15  16
ATOM     16  C   UNL     1       9.221 -31.172 -16.900  1.00  0.00     0.000 C 
BRANCH  16  17
ATOM     17  C   UNL     1       9.175 -29.669 -17.220  1.00  0.00     0.000 C 
BRANCH  17  18
ATOM     18  C   UNL     1       7.966 -28.945 -16.588  1.00  0.00     0.000 C 
BRANCH  18  19
ATOM     19  C   UNL     1       6.746 -28.853 -17.533  1.00  0.00     0.000 C 
BRANCH  19  20
ATOM     20  C   UNL     1       7.086 -29.238 -18.984  1.00  0.00     0.006 C 
BRANCH  20  21
ATOM     21  C   UNL     1       6.634 -28.167 -19.988  1.00  0.00     0.053 C 
BRANCH  21  22
ATOM     22  C   UNL     1       6.722 -28.656 -21.402  1.00  0.00     0.041 C 
ATOM     23  O   UNL     1       7.099 -29.834 -21.643  1.00  0.00    -0.550 OA
ATOM     24  O   UNL     1       6.347 -27.827 -22.451  1.00  0.00    -0.550 OA
ENDBRANCH  21  22
ENDBRANCH  20  21
ENDBRANCH  19  20
ENDBRANCH  18  19
ENDBRANCH  17  18
ENDBRANCH  16  17
ENDBRANCH  15  16
ENDBRANCH  14  15
ENDBRANCH  13  14
ENDBRANCH   1  13
TORSDOF 20
ENDMDL
MODEL 7
REMARK VINA RESULT:    12.836      1.091      2.125
REMARK INTER + INTRA:          26.875
REMARK INTER:                  27.824
REMARK INTRA:                  -0.948
REMARK UNBOUND:                -0.969
REMARK SMILES CCCCCCCCCCCCCCCCCCCCCC(=O)[O-]
REMARK SMILES IDX 12 1 11 2 10 3 9 4 8 5 7 6 6 7 5 8 4 9 3 10 2 11 1 12 13 13
REMARK SMILES IDX 14 14 15 15 16 16 17 17 18 18 19 19 20 20 21 21 22 22 23 23
REMARK SMILES IDX 24 24
REMARK H PARENT
REMARK Flexibility Score: inf
ROOT
ATOM      1  C   UNL     1       9.124 -30.698 -12.899  1.00  0.00     0.000 C 
ENDROOT
BRANCH   1   2
ATOM      2  C   UNL     1       9.558 -29.439 -12.123  1.00  0.00     0.000 C 
BRANCH   2   3
ATOM      3  C   UNL     1      10.512 -29.764 -10.958  1.00  0.00     0.000 C 
BRANCH   3   4
ATOM      4  C   UNL     1       9.826 -29.954  -9.591  1.00  0.00    -0.000 C 
BRANCH   4   5
ATOM      5  C   UNL     1       8.889 -28.807  -9.171  1.00  0.00    -0.000 C 
BRANCH   5   6
ATOM      6  C   UNL     1       9.551 -27.426  -9.299  1.00  0.00    -0.000 C 
BRANCH   6   7
ATOM      7  C   UNL     1       9.220 -26.488  -8.122  1.00  0.00    -0.000 C 
BRANCH   7   8
ATOM      8  C   UNL     1       9.799 -26.915  -6.759  1.00  0.00    -0.000 C 
BRANCH   8   9
ATOM      9  C   UNL     1       9.430 -25.954  -5.617  1.00  0.00    -0.000 C 
BRANCH   9  10
ATOM     10  C   UNL     1       7.915 -25.708  -5.506  1.00  0.00    -0.000 C 
BRANCH  10  11
ATOM     11  C   UNL     1       7.477 -24.311  -5.993  1.00  0.00    -0.003 C 
ATOM     12  C   UNL     1       6.115 -23.901  -5.434  1.00  0.00     0.004 C 
ENDBRANCH  10  11
ENDBRANCH   9  10
ENDBRANCH   8   9
ENDBRANCH   7   8
ENDBRANCH   6   7
ENDBRANCH   5   6
ENDBRANCH   4   5
ENDBRANCH   3   4
ENDBRANCH   2   3
ENDBRANCH   1   2
BRANCH   1  13
ATOM     13  C   UNL     1       9.180 -30.508 -14.427  1.00  0.00     0.000 C 
BRANCH  13  14
ATOM     14  C   UNL     1       9.571 -31.786 -15.196  1.00  0.00     0.000 C 
BRANCH  14  15
ATOM     15  C   UNL     1       9.409 -31.663 -16.722  1.00  0.00     0.000 C 
BRANCH  15  16
ATOM     16  C   UNL     1       9.881 -30.298 -17.254  1.00  0.00     0.000 C 
BRANCH  16  17
ATOM     17  C   UNL     1       8.794 -29.599 -18.088  1.00  0.00     0.000 C 
BRANCH  17  18
ATOM     18  C   UNL     1       7.711 -28.910 -17.228  1.00  0.00     0.000 C 
BRANCH  18  19
ATOM     19  C   UNL     1       6.552 -28.318 -18.063  1.00  0.00     0.000 C 
BRANCH  19  20
ATOM     20  C   UNL     1       6.453 -28.940 -19.468  1.00  0.00     0.006 C 
BRANCH  20  21
ATOM     21  C   UNL     1       6.274 -27.876 -20.560  1.00  0.00     0.053 C 
BRANCH  21  22
ATOM     22  C   UNL     1       6.605 -28.412 -21.920  1.00  0.00     0.041 C 
ATOM     23  O   UNL     1       6.313 -27.751 -22.951  1.00  0.00    -0.550 OA
ATOM     24  O   UNL     1       7.275 -29.622 -22.047  1.00  0.00    -0.550 OA
ENDBRANCH  21  22
ENDBRANCH  20  21
ENDBRANCH  19  20
ENDBRANCH  18  19
ENDBRANCH  17  18
ENDBRANCH  16  17
ENDBRANCH  15  16
ENDBRANCH  14  15
ENDBRANCH  13  14
ENDBRANCH   1  13
TORSDOF 20
ENDMDL
MODEL 8
REMARK VINA RESULT:    12.935      0.858      1.520
REMARK INTER + INTRA:          27.090
REMARK INTER:                  28.168
REMARK INTRA:                  -1.078
REMARK UNBOUND:                -0.969
REMARK SMILES CCCCCCCCCCCCCCCCCCCCCC(=O)[O-]
REMARK SMILES IDX 12 1 11 2 10 3 9 4 8 5 7 6 6 7 5 8 4 9 3 10 2 11 1 12 13 13
REMARK SMILES IDX 14 14 15 15 16 16 17 17 18 18 19 19 20 20 21 21 22 22 23 23
REMARK SMILES IDX 24 24
REMARK H PARENT
REMARK Flexibility Score: inf
ROOT
ATOM      1  C   UNL     1      10.065 -30.035 -11.741  1.00  0.00     0.000 C 
ENDROOT
BRANCH   1   2
ATOM      2  C   UNL     1      10.345 -29.960 -10.227  1.00  0.00     0.000 C 
BRANCH   2   3
ATOM      3  C   UNL     1       9.220 -29.249  -9.453  1.00  0.00     0.000 C 
BRANCH   3   4
ATOM      4  C   UNL     1       9.606 -27.880  -8.857  1.00  0.00    -0.000 C 
BRANCH   4   5
ATOM      5  C   UNL     1       9.188 -26.665  -9.704  1.00  0.00    -0.000 C 
BRANCH   5   6
ATOM      6  C   UNL     1       8.835 -25.439  -8.847  1.00  0.00    -0.000 C 
BRANCH   6   7
ATOM      7  C   UNL     1       8.451 -25.804  -7.400  1.00  0.00    -0.000 C 
BRANCH   7   8
ATOM      8  C   UNL     1       7.902 -24.640  -6.552  1.00  0.00    -0.000 C 
BRANCH   8   9
ATOM      9  C   UNL     1       8.119 -24.838  -5.043  1.00  0.00    -0.000 C 
BRANCH   9  10
ATOM     10  C   UNL     1       9.602 -24.997  -4.666  1.00  0.00    -0.000 C 
BRANCH  10  11
ATOM     11  C   UNL     1      10.138 -26.431  -4.857  1.00  0.00    -0.003 C 
ATOM     12  C   UNL     1      11.663 -26.498  -4.772  1.00  0.00     0.004 C 
ENDBRANCH  10  11
ENDBRANCH   9  10
ENDBRANCH   8   9
ENDBRANCH   7   8
ENDBRANCH   6   7
ENDBRANCH   5   6
ENDBRANCH   4   5
ENDBRANCH   3   4
ENDBRANCH   2   3
ENDBRANCH   1   2
BRANCH   1  13
ATOM     13  C   UNL     1       8.579 -29.815 -12.085  1.00  0.00     0.000 C 
BRANCH  13  14
ATOM     14  C   UNL     1       8.260 -29.983 -13.585  1.00  0.00     0.000 C 
BRANCH  14  15
ATOM     15  C   UNL     1       9.465 -30.443 -14.426  1.00  0.00     0.000 C 
BRANCH  15  16
ATOM     16  C   UNL     1       9.175 -31.734 -15.212  1.00  0.00     0.000 C 
BRANCH  16  17
ATOM     17  C   UNL     1       9.561 -31.602 -16.694  1.00  0.00     0.000 C 
BRANCH  17  18
ATOM     18  C   UNL     1       9.730 -30.138 -17.156  1.00  0.00     0.000 C 
BRANCH  18  19
ATOM     19  C   UNL     1       8.840 -29.771 -18.366  1.00  0.00     0.000 C 
BRANCH  19  20
ATOM     20  C   UNL     1       7.635 -28.896 -17.973  1.00  0.00     0.006 C 
BRANCH  20  21
ATOM     21  C   UNL     1       6.434 -29.114 -18.905  1.00  0.00     0.053 C 
BRANCH  21  22
ATOM     22  C   UNL     1       6.766 -28.785 -20.329  1.00  0.00     0.041 C 
ATOM     23  O   UNL     1       6.917 -29.706 -21.175  1.00  0.00    -0.550 OA
ATOM     24  O   UNL     1       6.866 -27.459 -20.731  1.00  0.00    -0.550 OA
ENDBRANCH  21  22
ENDBRANCH  20  21
ENDBRANCH  19  20
ENDBRANCH  18  19
ENDBRANCH  17  18
ENDBRANCH  16  17
ENDBRANCH  15  16
ENDBRANCH  14  15
ENDBRANCH  13  14
ENDBRANCH   1  13
TORSDOF 20
ENDMDL
MODEL 9
REMARK VINA RESULT:    15.345      2.743      4.448
REMARK INTER + INTRA:          32.317
REMARK INTER:                  32.621
REMARK INTRA:                  -0.304
REMARK UNBOUND:                -0.969
REMARK SMILES CCCCCCCCCCCCCCCCCCCCCC(=O)[O-]
REMARK SMILES IDX 12 1 11 2 10 3 9 4 8 5 7 6 6 7 5 8 4 9 3 10 2 11 1 12 13 13
REMARK SMILES IDX 14 14 15 15 16 16 17 17 18 18 19 19 20 20 21 21 22 22 23 23
REMARK SMILES IDX 24 24
REMARK H PARENT
REMARK Flexibility Score: inf
ROOT
ATOM      1  C   UNL     1       8.120 -29.338 -15.199  1.00  0.00     0.000 C 
ENDROOT
BRANCH   1   2
ATOM      2  C   UNL     1       7.726 -28.924 -13.768  1.00  0.00     0.000 C 
BRANCH   2   3
ATOM      3  C   UNL     1       8.447 -29.757 -12.692  1.00  0.00     0.000 C 
BRANCH   3   4
ATOM      4  C   UNL     1       8.126 -29.360 -11.238  1.00  0.00    -0.000 C 
BRANCH   4   5
ATOM      5  C   UNL     1       9.338 -29.340 -10.290  1.00  0.00    -0.000 C 
BRANCH   5   6
ATOM      6  C   UNL     1       9.041 -28.624  -8.963  1.00  0.00    -0.000 C 
BRANCH   6   7
ATOM      7  C   UNL     1       9.584 -27.183  -8.921  1.00  0.00    -0.000 C 
BRANCH   7   8
ATOM      8  C   UNL     1       8.875 -26.243  -7.926  1.00  0.00    -0.000 C 
BRANCH   8   9
ATOM      9  C   UNL     1       9.227 -26.539  -6.459  1.00  0.00    -0.000 C 
BRANCH   9  10
ATOM     10  C   UNL     1       8.807 -25.410  -5.502  1.00  0.00    -0.000 C 
BRANCH  10  11
ATOM     11  C   UNL     1       7.881 -24.361  -6.151  1.00  0.00    -0.003 C 
ATOM     12  C   UNL     1       6.489 -24.343  -5.519  1.00  0.00     0.004 C 
ENDBRANCH  10  11
ENDBRANCH   9  10
ENDBRANCH   8   9
ENDBRANCH   7   8
ENDBRANCH   6   7
ENDBRANCH   5   6
ENDBRANCH   4   5
ENDBRANCH   3   4
ENDBRANCH   2   3
ENDBRANCH   1   2
BRANCH   1  13
ATOM     13  C   UNL     1       7.839 -28.237 -16.239  1.00  0.00     0.000 C 
BRANCH  13  14
ATOM     14  C   UNL     1       6.443 -28.339 -16.887  1.00  0.00     0.000 C 
BRANCH  14  15
ATOM     15  C   UNL     1       6.390 -29.294 -18.094  1.00  0.00     0.000 C 
BRANCH  15  16
ATOM     16  C   UNL     1       6.589 -28.560 -19.432  1.00  0.00     0.000 C 
BRANCH  16  17
ATOM     17  C   UNL     1       7.678 -29.219 -20.293  1.00  0.00     0.000 C 
BRANCH  17  18
ATOM     18  C   UNL     1       9.029 -29.375 -19.559  1.00  0.00     0.000 C 
BRANCH  18  19
ATOM     19  C   UNL     1       9.335 -30.832 -19.144  1.00  0.00     0.000 C 
BRANCH  19  20
ATOM     20  C   UNL     1       9.557 -30.984 -17.628  1.00  0.00     0.006 C 
BRANCH  20  21
ATOM     21  C   UNL     1       9.203 -32.393 -17.129  1.00  0.00     0.053 C 
BRANCH  21  22
ATOM     22  C   UNL     1       9.306 -32.499 -15.638  1.00  0.00     0.041 C 
ATOM     23  O   UNL     1       8.961 -33.559 -15.052  1.00  0.00    -0.550 OA
ATOM     24  O   UNL     1       9.823 -31.443 -14.899  1.00  0.00    -0.550 OA
ENDBRANCH  21  22
ENDBRANCH  20  21
ENDBRANCH  19  20
ENDBRANCH  18  19
ENDBRANCH  17  18
ENDBRANCH  16  17
ENDBRANCH  15  16
ENDBRANCH  14  15
ENDBRANCH  13  14
ENDBRANCH   1  13
TORSDOF 20
ENDMDL
