MODEL 1
REMARK VINA RESULT:    -4.497      0.000      0.000
REMARK INTER + INTRA:          -5.731
REMARK INTER:                  -5.549
REMARK INTRA:                  -0.182
REMARK UNBOUND:                -0.182
REMARK SMILES C=CC[C@@H](C)C(=O)CC
REMARK SMILES IDX 4 1 5 2 6 3 7 4 8 5 9 6 3 7 2 8 1 9
REMARK H PARENT
REMARK Flexibility Score: inf
ROOT
ATOM      1  C   UNL     1      75.914  74.748  73.743  1.00  0.00     0.057 C 
ATOM      2  C   UNL     1      75.777  73.221  73.648  1.00  0.00     0.016 C 
ENDROOT
BRANCH   1   3
ATOM      3  C   UNL     1      74.968  75.437  72.779  1.00  0.00     0.135 C 
ATOM      4  O   UNL     1      75.413  76.049  71.819  1.00  0.00    -0.299 OA
BRANCH   3   5
ATOM      5  C   UNL     1      73.477  75.386  72.986  1.00  0.00     0.072 C 
ATOM      6  C   UNL     1      72.853  74.271  72.152  1.00  0.00     0.012 C 
ENDBRANCH   3   5
ENDBRANCH   1   3
BRANCH   1   7
ATOM      7  C   UNL     1      75.740  75.266  75.186  1.00  0.00     0.038 C 
BRANCH   7   8
ATOM      8  C   UNL     1      75.037  74.289  76.095  1.00  0.00    -0.034 C 
ATOM      9  C   UNL     1      75.232  74.289  77.416  1.00  0.00     0.004 C 
ENDBRANCH   7   8
ENDBRANCH   1   7
TORSDOF 4
ENDMDL
MODEL 2
REMARK VINA RESULT:    -4.378      2.023      3.884
REMARK INTER + INTRA:          -5.585
REMARK INTER:                  -5.395
REMARK INTRA:                  -0.189
REMARK UNBOUND:                -0.182
REMARK SMILES C=CC[C@@H](C)C(=O)CC
REMARK SMILES IDX 4 1 5 2 6 3 7 4 8 5 9 6 3 7 2 8 1 9
REMARK H PARENT
REMARK Flexibility Score: inf
ROOT
ATOM      1  C   UNL     1      73.385  74.724  73.344  1.00  0.00     0.057 C 
ATOM      2  C   UNL     1      73.469  73.613  72.287  1.00  0.00     0.016 C 
ENDROOT
BRANCH   1   3
ATOM      3  C   UNL     1      73.835  74.218  74.700  1.00  0.00     0.135 C 
ATOM      4  O   UNL     1      73.011  74.010  75.579  1.00  0.00    -0.299 OA
BRANCH   3   5
ATOM      5  C   UNL     1      75.292  73.966  74.990  1.00  0.00     0.072 C 
ATOM      6  C   UNL     1      75.865  75.066  75.879  1.00  0.00     0.012 C 
ENDBRANCH   3   5
ENDBRANCH   1   3
BRANCH   1   7
ATOM      7  C   UNL     1      74.152  75.996  72.924  1.00  0.00     0.038 C 
BRANCH   7   8
ATOM      8  C   UNL     1      75.208  75.742  71.877  1.00  0.00    -0.034 C 
ATOM      9  C   UNL     1      76.488  75.539  72.201  1.00  0.00     0.004 C 
ENDBRANCH   7   8
ENDBRANCH   1   7
TORSDOF 4
ENDMDL
MODEL 3
REMARK VINA RESULT:    -4.345      1.476      3.850
REMARK INTER + INTRA:          -5.544
REMARK INTER:                  -5.290
REMARK INTRA:                  -0.253
REMARK UNBOUND:                -0.182
REMARK SMILES C=CC[C@@H](C)C(=O)CC
REMARK SMILES IDX 4 1 5 2 6 3 7 4 8 5 9 6 3 7 2 8 1 9
REMARK H PARENT
REMARK Flexibility Score: inf
ROOT
ATOM      1  C   UNL     1      75.141  74.740  73.574  1.00  0.00     0.057 C 
ATOM      2  C   UNL     1      76.285  75.306  72.721  1.00  0.00     0.016 C 
ENDROOT
BRANCH   1   3
ATOM      3  C   UNL     1      75.477  74.818  75.051  1.00  0.00     0.135 C 
ATOM      4  O   UNL     1      76.404  75.518  75.430  1.00  0.00    -0.299 OA
BRANCH   3   5
ATOM      5  C   UNL     1      74.684  74.041  76.068  1.00  0.00     0.072 C 
ATOM      6  C   UNL     1      75.198  74.313  77.479  1.00  0.00     0.012 C 
ENDBRANCH   3   5
ENDBRANCH   1   3
BRANCH   1   7
ATOM      7  C   UNL     1      73.785  75.405  73.259  1.00  0.00     0.038 C 
BRANCH   7   8
ATOM      8  C   UNL     1      72.967  74.649  72.243  1.00  0.00    -0.034 C 
ATOM      9  C   UNL     1      73.044  73.321  72.122  1.00  0.00     0.004 C 
ENDBRANCH   7   8
ENDBRANCH   1   7
TORSDOF 4
ENDMDL
MODEL 4
REMARK VINA RESULT:    -4.153      1.430      1.990
REMARK INTER + INTRA:          -5.307
REMARK INTER:                  -5.061
REMARK INTRA:                  -0.246
REMARK UNBOUND:                -0.182
REMARK SMILES C=CC[C@@H](C)C(=O)CC
REMARK SMILES IDX 4 1 5 2 6 3 7 4 8 5 9 6 3 7 2 8 1 9
REMARK H PARENT
REMARK Flexibility Score: inf
ROOT
ATOM      1  C   UNL     1      75.017  74.859  74.756  1.00  0.00     0.057 C 
ATOM      2  C   UNL     1      76.201  75.789  75.055  1.00  0.00     0.016 C 
ENDROOT
BRANCH   1   3
ATOM      3  C   UNL     1      75.286  74.018  73.524  1.00  0.00     0.135 C 
ATOM      4  O   UNL     1      75.966  73.006  73.611  1.00  0.00    -0.299 OA
BRANCH   3   5
ATOM      5  C   UNL     1      74.729  74.409  72.180  1.00  0.00     0.072 C 
ATOM      6  C   UNL     1      73.240  74.728  72.283  1.00  0.00     0.012 C 
ENDBRANCH   3   5
ENDBRANCH   1   3
BRANCH   1   7
ATOM      7  C   UNL     1      74.630  73.988  75.970  1.00  0.00     0.038 C 
BRANCH   7   8
ATOM      8  C   UNL     1      75.415  74.313  77.216  1.00  0.00    -0.034 C 
ATOM      9  C   UNL     1      74.834  74.389  78.417  1.00  0.00     0.004 C 
ENDBRANCH   7   8
ENDBRANCH   1   7
TORSDOF 4
ENDMDL
MODEL 5
REMARK VINA RESULT:    -4.036      1.951      4.193
REMARK INTER + INTRA:          -5.162
REMARK INTER:                  -4.957
REMARK INTRA:                  -0.205
REMARK UNBOUND:                -0.182
REMARK SMILES C=CC[C@@H](C)C(=O)CC
REMARK SMILES IDX 4 1 5 2 6 3 7 4 8 5 9 6 3 7 2 8 1 9
REMARK H PARENT
REMARK Flexibility Score: inf
ROOT
ATOM      1  C   UNL     1      74.854  74.724  74.533  1.00  0.00     0.057 C 
ATOM      2  C   UNL     1      73.396  74.254  74.634  1.00  0.00     0.016 C 
ENDROOT
BRANCH   1   3
ATOM      3  C   UNL     1      75.516  74.732  75.897  1.00  0.00     0.135 C 
ATOM      4  O   UNL     1      76.569  75.332  76.061  1.00  0.00    -0.299 OA
BRANCH   3   5
ATOM      5  C   UNL     1      74.899  74.006  77.063  1.00  0.00     0.072 C 
ATOM      6  C   UNL     1      75.309  74.654  78.383  1.00  0.00     0.012 C 
ENDBRANCH   3   5
ENDBRANCH   1   3
BRANCH   1   7
ATOM      7  C   UNL     1      75.667  73.907  73.506  1.00  0.00     0.038 C 
BRANCH   7   8
ATOM      8  C   UNL     1      75.806  74.591  72.170  1.00  0.00    -0.034 C 
ATOM      9  C   UNL     1      75.402  75.850  71.976  1.00  0.00     0.004 C 
ENDBRANCH   7   8
ENDBRANCH   1   7
TORSDOF 4
ENDMDL
MODEL 6
REMARK VINA RESULT:    -3.848      1.493      2.080
REMARK INTER + INTRA:          -4.931
REMARK INTER:                  -5.007
REMARK INTRA:                   0.076
REMARK UNBOUND:                -0.182
REMARK SMILES C=CC[C@@H](C)C(=O)CC
REMARK SMILES IDX 4 1 5 2 6 3 7 4 8 5 9 6 3 7 2 8 1 9
REMARK H PARENT
REMARK Flexibility Score: inf
ROOT
ATOM      1  C   UNL     1      74.404  74.341  74.595  1.00  0.00     0.057 C 
ATOM      2  C   UNL     1      73.115  73.930  75.321  1.00  0.00     0.016 C 
ENDROOT
BRANCH   1   3
ATOM      3  C   UNL     1      74.094  74.933  73.234  1.00  0.00     0.135 C 
ATOM      4  O   UNL     1      73.226  75.785  73.121  1.00  0.00    -0.299 OA
BRANCH   3   5
ATOM      5  C   UNL     1      74.841  74.484  72.005  1.00  0.00     0.072 C 
ATOM      6  C   UNL     1      76.329  74.800  72.130  1.00  0.00     0.012 C 
ENDBRANCH   3   5
ENDBRANCH   1   3
BRANCH   1   7
ATOM      7  C   UNL     1      75.282  75.285  75.443  1.00  0.00     0.038 C 
BRANCH   7   8
ATOM      8  C   UNL     1      75.935  74.603  76.619  1.00  0.00    -0.034 C 
ATOM      9  C   UNL     1      75.277  74.386  77.762  1.00  0.00     0.004 C 
ENDBRANCH   7   8
ENDBRANCH   1   7
TORSDOF 4
ENDMDL
MODEL 7
REMARK VINA RESULT:    -3.754      1.957      3.221
REMARK INTER + INTRA:          -4.814
REMARK INTER:                  -5.184
REMARK INTRA:                   0.370
REMARK UNBOUND:                -0.182
REMARK SMILES C=CC[C@@H](C)C(=O)CC
REMARK SMILES IDX 4 1 5 2 6 3 7 4 8 5 9 6 3 7 2 8 1 9
REMARK H PARENT
REMARK Flexibility Score: inf
ROOT
ATOM      1  C   UNL     1      75.291  74.063  74.649  1.00  0.00     0.057 C 
ATOM      2  C   UNL     1      75.962  75.183  75.458  1.00  0.00     0.016 C 
ENDROOT
BRANCH   1   3
ATOM      3  C   UNL     1      73.798  74.297  74.534  1.00  0.00     0.135 C 
ATOM      4  O   UNL     1      73.053  73.949  75.438  1.00  0.00    -0.299 OA
BRANCH   3   5
ATOM      5  C   UNL     1      73.207  74.954  73.313  1.00  0.00     0.072 C 
ATOM      6  C   UNL     1      72.822  73.909  72.270  1.00  0.00     0.012 C 
ENDBRANCH   3   5
ENDBRANCH   1   3
BRANCH   1   7
ATOM      7  C   UNL     1      75.948  73.861  73.266  1.00  0.00     0.038 C 
BRANCH   7   8
ATOM      8  C   UNL     1      76.485  75.135  72.665  1.00  0.00    -0.034 C 
ATOM      9  C   UNL     1      75.807  75.819  71.738  1.00  0.00     0.004 C 
ENDBRANCH   7   8
ENDBRANCH   1   7
TORSDOF 4
ENDMDL
MODEL 8
REMARK VINA RESULT:    -3.605      1.645      2.614
REMARK INTER + INTRA:          -4.631
REMARK INTER:                  -4.502
REMARK INTRA:                  -0.129
REMARK UNBOUND:                -0.182
REMARK SMILES C=CC[C@@H](C)C(=O)CC
REMARK SMILES IDX 4 1 5 2 6 3 7 4 8 5 9 6 3 7 2 8 1 9
REMARK H PARENT
REMARK Flexibility Score: inf
ROOT
ATOM      1  C   UNL     1      73.747  73.838  73.314  1.00  0.00     0.057 C 
ATOM      2  C   UNL     1      72.832  74.411  72.222  1.00  0.00     0.016 C 
ENDROOT
BRANCH   1   3
ATOM      3  C   UNL     1      75.182  73.761  72.834  1.00  0.00     0.135 C 
ATOM      4  O   UNL     1      75.941  72.926  73.305  1.00  0.00    -0.299 OA
BRANCH   3   5
ATOM      5  C   UNL     1      75.699  74.703  71.778  1.00  0.00     0.072 C 
ATOM      6  C   UNL     1      76.250  75.977  72.413  1.00  0.00     0.012 C 
ENDBRANCH   3   5
ENDBRANCH   1   3
BRANCH   1   7
ATOM      7  C   UNL     1      73.629  74.609  74.646  1.00  0.00     0.038 C 
BRANCH   7   8
ATOM      8  C   UNL     1      74.441  74.005  75.764  1.00  0.00    -0.034 C 
ATOM      9  C   UNL     1      75.496  74.635  76.289  1.00  0.00     0.004 C 
ENDBRANCH   7   8
ENDBRANCH   1   7
TORSDOF 4
ENDMDL
MODEL 9
REMARK VINA RESULT:    -3.348      1.603      3.375
REMARK INTER + INTRA:          -4.313
REMARK INTER:                  -4.322
REMARK INTRA:                   0.008
REMARK UNBOUND:                -0.182
REMARK SMILES C=CC[C@@H](C)C(=O)CC
REMARK SMILES IDX 4 1 5 2 6 3 7 4 8 5 9 6 3 7 2 8 1 9
REMARK H PARENT
REMARK Flexibility Score: inf
ROOT
ATOM      1  C   UNL     1      75.055  75.010  74.328  1.00  0.00     0.057 C 
ATOM      2  C   UNL     1      75.569  74.857  75.766  1.00  0.00     0.016 C 
ENDROOT
BRANCH   1   3
ATOM      3  C   UNL     1      75.881  74.179  73.366  1.00  0.00     0.135 C 
ATOM      4  O   UNL     1      76.037  72.983  73.569  1.00  0.00    -0.299 OA
BRANCH   3   5
ATOM      5  C   UNL     1      76.522  74.803  72.154  1.00  0.00     0.072 C 
ATOM      6  C   UNL     1      75.827  76.112  71.789  1.00  0.00     0.012 C 
ENDBRANCH   3   5
ENDBRANCH   1   3
BRANCH   1   7
ATOM      7  C   UNL     1      73.548  74.699  74.205  1.00  0.00     0.038 C 
BRANCH   7   8
ATOM      8  C   UNL     1      73.041  74.731  72.785  1.00  0.00    -0.034 C 
ATOM      9  C   UNL     1      72.823  73.612  72.088  1.00  0.00     0.004 C 
ENDBRANCH   7   8
ENDBRANCH   1   7
TORSDOF 4
ENDMDL
