MODEL 1
REMARK VINA RESULT:    -3.971      0.000      0.000
REMARK INTER + INTRA:          -4.697
REMARK INTER:                  -4.551
REMARK INTRA:                  -0.145
REMARK UNBOUND:                -0.145
REMARK SMILES O=C([O-])C=Cc1ccc(O)cc1
REMARK SMILES IDX 6 1 7 2 12 3 8 4 11 5 9 6 5 7 4 8 2 9 1 10 3 11 10 12
REMARK H PARENT 10 13
REMARK Flexibility Score: inf
ROOT
ATOM      1  C   UNL     1      -3.400  85.809  -7.988  1.00  0.00    -0.025 A 
ATOM      2  C   UNL     1      -2.283  86.219  -7.241  1.00  0.00     0.012 A 
ATOM      3  C   UNL     1      -4.470  86.712  -8.161  1.00  0.00     0.012 A 
ATOM      4  C   UNL     1      -2.221  87.505  -6.700  1.00  0.00     0.047 A 
ATOM      5  C   UNL     1      -4.405  87.998  -7.617  1.00  0.00     0.047 A 
ATOM      6  C   UNL     1      -3.282  88.400  -6.888  1.00  0.00     0.115 A 
ENDROOT
BRANCH   1   7
ATOM      7  C   UNL     1      -3.423  84.429  -8.534  1.00  0.00     0.010 C 
ATOM      8  C   UNL     1      -3.084  83.342  -7.827  1.00  0.00     0.025 C 
BRANCH   8   9
ATOM      9  C   UNL     1      -3.130  81.987  -8.399  1.00  0.00     0.064 C 
ATOM     10  O   UNL     1      -2.837  80.975  -7.706  1.00  0.00    -0.545 OA
ATOM     11  O   UNL     1      -3.502  81.818  -9.726  1.00  0.00    -0.545 OA
ENDBRANCH   8   9
ENDBRANCH   1   7
BRANCH   6  12
ATOM     12  O   UNL     1      -3.232  89.686  -6.354  1.00  0.00    -0.508 OA
ATOM     13  H   UNL     1      -2.411  90.025  -5.866  1.00  0.00     0.293 HD
ENDBRANCH   6  12
TORSDOF 3
ENDMDL
MODEL 2
REMARK VINA RESULT:    -3.930      3.565      5.960
REMARK INTER + INTRA:          -4.650
REMARK INTER:                  -4.503
REMARK INTRA:                  -0.146
REMARK UNBOUND:                -0.145
REMARK SMILES O=C([O-])C=Cc1ccc(O)cc1
REMARK SMILES IDX 6 1 7 2 12 3 8 4 11 5 9 6 5 7 4 8 2 9 1 10 3 11 10 12
REMARK H PARENT 10 13
REMARK Flexibility Score: inf
ROOT
ATOM      1  C   UNL     1      -5.445  84.934  -9.678  1.00  0.00    -0.025 A 
ATOM      2  C   UNL     1      -4.379  85.442  -8.917  1.00  0.00     0.012 A 
ATOM      3  C   UNL     1      -5.443  83.567 -10.023  1.00  0.00     0.012 A 
ATOM      4  C   UNL     1      -3.348  84.602  -8.487  1.00  0.00     0.047 A 
ATOM      5  C   UNL     1      -4.409  82.730  -9.593  1.00  0.00     0.047 A 
ATOM      6  C   UNL     1      -3.361  83.242  -8.823  1.00  0.00     0.115 A 
ENDROOT
BRANCH   1   7
ATOM      7  C   UNL     1      -6.512  85.868 -10.118  1.00  0.00     0.010 C 
ATOM      8  C   UNL     1      -6.286  87.134 -10.495  1.00  0.00     0.025 C 
BRANCH   8   9
ATOM      9  C   UNL     1      -7.368  88.028 -10.937  1.00  0.00     0.064 C 
ATOM     10  O   UNL     1      -8.336  88.306 -10.178  1.00  0.00    -0.545 OA
ATOM     11  O   UNL     1      -7.324  88.576 -12.212  1.00  0.00    -0.545 OA
ENDBRANCH   8   9
ENDBRANCH   1   7
BRANCH   6  12
ATOM     12  O   UNL     1      -2.339  82.395  -8.401  1.00  0.00    -0.508 OA
ATOM     13  H   UNL     1      -1.545  82.744  -7.876  1.00  0.00     0.293 HD
ENDBRANCH   6  12
TORSDOF 3
ENDMDL
MODEL 3
REMARK VINA RESULT:    -3.895      4.289      5.941
REMARK INTER + INTRA:          -4.609
REMARK INTER:                  -4.471
REMARK INTRA:                  -0.138
REMARK UNBOUND:                -0.145
REMARK SMILES O=C([O-])C=Cc1ccc(O)cc1
REMARK SMILES IDX 6 1 7 2 12 3 8 4 11 5 9 6 5 7 4 8 2 9 1 10 3 11 10 12
REMARK H PARENT 10 13
REMARK Flexibility Score: inf
ROOT
ATOM      1  C   UNL     1      -5.977  83.085  -8.968  1.00  0.00    -0.025 A 
ATOM      2  C   UNL     1      -5.064  82.750  -9.982  1.00  0.00     0.012 A 
ATOM      3  C   UNL     1      -5.516  83.164  -7.638  1.00  0.00     0.012 A 
ATOM      4  C   UNL     1      -3.719  82.525  -9.683  1.00  0.00     0.047 A 
ATOM      5  C   UNL     1      -4.169  82.937  -7.342  1.00  0.00     0.047 A 
ATOM      6  C   UNL     1      -3.266  82.619  -8.361  1.00  0.00     0.115 A 
ENDROOT
BRANCH   1   7
ATOM      7  C   UNL     1      -7.399  83.306  -9.336  1.00  0.00     0.010 C 
ATOM      8  C   UNL     1      -8.432  82.762  -8.678  1.00  0.00     0.025 C 
BRANCH   8   9
ATOM      9  C   UNL     1      -9.830  83.013  -9.065  1.00  0.00     0.064 C 
ATOM     10  O   UNL     1     -10.330  84.168  -8.994  1.00  0.00    -0.545 OA
ATOM     11  O   UNL     1     -10.613  81.959  -9.516  1.00  0.00    -0.545 OA
ENDBRANCH   8   9
ENDBRANCH   1   7
BRANCH   6  12
ATOM     12  O   UNL     1      -1.927  82.397  -8.049  1.00  0.00    -0.508 OA
ATOM     13  H   UNL     1      -1.382  83.082  -7.538  1.00  0.00     0.293 HD
ENDBRANCH   6  12
TORSDOF 3
ENDMDL
MODEL 4
REMARK VINA RESULT:    -3.843      8.355     10.306
REMARK INTER + INTRA:          -4.550
REMARK INTER:                  -4.399
REMARK INTRA:                  -0.151
REMARK UNBOUND:                -0.145
REMARK SMILES O=C([O-])C=Cc1ccc(O)cc1
REMARK SMILES IDX 6 1 7 2 12 3 8 4 11 5 9 6 5 7 4 8 2 9 1 10 3 11 10 12
REMARK H PARENT 10 13
REMARK Flexibility Score: inf
ROOT
ATOM      1  C   UNL     1      -4.541  91.833 -13.022  1.00  0.00    -0.025 A 
ATOM      2  C   UNL     1      -4.100  92.429 -14.215  1.00  0.00     0.012 A 
ATOM      3  C   UNL     1      -5.091  90.536 -13.073  1.00  0.00     0.012 A 
ATOM      4  C   UNL     1      -4.181  91.739 -15.428  1.00  0.00     0.047 A 
ATOM      5  C   UNL     1      -5.172  89.849 -14.288  1.00  0.00     0.047 A 
ATOM      6  C   UNL     1      -4.717  90.446 -15.467  1.00  0.00     0.115 A 
ENDROOT
BRANCH   1   7
ATOM      7  C   UNL     1      -4.442  92.610 -11.761  1.00  0.00     0.010 C 
ATOM      8  C   UNL     1      -4.057  93.892 -11.704  1.00  0.00     0.025 C 
BRANCH   8   9
ATOM      9  C   UNL     1      -3.981  94.634 -10.434  1.00  0.00     0.064 C 
ATOM     10  O   UNL     1      -2.997  94.502  -9.658  1.00  0.00    -0.545 OA
ATOM     11  O   UNL     1      -5.012  95.497 -10.085  1.00  0.00    -0.545 OA
ENDBRANCH   8   9
ENDBRANCH   1   7
BRANCH   6  12
ATOM     12  O   UNL     1      -4.803  89.747 -16.670  1.00  0.00    -0.508 OA
ATOM     13  H   UNL     1      -5.642  89.773 -17.238  1.00  0.00     0.293 HD
ENDBRANCH   6  12
TORSDOF 3
ENDMDL
MODEL 5
REMARK VINA RESULT:    -3.749      8.918     10.012
REMARK INTER + INTRA:          -4.443
REMARK INTER:                  -4.308
REMARK INTRA:                  -0.135
REMARK UNBOUND:                -0.145
REMARK SMILES O=C([O-])C=Cc1ccc(O)cc1
REMARK SMILES IDX 6 1 7 2 12 3 8 4 11 5 9 6 5 7 4 8 2 9 1 10 3 11 10 12
REMARK H PARENT 10 13
REMARK Flexibility Score: inf
ROOT
ATOM      1  C   UNL     1      -5.075  90.412 -15.539  1.00  0.00    -0.025 A 
ATOM      2  C   UNL     1      -5.535  91.035 -16.711  1.00  0.00     0.012 A 
ATOM      3  C   UNL     1      -3.777  90.709 -15.076  1.00  0.00     0.012 A 
ATOM      4  C   UNL     1      -4.731  91.952 -17.393  1.00  0.00     0.047 A 
ATOM      5  C   UNL     1      -2.974  91.626 -15.762  1.00  0.00     0.047 A 
ATOM      6  C   UNL     1      -3.447  92.251 -16.918  1.00  0.00     0.115 A 
ENDROOT
BRANCH   1   7
ATOM      7  C   UNL     1      -5.964  89.439 -14.856  1.00  0.00     0.010 C 
ATOM      8  C   UNL     1      -7.010  89.790 -14.095  1.00  0.00     0.025 C 
BRANCH   8   9
ATOM      9  C   UNL     1      -7.876  88.795 -13.442  1.00  0.00     0.064 C 
ATOM     10  O   UNL     1      -8.846  88.272 -14.054  1.00  0.00    -0.545 OA
ATOM     11  O   UNL     1      -7.621  88.425 -12.128  1.00  0.00    -0.545 OA
ENDBRANCH   8   9
ENDBRANCH   1   7
BRANCH   6  12
ATOM     12  O   UNL     1      -2.636  93.164 -17.589  1.00  0.00    -0.508 OA
ATOM     13  H   UNL     1      -2.969  93.672 -18.400  1.00  0.00     0.293 HD
ENDBRANCH   6  12
TORSDOF 3
ENDMDL
MODEL 6
REMARK VINA RESULT:    -3.718      1.743      6.136
REMARK INTER + INTRA:          -4.406
REMARK INTER:                  -4.254
REMARK INTRA:                  -0.152
REMARK UNBOUND:                -0.145
REMARK SMILES O=C([O-])C=Cc1ccc(O)cc1
REMARK SMILES IDX 6 1 7 2 12 3 8 4 11 5 9 6 5 7 4 8 2 9 1 10 3 11 10 12
REMARK H PARENT 10 13
REMARK Flexibility Score: inf
ROOT
ATOM      1  C   UNL     1      -4.334  85.971  -8.415  1.00  0.00    -0.025 A 
ATOM      2  C   UNL     1      -5.427  85.841  -9.288  1.00  0.00     0.012 A 
ATOM      3  C   UNL     1      -3.489  84.860  -8.215  1.00  0.00     0.012 A 
ATOM      4  C   UNL     1      -5.658  84.642  -9.967  1.00  0.00     0.047 A 
ATOM      5  C   UNL     1      -3.724  83.661  -8.895  1.00  0.00     0.047 A 
ATOM      6  C   UNL     1      -4.805  83.548  -9.773  1.00  0.00     0.115 A 
ENDROOT
BRANCH   1   7
ATOM      7  C   UNL     1      -4.136  87.262  -7.710  1.00  0.00     0.010 C 
ATOM      8  C   UNL     1      -4.832  88.375  -7.983  1.00  0.00     0.025 C 
BRANCH   8   9
ATOM      9  C   UNL     1      -4.615  89.636  -7.255  1.00  0.00     0.064 C 
ATOM     10  O   UNL     1      -5.504  90.529  -7.220  1.00  0.00    -0.545 OA
ATOM     11  O   UNL     1      -3.412  89.845  -6.595  1.00  0.00    -0.545 OA
ENDBRANCH   8   9
ENDBRANCH   1   7
BRANCH   6  12
ATOM     12  O   UNL     1      -5.024  82.347 -10.444  1.00  0.00    -0.508 OA
ATOM     13  H   UNL     1      -5.362  81.524  -9.959  1.00  0.00     0.293 HD
ENDBRANCH   6  12
TORSDOF 3
ENDMDL
MODEL 7
REMARK VINA RESULT:    -3.713      8.298      9.477
REMARK INTER + INTRA:          -4.402
REMARK INTER:                  -4.267
REMARK INTRA:                  -0.134
REMARK UNBOUND:                -0.145
REMARK SMILES O=C([O-])C=Cc1ccc(O)cc1
REMARK SMILES IDX 6 1 7 2 12 3 8 4 11 5 9 6 5 7 4 8 2 9 1 10 3 11 10 12
REMARK H PARENT 10 13
REMARK Flexibility Score: inf
ROOT
ATOM      1  C   UNL     1      -6.300  89.542 -14.407  1.00  0.00    -0.025 A 
ATOM      2  C   UNL     1      -6.077  90.174 -15.641  1.00  0.00     0.012 A 
ATOM      3  C   UNL     1      -5.226  89.421 -13.501  1.00  0.00     0.012 A 
ATOM      4  C   UNL     1      -4.820  90.697 -15.956  1.00  0.00     0.047 A 
ATOM      5  C   UNL     1      -3.970  89.945 -13.820  1.00  0.00     0.047 A 
ATOM      6  C   UNL     1      -3.763  90.586 -15.044  1.00  0.00     0.115 A 
ENDROOT
BRANCH   1   7
ATOM      7  C   UNL     1      -7.650  88.994 -14.123  1.00  0.00     0.010 C 
ATOM      8  C   UNL     1      -8.691  89.742 -13.732  1.00  0.00     0.025 C 
BRANCH   8   9
ATOM      9  C   UNL     1     -10.020  89.164 -13.470  1.00  0.00     0.064 C 
ATOM     10  O   UNL     1     -10.808  88.885 -14.414  1.00  0.00    -0.545 OA
ATOM     11  O   UNL     1     -10.413  88.922 -12.161  1.00  0.00    -0.545 OA
ENDBRANCH   8   9
ENDBRANCH   1   7
BRANCH   6  12
ATOM     12  O   UNL     1      -2.505  91.104 -15.346  1.00  0.00    -0.508 OA
ATOM     13  H   UNL     1      -2.163  91.140 -16.299  1.00  0.00     0.293 HD
ENDBRANCH   6  12
TORSDOF 3
ENDMDL
MODEL 8
REMARK VINA RESULT:    -3.575      7.501      9.253
REMARK INTER + INTRA:          -4.242
REMARK INTER:                  -4.095
REMARK INTRA:                  -0.147
REMARK UNBOUND:                -0.145
REMARK SMILES O=C([O-])C=Cc1ccc(O)cc1
REMARK SMILES IDX 6 1 7 2 12 3 8 4 11 5 9 6 5 7 4 8 2 9 1 10 3 11 10 12
REMARK H PARENT 10 13
REMARK Flexibility Score: inf
ROOT
ATOM      1  C   UNL     1      -5.021  90.797 -12.650  1.00  0.00    -0.025 A 
ATOM      2  C   UNL     1      -4.125  91.482 -13.488  1.00  0.00     0.012 A 
ATOM      3  C   UNL     1      -5.855  89.807 -13.212  1.00  0.00     0.012 A 
ATOM      4  C   UNL     1      -4.043  91.172 -14.848  1.00  0.00     0.047 A 
ATOM      5  C   UNL     1      -5.770  89.501 -14.573  1.00  0.00     0.047 A 
ATOM      6  C   UNL     1      -4.865  90.179 -15.394  1.00  0.00     0.115 A 
ENDROOT
BRANCH   1   7
ATOM      7  C   UNL     1      -5.078  91.168 -11.214  1.00  0.00     0.010 C 
ATOM      8  C   UNL     1      -4.884  92.414 -10.759  1.00  0.00     0.025 C 
BRANCH   8   9
ATOM      9  C   UNL     1      -4.959  92.748  -9.327  1.00  0.00     0.064 C 
ATOM     10  O   UNL     1      -5.625  93.738  -8.922  1.00  0.00    -0.545 OA
ATOM     11  O   UNL     1      -4.285  91.957  -8.405  1.00  0.00    -0.545 OA
ENDBRANCH   8   9
ENDBRANCH   1   7
BRANCH   6  12
ATOM     12  O   UNL     1      -4.792  89.860 -16.749  1.00  0.00    -0.508 OA
ATOM     13  H   UNL     1      -4.599  90.567 -17.449  1.00  0.00     0.293 HD
ENDBRANCH   6  12
TORSDOF 3
ENDMDL
MODEL 9
REMARK VINA RESULT:    -3.567      7.876      9.345
REMARK INTER + INTRA:          -4.233
REMARK INTER:                  -4.094
REMARK INTRA:                  -0.140
REMARK UNBOUND:                -0.145
REMARK SMILES O=C([O-])C=Cc1ccc(O)cc1
REMARK SMILES IDX 6 1 7 2 12 3 8 4 11 5 9 6 5 7 4 8 2 9 1 10 3 11 10 12
REMARK H PARENT 10 13
REMARK Flexibility Score: inf
ROOT
ATOM      1  C   UNL     1      -5.646  89.822 -13.845  1.00  0.00    -0.025 A 
ATOM      2  C   UNL     1      -5.652  89.925 -12.444  1.00  0.00     0.012 A 
ATOM      3  C   UNL     1      -6.746  89.215 -14.487  1.00  0.00     0.012 A 
ATOM      4  C   UNL     1      -6.738  89.458 -11.700  1.00  0.00     0.047 A 
ATOM      5  C   UNL     1      -7.830  88.748 -13.739  1.00  0.00     0.047 A 
ATOM      6  C   UNL     1      -7.832  88.869 -12.346  1.00  0.00     0.115 A 
ENDROOT
BRANCH   1   7
ATOM      7  C   UNL     1      -4.465  90.325 -14.590  1.00  0.00     0.010 C 
ATOM      8  C   UNL     1      -4.467  90.584 -15.905  1.00  0.00     0.025 C 
BRANCH   8   9
ATOM      9  C   UNL     1      -3.278  91.093 -16.608  1.00  0.00     0.064 C 
ATOM     10  O   UNL     1      -2.129  91.000 -16.099  1.00  0.00    -0.545 OA
ATOM     11  O   UNL     1      -3.424  91.685 -17.856  1.00  0.00    -0.545 OA
ENDBRANCH   8   9
ENDBRANCH   1   7
BRANCH   6  12
ATOM     12  O   UNL     1      -8.922  88.399 -11.616  1.00  0.00    -0.508 OA
ATOM     13  H   UNL     1      -8.877  87.528 -11.100  1.00  0.00     0.293 HD
ENDBRANCH   6  12
TORSDOF 3
ENDMDL
