MODEL 1
REMARK VINA RESULT:    -3.323      0.000      0.000
REMARK INTER + INTRA:          -3.690
REMARK INTER:                  -3.517
REMARK INTRA:                  -0.173
REMARK UNBOUND:                -0.173
REMARK SMILES CC(C)[C@@H]1CC[C@@H](C)CC1=O
REMARK SMILES IDX 8 1 7 2 6 3 5 4 4 5 10 6 11 7 9 8 2 9 1 10 3 11
REMARK H PARENT
REMARK Flexibility Score: inf
ROOT
ATOM      1  C   UNL     1     150.525 144.026 137.639  1.00  0.00     0.008 C 
ATOM      2  C   UNL     1     149.242 143.358 138.144  1.00  0.00    -0.007 C 
ATOM      3  C   UNL     1     148.888 142.135 137.273  1.00  0.00     0.004 C 
ATOM      4  C   UNL     1     147.591 141.453 137.750  1.00  0.00     0.012 C 
ATOM      5  C   UNL     1     146.395 142.439 137.761  1.00  0.00     0.058 C 
ATOM      6  C   UNL     1     146.818 143.658 138.564  1.00  0.00     0.136 C 
ATOM      7  O   UNL     1     146.210 144.020 139.561  1.00  0.00    -0.299 OA
ATOM      8  C   UNL     1     148.079 144.366 138.163  1.00  0.00     0.079 C 
ENDROOT
BRANCH   5   9
ATOM      9  C   UNL     1     145.070 141.794 138.285  1.00  0.00    -0.007 C 
ATOM     10  C   UNL     1     144.046 141.643 137.144  1.00  0.00     0.008 C 
ATOM     11  C   UNL     1     145.291 140.412 138.927  1.00  0.00     0.008 C 
ENDBRANCH   5   9
TORSDOF 1
ENDMDL
MODEL 2
REMARK VINA RESULT:    -3.318      7.967      9.799
REMARK INTER + INTRA:          -3.686
REMARK INTER:                  -3.511
REMARK INTRA:                  -0.174
REMARK UNBOUND:                -0.173
REMARK SMILES CC(C)[C@@H]1CC[C@@H](C)CC1=O
REMARK SMILES IDX 8 1 7 2 6 3 5 4 4 5 10 6 11 7 9 8 2 9 1 10 3 11
REMARK H PARENT
REMARK Flexibility Score: inf
ROOT
ATOM      1  C   UNL     1     144.014 131.101 137.662  1.00  0.00     0.008 C 
ATOM      2  C   UNL     1     143.337 132.387 138.150  1.00  0.00    -0.007 C 
ATOM      3  C   UNL     1     142.158 132.762 137.229  1.00  0.00     0.004 C 
ATOM      4  C   UNL     1     141.469 134.062 137.687  1.00  0.00     0.012 C 
ATOM      5  C   UNL     1     142.466 135.247 137.753  1.00  0.00     0.058 C 
ATOM      6  C   UNL     1     143.644 134.803 138.605  1.00  0.00     0.136 C 
ATOM      7  O   UNL     1     143.967 135.399 139.622  1.00  0.00    -0.299 OA
ATOM      8  C   UNL     1     144.355 133.539 138.224  1.00  0.00     0.079 C 
ENDROOT
BRANCH   5   9
ATOM      9  C   UNL     1     141.812 136.574 138.261  1.00  0.00    -0.007 C 
ATOM     10  C   UNL     1     141.625 137.570 137.100  1.00  0.00     0.008 C 
ATOM     11  C   UNL     1     140.446 136.348 138.934  1.00  0.00     0.008 C 
ENDBRANCH   5   9
TORSDOF 1
ENDMDL
MODEL 3
REMARK VINA RESULT:    -3.312      8.112      9.999
REMARK INTER + INTRA:          -3.679
REMARK INTER:                  -3.508
REMARK INTRA:                  -0.171
REMARK UNBOUND:                -0.173
REMARK SMILES CC(C)[C@@H]1CC[C@@H](C)CC1=O
REMARK SMILES IDX 8 1 7 2 6 3 5 4 4 5 10 6 11 7 9 8 2 9 1 10 3 11
REMARK H PARENT
REMARK Flexibility Score: inf
ROOT
ATOM      1  C   UNL     1     137.386 150.541 137.602  1.00  0.00     0.008 C 
ATOM      2  C   UNL     1     138.046 149.268 138.144  1.00  0.00    -0.007 C 
ATOM      3  C   UNL     1     139.287 148.902 137.305  1.00  0.00     0.004 C 
ATOM      4  C   UNL     1     139.961 147.615 137.819  1.00  0.00     0.012 C 
ATOM      5  C   UNL     1     138.978 146.417 137.831  1.00  0.00     0.058 C 
ATOM      6  C   UNL     1     137.741 146.852 138.600  1.00  0.00     0.136 C 
ATOM      7  O   UNL     1     137.360 146.260 139.600  1.00  0.00    -0.299 OA
ATOM      8  C   UNL     1     137.040 148.104 138.163  1.00  0.00     0.079 C 
ENDROOT
BRANCH   5   9
ATOM      9  C   UNL     1     139.614 145.103 138.392  1.00  0.00    -0.007 C 
ATOM     10  C   UNL     1     139.634 144.001 137.314  1.00  0.00     0.008 C 
ATOM     11  C   UNL     1     141.051 145.307 138.906  1.00  0.00     0.008 C 
ENDBRANCH   5   9
TORSDOF 1
ENDMDL
MODEL 4
REMARK VINA RESULT:    -3.303     10.502     13.859
REMARK INTER + INTRA:          -3.669
REMARK INTER:                  -3.495
REMARK INTRA:                  -0.174
REMARK UNBOUND:                -0.173
REMARK SMILES CC(C)[C@@H]1CC[C@@H](C)CC1=O
REMARK SMILES IDX 8 1 7 2 6 3 5 4 4 5 10 6 11 7 9 8 2 9 1 10 3 11
REMARK H PARENT
REMARK Flexibility Score: inf
ROOT
ATOM      1  C   UNL     1     131.095 137.596 137.634  1.00  0.00     0.008 C 
ATOM      2  C   UNL     1     132.402 138.235 138.115  1.00  0.00    -0.007 C 
ATOM      3  C   UNL     1     132.786 139.428 137.215  1.00  0.00     0.004 C 
ATOM      4  C   UNL     1     134.107 140.080 137.667  1.00  0.00     0.012 C 
ATOM      5  C   UNL     1     135.272 139.058 137.691  1.00  0.00     0.058 C 
ATOM      6  C   UNL     1     134.819 137.870 138.522  1.00  0.00     0.136 C 
ATOM      7  O   UNL     1     135.424 137.511 139.522  1.00  0.00    -0.299 OA
ATOM      8  C   UNL     1     133.534 137.193 138.147  1.00  0.00     0.079 C 
ENDROOT
BRANCH   5   9
ATOM      9  C   UNL     1     136.621 139.673 138.190  1.00  0.00    -0.007 C 
ATOM     10  C   UNL     1     137.615 139.832 137.024  1.00  0.00     0.008 C 
ATOM     11  C   UNL     1     136.438 141.045 138.864  1.00  0.00     0.008 C 
ENDBRANCH   5   9
TORSDOF 1
ENDMDL
MODEL 5
REMARK VINA RESULT:    -3.284      8.365      9.378
REMARK INTER + INTRA:          -3.649
REMARK INTER:                  -3.499
REMARK INTRA:                  -0.150
REMARK UNBOUND:                -0.173
REMARK SMILES CC(C)[C@@H]1CC[C@@H](C)CC1=O
REMARK SMILES IDX 8 1 7 2 6 3 5 4 4 5 10 6 11 7 9 8 2 9 1 10 3 11
REMARK H PARENT
REMARK Flexibility Score: inf
ROOT
ATOM      1  C   UNL     1     147.995 133.205 139.762  1.00  0.00     0.008 C 
ATOM      2  C   UNL     1     146.470 133.268 139.625  1.00  0.00    -0.007 C 
ATOM      3  C   UNL     1     145.995 132.399 138.442  1.00  0.00     0.004 C 
ATOM      4  C   UNL     1     144.465 132.458 138.272  1.00  0.00     0.012 C 
ATOM      5  C   UNL     1     143.965 133.911 138.073  1.00  0.00     0.058 C 
ATOM      6  C   UNL     1     144.522 134.744 139.216  1.00  0.00     0.136 C 
ATOM      7  O   UNL     1     143.794 135.353 139.987  1.00  0.00    -0.299 OA
ATOM      8  C   UNL     1     146.004 134.725 139.449  1.00  0.00     0.079 C 
ENDROOT
BRANCH   5   9
ATOM      9  C   UNL     1     142.410 134.016 137.943  1.00  0.00    -0.007 C 
ATOM     10  C   UNL     1     142.018 135.126 136.949  1.00  0.00     0.008 C 
ATOM     11  C   UNL     1     141.759 132.699 137.483  1.00  0.00     0.008 C 
ENDBRANCH   5   9
TORSDOF 1
ENDMDL
MODEL 6
REMARK VINA RESULT:    -3.280      9.599     11.946
REMARK INTER + INTRA:          -3.645
REMARK INTER:                  -3.503
REMARK INTRA:                  -0.143
REMARK UNBOUND:                -0.173
REMARK SMILES CC(C)[C@@H]1CC[C@@H](C)CC1=O
REMARK SMILES IDX 8 1 7 2 6 3 5 4 4 5 10 6 11 7 9 8 2 9 1 10 3 11
REMARK H PARENT
REMARK Flexibility Score: inf
ROOT
ATOM      1  C   UNL     1     133.565 148.085 139.565  1.00  0.00     0.008 C 
ATOM      2  C   UNL     1     135.092 148.214 139.518  1.00  0.00    -0.007 C 
ATOM      3  C   UNL     1     135.550 148.738 138.141  1.00  0.00     0.004 C 
ATOM      4  C   UNL     1     137.083 148.862 138.062  1.00  0.00     0.012 C 
ATOM      5  C   UNL     1     137.784 147.511 138.356  1.00  0.00     0.058 C 
ATOM      6  C   UNL     1     137.245 146.997 139.680  1.00  0.00     0.136 C 
ATOM      7  O   UNL     1     137.976 146.773 140.634  1.00  0.00    -0.299 OA
ATOM      8  C   UNL     1     135.758 146.863 139.834  1.00  0.00     0.079 C 
ENDROOT
BRANCH   5   9
ATOM      9  C   UNL     1     139.345 147.608 138.330  1.00  0.00    -0.007 C 
ATOM     10  C   UNL     1     139.966 146.300 137.802  1.00  0.00     0.008 C 
ATOM     11  C   UNL     1     139.857 148.774 137.465  1.00  0.00     0.008 C 
ENDBRANCH   5   9
TORSDOF 1
ENDMDL
MODEL 7
REMARK VINA RESULT:    -3.250     12.715     15.020
REMARK INTER + INTRA:          -3.613
REMARK INTER:                  -3.457
REMARK INTRA:                  -0.157
REMARK UNBOUND:                -0.173
REMARK SMILES CC(C)[C@@H]1CC[C@@H](C)CC1=O
REMARK SMILES IDX 8 1 7 2 6 3 5 4 4 5 10 6 11 7 9 8 2 9 1 10 3 11
REMARK H PARENT
REMARK Flexibility Score: inf
ROOT
ATOM      1  C   UNL     1     133.056 133.569 139.668  1.00  0.00     0.008 C 
ATOM      2  C   UNL     1     133.158 135.094 139.557  1.00  0.00    -0.007 C 
ATOM      3  C   UNL     1     132.307 135.611 138.379  1.00  0.00     0.004 C 
ATOM      4  C   UNL     1     132.405 137.141 138.235  1.00  0.00     0.012 C 
ATOM      5  C   UNL     1     133.872 137.608 138.052  1.00  0.00     0.058 C 
ATOM      6  C   UNL     1     134.684 137.011 139.189  1.00  0.00     0.136 C 
ATOM      7  O   UNL     1     135.307 137.710 139.975  1.00  0.00    -0.299 OA
ATOM      8  C   UNL     1     134.627 135.527 139.397  1.00  0.00     0.079 C 
ENDROOT
BRANCH   5   9
ATOM      9  C   UNL     1     134.016 139.162 137.949  1.00  0.00    -0.007 C 
ATOM     10  C   UNL     1     135.094 139.544 136.916  1.00  0.00     0.008 C 
ATOM     11  C   UNL     1     132.700 139.860 137.560  1.00  0.00     0.008 C 
ENDBRANCH   5   9
TORSDOF 1
ENDMDL
MODEL 8
REMARK VINA RESULT:    -3.242      8.864     10.625
REMARK INTER + INTRA:          -3.604
REMARK INTER:                  -3.430
REMARK INTRA:                  -0.175
REMARK UNBOUND:                -0.173
REMARK SMILES CC(C)[C@@H]1CC[C@@H](C)CC1=O
REMARK SMILES IDX 8 1 7 2 6 3 5 4 4 5 10 6 11 7 9 8 2 9 1 10 3 11
REMARK H PARENT
REMARK Flexibility Score: inf
ROOT
ATOM      1  C   UNL     1     140.755 145.073 138.828  1.00  0.00     0.008 C 
ATOM      2  C   UNL     1     139.887 146.333 138.918  1.00  0.00    -0.007 C 
ATOM      3  C   UNL     1     138.503 145.997 139.511  1.00  0.00     0.004 C 
ATOM      4  C   UNL     1     137.604 147.245 139.598  1.00  0.00     0.012 C 
ATOM      5  C   UNL     1     137.421 147.918 138.214  1.00  0.00     0.058 C 
ATOM      6  C   UNL     1     138.806 148.158 137.637  1.00  0.00     0.136 C 
ATOM      7  O   UNL     1     139.198 149.276 137.337  1.00  0.00    -0.299 OA
ATOM      8  C   UNL     1     139.741 146.989 137.534  1.00  0.00     0.079 C 
ENDROOT
BRANCH   5   9
ATOM      9  C   UNL     1     136.551 149.217 138.270  1.00  0.00    -0.007 C 
ATOM     10  C   UNL     1     135.098 148.921 137.852  1.00  0.00     0.008 C 
ATOM     11  C   UNL     1     136.534 149.864 139.667  1.00  0.00     0.008 C 
ENDBRANCH   5   9
TORSDOF 1
ENDMDL
MODEL 9
REMARK VINA RESULT:    -3.206      8.808     11.134
REMARK INTER + INTRA:          -3.567
REMARK INTER:                  -3.397
REMARK INTRA:                  -0.170
REMARK UNBOUND:                -0.173
REMARK SMILES CC(C)[C@@H]1CC[C@@H](C)CC1=O
REMARK SMILES IDX 8 1 7 2 6 3 5 4 4 5 10 6 11 7 9 8 2 9 1 10 3 11
REMARK H PARENT
REMARK Flexibility Score: inf
ROOT
ATOM      1  C   UNL     1     134.231 148.143 139.501  1.00  0.00     0.008 C 
ATOM      2  C   UNL     1     135.533 147.617 138.887  1.00  0.00    -0.007 C 
ATOM      3  C   UNL     1     135.914 146.256 139.507  1.00  0.00     0.004 C 
ATOM      4  C   UNL     1     137.229 145.712 138.919  1.00  0.00     0.012 C 
ATOM      5  C   UNL     1     138.400 146.709 139.110  1.00  0.00     0.058 C 
ATOM      6  C   UNL     1     137.950 148.050 138.556  1.00  0.00     0.136 C 
ATOM      7  O   UNL     1     138.554 148.613 137.654  1.00  0.00    -0.299 OA
ATOM      8  C   UNL     1     136.670 148.637 139.075  1.00  0.00     0.079 C 
ENDROOT
BRANCH   5   9
ATOM      9  C   UNL     1     139.743 146.210 138.483  1.00  0.00    -0.007 C 
ATOM     10  C   UNL     1     140.614 145.507 139.542  1.00  0.00     0.008 C 
ATOM     11  C   UNL     1     139.529 145.239 137.307  1.00  0.00     0.008 C 
ENDBRANCH   5   9
TORSDOF 1
ENDMDL
