MODEL 1
REMARK VINA RESULT:    -7.691      0.000      0.000
REMARK INTER + INTRA:          -9.359
REMARK INTER:                  -9.040
REMARK INTRA:                  -0.319
REMARK UNBOUND:                -0.319
REMARK SMILES O=c1c(O)c(-c2ccc(O)c(O)c2)oc2cc(O)ccc12
REMARK SMILES IDX 5 1 3 2 2 3 1 4 21 5 15 6 14 7 16 8 17 9 19 10 20 11 6 12
REMARK SMILES IDX 7 13 8 14 9 15 13 16 11 17 10 18 12 20 4 22 18 24
REMARK H PARENT 10 19 12 21 4 23 18 25
REMARK Flexibility Score: inf
ROOT
ATOM      1  C   UNL     1      11.763  -4.283  13.895  1.00  0.00     0.180 A 
ATOM      2  C   UNL     1      11.597  -4.964  12.671  1.00  0.00     0.208 A 
ATOM      3  C   UNL     1      11.883  -4.286  11.476  1.00  0.00     0.235 A 
ATOM      4  O   UNL     1      11.753  -4.877  10.368  1.00  0.00    -0.285 OA
ATOM      5  C   UNL     1      12.303  -2.948  11.524  1.00  0.00     0.069 A 
ATOM      6  C   UNL     1      12.421  -2.329  12.787  1.00  0.00     0.142 A 
ATOM      7  O   UNL     1      12.149  -3.008  13.896  1.00  0.00    -0.452 OA
ATOM      8  C   UNL     1      12.827  -0.994  12.877  1.00  0.00     0.094 A 
ATOM      9  C   UNL     1      13.121  -0.266  11.719  1.00  0.00     0.119 A 
ATOM     10  C   UNL     1      13.007  -0.877  10.463  1.00  0.00     0.047 A 
ATOM     11  C   UNL     1      12.600  -2.211  10.363  1.00  0.00     0.020 A 
ENDROOT
BRANCH   1  12
ATOM     12  C   UNL     1      11.500  -4.934  15.198  1.00  0.00     0.025 A 
ATOM     13  C   UNL     1      12.475  -5.722  15.831  1.00  0.00     0.016 A 
ATOM     14  C   UNL     1      12.212  -6.306  17.072  1.00  0.00     0.051 A 
ATOM     15  C   UNL     1      10.983  -6.105  17.710  1.00  0.00     0.157 A 
ATOM     16  C   UNL     1      10.275  -4.713  15.846  1.00  0.00     0.062 A 
ATOM     17  C   UNL     1      10.002  -5.295  17.091  1.00  0.00     0.158 A 
BRANCH  15  18
ATOM     18  O   UNL     1      10.782  -6.721  18.948  1.00  0.00    -0.504 OA
ATOM     19  H   UNL     1      10.003  -6.521  19.558  1.00  0.00     0.293 HD
ENDBRANCH  15  18
BRANCH  17  20
ATOM     20  O   UNL     1       8.757  -5.041  17.671  1.00  0.00    -0.504 OA
ATOM     21  H   UNL     1       8.208  -5.737  18.155  1.00  0.00     0.293 HD
ENDBRANCH  17  20
ENDBRANCH   1  12
BRANCH   2  22
ATOM     22  O   UNL     1      11.130  -6.281  12.651  1.00  0.00    -0.502 OA
ATOM     23  H   UNL     1      11.662  -7.049  13.041  1.00  0.00     0.293 HD
ENDBRANCH   2  22
BRANCH   9  24
ATOM     24  O   UNL     1      13.525   1.063  11.828  1.00  0.00    -0.508 OA
ATOM     25  H   UNL     1      14.212   1.353  12.514  1.00  0.00     0.293 HD
ENDBRANCH   9  24
TORSDOF 5
ENDMDL
MODEL 2
REMARK VINA RESULT:    -7.554      3.253      4.600
REMARK INTER + INTRA:          -9.198
REMARK INTER:                  -8.904
REMARK INTRA:                  -0.294
REMARK UNBOUND:                -0.319
REMARK SMILES O=c1c(O)c(-c2ccc(O)c(O)c2)oc2cc(O)ccc12
REMARK SMILES IDX 5 1 3 2 2 3 1 4 21 5 15 6 14 7 16 8 17 9 19 10 20 11 6 12
REMARK SMILES IDX 7 13 8 14 9 15 13 16 11 17 10 18 12 20 4 22 18 24
REMARK H PARENT 10 19 12 21 4 23 18 25
REMARK Flexibility Score: inf
ROOT
ATOM      1  C   UNL     1      12.099  -4.430  15.024  1.00  0.00     0.180 A 
ATOM      2  C   UNL     1      12.011  -5.144  13.810  1.00  0.00     0.208 A 
ATOM      3  C   UNL     1      10.834  -5.046  13.052  1.00  0.00     0.235 A 
ATOM      4  O   UNL     1      10.735  -5.666  11.957  1.00  0.00    -0.285 OA
ATOM      5  C   UNL     1       9.770  -4.262  13.526  1.00  0.00     0.069 A 
ATOM      6  C   UNL     1       9.927  -3.599  14.762  1.00  0.00     0.142 A 
ATOM      7  O   UNL     1      11.060  -3.710  15.445  1.00  0.00    -0.452 OA
ATOM      8  C   UNL     1       8.886  -2.817  15.273  1.00  0.00     0.094 A 
ATOM      9  C   UNL     1       7.687  -2.686  14.564  1.00  0.00     0.119 A 
ATOM     10  C   UNL     1       7.528  -3.342  13.336  1.00  0.00     0.047 A 
ATOM     11  C   UNL     1       8.562  -4.127  12.817  1.00  0.00     0.020 A 
ENDROOT
BRANCH   1  12
ATOM     12  C   UNL     1      13.312  -4.467  15.871  1.00  0.00     0.025 A 
ATOM     13  C   UNL     1      13.559  -5.535  16.748  1.00  0.00     0.016 A 
ATOM     14  C   UNL     1      14.723  -5.559  17.519  1.00  0.00     0.051 A 
ATOM     15  C   UNL     1      15.666  -4.530  17.422  1.00  0.00     0.157 A 
ATOM     16  C   UNL     1      14.267  -3.445  15.755  1.00  0.00     0.062 A 
ATOM     17  C   UNL     1      15.437  -3.460  16.525  1.00  0.00     0.158 A 
BRANCH  15  18
ATOM     18  O   UNL     1      16.807  -4.613  18.224  1.00  0.00    -0.504 OA
ATOM     19  H   UNL     1      16.894  -4.172  19.128  1.00  0.00     0.293 HD
ENDBRANCH  15  18
BRANCH  17  20
ATOM     20  O   UNL     1      16.336  -2.404  16.366  1.00  0.00    -0.504 OA
ATOM     21  H   UNL     1      17.331  -2.523  16.239  1.00  0.00     0.293 HD
ENDBRANCH  17  20
ENDBRANCH   1  12
BRANCH   2  22
ATOM     22  O   UNL     1      13.068  -5.954  13.388  1.00  0.00    -0.502 OA
ATOM     23  H   UNL     1      13.840  -6.195  13.996  1.00  0.00     0.293 HD
ENDBRANCH   2  22
BRANCH   9  24
ATOM     24  O   UNL     1       6.661  -1.903  15.088  1.00  0.00    -0.508 OA
ATOM     25  H   UNL     1       6.062  -1.347  14.490  1.00  0.00     0.293 HD
ENDBRANCH   9  24
TORSDOF 5
ENDMDL
MODEL 3
REMARK VINA RESULT:    -7.390      9.262     11.629
REMARK INTER + INTRA:          -9.005
REMARK INTER:                  -8.753
REMARK INTRA:                  -0.252
REMARK UNBOUND:                -0.319
REMARK SMILES O=c1c(O)c(-c2ccc(O)c(O)c2)oc2cc(O)ccc12
REMARK SMILES IDX 5 1 3 2 2 3 1 4 21 5 15 6 14 7 16 8 17 9 19 10 20 11 6 12
REMARK SMILES IDX 7 13 8 14 9 15 13 16 11 17 10 18 12 20 4 22 18 24
REMARK H PARENT 10 19 12 21 4 23 18 25
REMARK Flexibility Score: inf
ROOT
ATOM      1  C   UNL     1       4.886  -6.965   6.759  1.00  0.00     0.180 A 
ATOM      2  C   UNL     1       5.016  -6.593   8.114  1.00  0.00     0.208 A 
ATOM      3  C   UNL     1       6.295  -6.587   8.693  1.00  0.00     0.235 A 
ATOM      4  O   UNL     1       6.438  -6.248   9.900  1.00  0.00    -0.285 OA
ATOM      5  C   UNL     1       7.404  -6.969   7.923  1.00  0.00     0.069 A 
ATOM      6  C   UNL     1       7.187  -7.352   6.582  1.00  0.00     0.142 A 
ATOM      7  O   UNL     1       5.963  -7.336   6.069  1.00  0.00    -0.452 OA
ATOM      8  C   UNL     1       8.266  -7.749   5.785  1.00  0.00     0.094 A 
ATOM      9  C   UNL     1       9.563  -7.768   6.310  1.00  0.00     0.119 A 
ATOM     10  C   UNL     1       9.782  -7.387   7.640  1.00  0.00     0.047 A 
ATOM     11  C   UNL     1       8.710  -6.990   8.446  1.00  0.00     0.020 A 
ENDROOT
BRANCH   1  12
ATOM     12  C   UNL     1       3.576  -6.980   6.071  1.00  0.00     0.025 A 
ATOM     13  C   UNL     1       3.237  -6.000   5.123  1.00  0.00     0.016 A 
ATOM     14  C   UNL     1       2.005  -6.048   4.469  1.00  0.00     0.051 A 
ATOM     15  C   UNL     1       1.095  -7.077   4.735  1.00  0.00     0.157 A 
ATOM     16  C   UNL     1       2.674  -8.025   6.323  1.00  0.00     0.062 A 
ATOM     17  C   UNL     1       1.435  -8.082   5.671  1.00  0.00     0.158 A 
BRANCH  15  18
ATOM     18  O   UNL     1      -0.123  -7.065   4.050  1.00  0.00    -0.504 OA
ATOM     19  H   UNL     1      -1.015  -7.263   4.479  1.00  0.00     0.293 HD
ENDBRANCH  15  18
BRANCH  17  20
ATOM     20  O   UNL     1       0.584  -9.144   5.981  1.00  0.00    -0.504 OA
ATOM     21  H   UNL     1      -0.264  -9.355   5.473  1.00  0.00     0.293 HD
ENDBRANCH  17  20
ENDBRANCH   1  12
BRANCH   2  22
ATOM     22  O   UNL     1       3.888  -6.265   8.869  1.00  0.00    -0.502 OA
ATOM     23  H   UNL     1       3.621  -6.785   9.695  1.00  0.00     0.293 HD
ENDBRANCH   2  22
BRANCH   9  24
ATOM     24  O   UNL     1      10.625  -8.165   5.501  1.00  0.00    -0.508 OA
ATOM     25  H   UNL     1      10.558  -8.978   4.901  1.00  0.00     0.293 HD
ENDBRANCH   9  24
TORSDOF 5
ENDMDL
MODEL 4
REMARK VINA RESULT:    -7.378      9.871     11.686
REMARK INTER + INTRA:          -8.992
REMARK INTER:                  -8.767
REMARK INTRA:                  -0.225
REMARK UNBOUND:                -0.319
REMARK SMILES O=c1c(O)c(-c2ccc(O)c(O)c2)oc2cc(O)ccc12
REMARK SMILES IDX 5 1 3 2 2 3 1 4 21 5 15 6 14 7 16 8 17 9 19 10 20 11 6 12
REMARK SMILES IDX 7 13 8 14 9 15 13 16 11 17 10 18 12 20 4 22 18 24
REMARK H PARENT 10 19 12 21 4 23 18 25
REMARK Flexibility Score: inf
ROOT
ATOM      1  C   UNL     1       4.037  -8.440   7.362  1.00  0.00     0.180 A 
ATOM      2  C   UNL     1       3.514  -7.136   7.491  1.00  0.00     0.208 A 
ATOM      3  C   UNL     1       4.362  -6.109   7.933  1.00  0.00     0.235 A 
ATOM      4  O   UNL     1       3.921  -4.931   8.046  1.00  0.00    -0.285 OA
ATOM      5  C   UNL     1       5.696  -6.404   8.253  1.00  0.00     0.069 A 
ATOM      6  C   UNL     1       6.136  -7.738   8.121  1.00  0.00     0.142 A 
ATOM      7  O   UNL     1       5.304  -8.680   7.692  1.00  0.00    -0.452 OA
ATOM      8  C   UNL     1       7.456  -8.075   8.441  1.00  0.00     0.094 A 
ATOM      9  C   UNL     1       8.345  -7.093   8.891  1.00  0.00     0.119 A 
ATOM     10  C   UNL     1       7.913  -5.767   9.022  1.00  0.00     0.047 A 
ATOM     11  C   UNL     1       6.595  -5.421   8.706  1.00  0.00     0.020 A 
ENDROOT
BRANCH   1  12
ATOM     12  C   UNL     1       3.212  -9.573   6.886  1.00  0.00     0.025 A 
ATOM     13  C   UNL     1       3.425 -10.153   5.625  1.00  0.00     0.016 A 
ATOM     14  C   UNL     1       2.650 -11.238   5.208  1.00  0.00     0.051 A 
ATOM     15  C   UNL     1       1.661 -11.771   6.041  1.00  0.00     0.157 A 
ATOM     16  C   UNL     1       2.236 -10.121   7.732  1.00  0.00     0.062 A 
ATOM     17  C   UNL     1       1.454 -11.209   7.323  1.00  0.00     0.158 A 
BRANCH  15  18
ATOM     18  O   UNL     1       0.919 -12.853   5.562  1.00  0.00    -0.504 OA
ATOM     19  H   UNL     1      -0.027 -13.061   5.850  1.00  0.00     0.293 HD
ENDBRANCH  15  18
BRANCH  17  20
ATOM     20  O   UNL     1       0.493 -11.693   8.213  1.00  0.00    -0.504 OA
ATOM     21  H   UNL     1       0.334 -11.312   9.135  1.00  0.00     0.293 HD
ENDBRANCH  17  20
ENDBRANCH   1  12
BRANCH   2  22
ATOM     22  O   UNL     1       2.169  -6.882   7.211  1.00  0.00    -0.502 OA
ATOM     23  H   UNL     1       1.769  -7.037   6.294  1.00  0.00     0.293 HD
ENDBRANCH   2  22
BRANCH   9  24
ATOM     24  O   UNL     1       9.656  -7.446   9.204  1.00  0.00    -0.508 OA
ATOM     25  H   UNL     1      10.325  -7.691   8.483  1.00  0.00     0.293 HD
ENDBRANCH   9  24
TORSDOF 5
ENDMDL
MODEL 5
REMARK VINA RESULT:    -7.341      2.813      3.871
REMARK INTER + INTRA:          -8.947
REMARK INTER:                  -8.749
REMARK INTRA:                  -0.198
REMARK UNBOUND:                -0.319
REMARK SMILES O=c1c(O)c(-c2ccc(O)c(O)c2)oc2cc(O)ccc12
REMARK SMILES IDX 5 1 3 2 2 3 1 4 21 5 15 6 14 7 16 8 17 9 19 10 20 11 6 12
REMARK SMILES IDX 7 13 8 14 9 15 13 16 11 17 10 18 12 20 4 22 18 24
REMARK H PARENT 10 19 12 21 4 23 18 25
REMARK Flexibility Score: inf
ROOT
ATOM      1  C   UNL     1      12.574  -3.467  13.721  1.00  0.00     0.180 A 
ATOM      2  C   UNL     1      11.853  -4.676  13.635  1.00  0.00     0.208 A 
ATOM      3  C   UNL     1      11.397  -5.103  12.379  1.00  0.00     0.235 A 
ATOM      4  O   UNL     1      10.759  -6.187  12.274  1.00  0.00    -0.285 OA
ATOM      5  C   UNL     1      11.648  -4.312  11.247  1.00  0.00     0.069 A 
ATOM      6  C   UNL     1      12.355  -3.104  11.420  1.00  0.00     0.142 A 
ATOM      7  O   UNL     1      12.778  -2.739  12.625  1.00  0.00    -0.452 OA
ATOM      8  C   UNL     1      12.617  -2.282  10.318  1.00  0.00     0.094 A 
ATOM      9  C   UNL     1      12.182  -2.654   9.041  1.00  0.00     0.119 A 
ATOM     10  C   UNL     1      11.481  -3.854   8.865  1.00  0.00     0.047 A 
ATOM     11  C   UNL     1      11.213  -4.681   9.961  1.00  0.00     0.020 A 
ENDROOT
BRANCH   1  12
ATOM     12  C   UNL     1      13.105  -2.958  15.006  1.00  0.00     0.025 A 
ATOM     13  C   UNL     1      12.248  -2.509  16.024  1.00  0.00     0.016 A 
ATOM     14  C   UNL     1      12.772  -2.056  17.237  1.00  0.00     0.051 A 
ATOM     15  C   UNL     1      14.152  -2.053  17.463  1.00  0.00     0.157 A 
ATOM     16  C   UNL     1      14.489  -2.977  15.238  1.00  0.00     0.062 A 
ATOM     17  C   UNL     1      15.023  -2.524  16.452  1.00  0.00     0.158 A 
BRANCH  15  18
ATOM     18  O   UNL     1      14.611  -1.583  18.696  1.00  0.00    -0.504 OA
ATOM     19  H   UNL     1      15.583  -1.411  18.908  1.00  0.00     0.293 HD
ENDBRANCH  15  18
BRANCH  17  20
ATOM     20  O   UNL     1      16.410  -2.561  16.608  1.00  0.00    -0.504 OA
ATOM     21  H   UNL     1      16.915  -3.351  16.983  1.00  0.00     0.293 HD
ENDBRANCH  17  20
ENDBRANCH   1  12
BRANCH   2  22
ATOM     22  O   UNL     1      11.576  -5.418  14.786  1.00  0.00    -0.502 OA
ATOM     23  H   UNL     1      12.290  -5.942  15.277  1.00  0.00     0.293 HD
ENDBRANCH   2  22
BRANCH   9  24
ATOM     24  O   UNL     1      12.452  -1.824   7.955  1.00  0.00    -0.508 OA
ATOM     25  H   UNL     1      11.957  -0.950   7.821  1.00  0.00     0.293 HD
ENDBRANCH   9  24
TORSDOF 5
ENDMDL
MODEL 6
REMARK VINA RESULT:    -7.263      3.087      5.304
REMARK INTER + INTRA:          -8.856
REMARK INTER:                  -8.570
REMARK INTRA:                  -0.286
REMARK UNBOUND:                -0.319
REMARK SMILES O=c1c(O)c(-c2ccc(O)c(O)c2)oc2cc(O)ccc12
REMARK SMILES IDX 5 1 3 2 2 3 1 4 21 5 15 6 14 7 16 8 17 9 19 10 20 11 6 12
REMARK SMILES IDX 7 13 8 14 9 15 13 16 11 17 10 18 12 20 4 22 18 24
REMARK H PARENT 10 19 12 21 4 23 18 25
REMARK Flexibility Score: inf
ROOT
ATOM      1  C   UNL     1      11.746  -4.259  12.944  1.00  0.00     0.180 A 
ATOM      2  C   UNL     1      12.639  -5.146  13.580  1.00  0.00     0.208 A 
ATOM      3  C   UNL     1      13.335  -4.706  14.717  1.00  0.00     0.235 A 
ATOM      4  O   UNL     1      14.132  -5.485  15.310  1.00  0.00    -0.285 OA
ATOM      5  C   UNL     1      13.143  -3.396  15.180  1.00  0.00     0.069 A 
ATOM      6  C   UNL     1      12.250  -2.561  14.474  1.00  0.00     0.142 A 
ATOM      7  O   UNL     1      11.605  -3.018  13.407  1.00  0.00    -0.452 OA
ATOM      8  C   UNL     1      12.039  -1.245  14.898  1.00  0.00     0.094 A 
ATOM      9  C   UNL     1      12.709  -0.749  16.022  1.00  0.00     0.119 A 
ATOM     10  C   UNL     1      13.595  -1.575  16.727  1.00  0.00     0.047 A 
ATOM     11  C   UNL     1      13.813  -2.892  16.310  1.00  0.00     0.020 A 
ENDROOT
BRANCH   1  12
ATOM     12  C   UNL     1      10.962  -4.652  11.752  1.00  0.00     0.025 A 
ATOM     13  C   UNL     1      11.379  -4.308  10.456  1.00  0.00     0.016 A 
ATOM     14  C   UNL     1      10.635  -4.712   9.346  1.00  0.00     0.051 A 
ATOM     15  C   UNL     1       9.473  -5.475   9.503  1.00  0.00     0.157 A 
ATOM     16  C   UNL     1       9.809  -5.437  11.911  1.00  0.00     0.062 A 
ATOM     17  C   UNL     1       9.057  -5.847  10.803  1.00  0.00     0.158 A 
BRANCH  15  18
ATOM     18  O   UNL     1       8.773  -5.843   8.351  1.00  0.00    -0.504 OA
ATOM     19  H   UNL     1       7.820  -5.570   8.159  1.00  0.00     0.293 HD
ENDBRANCH  15  18
BRANCH  17  20
ATOM     20  O   UNL     1       7.914  -6.615  11.038  1.00  0.00    -0.504 OA
ATOM     21  H   UNL     1       7.099  -6.278  11.530  1.00  0.00     0.293 HD
ENDBRANCH  17  20
ENDBRANCH   1  12
BRANCH   2  22
ATOM     22  O   UNL     1      12.847  -6.429  13.067  1.00  0.00    -0.502 OA
ATOM     23  H   UNL     1      12.082  -7.021  12.766  1.00  0.00     0.293 HD
ENDBRANCH   2  22
BRANCH   9  24
ATOM     24  O   UNL     1      12.486   0.564  16.431  1.00  0.00    -0.508 OA
ATOM     25  H   UNL     1      13.056   0.999  17.146  1.00  0.00     0.293 HD
ENDBRANCH   9  24
TORSDOF 5
ENDMDL
MODEL 7
REMARK VINA RESULT:    -7.220      5.939      8.421
REMARK INTER + INTRA:          -8.805
REMARK INTER:                  -8.592
REMARK INTRA:                  -0.213
REMARK UNBOUND:                -0.319
REMARK SMILES O=c1c(O)c(-c2ccc(O)c(O)c2)oc2cc(O)ccc12
REMARK SMILES IDX 5 1 3 2 2 3 1 4 21 5 15 6 14 7 16 8 17 9 19 10 20 11 6 12
REMARK SMILES IDX 7 13 8 14 9 15 13 16 11 17 10 18 12 20 4 22 18 24
REMARK H PARENT 10 19 12 21 4 23 18 25
REMARK Flexibility Score: inf
ROOT
ATOM      1  C   UNL     1       8.225  -6.407   9.285  1.00  0.00     0.180 A 
ATOM      2  C   UNL     1       6.898  -5.982   9.507  1.00  0.00     0.208 A 
ATOM      3  C   UNL     1       5.856  -6.643   8.838  1.00  0.00     0.235 A 
ATOM      4  O   UNL     1       4.660  -6.289   9.029  1.00  0.00    -0.285 OA
ATOM      5  C   UNL     1       6.157  -7.691   7.955  1.00  0.00     0.069 A 
ATOM      6  C   UNL     1       7.512  -8.040   7.768  1.00  0.00     0.142 A 
ATOM      7  O   UNL     1       8.468  -7.396   8.426  1.00  0.00    -0.452 OA
ATOM      8  C   UNL     1       7.854  -9.073   6.888  1.00  0.00     0.094 A 
ATOM      9  C   UNL     1       6.858  -9.764   6.190  1.00  0.00     0.119 A 
ATOM     10  C   UNL     1       5.512  -9.422   6.374  1.00  0.00     0.047 A 
ATOM     11  C   UNL     1       5.160  -8.390   7.251  1.00  0.00     0.020 A 
ENDROOT
BRANCH   1  12
ATOM     12  C   UNL     1       9.377  -5.774   9.965  1.00  0.00     0.025 A 
ATOM     13  C   UNL     1      10.271  -4.943   9.269  1.00  0.00     0.016 A 
ATOM     14  C   UNL     1      11.336  -4.337   9.938  1.00  0.00     0.051 A 
ATOM     15  C   UNL     1      11.524  -4.536  11.310  1.00  0.00     0.157 A 
ATOM     16  C   UNL     1       9.551  -5.956  11.345  1.00  0.00     0.062 A 
ATOM     17  C   UNL     1      10.617  -5.352  12.025  1.00  0.00     0.158 A 
BRANCH  15  18
ATOM     18  O   UNL     1      12.612  -3.904  11.917  1.00  0.00    -0.504 OA
ATOM     19  H   UNL     1      13.543  -3.883  11.527  1.00  0.00     0.293 HD
ENDBRANCH  15  18
BRANCH  17  20
ATOM     20  O   UNL     1      10.733  -5.588  13.396  1.00  0.00    -0.504 OA
ATOM     21  H   UNL     1      11.343  -6.286  13.799  1.00  0.00     0.293 HD
ENDBRANCH  17  20
ENDBRANCH   1  12
BRANCH   2  22
ATOM     22  O   UNL     1       6.633  -4.904  10.355  1.00  0.00    -0.502 OA
ATOM     23  H   UNL     1       5.872  -4.258  10.186  1.00  0.00     0.293 HD
ENDBRANCH   2  22
BRANCH   9  24
ATOM     24  O   UNL     1       7.216 -10.790   5.319  1.00  0.00    -0.508 OA
ATOM     25  H   UNL     1       8.172 -11.120   5.254  1.00  0.00     0.293 HD
ENDBRANCH   9  24
TORSDOF 5
ENDMDL
MODEL 8
REMARK VINA RESULT:    -7.101      2.982      5.408
REMARK INTER + INTRA:          -8.666
REMARK INTER:                  -8.419
REMARK INTRA:                  -0.247
REMARK UNBOUND:                -0.319
REMARK SMILES O=c1c(O)c(-c2ccc(O)c(O)c2)oc2cc(O)ccc12
REMARK SMILES IDX 5 1 3 2 2 3 1 4 21 5 15 6 14 7 16 8 17 9 19 10 20 11 6 12
REMARK SMILES IDX 7 13 8 14 9 15 13 16 11 17 10 18 12 20 4 22 18 24
REMARK H PARENT 10 19 12 21 4 23 18 25
REMARK Flexibility Score: inf
ROOT
ATOM      1  C   UNL     1      10.652  -4.457  11.248  1.00  0.00     0.180 A 
ATOM      2  C   UNL     1      11.207  -5.131  12.356  1.00  0.00     0.208 A 
ATOM      3  C   UNL     1      12.080  -4.433  13.204  1.00  0.00     0.235 A 
ATOM      4  O   UNL     1      12.580  -5.011  14.208  1.00  0.00    -0.285 OA
ATOM      5  C   UNL     1      12.396  -3.095  12.921  1.00  0.00     0.069 A 
ATOM      6  C   UNL     1      11.819  -2.499  11.780  1.00  0.00     0.142 A 
ATOM      7  O   UNL     1      10.991  -3.191  11.006  1.00  0.00    -0.452 OA
ATOM      8  C   UNL     1      12.117  -1.171  11.458  1.00  0.00     0.094 A 
ATOM      9  C   UNL     1      12.985  -0.427  12.264  1.00  0.00     0.119 A 
ATOM     10  C   UNL     1      13.558  -1.014  13.399  1.00  0.00     0.047 A 
ATOM     11  C   UNL     1      13.267  -2.342  13.729  1.00  0.00     0.020 A 
ENDROOT
BRANCH   1  12
ATOM     12  C   UNL     1       9.710  -5.117  10.317  1.00  0.00     0.025 A 
ATOM     13  C   UNL     1      10.119  -5.546   9.044  1.00  0.00     0.016 A 
ATOM     14  C   UNL     1       9.218  -6.189   8.193  1.00  0.00     0.051 A 
ATOM     15  C   UNL     1       7.900  -6.428   8.597  1.00  0.00     0.157 A 
ATOM     16  C   UNL     1       8.395  -5.376  10.733  1.00  0.00     0.062 A 
ATOM     17  C   UNL     1       7.483  -6.020   9.886  1.00  0.00     0.158 A 
BRANCH  15  18
ATOM     18  O   UNL     1       7.048  -7.071   7.696  1.00  0.00    -0.504 OA
ATOM     19  H   UNL     1       6.149  -7.456   7.946  1.00  0.00     0.293 HD
ENDBRANCH  15  18
BRANCH  17  20
ATOM     20  O   UNL     1       6.188  -6.233  10.362  1.00  0.00    -0.504 OA
ATOM     21  H   UNL     1       5.362  -5.818   9.956  1.00  0.00     0.293 HD
ENDBRANCH  17  20
ENDBRANCH   1  12
BRANCH   2  22
ATOM     22  O   UNL     1      10.912  -6.478  12.585  1.00  0.00    -0.502 OA
ATOM     23  H   UNL     1      10.003  -6.874  12.382  1.00  0.00     0.293 HD
ENDBRANCH   2  22
BRANCH   9  24
ATOM     24  O   UNL     1      13.269   0.895  11.929  1.00  0.00    -0.508 OA
ATOM     25  H   UNL     1      14.168   1.161  11.542  1.00  0.00     0.293 HD
ENDBRANCH   9  24
TORSDOF 5
ENDMDL
MODEL 9
REMARK VINA RESULT:    -6.941      6.570      8.983
REMARK INTER + INTRA:          -8.478
REMARK INTER:                  -8.188
REMARK INTRA:                  -0.289
REMARK UNBOUND:                -0.319
REMARK SMILES O=c1c(O)c(-c2ccc(O)c(O)c2)oc2cc(O)ccc12
REMARK SMILES IDX 5 1 3 2 2 3 1 4 21 5 15 6 14 7 16 8 17 9 19 10 20 11 6 12
REMARK SMILES IDX 7 13 8 14 9 15 13 16 11 17 10 18 12 20 4 22 18 24
REMARK H PARENT 10 19 12 21 4 23 18 25
REMARK Flexibility Score: inf
ROOT
ATOM      1  C   UNL     1       7.625  -6.501   8.394  1.00  0.00     0.180 A 
ATOM      2  C   UNL     1       8.754  -6.688   9.218  1.00  0.00     0.208 A 
ATOM      3  C   UNL     1       8.994  -5.773  10.254  1.00  0.00     0.235 A 
ATOM      4  O   UNL     1       9.992  -5.925  11.012  1.00  0.00    -0.285 OA
ATOM      5  C   UNL     1       8.122  -4.688  10.433  1.00  0.00     0.069 A 
ATOM      6  C   UNL     1       7.029  -4.557   9.551  1.00  0.00     0.142 A 
ATOM      7  O   UNL     1       6.831  -5.449   8.588  1.00  0.00    -0.452 OA
ATOM      8  C   UNL     1       6.142  -3.483   9.690  1.00  0.00     0.094 A 
ATOM      9  C   UNL     1       6.334  -2.536  10.702  1.00  0.00     0.119 A 
ATOM     10  C   UNL     1       7.418  -2.664  11.581  1.00  0.00     0.047 A 
ATOM     11  C   UNL     1       8.310  -3.733  11.449  1.00  0.00     0.020 A 
ENDROOT
BRANCH   1  12
ATOM     12  C   UNL     1       7.293  -7.432   7.292  1.00  0.00     0.025 A 
ATOM     13  C   UNL     1       7.654  -7.151   5.964  1.00  0.00     0.016 A 
ATOM     14  C   UNL     1       7.352  -8.056   4.945  1.00  0.00     0.051 A 
ATOM     15  C   UNL     1       6.698  -9.260   5.229  1.00  0.00     0.157 A 
ATOM     16  C   UNL     1       6.658  -8.649   7.582  1.00  0.00     0.062 A 
ATOM     17  C   UNL     1       6.350  -9.563   6.567  1.00  0.00     0.158 A 
BRANCH  15  18
ATOM     18  O   UNL     1       6.421 -10.120   4.163  1.00  0.00    -0.504 OA
ATOM     19  H   UNL     1       6.840 -11.031   4.050  1.00  0.00     0.293 HD
ENDBRANCH  15  18
BRANCH  17  20
ATOM     20  O   UNL     1       5.706 -10.748   6.929  1.00  0.00    -0.504 OA
ATOM     21  H   UNL     1       6.187 -11.614   7.128  1.00  0.00     0.293 HD
ENDBRANCH  17  20
ENDBRANCH   1  12
BRANCH   2  22
ATOM     22  O   UNL     1       9.632  -7.751   8.985  1.00  0.00    -0.502 OA
ATOM     23  H   UNL     1      10.302  -7.742   8.226  1.00  0.00     0.293 HD
ENDBRANCH   2  22
BRANCH   9  24
ATOM     24  O   UNL     1       5.441  -1.474  10.826  1.00  0.00    -0.508 OA
ATOM     25  H   UNL     1       4.799  -1.411  11.607  1.00  0.00     0.293 HD
ENDBRANCH   9  24
TORSDOF 5
ENDMDL
