MODEL 1
REMARK VINA RESULT:    -3.950      0.000      0.000
REMARK INTER + INTRA:          -5.422
REMARK INTER:                  -6.028
REMARK INTRA:                   0.606
REMARK UNBOUND:                 0.606
REMARK SMILES CC1=CCC[C@@H](C)C(=O)C[C@H](C(C)C)C(=O)C1
REMARK SMILES IDX 8 1 9 2 6 3 7 4 5 5 4 6 3 7 2 8 1 9 10 11 11 12 15 13 16 14
REMARK SMILES IDX 17 15 12 17 13 18 14 19
REMARK H PARENT
REMARK Flexibility Score: 70.00
ROOT
ATOM      1  C   UNL     1      32.465  21.263   7.495  1.00  0.00     0.136 C 
ATOM      2  O   UNL     1      33.643  21.587   7.426  1.00  0.00    -0.299 OA
ENDROOT
BRANCH   1   3
ATOM      3  C   UNL     1      31.960  20.053   6.727  1.00  0.00     0.053 C 
ATOM      4  C   UNL     1      32.427  20.049   5.262  1.00  0.00     0.016 C 
BRANCH   3   5
ATOM      5  C   UNL     1      30.427  19.917   6.833  1.00  0.00     0.015 C 
BRANCH   5   6
ATOM      6  C   UNL     1      29.693  20.114   5.493  1.00  0.00     0.028 C 
BRANCH   6   7
ATOM      7  C   UNL     1      28.217  20.321   5.720  1.00  0.00    -0.028 C 
ATOM      8  C   UNL     1      27.653  21.491   6.103  1.00  0.00    -0.070 CG0
ATOM      9  C   UNL     1      26.166  21.511   6.352  1.00  0.00     0.039 C 
ATOM     10  G   UNL     1      28.446  22.779   6.270  1.00  0.00     0.000 G0
ENDBRANCH   6   7
ENDBRANCH   5   6
ENDBRANCH   3   5
ENDBRANCH   1   3
BRANCH   1  11
ATOM     11  C   UNL     1      31.530  22.086   8.346  1.00  0.00     0.087 C 
BRANCH  11  12
ATOM     12  C   UNL     1      30.729  23.117   7.509  1.00  0.00     0.066 C 
BRANCH  12  13
ATOM     13  C   UNL     1      29.236  22.821   7.543  1.00  0.00     0.140 C 
ATOM     14  O   UNL     1      28.668  22.674   8.616  1.00  0.00    -0.299 OA
BRANCH  13  15
ATOM     15  C   UNL     1      28.426  22.776   6.269  1.00  0.00     0.106 CG0
ATOM     16  G   UNL     1      27.641  21.481   6.126  1.00  0.00     0.000 G0
ENDBRANCH  13  15
ENDBRANCH  12  13
BRANCH  12  17
ATOM     17  C   UNL     1      31.059  24.585   7.920  1.00  0.00    -0.006 C 
ATOM     18  C   UNL     1      31.325  25.529   6.734  1.00  0.00     0.008 C 
ATOM     19  C   UNL     1      32.231  24.641   8.913  1.00  0.00     0.008 C 
ENDBRANCH  12  17
ENDBRANCH  11  12
ENDBRANCH   1  11
TORSDOF 1
ENDMDL
MODEL 2
REMARK VINA RESULT:    -3.863      4.524      6.065
REMARK INTER + INTRA:          -5.290
REMARK INTER:                  -6.022
REMARK INTRA:                   0.732
REMARK UNBOUND:                 0.606
REMARK SMILES CC1=CCC[C@@H](C)C(=O)C[C@H](C(C)C)C(=O)C1
REMARK SMILES IDX 8 1 9 2 6 3 7 4 5 5 4 6 3 7 2 8 1 9 10 11 11 12 15 13 16 14
REMARK SMILES IDX 17 15 12 17 13 18 14 19
REMARK H PARENT
REMARK Flexibility Score: 70.00
ROOT
ATOM      1  C   UNL     1      26.785  22.283   4.044  1.00  0.00     0.136 C 
ATOM      2  O   UNL     1      26.509  21.717   2.994  1.00  0.00    -0.299 OA
ENDROOT
BRANCH   1   3
ATOM      3  C   UNL     1      27.598  21.566   5.108  1.00  0.00     0.053 C 
ATOM      4  C   UNL     1      28.274  20.293   4.572  1.00  0.00     0.016 C 
BRANCH   3   5
ATOM      5  C   UNL     1      26.752  21.271   6.363  1.00  0.00     0.015 C 
BRANCH   5   6
ATOM      6  C   UNL     1      25.752  20.114   6.180  1.00  0.00     0.028 C 
BRANCH   6   7
ATOM      7  C   UNL     1      24.497  20.363   6.977  1.00  0.00    -0.028 C 
ATOM      8  C   UNL     1      23.480  21.166   6.582  1.00  0.00    -0.070 CG0
ATOM      9  C   UNL     1      22.324  21.360   7.530  1.00  0.00     0.039 C 
ATOM     10  G   UNL     1      23.448  21.857   5.227  1.00  0.00     0.000 G0
ENDBRANCH   6   7
ENDBRANCH   5   6
ENDBRANCH   3   5
ENDBRANCH   1   3
BRANCH   1  11
ATOM     11  C   UNL     1      26.300  23.696   4.260  1.00  0.00     0.087 C 
BRANCH  11  12
ATOM     12  C   UNL     1      24.766  23.826   4.064  1.00  0.00     0.066 C 
BRANCH  12  13
ATOM     13  C   UNL     1      24.004  23.269   5.259  1.00  0.00     0.140 C 
ATOM     14  O   UNL     1      23.800  23.977   6.235  1.00  0.00    -0.299 OA
BRANCH  13  15
ATOM     15  C   UNL     1      23.433  21.871   5.229  1.00  0.00     0.106 CG0
ATOM     16  G   UNL     1      23.493  21.191   6.589  1.00  0.00     0.000 G0
ENDBRANCH  13  15
ENDBRANCH  12  13
BRANCH  12  17
ATOM     17  C   UNL     1      24.345  25.285   3.711  1.00  0.00    -0.006 C 
ATOM     18  C   UNL     1      24.710  26.325   4.784  1.00  0.00     0.008 C 
ATOM     19  C   UNL     1      22.847  25.373   3.377  1.00  0.00     0.008 C 
ENDBRANCH  12  17
ENDBRANCH  11  12
ENDBRANCH   1  11
TORSDOF 1
ENDMDL
MODEL 3
REMARK VINA RESULT:    -3.686      2.019      4.361
REMARK INTER + INTRA:          -5.019
REMARK INTER:                  -5.986
REMARK INTRA:                   0.968
REMARK UNBOUND:                 0.606
REMARK SMILES CC1=CCC[C@@H](C)C(=O)C[C@H](C(C)C)C(=O)C1
REMARK SMILES IDX 8 1 9 2 6 3 7 4 5 5 4 6 3 7 2 8 1 9 10 11 11 12 15 13 16 14
REMARK SMILES IDX 17 15 12 17 13 18 14 19
REMARK H PARENT
REMARK Flexibility Score: 70.00
ROOT
ATOM      1  C   UNL     1      26.794  22.513   5.547  1.00  0.00     0.136 C 
ATOM      2  O   UNL     1      25.993  22.117   6.383  1.00  0.00    -0.299 OA
ENDROOT
BRANCH   1   3
ATOM      3  C   UNL     1      26.398  22.581   4.082  1.00  0.00     0.053 C 
ATOM      4  C   UNL     1      25.040  23.271   3.873  1.00  0.00     0.016 C 
BRANCH   3   5
ATOM      5  C   UNL     1      26.432  21.187   3.423  1.00  0.00     0.015 C 
BRANCH   5   6
ATOM      6  C   UNL     1      26.984  20.080   4.340  1.00  0.00     0.028 C 
BRANCH   6   7
ATOM      7  C   UNL     1      28.478  19.956   4.186  1.00  0.00    -0.028 C 
ATOM      8  C   UNL     1      29.360  19.936   5.214  1.00  0.00    -0.070 CG0
ATOM      9  C   UNL     1      30.829  19.875   4.884  1.00  0.00     0.039 C 
ATOM     10  G   UNL     1      28.932  19.951   6.674  1.00  0.00     0.000 G0
ENDBRANCH   6   7
ENDBRANCH   5   6
ENDBRANCH   3   5
ENDBRANCH   1   3
BRANCH   1  11
ATOM     11  C   UNL     1      28.175  22.925   5.997  1.00  0.00     0.087 C 
BRANCH  11  12
ATOM     12  C   UNL     1      28.495  22.434   7.433  1.00  0.00     0.066 C 
BRANCH  12  13
ATOM     13  C   UNL     1      29.380  21.195   7.413  1.00  0.00     0.140 C 
ATOM     14  O   UNL     1      30.438  21.192   8.025  1.00  0.00    -0.299 OA
BRANCH  13  15
ATOM     15  C   UNL     1      28.937  19.939   6.701  1.00  0.00     0.106 CG0
ATOM     16  G   UNL     1      29.359  19.920   5.239  1.00  0.00     0.000 G0
ENDBRANCH  13  15
ENDBRANCH  12  13
BRANCH  12  17
ATOM     17  C   UNL     1      29.079  23.573   8.323  1.00  0.00    -0.006 C 
ATOM     18  C   UNL     1      28.075  24.689   8.660  1.00  0.00     0.008 C 
ATOM     19  C   UNL     1      30.350  24.175   7.703  1.00  0.00     0.008 C 
ENDBRANCH  12  17
ENDBRANCH  11  12
ENDBRANCH   1  11
TORSDOF 1
ENDMDL
MODEL 4
REMARK VINA RESULT:    -3.636      3.726      7.193
REMARK INTER + INTRA:          -4.942
REMARK INTER:                  -4.604
REMARK INTRA:                  -0.339
REMARK UNBOUND:                 0.606
REMARK SMILES CC1=CCC[C@@H](C)C(=O)C[C@H](C(C)C)C(=O)C1
REMARK SMILES IDX 8 1 9 2 6 3 7 4 5 5 4 6 3 7 2 8 1 9 10 11 11 12 15 13 16 14
REMARK SMILES IDX 17 15 12 17 13 18 14 19
REMARK H PARENT
REMARK Flexibility Score: 70.00
ROOT
ATOM      1  C   UNL     1      23.889  23.668   5.203  1.00  0.00     0.136 C 
ATOM      2  O   UNL     1      22.838  23.665   4.576  1.00  0.00    -0.299 OA
ENDROOT
BRANCH   1   3
ATOM      3  C   UNL     1      25.017  24.601   4.797  1.00  0.00     0.053 C 
ATOM      4  C   UNL     1      24.621  26.083   4.903  1.00  0.00     0.016 C 
BRANCH   3   5
ATOM      5  C   UNL     1      25.557  24.258   3.393  1.00  0.00     0.015 C 
BRANCH   5   6
ATOM      6  C   UNL     1      26.078  22.814   3.263  1.00  0.00     0.028 C 
BRANCH   6   7
ATOM      7  C   UNL     1      27.242  22.583   4.191  1.00  0.00    -0.028 C 
ATOM      8  C   UNL     1      27.358  21.527   5.032  1.00  0.00    -0.070 CG0
ATOM      9  C   UNL     1      28.557  21.480   5.946  1.00  0.00     0.039 C 
ATOM     10  G   UNL     1      26.351  20.389   5.079  1.00  0.00     0.000 G0
ENDBRANCH   6   7
ENDBRANCH   5   6
ENDBRANCH   3   5
ENDBRANCH   1   3
BRANCH   1  11
ATOM     11  C   UNL     1      24.043  22.728   6.374  1.00  0.00     0.087 C 
BRANCH  11  12
ATOM     12  C   UNL     1      23.984  21.239   5.943  1.00  0.00     0.066 C 
BRANCH  12  13
ATOM     13  C   UNL     1      25.311  20.535   6.194  1.00  0.00     0.140 C 
ATOM     14  O   UNL     1      25.540  20.040   7.289  1.00  0.00    -0.299 OA
BRANCH  13  15
ATOM     15  C   UNL     1      26.325  20.375   5.087  1.00  0.00     0.106 CG0
ATOM     16  G   UNL     1      27.345  21.504   5.066  1.00  0.00     0.000 G0
ENDBRANCH  13  15
ENDBRANCH  12  13
BRANCH  12  17
ATOM     17  C   UNL     1      22.777  20.492   6.588  1.00  0.00    -0.006 C 
ATOM     18  C   UNL     1      21.753  19.953   5.575  1.00  0.00     0.008 C 
ATOM     19  C   UNL     1      22.072  21.366   7.638  1.00  0.00     0.008 C 
ENDBRANCH  12  17
ENDBRANCH  11  12
ENDBRANCH   1  11
TORSDOF 1
ENDMDL
MODEL 5
REMARK VINA RESULT:    -3.563      1.827      3.906
REMARK INTER + INTRA:          -4.832
REMARK INTER:                  -4.970
REMARK INTRA:                   0.139
REMARK UNBOUND:                 0.606
REMARK SMILES CC1=CCC[C@@H](C)C(=O)C[C@H](C(C)C)C(=O)C1
REMARK SMILES IDX 8 1 9 2 6 3 7 4 5 5 4 6 3 7 2 8 1 9 10 11 11 12 15 13 16 14
REMARK SMILES IDX 17 15 12 17 13 18 14 19
REMARK H PARENT
REMARK Flexibility Score: 70.00
ROOT
ATOM      1  C   UNL     1      28.613  19.932   5.482  1.00  0.00     0.136 C 
ATOM      2  O   UNL     1      29.176  19.875   4.397  1.00  0.00    -0.299 OA
ENDROOT
BRANCH   1   3
ATOM      3  C   UNL     1      27.096  19.946   5.555  1.00  0.00     0.053 C 
ATOM      4  C   UNL     1      26.441  19.944   4.164  1.00  0.00     0.016 C 
BRANCH   3   5
ATOM      5  C   UNL     1      26.583  21.116   6.419  1.00  0.00     0.015 C 
BRANCH   5   6
ATOM      6  C   UNL     1      27.142  22.490   6.001  1.00  0.00     0.028 C 
BRANCH   6   7
ATOM      7  C   UNL     1      27.120  23.450   7.162  1.00  0.00    -0.028 C 
ATOM      8  C   UNL     1      28.222  23.906   7.805  1.00  0.00    -0.070 CG0
ATOM      9  C   UNL     1      28.022  24.812   8.994  1.00  0.00     0.039 C 
ATOM     10  G   UNL     1      29.638  23.561   7.371  1.00  0.00     0.000 G0
ENDBRANCH   6   7
ENDBRANCH   5   6
ENDBRANCH   3   5
ENDBRANCH   1   3
BRANCH   1  11
ATOM     11  C   UNL     1      29.450  19.993   6.737  1.00  0.00     0.087 C 
BRANCH  11  12
ATOM     12  C   UNL     1      30.453  21.177   6.716  1.00  0.00     0.066 C 
BRANCH  12  13
ATOM     13  C   UNL     1      30.106  22.217   7.773  1.00  0.00     0.140 C 
ATOM     14  O   UNL     1      30.231  21.945   8.958  1.00  0.00    -0.299 OA
BRANCH  13  15
ATOM     15  C   UNL     1      29.676  23.609   7.377  1.00  0.00     0.106 CG0
ATOM     16  G   UNL     1      28.245  23.915   7.795  1.00  0.00     0.000 G0
ENDBRANCH  13  15
ENDBRANCH  12  13
BRANCH  12  17
ATOM     17  C   UNL     1      31.931  20.691   6.814  1.00  0.00    -0.006 C 
ATOM     18  C   UNL     1      32.934  21.792   7.201  1.00  0.00     0.008 C 
ATOM     19  C   UNL     1      32.382  19.996   5.519  1.00  0.00     0.008 C 
ENDBRANCH  12  17
ENDBRANCH  11  12
ENDBRANCH   1  11
TORSDOF 1
ENDMDL
MODEL 6
REMARK VINA RESULT:    -3.314      1.699      3.750
REMARK INTER + INTRA:          -4.452
REMARK INTER:                  -4.971
REMARK INTRA:                   0.519
REMARK UNBOUND:                 0.606
REMARK SMILES CC1=CCC[C@@H](C)C(=O)C[C@H](C(C)C)C(=O)C1
REMARK SMILES IDX 8 1 9 2 6 3 7 4 5 5 4 6 3 7 2 8 1 9 10 11 11 12 15 13 16 14
REMARK SMILES IDX 17 15 12 17 13 18 14 19
REMARK H PARENT
REMARK Flexibility Score: 70.00
ROOT
ATOM      1  C   UNL     1      28.355  22.595   7.009  1.00  0.00     0.136 C 
ATOM      2  O   UNL     1      27.635  23.125   7.845  1.00  0.00    -0.299 OA
ENDROOT
BRANCH   1   3
ATOM      3  C   UNL     1      27.886  21.348   6.278  1.00  0.00     0.053 C 
ATOM      4  C   UNL     1      27.712  20.145   7.221  1.00  0.00     0.016 C 
BRANCH   3   5
ATOM      5  C   UNL     1      28.812  21.007   5.092  1.00  0.00     0.015 C 
BRANCH   5   6
ATOM      6  C   UNL     1      29.833  19.896   5.400  1.00  0.00     0.028 C 
BRANCH   6   7
ATOM      7  C   UNL     1      31.235  20.450   5.418  1.00  0.00    -0.028 C 
ATOM      8  C   UNL     1      31.838  20.983   6.507  1.00  0.00    -0.070 CG0
ATOM      9  C   UNL     1      33.223  21.556   6.338  1.00  0.00     0.039 C 
ATOM     10  G   UNL     1      31.192  21.010   7.884  1.00  0.00     0.000 G0
ENDBRANCH   6   7
ENDBRANCH   5   6
ENDBRANCH   3   5
ENDBRANCH   1   3
BRANCH   1  11
ATOM     11  C   UNL     1      29.709  23.197   6.725  1.00  0.00     0.087 C 
BRANCH  11  12
ATOM     12  C   UNL     1      30.475  23.557   8.025  1.00  0.00     0.066 C 
BRANCH  12  13
ATOM     13  C   UNL     1      31.265  22.367   8.552  1.00  0.00     0.140 C 
ATOM     14  O   UNL     1      31.935  22.483   9.569  1.00  0.00    -0.299 OA
BRANCH  13  15
ATOM     15  C   UNL     1      31.179  21.020   7.875  1.00  0.00     0.106 CG0
ATOM     16  G   UNL     1      31.866  21.007   6.518  1.00  0.00     0.000 G0
ENDBRANCH  13  15
ENDBRANCH  12  13
BRANCH  12  17
ATOM     17  C   UNL     1      31.356  24.832   7.848  1.00  0.00    -0.006 C 
ATOM     18  C   UNL     1      30.903  26.036   8.691  1.00  0.00     0.008 C 
ATOM     19  C   UNL     1      31.472  25.235   6.369  1.00  0.00     0.008 C 
ENDBRANCH  12  17
ENDBRANCH  11  12
ENDBRANCH   1  11
TORSDOF 1
ENDMDL
MODEL 7
REMARK VINA RESULT:    -3.293      4.107      6.578
REMARK INTER + INTRA:          -4.420
REMARK INTER:                  -5.624
REMARK INTRA:                   1.205
REMARK UNBOUND:                 0.606
REMARK SMILES CC1=CCC[C@@H](C)C(=O)C[C@H](C(C)C)C(=O)C1
REMARK SMILES IDX 8 1 9 2 6 3 7 4 5 5 4 6 3 7 2 8 1 9 10 11 11 12 15 13 16 14
REMARK SMILES IDX 17 15 12 17 13 18 14 19
REMARK H PARENT
REMARK Flexibility Score: 70.00
ROOT
ATOM      1  C   UNL     1      25.921  23.037   3.658  1.00  0.00     0.136 C 
ATOM      2  O   UNL     1      27.003  23.592   3.799  1.00  0.00    -0.299 OA
ENDROOT
BRANCH   1   3
ATOM      3  C   UNL     1      24.665  23.860   3.431  1.00  0.00     0.053 C 
ATOM      4  C   UNL     1      24.954  25.189   2.713  1.00  0.00     0.016 C 
BRANCH   3   5
ATOM      5  C   UNL     1      23.892  24.085   4.747  1.00  0.00     0.015 C 
BRANCH   5   6
ATOM      6  C   UNL     1      24.250  23.079   5.857  1.00  0.00     0.028 C 
BRANCH   6   7
ATOM      7  C   UNL     1      23.040  22.275   6.258  1.00  0.00    -0.028 C 
ATOM      8  C   UNL     1      22.861  20.962   5.979  1.00  0.00    -0.070 CG0
ATOM      9  C   UNL     1      21.561  20.322   6.394  1.00  0.00     0.039 C 
ATOM     10  G   UNL     1      23.916  20.109   5.289  1.00  0.00     0.000 G0
ENDBRANCH   6   7
ENDBRANCH   5   6
ENDBRANCH   3   5
ENDBRANCH   1   3
BRANCH   1  11
ATOM     11  C   UNL     1      25.861  21.530   3.718  1.00  0.00     0.087 C 
BRANCH  11  12
ATOM     12  C   UNL     1      26.403  20.976   5.062  1.00  0.00     0.066 C 
BRANCH  12  13
ATOM     13  C   UNL     1      25.303  20.299   5.869  1.00  0.00     0.140 C 
ATOM     14  O   UNL     1      25.515  19.963   7.025  1.00  0.00    -0.299 OA
BRANCH  13  15
ATOM     15  C   UNL     1      23.926  20.099   5.283  1.00  0.00     0.106 CG0
ATOM     16  G   UNL     1      22.875  20.963   5.965  1.00  0.00     0.000 G0
ENDBRANCH  13  15
ENDBRANCH  12  13
BRANCH  12  17
ATOM     17  C   UNL     1      27.646  20.056   4.853  1.00  0.00    -0.006 C 
ATOM     18  C   UNL     1      28.894  20.494   5.639  1.00  0.00     0.008 C 
ATOM     19  C   UNL     1      27.987  19.900   3.362  1.00  0.00     0.008 C 
ENDBRANCH  12  17
ENDBRANCH  11  12
ENDBRANCH   1  11
TORSDOF 1
ENDMDL
MODEL 8
REMARK VINA RESULT:    -3.230      2.352      3.676
REMARK INTER + INTRA:          -4.323
REMARK INTER:                  -4.936
REMARK INTRA:                   0.613
REMARK UNBOUND:                 0.606
REMARK SMILES CC1=CCC[C@@H](C)C(=O)C[C@H](C(C)C)C(=O)C1
REMARK SMILES IDX 8 1 9 2 6 3 7 4 5 5 4 6 3 7 2 8 1 9 10 11 11 12 15 13 16 14
REMARK SMILES IDX 17 15 12 17 13 18 14 19
REMARK H PARENT
REMARK Flexibility Score: 70.00
ROOT
ATOM      1  C   UNL     1      28.681  20.445   5.214  1.00  0.00     0.136 C 
ATOM      2  O   UNL     1      29.862  20.328   4.913  1.00  0.00    -0.299 OA
ENDROOT
BRANCH   1   3
ATOM      3  C   UNL     1      27.598  20.074   4.215  1.00  0.00     0.053 C 
ATOM      4  C   UNL     1      28.152  19.875   2.794  1.00  0.00     0.016 C 
BRANCH   3   5
ATOM      5  C   UNL     1      26.441  21.094   4.233  1.00  0.00     0.015 C 
BRANCH   5   6
ATOM      6  C   UNL     1      26.753  22.401   3.480  1.00  0.00     0.028 C 
BRANCH   6   7
ATOM      7  C   UNL     1      25.880  23.525   3.978  1.00  0.00    -0.028 C 
ATOM      8  C   UNL     1      25.533  23.714   5.274  1.00  0.00    -0.070 CG0
ATOM      9  C   UNL     1      24.596  24.850   5.596  1.00  0.00     0.039 C 
ATOM     10  G   UNL     1      26.061  22.849   6.409  1.00  0.00     0.000 G0
ENDBRANCH   6   7
ENDBRANCH   5   6
ENDBRANCH   3   5
ENDBRANCH   1   3
BRANCH   1  11
ATOM     11  C   UNL     1      28.326  20.966   6.585  1.00  0.00     0.087 C 
BRANCH  11  12
ATOM     12  C   UNL     1      28.633  22.479   6.734  1.00  0.00     0.066 C 
BRANCH  12  13
ATOM     13  C   UNL     1      27.364  23.282   6.990  1.00  0.00     0.140 C 
ATOM     14  O   UNL     1      27.423  24.334   7.609  1.00  0.00    -0.299 OA
BRANCH  13  15
ATOM     15  C   UNL     1      26.037  22.830   6.428  1.00  0.00     0.106 CG0
ATOM     16  G   UNL     1      25.560  23.715   5.286  1.00  0.00     0.000 G0
ENDBRANCH  13  15
ENDBRANCH  12  13
BRANCH  12  17
ATOM     17  C   UNL     1      29.737  22.747   7.803  1.00  0.00    -0.006 C 
ATOM     18  C   UNL     1      31.174  22.656   7.263  1.00  0.00     0.008 C 
ATOM     19  C   UNL     1      29.572  21.829   9.025  1.00  0.00     0.008 C 
ENDBRANCH  12  17
ENDBRANCH  11  12
ENDBRANCH   1  11
TORSDOF 1
ENDMDL
MODEL 9
REMARK VINA RESULT:    -2.797      4.067      6.479
REMARK INTER + INTRA:          -3.663
REMARK INTER:                  -4.201
REMARK INTRA:                   0.538
REMARK UNBOUND:                 0.606
REMARK SMILES CC1=CCC[C@@H](C)C(=O)C[C@H](C(C)C)C(=O)C1
REMARK SMILES IDX 8 1 9 2 6 3 7 4 5 5 4 6 3 7 2 8 1 9 10 11 11 12 15 13 16 14
REMARK SMILES IDX 17 15 12 17 13 18 14 19
REMARK H PARENT
REMARK Flexibility Score: 70.00
ROOT
ATOM      1  C   UNL     1      26.501  20.239   5.782  1.00  0.00     0.136 C 
ATOM      2  O   UNL     1      26.876  19.930   6.906  1.00  0.00    -0.299 OA
ENDROOT
BRANCH   1   3
ATOM      3  C   UNL     1      27.492  20.792   4.772  1.00  0.00     0.053 C 
ATOM      4  C   UNL     1      28.919  20.266   5.000  1.00  0.00     0.016 C 
BRANCH   3   5
ATOM      5  C   UNL     1      27.458  22.334   4.733  1.00  0.00     0.015 C 
BRANCH   5   6
ATOM      6  C   UNL     1      26.730  22.908   3.503  1.00  0.00     0.028 C 
BRANCH   6   7
ATOM      7  C   UNL     1      25.834  24.053   3.899  1.00  0.00    -0.028 C 
ATOM      8  C   UNL     1      24.544  23.922   4.293  1.00  0.00    -0.070 CG0
ATOM      9  C   UNL     1      23.765  25.177   4.591  1.00  0.00     0.039 C 
ATOM     10  G   UNL     1      23.863  22.572   4.464  1.00  0.00     0.000 G0
ENDBRANCH   6   7
ENDBRANCH   5   6
ENDBRANCH   3   5
ENDBRANCH   1   3
BRANCH   1  11
ATOM     11  C   UNL     1      25.045  20.067   5.425  1.00  0.00     0.087 C 
BRANCH  11  12
ATOM     12  C   UNL     1      24.106  20.791   6.426  1.00  0.00     0.066 C 
BRANCH  12  13
ATOM     13  C   UNL     1      23.742  22.186   5.937  1.00  0.00     0.140 C 
ATOM     14  O   UNL     1      23.382  23.037   6.737  1.00  0.00    -0.299 OA
BRANCH  13  15
ATOM     15  C   UNL     1      23.886  22.557   4.480  1.00  0.00     0.106 CG0
ATOM     16  G   UNL     1      24.537  23.919   4.289  1.00  0.00     0.000 G0
ENDBRANCH  13  15
ENDBRANCH  12  13
BRANCH  12  17
ATOM     17  C   UNL     1      22.853  19.932   6.776  1.00  0.00    -0.006 C 
ATOM     18  C   UNL     1      21.715  20.026   5.745  1.00  0.00     0.008 C 
ATOM     19  C   UNL     1      22.321  20.257   8.181  1.00  0.00     0.008 C 
ENDBRANCH  12  17
ENDBRANCH  11  12
ENDBRANCH   1  11
TORSDOF 1
ENDMDL
