MODEL 1
REMARK VINA RESULT:    -3.744      0.000      0.000
REMARK INTER + INTRA:          -8.111
REMARK INTER:                  -7.027
REMARK INTRA:                  -1.084
REMARK UNBOUND:                -1.084
REMARK SMILES CCCCCCCCC=CCCCCCCCC(=O)[O-]
REMARK SMILES IDX 10 1 9 2 11 3 12 4 13 5 14 6 15 7 16 8 17 9 18 10 19 11
REMARK SMILES IDX 20 12 8 13 7 14 6 15 5 16 4 17 3 18 2 19 1 20
REMARK H PARENT
REMARK Flexibility Score: inf
ROOT
ATOM      1  C   UNL     1      12.277   1.971 -16.868  1.00  0.00    -0.031 C 
ATOM      2  C   UNL     1      12.784   2.872 -17.730  1.00  0.00    -0.031 C 
ENDROOT
BRANCH   1   3
ATOM      3  C   UNL     1      11.022   1.167 -17.105  1.00  0.00     0.027 C 
BRANCH   3   4
ATOM      4  C   UNL     1      11.321  -0.197 -17.749  1.00  0.00     0.004 C 
BRANCH   4   5
ATOM      5  C   UNL     1      12.537  -0.935 -17.154  1.00  0.00     0.000 C 
BRANCH   5   6
ATOM      6  C   UNL     1      12.396  -1.340 -15.676  1.00  0.00     0.000 C 
BRANCH   6   7
ATOM      7  C   UNL     1      13.229  -2.577 -15.311  1.00  0.00     0.000 C 
BRANCH   7   8
ATOM      8  C   UNL     1      12.531  -3.864 -15.774  1.00  0.00     0.006 C 
BRANCH   8   9
ATOM      9  C   UNL     1      11.396  -4.282 -14.828  1.00  0.00     0.053 C 
BRANCH   9  10
ATOM     10  C   UNL     1      11.884  -4.472 -13.425  1.00  0.00     0.041 C 
ATOM     11  O   UNL     1      12.988  -5.041 -13.210  1.00  0.00    -0.550 OA
ATOM     12  O   UNL     1      11.107  -4.053 -12.353  1.00  0.00    -0.550 OA
ENDBRANCH   9  10
ENDBRANCH   8   9
ENDBRANCH   7   8
ENDBRANCH   6   7
ENDBRANCH   5   6
ENDBRANCH   4   5
ENDBRANCH   3   4
ENDBRANCH   1   3
BRANCH   2  13
ATOM     13  C   UNL     1      12.122   3.295 -19.019  1.00  0.00     0.027 C 
BRANCH  13  14
ATOM     14  C   UNL     1      12.838   2.712 -20.247  1.00  0.00     0.004 C 
BRANCH  14  15
ATOM     15  C   UNL     1      13.091   1.202 -20.107  1.00  0.00     0.000 C 
BRANCH  15  16
ATOM     16  C   UNL     1      12.665   0.405 -21.351  1.00  0.00     0.000 C 
BRANCH  16  17
ATOM     17  C   UNL     1      11.155   0.087 -21.395  1.00  0.00    -0.000 C 
BRANCH  17  18
ATOM     18  C   UNL     1      10.807  -0.910 -22.515  1.00  0.00    -0.000 C 
BRANCH  18  19
ATOM     19  C   UNL     1       9.644  -1.839 -22.135  1.00  0.00    -0.003 C 
ATOM     20  C   UNL     1       9.398  -2.929 -23.178  1.00  0.00     0.004 C 
ENDBRANCH  18  19
ENDBRANCH  17  18
ENDBRANCH  16  17
ENDBRANCH  15  16
ENDBRANCH  14  15
ENDBRANCH  13  14
ENDBRANCH   2  13
TORSDOF 15
ENDMDL
MODEL 2
REMARK VINA RESULT:    -3.657      3.179      6.807
REMARK INTER + INTRA:          -7.948
REMARK INTER:                  -6.593
REMARK INTRA:                  -1.354
REMARK UNBOUND:                -1.084
REMARK SMILES CCCCCCCCC=CCCCCCCCC(=O)[O-]
REMARK SMILES IDX 10 1 9 2 11 3 12 4 13 5 14 6 15 7 16 8 17 9 18 10 19 11
REMARK SMILES IDX 20 12 8 13 7 14 6 15 5 16 4 17 3 18 2 19 1 20
REMARK H PARENT
REMARK Flexibility Score: inf
ROOT
ATOM      1  C   UNL     1      12.064   2.196 -16.514  1.00  0.00    -0.031 C 
ATOM      2  C   UNL     1      11.222   1.148 -16.575  1.00  0.00    -0.031 C 
ENDROOT
BRANCH   1   3
ATOM      3  C   UNL     1      13.023   2.593 -17.610  1.00  0.00     0.027 C 
BRANCH   3   4
ATOM      4  C   UNL     1      12.297   3.189 -18.827  1.00  0.00     0.004 C 
BRANCH   4   5
ATOM      5  C   UNL     1      12.595   2.479 -20.164  1.00  0.00     0.000 C 
BRANCH   5   6
ATOM      6  C   UNL     1      13.412   1.180 -20.044  1.00  0.00     0.000 C 
BRANCH   6   7
ATOM      7  C   UNL     1      12.945   0.087 -21.017  1.00  0.00     0.000 C 
BRANCH   7   8
ATOM      8  C   UNL     1      11.480   0.306 -21.425  1.00  0.00     0.006 C 
BRANCH   8   9
ATOM      9  C   UNL     1      11.034  -0.660 -22.530  1.00  0.00     0.053 C 
BRANCH   9  10
ATOM     10  C   UNL     1       9.911  -1.543 -22.079  1.00  0.00     0.041 C 
ATOM     11  O   UNL     1       9.334  -1.319 -20.981  1.00  0.00    -0.550 OA
ATOM     12  O   UNL     1       9.525  -2.630 -22.851  1.00  0.00    -0.550 OA
ENDBRANCH   9  10
ENDBRANCH   8   9
ENDBRANCH   7   8
ENDBRANCH   6   7
ENDBRANCH   5   6
ENDBRANCH   4   5
ENDBRANCH   3   4
ENDBRANCH   1   3
BRANCH   2  13
ATOM     13  C   UNL     1      11.178   0.146 -17.704  1.00  0.00     0.027 C 
BRANCH  13  14
ATOM     14  C   UNL     1      12.234  -0.956 -17.533  1.00  0.00     0.004 C 
BRANCH  14  15
ATOM     15  C   UNL     1      12.907  -0.904 -16.152  1.00  0.00     0.000 C 
BRANCH  15  16
ATOM     16  C   UNL     1      12.603  -2.141 -15.291  1.00  0.00     0.000 C 
BRANCH  16  17
ATOM     17  C   UNL     1      11.948  -3.296 -16.076  1.00  0.00    -0.000 C 
BRANCH  17  18
ATOM     18  C   UNL     1      12.107  -4.648 -15.358  1.00  0.00    -0.000 C 
BRANCH  18  19
ATOM     19  C   UNL     1      12.605  -4.493 -13.913  1.00  0.00    -0.003 C 
ATOM     20  C   UNL     1      11.466  -4.511 -12.894  1.00  0.00     0.004 C 
ENDBRANCH  18  19
ENDBRANCH  17  18
ENDBRANCH  16  17
ENDBRANCH  15  16
ENDBRANCH  14  15
ENDBRANCH  13  14
ENDBRANCH   2  13
TORSDOF 15
ENDMDL
MODEL 3
REMARK VINA RESULT:    -3.636      3.428      6.833
REMARK INTER + INTRA:          -7.908
REMARK INTER:                  -6.546
REMARK INTRA:                  -1.362
REMARK UNBOUND:                -1.084
REMARK SMILES CCCCCCCCC=CCCCCCCCC(=O)[O-]
REMARK SMILES IDX 10 1 9 2 11 3 12 4 13 5 14 6 15 7 16 8 17 9 18 10 19 11
REMARK SMILES IDX 20 12 8 13 7 14 6 15 5 16 4 17 3 18 2 19 1 20
REMARK H PARENT
REMARK Flexibility Score: inf
ROOT
ATOM      1  C   UNL     1      12.845   2.674 -17.586  1.00  0.00    -0.031 C 
ATOM      2  C   UNL     1      12.643   1.903 -16.501  1.00  0.00    -0.031 C 
ENDROOT
BRANCH   1   3
ATOM      3  C   UNL     1      11.894   2.781 -18.753  1.00  0.00     0.027 C 
BRANCH   3   4
ATOM      4  C   UNL     1      12.567   2.410 -20.084  1.00  0.00     0.004 C 
BRANCH   4   5
ATOM      5  C   UNL     1      13.389   1.105 -20.046  1.00  0.00     0.000 C 
BRANCH   5   6
ATOM      6  C   UNL     1      12.766  -0.081 -20.802  1.00  0.00     0.000 C 
BRANCH   6   7
ATOM      7  C   UNL     1      11.449   0.281 -21.504  1.00  0.00     0.000 C 
BRANCH   7   8
ATOM      8  C   UNL     1      10.992  -0.854 -22.432  1.00  0.00     0.006 C 
BRANCH   8   9
ATOM      9  C   UNL     1       9.662  -1.473 -21.981  1.00  0.00     0.053 C 
BRANCH   9  10
ATOM     10  C   UNL     1       9.399  -2.782 -22.661  1.00  0.00     0.041 C 
ATOM     11  O   UNL     1       9.597  -3.864 -22.047  1.00  0.00    -0.550 OA
ATOM     12  O   UNL     1       8.969  -2.808 -23.981  1.00  0.00    -0.550 OA
ENDBRANCH   9  10
ENDBRANCH   8   9
ENDBRANCH   7   8
ENDBRANCH   6   7
ENDBRANCH   5   6
ENDBRANCH   4   5
ENDBRANCH   3   4
ENDBRANCH   1   3
BRANCH   2  13
ATOM     13  C   UNL     1      11.487   0.948 -16.329  1.00  0.00     0.027 C 
BRANCH  13  14
ATOM     14  C   UNL     1      11.532  -0.196 -17.353  1.00  0.00     0.004 C 
BRANCH  14  15
ATOM     15  C   UNL     1      12.738  -1.123 -17.134  1.00  0.00     0.000 C 
BRANCH  15  16
ATOM     16  C   UNL     1      12.617  -1.970 -15.856  1.00  0.00     0.000 C 
BRANCH  16  17
ATOM     17  C   UNL     1      11.644  -3.161 -15.993  1.00  0.00    -0.000 C 
BRANCH  17  18
ATOM     18  C   UNL     1      12.288  -4.488 -15.552  1.00  0.00    -0.000 C 
BRANCH  18  19
ATOM     19  C   UNL     1      12.716  -4.472 -14.076  1.00  0.00    -0.003 C 
ATOM     20  C   UNL     1      11.525  -4.456 -13.119  1.00  0.00     0.004 C 
ENDBRANCH  18  19
ENDBRANCH  17  18
ENDBRANCH  16  17
ENDBRANCH  15  16
ENDBRANCH  14  15
ENDBRANCH  13  14
ENDBRANCH   2  13
TORSDOF 15
ENDMDL
MODEL 4
REMARK VINA RESULT:    -3.130      1.304      4.104
REMARK INTER + INTRA:          -6.959
REMARK INTER:                  -5.627
REMARK INTRA:                  -1.332
REMARK UNBOUND:                -1.084
REMARK SMILES CCCCCCCCC=CCCCCCCCC(=O)[O-]
REMARK SMILES IDX 10 1 9 2 11 3 12 4 13 5 14 6 15 7 16 8 17 9 18 10 19 11
REMARK SMILES IDX 20 12 8 13 7 14 6 15 5 16 4 17 3 18 2 19 1 20
REMARK H PARENT
REMARK Flexibility Score: inf
ROOT
ATOM      1  C   UNL     1      13.005   0.800 -20.575  1.00  0.00    -0.031 C 
ATOM      2  C   UNL     1      11.819   0.799 -21.210  1.00  0.00    -0.031 C 
ENDROOT
BRANCH   1   3
ATOM      3  C   UNL     1      13.661  -0.420 -19.977  1.00  0.00     0.027 C 
BRANCH   3   4
ATOM      4  C   UNL     1      13.830  -0.299 -18.453  1.00  0.00     0.004 C 
BRANCH   4   5
ATOM      5  C   UNL     1      12.780  -1.071 -17.628  1.00  0.00     0.000 C 
BRANCH   5   6
ATOM      6  C   UNL     1      12.785  -0.769 -16.119  1.00  0.00     0.000 C 
BRANCH   6   7
ATOM      7  C   UNL     1      12.329  -1.964 -15.268  1.00  0.00     0.000 C 
BRANCH   7   8
ATOM      8  C   UNL     1      12.277  -3.248 -16.108  1.00  0.00     0.006 C 
BRANCH   8   9
ATOM      9  C   UNL     1      11.656  -4.421 -15.338  1.00  0.00     0.053 C 
BRANCH   9  10
ATOM     10  C   UNL     1      12.127  -4.466 -13.918  1.00  0.00     0.041 C 
ATOM     11  O   UNL     1      13.333  -4.725 -13.659  1.00  0.00    -0.550 OA
ATOM     12  O   UNL     1      11.231  -4.256 -12.878  1.00  0.00    -0.550 OA
ENDBRANCH   9  10
ENDBRANCH   8   9
ENDBRANCH   7   8
ENDBRANCH   6   7
ENDBRANCH   5   6
ENDBRANCH   4   5
ENDBRANCH   3   4
ENDBRANCH   1   3
BRANCH   2  13
ATOM     13  C   UNL     1      10.912  -0.402 -21.333  1.00  0.00     0.027 C 
BRANCH  13  14
ATOM     14  C   UNL     1       9.648  -0.256 -20.472  1.00  0.00     0.004 C 
BRANCH  14  15
ATOM     15  C   UNL     1       9.972  -0.227 -18.970  1.00  0.00     0.000 C 
BRANCH  15  16
ATOM     16  C   UNL     1       9.775   1.162 -18.341  1.00  0.00     0.000 C 
BRANCH  16  17
ATOM     17  C   UNL     1      10.946   1.605 -17.438  1.00  0.00    -0.000 C 
BRANCH  17  18
ATOM     18  C   UNL     1      11.820   2.680 -18.110  1.00  0.00    -0.000 C 
BRANCH  18  19
ATOM     19  C   UNL     1      12.955   3.170 -17.199  1.00  0.00    -0.003 C 
ATOM     20  C   UNL     1      13.160   2.270 -15.981  1.00  0.00     0.004 C 
ENDBRANCH  18  19
ENDBRANCH  17  18
ENDBRANCH  16  17
ENDBRANCH  15  16
ENDBRANCH  14  15
ENDBRANCH  13  14
ENDBRANCH   2  13
TORSDOF 15
ENDMDL
MODEL 5
REMARK VINA RESULT:    -3.119      2.851      5.186
REMARK INTER + INTRA:          -6.938
REMARK INTER:                  -5.875
REMARK INTRA:                  -1.063
REMARK UNBOUND:                -1.084
REMARK SMILES CCCCCCCCC=CCCCCCCCC(=O)[O-]
REMARK SMILES IDX 10 1 9 2 11 3 12 4 13 5 14 6 15 7 16 8 17 9 18 10 19 11
REMARK SMILES IDX 20 12 8 13 7 14 6 15 5 16 4 17 3 18 2 19 1 20
REMARK H PARENT
REMARK Flexibility Score: inf
ROOT
ATOM      1  C   UNL     1      12.434   0.544 -20.207  1.00  0.00    -0.031 C 
ATOM      2  C   UNL     1      13.060   1.700 -20.492  1.00  0.00    -0.031 C 
ENDROOT
BRANCH   1   3
ATOM      3  C   UNL     1      10.947   0.402 -19.991  1.00  0.00     0.027 C 
BRANCH   3   4
ATOM      4  C   UNL     1      10.589   0.261 -18.502  1.00  0.00     0.004 C 
BRANCH   4   5
ATOM      5  C   UNL     1      11.296   1.270 -17.573  1.00  0.00     0.000 C 
BRANCH   5   6
ATOM      6  C   UNL     1      12.204   0.643 -16.501  1.00  0.00     0.000 C 
BRANCH   6   7
ATOM      7  C   UNL     1      12.435  -0.860 -16.715  1.00  0.00     0.000 C 
BRANCH   7   8
ATOM      8  C   UNL     1      12.466  -1.607 -15.374  1.00  0.00     0.006 C 
BRANCH   8   9
ATOM      9  C   UNL     1      13.035  -3.026 -15.513  1.00  0.00     0.053 C 
BRANCH   9  10
ATOM     10  C   UNL     1      12.127  -4.051 -14.905  1.00  0.00     0.041 C 
ATOM     11  O   UNL     1      12.458  -4.637 -13.840  1.00  0.00    -0.550 OA
ATOM     12  O   UNL     1      10.932  -4.383 -15.530  1.00  0.00    -0.550 OA
ENDBRANCH   9  10
ENDBRANCH   8   9
ENDBRANCH   7   8
ENDBRANCH   6   7
ENDBRANCH   5   6
ENDBRANCH   4   5
ENDBRANCH   3   4
ENDBRANCH   1   3
BRANCH   2  13
ATOM     13  C   UNL     1      12.389   3.052 -20.537  1.00  0.00     0.027 C 
BRANCH  13  14
ATOM     14  C   UNL     1      13.024   4.040 -19.547  1.00  0.00     0.004 C 
BRANCH  14  15
ATOM     15  C   UNL     1      12.911   5.495 -20.030  1.00  0.00     0.000 C 
BRANCH  15  16
ATOM     16  C   UNL     1      14.185   6.314 -19.766  1.00  0.00     0.000 C 
BRANCH  16  17
ATOM     17  C   UNL     1      14.784   6.955 -21.036  1.00  0.00    -0.000 C 
BRANCH  17  18
ATOM     18  C   UNL     1      16.317   6.821 -21.084  1.00  0.00    -0.000 C 
BRANCH  18  19
ATOM     19  C   UNL     1      16.863   6.817 -22.520  1.00  0.00    -0.003 C 
ATOM     20  C   UNL     1      16.081   5.882 -23.443  1.00  0.00     0.004 C 
ENDBRANCH  18  19
ENDBRANCH  17  18
ENDBRANCH  16  17
ENDBRANCH  15  16
ENDBRANCH  14  15
ENDBRANCH  13  14
ENDBRANCH   2  13
TORSDOF 15
ENDMDL
MODEL 6
REMARK VINA RESULT:    -2.884      1.706      4.381
REMARK INTER + INTRA:          -6.497
REMARK INTER:                  -4.718
REMARK INTRA:                  -1.779
REMARK UNBOUND:                -1.084
REMARK SMILES CCCCCCCCC=CCCCCCCCC(=O)[O-]
REMARK SMILES IDX 10 1 9 2 11 3 12 4 13 5 14 6 15 7 16 8 17 9 18 10 19 11
REMARK SMILES IDX 20 12 8 13 7 14 6 15 5 16 4 17 3 18 2 19 1 20
REMARK H PARENT
REMARK Flexibility Score: inf
ROOT
ATOM      1  C   UNL     1       9.675  -0.007 -19.022  1.00  0.00    -0.031 C 
ATOM      2  C   UNL     1      10.057  -0.395 -20.253  1.00  0.00    -0.031 C 
ENDROOT
BRANCH   1   3
ATOM      3  C   UNL     1      10.014   1.325 -18.397  1.00  0.00     0.027 C 
BRANCH   3   4
ATOM      4  C   UNL     1      10.415   1.186 -16.919  1.00  0.00     0.004 C 
BRANCH   4   5
ATOM      5  C   UNL     1      11.861   1.621 -16.603  1.00  0.00     0.000 C 
BRANCH   5   6
ATOM      6  C   UNL     1      12.831   0.472 -16.275  1.00  0.00     0.000 C 
BRANCH   6   7
ATOM      7  C   UNL     1      12.869  -0.609 -17.366  1.00  0.00     0.000 C 
BRANCH   7   8
ATOM      8  C   UNL     1      12.261  -1.924 -16.856  1.00  0.00     0.006 C 
BRANCH   8   9
ATOM      9  C   UNL     1      12.638  -2.211 -15.396  1.00  0.00     0.053 C 
BRANCH   9  10
ATOM     10  C   UNL     1      12.363  -3.635 -15.020  1.00  0.00     0.041 C 
ATOM     11  O   UNL     1      13.158  -4.254 -14.265  1.00  0.00    -0.550 OA
ATOM     12  O   UNL     1      11.248  -4.288 -15.530  1.00  0.00    -0.550 OA
ENDBRANCH   9  10
ENDBRANCH   8   9
ENDBRANCH   7   8
ENDBRANCH   6   7
ENDBRANCH   5   6
ENDBRANCH   4   5
ENDBRANCH   3   4
ENDBRANCH   1   3
BRANCH   2  13
ATOM     13  C   UNL     1      10.968   0.396 -21.159  1.00  0.00     0.027 C 
BRANCH  13  14
ATOM     14  C   UNL     1      12.425  -0.081 -21.065  1.00  0.00     0.004 C 
BRANCH  14  15
ATOM     15  C   UNL     1      13.370   1.036 -20.596  1.00  0.00     0.000 C 
BRANCH  15  16
ATOM     16  C   UNL     1      12.637   2.173 -19.866  1.00  0.00     0.000 C 
BRANCH  16  17
ATOM     17  C   UNL     1      12.898   3.568 -20.472  1.00  0.00    -0.000 C 
BRANCH  17  18
ATOM     18  C   UNL     1      13.030   4.655 -19.390  1.00  0.00    -0.000 C 
BRANCH  18  19
ATOM     19  C   UNL     1      13.133   6.068 -19.983  1.00  0.00    -0.003 C 
ATOM     20  C   UNL     1      14.564   6.441 -20.368  1.00  0.00     0.004 C 
ENDBRANCH  18  19
ENDBRANCH  17  18
ENDBRANCH  16  17
ENDBRANCH  15  16
ENDBRANCH  14  15
ENDBRANCH  13  14
ENDBRANCH   2  13
TORSDOF 15
ENDMDL
MODEL 7
REMARK VINA RESULT:    -2.800      5.053      8.438
REMARK INTER + INTRA:          -6.340
REMARK INTER:                  -4.899
REMARK INTRA:                  -1.441
REMARK UNBOUND:                -1.084
REMARK SMILES CCCCCCCCC=CCCCCCCCC(=O)[O-]
REMARK SMILES IDX 10 1 9 2 11 3 12 4 13 5 14 6 15 7 16 8 17 9 18 10 19 11
REMARK SMILES IDX 20 12 8 13 7 14 6 15 5 16 4 17 3 18 2 19 1 20
REMARK H PARENT
REMARK Flexibility Score: inf
ROOT
ATOM      1  C   UNL     1      11.249   0.354 -21.226  1.00  0.00    -0.031 C 
ATOM      2  C   UNL     1      10.229   0.157 -20.370  1.00  0.00    -0.031 C 
ENDROOT
BRANCH   1   3
ATOM      3  C   UNL     1      12.708   0.197 -20.875  1.00  0.00     0.027 C 
BRANCH   3   4
ATOM      4  C   UNL     1      13.255   1.416 -20.114  1.00  0.00     0.004 C 
BRANCH   4   5
ATOM      5  C   UNL     1      12.715   2.775 -20.606  1.00  0.00     0.000 C 
BRANCH   5   6
ATOM      6  C   UNL     1      12.335   3.767 -19.492  1.00  0.00     0.000 C 
BRANCH   6   7
ATOM      7  C   UNL     1      13.417   4.827 -19.241  1.00  0.00     0.000 C 
BRANCH   7   8
ATOM      8  C   UNL     1      13.476   5.836 -20.397  1.00  0.00     0.006 C 
BRANCH   8   9
ATOM      9  C   UNL     1      14.414   7.013 -20.094  1.00  0.00     0.053 C 
BRANCH   9  10
ATOM     10  C   UNL     1      15.676   6.938 -20.897  1.00  0.00     0.041 C 
ATOM     11  O   UNL     1      16.792   7.123 -20.340  1.00  0.00    -0.550 OA
ATOM     12  O   UNL     1      15.621   6.699 -22.264  1.00  0.00    -0.550 OA
ENDBRANCH   9  10
ENDBRANCH   8   9
ENDBRANCH   7   8
ENDBRANCH   6   7
ENDBRANCH   5   6
ENDBRANCH   4   5
ENDBRANCH   3   4
ENDBRANCH   1   3
BRANCH   2  13
ATOM     13  C   UNL     1      10.388  -0.150 -18.901  1.00  0.00     0.027 C 
BRANCH  13  14
ATOM     14  C   UNL     1      10.431   1.129 -18.050  1.00  0.00     0.004 C 
BRANCH  14  15
ATOM     15  C   UNL     1      11.520   1.066 -16.968  1.00  0.00     0.000 C 
BRANCH  15  16
ATOM     16  C   UNL     1      12.344  -0.231 -17.022  1.00  0.00     0.000 C 
BRANCH  16  17
ATOM     17  C   UNL     1      12.194  -1.113 -15.764  1.00  0.00    -0.000 C 
BRANCH  17  18
ATOM     18  C   UNL     1      12.751  -2.531 -15.982  1.00  0.00    -0.000 C 
BRANCH  18  19
ATOM     19  C   UNL     1      11.804  -3.623 -15.462  1.00  0.00    -0.003 C 
ATOM     20  C   UNL     1      12.414  -4.436 -14.321  1.00  0.00     0.004 C 
ENDBRANCH  18  19
ENDBRANCH  17  18
ENDBRANCH  16  17
ENDBRANCH  15  16
ENDBRANCH  14  15
ENDBRANCH  13  14
ENDBRANCH   2  13
TORSDOF 15
ENDMDL
MODEL 8
REMARK VINA RESULT:    -2.715      1.344      3.560
REMARK INTER + INTRA:          -6.179
REMARK INTER:                  -4.063
REMARK INTRA:                  -2.116
REMARK UNBOUND:                -1.084
REMARK SMILES CCCCCCCCC=CCCCCCCCC(=O)[O-]
REMARK SMILES IDX 10 1 9 2 11 3 12 4 13 5 14 6 15 7 16 8 17 9 18 10 19 11
REMARK SMILES IDX 20 12 8 13 7 14 6 15 5 16 4 17 3 18 2 19 1 20
REMARK H PARENT
REMARK Flexibility Score: inf
ROOT
ATOM      1  C   UNL     1       9.940   1.704 -17.623  1.00  0.00    -0.031 C 
ATOM      2  C   UNL     1       9.646   1.107 -18.793  1.00  0.00    -0.031 C 
ENDROOT
BRANCH   1   3
ATOM      3  C   UNL     1      10.711   1.057 -16.498  1.00  0.00     0.027 C 
BRANCH   3   4
ATOM      4  C   UNL     1      12.141   1.611 -16.383  1.00  0.00     0.004 C 
BRANCH   4   5
ATOM      5  C   UNL     1      13.253   0.548 -16.502  1.00  0.00     0.000 C 
BRANCH   5   6
ATOM      6  C   UNL     1      12.943  -0.615 -17.461  1.00  0.00     0.000 C 
BRANCH   6   7
ATOM      7  C   UNL     1      12.274  -1.807 -16.760  1.00  0.00     0.000 C 
BRANCH   7   8
ATOM      8  C   UNL     1      12.691  -1.880 -15.284  1.00  0.00     0.006 C 
BRANCH   8   9
ATOM      9  C   UNL     1      13.353  -3.219 -14.933  1.00  0.00     0.053 C 
BRANCH   9  10
ATOM     10  C   UNL     1      12.338  -4.294 -14.690  1.00  0.00     0.041 C 
ATOM     11  O   UNL     1      12.043  -5.105 -15.608  1.00  0.00    -0.550 OA
ATOM     12  O   UNL     1      11.693  -4.380 -13.463  1.00  0.00    -0.550 OA
ENDBRANCH   9  10
ENDBRANCH   8   9
ENDBRANCH   7   8
ENDBRANCH   6   7
ENDBRANCH   5   6
ENDBRANCH   4   5
ENDBRANCH   3   4
ENDBRANCH   1   3
BRANCH   2  13
ATOM     13  C   UNL     1       9.951  -0.334 -19.123  1.00  0.00     0.027 C 
BRANCH  13  14
ATOM     14  C   UNL     1       9.996  -0.578 -20.639  1.00  0.00     0.004 C 
BRANCH  14  15
ATOM     15  C   UNL     1      11.013   0.335 -21.341  1.00  0.00     0.000 C 
BRANCH  15  16
ATOM     16  C   UNL     1      12.471  -0.059 -21.053  1.00  0.00     0.000 C 
BRANCH  16  17
ATOM     17  C   UNL     1      13.274   1.033 -20.315  1.00  0.00    -0.000 C 
BRANCH  17  18
ATOM     18  C   UNL     1      12.712   2.442 -20.577  1.00  0.00    -0.000 C 
BRANCH  18  19
ATOM     19  C   UNL     1      12.581   3.273 -19.292  1.00  0.00    -0.003 C 
ATOM     20  C   UNL     1      12.949   4.741 -19.503  1.00  0.00     0.004 C 
ENDBRANCH  18  19
ENDBRANCH  17  18
ENDBRANCH  16  17
ENDBRANCH  15  16
ENDBRANCH  14  15
ENDBRANCH  13  14
ENDBRANCH   2  13
TORSDOF 15
ENDMDL
MODEL 9
REMARK VINA RESULT:    -2.604      5.495      9.231
REMARK INTER + INTRA:          -5.972
REMARK INTER:                  -5.525
REMARK INTRA:                  -0.447
REMARK UNBOUND:                -1.084
REMARK SMILES CCCCCCCCC=CCCCCCCCC(=O)[O-]
REMARK SMILES IDX 10 1 9 2 11 3 12 4 13 5 14 6 15 7 16 8 17 9 18 10 19 11
REMARK SMILES IDX 20 12 8 13 7 14 6 15 5 16 4 17 3 18 2 19 1 20
REMARK H PARENT
REMARK Flexibility Score: inf
ROOT
ATOM      1  C   UNL     1      12.188   0.731 -20.235  1.00  0.00    -0.031 C 
ATOM      2  C   UNL     1      11.495   0.383 -19.136  1.00  0.00    -0.031 C 
ENDROOT
BRANCH   1   3
ATOM      3  C   UNL     1      13.148   1.894 -20.314  1.00  0.00     0.027 C 
BRANCH   3   4
ATOM      4  C   UNL     1      12.432   3.246 -20.159  1.00  0.00     0.004 C 
BRANCH   4   5
ATOM      5  C   UNL     1      13.374   4.466 -20.080  1.00  0.00     0.000 C 
BRANCH   5   6
ATOM      6  C   UNL     1      12.675   5.817 -19.850  1.00  0.00     0.000 C 
BRANCH   6   7
ATOM      7  C   UNL     1      13.632   7.013 -19.962  1.00  0.00     0.000 C 
BRANCH   7   8
ATOM      8  C   UNL     1      14.967   6.590 -20.592  1.00  0.00     0.006 C 
BRANCH   8   9
ATOM      9  C   UNL     1      15.132   7.125 -22.021  1.00  0.00     0.053 C 
BRANCH   9  10
ATOM     10  C   UNL     1      16.388   6.621 -22.663  1.00  0.00     0.041 C 
ATOM     11  O   UNL     1      16.326   5.908 -23.700  1.00  0.00    -0.550 OA
ATOM     12  O   UNL     1      17.624   6.909 -22.098  1.00  0.00    -0.550 OA
ENDBRANCH   9  10
ENDBRANCH   8   9
ENDBRANCH   7   8
ENDBRANCH   6   7
ENDBRANCH   5   6
ENDBRANCH   4   5
ENDBRANCH   3   4
ENDBRANCH   1   3
BRANCH   2  13
ATOM     13  C   UNL     1      11.489   1.161 -17.842  1.00  0.00     0.027 C 
BRANCH  13  14
ATOM     14  C   UNL     1      12.280   0.444 -16.738  1.00  0.00     0.004 C 
BRANCH  14  15
ATOM     15  C   UNL     1      12.552  -1.029 -17.085  1.00  0.00     0.000 C 
BRANCH  15  16
ATOM     16  C   UNL     1      12.582  -1.940 -15.847  1.00  0.00     0.000 C 
BRANCH  16  17
ATOM     17  C   UNL     1      11.802  -3.259 -16.031  1.00  0.00    -0.000 C 
BRANCH  17  18
ATOM     18  C   UNL     1      12.589  -4.474 -15.508  1.00  0.00    -0.000 C 
BRANCH  18  19
ATOM     19  C   UNL     1      12.640  -4.528 -13.974  1.00  0.00    -0.003 C 
ATOM     20  C   UNL     1      11.475  -3.785 -13.321  1.00  0.00     0.004 C 
ENDBRANCH  18  19
ENDBRANCH  17  18
ENDBRANCH  16  17
ENDBRANCH  15  16
ENDBRANCH  14  15
ENDBRANCH  13  14
ENDBRANCH   2  13
TORSDOF 15
ENDMDL
