MODEL 1
REMARK VINA RESULT:    -4.225      0.000      0.000
REMARK INTER + INTRA:         -10.343
REMARK INTER:                  -8.176
REMARK INTRA:                  -2.167
REMARK UNBOUND:                -2.167
REMARK SMILES CCCCCCCCCCCCCCCCCC(=O)[O-]
REMARK SMILES IDX 10 1 11 2 12 3 13 4 14 5 15 6 16 7 17 8 18 9 19 10 20 11
REMARK SMILES IDX 9 12 8 13 7 14 6 15 5 16 4 17 3 18 2 19 1 20
REMARK H PARENT
REMARK Flexibility Score: inf
ROOT
ATOM      1  C   UNL     1     -45.171 -51.135  39.462  1.00  0.00     0.000 C 
ENDROOT
BRANCH   1   2
ATOM      2  C   UNL     1     -46.422 -50.493  38.826  1.00  0.00     0.000 C 
BRANCH   2   3
ATOM      3  C   UNL     1     -46.633 -50.913  37.360  1.00  0.00     0.000 C 
BRANCH   3   4
ATOM      4  C   UNL     1     -46.705 -52.441  37.182  1.00  0.00     0.000 C 
BRANCH   4   5
ATOM      5  C   UNL     1     -47.842 -53.127  37.962  1.00  0.00     0.000 C 
BRANCH   5   6
ATOM      6  C   UNL     1     -47.358 -54.281  38.867  1.00  0.00     0.000 C 
BRANCH   6   7
ATOM      7  C   UNL     1     -47.556 -53.965  40.356  1.00  0.00     0.006 C 
BRANCH   7   8
ATOM      8  C   UNL     1     -48.686 -52.954  40.563  1.00  0.00     0.053 C 
BRANCH   8   9
ATOM      9  C   UNL     1     -48.360 -52.031  41.694  1.00  0.00     0.041 C 
ATOM     10  O   UNL     1     -48.473 -50.786  41.549  1.00  0.00    -0.550 OA
ATOM     11  O   UNL     1     -47.880 -52.543  42.892  1.00  0.00    -0.550 OA
ENDBRANCH   8   9
ENDBRANCH   7   8
ENDBRANCH   6   7
ENDBRANCH   5   6
ENDBRANCH   4   5
ENDBRANCH   3   4
ENDBRANCH   2   3
ENDBRANCH   1   2
BRANCH   1  12
ATOM     12  C   UNL     1     -43.939 -50.208  39.518  1.00  0.00     0.000 C 
BRANCH  12  13
ATOM     13  C   UNL     1     -44.197 -48.735  39.155  1.00  0.00    -0.000 C 
BRANCH  13  14
ATOM     14  C   UNL     1     -43.409 -48.205  37.941  1.00  0.00    -0.000 C 
BRANCH  14  15
ATOM     15  C   UNL     1     -44.091 -48.425  36.579  1.00  0.00    -0.000 C 
BRANCH  15  16
ATOM     16  C   UNL     1     -43.500 -49.609  35.800  1.00  0.00    -0.000 C 
BRANCH  16  17
ATOM     17  C   UNL     1     -43.164 -49.206  34.358  1.00  0.00    -0.000 C 
BRANCH  17  18
ATOM     18  C   UNL     1     -42.426 -47.861  34.321  1.00  0.00    -0.000 C 
BRANCH  18  19
ATOM     19  C   UNL     1     -40.899 -48.023  34.392  1.00  0.00    -0.003 C 
ATOM     20  C   UNL     1     -40.349 -47.813  35.802  1.00  0.00     0.004 C 
ENDBRANCH  18  19
ENDBRANCH  17  18
ENDBRANCH  16  17
ENDBRANCH  15  16
ENDBRANCH  14  15
ENDBRANCH  13  14
ENDBRANCH  12  13
ENDBRANCH   1  12
TORSDOF 16
ENDMDL
MODEL 2
REMARK VINA RESULT:    -3.962      1.848      3.711
REMARK INTER + INTRA:          -9.835
REMARK INTER:                  -7.287
REMARK INTRA:                  -2.548
REMARK UNBOUND:                -2.167
REMARK SMILES CCCCCCCCCCCCCCCCCC(=O)[O-]
REMARK SMILES IDX 10 1 11 2 12 3 13 4 14 5 15 6 16 7 17 8 18 9 19 10 20 11
REMARK SMILES IDX 9 12 8 13 7 14 6 15 5 16 4 17 3 18 2 19 1 20
REMARK H PARENT
REMARK Flexibility Score: inf
ROOT
ATOM      1  C   UNL     1     -42.892 -50.184  38.236  1.00  0.00     0.000 C 
ENDROOT
BRANCH   1   2
ATOM      2  C   UNL     1     -43.463 -49.253  39.327  1.00  0.00     0.000 C 
BRANCH   2   3
ATOM      3  C   UNL     1     -44.197 -48.030  38.750  1.00  0.00     0.000 C 
BRANCH   3   4
ATOM      4  C   UNL     1     -44.765 -48.286  37.341  1.00  0.00     0.000 C 
BRANCH   4   5
ATOM      5  C   UNL     1     -46.297 -48.436  37.282  1.00  0.00     0.000 C 
BRANCH   5   6
ATOM      6  C   UNL     1     -46.761 -49.807  36.744  1.00  0.00     0.000 C 
BRANCH   6   7
ATOM      7  C   UNL     1     -46.568 -50.925  37.778  1.00  0.00     0.006 C 
BRANCH   7   8
ATOM      8  C   UNL     1     -47.140 -52.251  37.273  1.00  0.00     0.053 C 
BRANCH   8   9
ATOM      9  C   UNL     1     -47.462 -53.153  38.423  1.00  0.00     0.041 C 
ATOM     10  O   UNL     1     -47.302 -54.397  38.316  1.00  0.00    -0.550 OA
ATOM     11  O   UNL     1     -47.988 -52.624  39.593  1.00  0.00    -0.550 OA
ENDBRANCH   8   9
ENDBRANCH   7   8
ENDBRANCH   6   7
ENDBRANCH   5   6
ENDBRANCH   4   5
ENDBRANCH   3   4
ENDBRANCH   2   3
ENDBRANCH   1   2
BRANCH   1  12
ATOM     12  C   UNL     1     -41.355 -50.157  38.116  1.00  0.00     0.000 C 
BRANCH  12  13
ATOM     13  C   UNL     1     -40.715 -48.757  38.079  1.00  0.00    -0.000 C 
BRANCH  13  14
ATOM     14  C   UNL     1     -41.079 -47.895  36.854  1.00  0.00    -0.000 C 
BRANCH  14  15
ATOM     15  C   UNL     1     -40.099 -48.000  35.672  1.00  0.00    -0.000 C 
BRANCH  15  16
ATOM     16  C   UNL     1     -40.799 -47.922  34.308  1.00  0.00    -0.000 C 
BRANCH  16  17
ATOM     17  C   UNL     1     -42.324 -47.891  34.473  1.00  0.00    -0.000 C 
BRANCH  17  18
ATOM     18  C   UNL     1     -42.981 -49.066  33.734  1.00  0.00    -0.000 C 
BRANCH  18  19
ATOM     19  C   UNL     1     -43.351 -50.223  34.675  1.00  0.00    -0.003 C 
ATOM     20  C   UNL     1     -42.329 -51.359  34.642  1.00  0.00     0.004 C 
ENDBRANCH  18  19
ENDBRANCH  17  18
ENDBRANCH  16  17
ENDBRANCH  15  16
ENDBRANCH  14  15
ENDBRANCH  13  14
ENDBRANCH  12  13
ENDBRANCH   1  12
TORSDOF 16
ENDMDL
MODEL 3
REMARK VINA RESULT:    -3.949      2.477      5.550
REMARK INTER + INTRA:          -9.810
REMARK INTER:                  -7.733
REMARK INTRA:                  -2.077
REMARK UNBOUND:                -2.167
REMARK SMILES CCCCCCCCCCCCCCCCCC(=O)[O-]
REMARK SMILES IDX 10 1 11 2 12 3 13 4 14 5 15 6 16 7 17 8 18 9 19 10 20 11
REMARK SMILES IDX 9 12 8 13 7 14 6 15 5 16 4 17 3 18 2 19 1 20
REMARK H PARENT
REMARK Flexibility Score: inf
ROOT
ATOM      1  C   UNL     1     -40.858 -47.957  34.154  1.00  0.00     0.000 C 
ENDROOT
BRANCH   1   2
ATOM      2  C   UNL     1     -42.376 -47.843  34.409  1.00  0.00     0.000 C 
BRANCH   2   3
ATOM      3  C   UNL     1     -43.124 -49.168  34.181  1.00  0.00     0.000 C 
BRANCH   3   4
ATOM      4  C   UNL     1     -43.864 -49.659  35.440  1.00  0.00     0.000 C 
BRANCH   4   5
ATOM      5  C   UNL     1     -43.844 -48.674  36.623  1.00  0.00     0.000 C 
BRANCH   5   6
ATOM      6  C   UNL     1     -45.252 -48.292  37.130  1.00  0.00     0.000 C 
BRANCH   6   7
ATOM      7  C   UNL     1     -46.253 -49.444  36.970  1.00  0.00     0.006 C 
BRANCH   7   8
ATOM      8  C   UNL     1     -46.463 -50.183  38.294  1.00  0.00     0.053 C 
BRANCH   8   9
ATOM      9  C   UNL     1     -46.116 -51.630  38.144  1.00  0.00     0.041 C 
ATOM     10  O   UNL     1     -45.857 -52.105  37.007  1.00  0.00    -0.550 OA
ATOM     11  O   UNL     1     -46.131 -52.467  39.252  1.00  0.00    -0.550 OA
ENDBRANCH   8   9
ENDBRANCH   7   8
ENDBRANCH   6   7
ENDBRANCH   5   6
ENDBRANCH   4   5
ENDBRANCH   3   4
ENDBRANCH   2   3
ENDBRANCH   1   2
BRANCH   1  12
ATOM     12  C   UNL     1     -40.059 -48.562  35.326  1.00  0.00     0.000 C 
BRANCH  12  13
ATOM     13  C   UNL     1     -40.242 -47.865  36.686  1.00  0.00    -0.000 C 
BRANCH  13  14
ATOM     14  C   UNL     1     -40.336 -48.806  37.904  1.00  0.00    -0.000 C 
BRANCH  14  15
ATOM     15  C   UNL     1     -40.668 -48.111  39.236  1.00  0.00    -0.000 C 
BRANCH  15  16
ATOM     16  C   UNL     1     -42.015 -48.557  39.822  1.00  0.00    -0.000 C 
BRANCH  16  17
ATOM     17  C   UNL     1     -42.606 -47.471  40.731  1.00  0.00    -0.000 C 
BRANCH  17  18
ATOM     18  C   UNL     1     -43.525 -46.531  39.938  1.00  0.00    -0.000 C 
BRANCH  18  19
ATOM     19  C   UNL     1     -43.364 -45.060  40.352  1.00  0.00    -0.003 C 
ATOM     20  C   UNL     1     -42.128 -44.822  41.219  1.00  0.00     0.004 C 
ENDBRANCH  18  19
ENDBRANCH  17  18
ENDBRANCH  16  17
ENDBRANCH  15  16
ENDBRANCH  14  15
ENDBRANCH  13  14
ENDBRANCH  12  13
ENDBRANCH   1  12
TORSDOF 16
ENDMDL
MODEL 4
REMARK VINA RESULT:    -3.903      1.257      2.707
REMARK INTER + INTRA:          -9.720
REMARK INTER:                  -7.293
REMARK INTRA:                  -2.427
REMARK UNBOUND:                -2.167
REMARK SMILES CCCCCCCCCCCCCCCCCC(=O)[O-]
REMARK SMILES IDX 10 1 11 2 12 3 13 4 14 5 15 6 16 7 17 8 18 9 19 10 20 11
REMARK SMILES IDX 9 12 8 13 7 14 6 15 5 16 4 17 3 18 2 19 1 20
REMARK H PARENT
REMARK Flexibility Score: inf
ROOT
ATOM      1  C   UNL     1     -43.511 -49.169  37.911  1.00  0.00     0.000 C 
ENDROOT
BRANCH   1   2
ATOM      2  C   UNL     1     -44.450 -50.350  38.237  1.00  0.00     0.000 C 
BRANCH   2   3
ATOM      3  C   UNL     1     -45.916 -49.918  38.420  1.00  0.00     0.000 C 
BRANCH   3   4
ATOM      4  C   UNL     1     -46.880 -50.670  37.483  1.00  0.00     0.000 C 
BRANCH   4   5
ATOM      5  C   UNL     1     -46.556 -52.163  37.289  1.00  0.00     0.000 C 
BRANCH   5   6
ATOM      6  C   UNL     1     -47.692 -53.103  37.746  1.00  0.00     0.000 C 
BRANCH   6   7
ATOM      7  C   UNL     1     -47.478 -53.610  39.179  1.00  0.00     0.006 C 
BRANCH   7   8
ATOM      8  C   UNL     1     -48.337 -52.829  40.177  1.00  0.00     0.053 C 
BRANCH   8   9
ATOM      9  C   UNL     1     -47.499 -52.336  41.313  1.00  0.00     0.041 C 
ATOM     10  O   UNL     1     -46.261 -52.163  41.158  1.00  0.00    -0.550 OA
ATOM     11  O   UNL     1     -48.074 -52.118  42.557  1.00  0.00    -0.550 OA
ENDBRANCH   8   9
ENDBRANCH   7   8
ENDBRANCH   6   7
ENDBRANCH   5   6
ENDBRANCH   4   5
ENDBRANCH   3   4
ENDBRANCH   2   3
ENDBRANCH   1   2
BRANCH   1  12
ATOM     12  C   UNL     1     -43.777 -48.501  36.547  1.00  0.00     0.000 C 
BRANCH  12  13
ATOM     13  C   UNL     1     -43.873 -49.457  35.345  1.00  0.00    -0.000 C 
BRANCH  13  14
ATOM     14  C   UNL     1     -42.991 -49.090  34.135  1.00  0.00    -0.000 C 
BRANCH  14  15
ATOM     15  C   UNL     1     -42.161 -47.805  34.304  1.00  0.00    -0.000 C 
BRANCH  15  16
ATOM     16  C   UNL     1     -40.656 -48.079  34.431  1.00  0.00    -0.000 C 
BRANCH  16  17
ATOM     17  C   UNL     1     -40.145 -47.708  35.829  1.00  0.00    -0.000 C 
BRANCH  17  18
ATOM     18  C   UNL     1     -40.056 -48.949  36.729  1.00  0.00    -0.000 C 
BRANCH  18  19
ATOM     19  C   UNL     1     -39.900 -50.250  35.928  1.00  0.00    -0.003 C 
ATOM     20  C   UNL     1     -40.829 -51.360  36.417  1.00  0.00     0.004 C 
ENDBRANCH  18  19
ENDBRANCH  17  18
ENDBRANCH  16  17
ENDBRANCH  15  16
ENDBRANCH  14  15
ENDBRANCH  13  14
ENDBRANCH  12  13
ENDBRANCH   1  12
TORSDOF 16
ENDMDL
MODEL 5
REMARK VINA RESULT:    -3.866      2.471      4.335
REMARK INTER + INTRA:          -9.650
REMARK INTER:                  -6.858
REMARK INTRA:                  -2.793
REMARK UNBOUND:                -2.167
REMARK SMILES CCCCCCCCCCCCCCCCCC(=O)[O-]
REMARK SMILES IDX 10 1 11 2 12 3 13 4 14 5 15 6 16 7 17 8 18 9 19 10 20 11
REMARK SMILES IDX 9 12 8 13 7 14 6 15 5 16 4 17 3 18 2 19 1 20
REMARK H PARENT
REMARK Flexibility Score: inf
ROOT
ATOM      1  C   UNL     1     -41.651 -50.599  37.974  1.00  0.00     0.000 C 
ENDROOT
BRANCH   1   2
ATOM      2  C   UNL     1     -42.723 -50.296  39.042  1.00  0.00     0.000 C 
BRANCH   2   3
ATOM      3  C   UNL     1     -42.981 -48.790  39.223  1.00  0.00     0.000 C 
BRANCH   3   4
ATOM      4  C   UNL     1     -43.377 -48.090  37.910  1.00  0.00     0.000 C 
BRANCH   4   5
ATOM      5  C   UNL     1     -44.894 -48.012  37.654  1.00  0.00     0.000 C 
BRANCH   5   6
ATOM      6  C   UNL     1     -45.413 -49.104  36.694  1.00  0.00     0.000 C 
BRANCH   6   7
ATOM      7  C   UNL     1     -46.741 -49.707  37.173  1.00  0.00     0.006 C 
BRANCH   7   8
ATOM      8  C   UNL     1     -46.504 -50.890  38.115  1.00  0.00     0.053 C 
BRANCH   8   9
ATOM      9  C   UNL     1     -46.611 -52.181  37.367  1.00  0.00     0.041 C 
ATOM     10  O   UNL     1     -45.639 -52.602  36.687  1.00  0.00    -0.550 OA
ATOM     11  O   UNL     1     -47.802 -52.894  37.378  1.00  0.00    -0.550 OA
ENDBRANCH   8   9
ENDBRANCH   7   8
ENDBRANCH   6   7
ENDBRANCH   5   6
ENDBRANCH   4   5
ENDBRANCH   3   4
ENDBRANCH   2   3
ENDBRANCH   1   2
BRANCH   1  12
ATOM     12  C   UNL     1     -42.122 -51.541  36.848  1.00  0.00     0.000 C 
BRANCH  12  13
ATOM     13  C   UNL     1     -41.840 -51.057  35.414  1.00  0.00    -0.000 C 
BRANCH  13  14
ATOM     14  C   UNL     1     -43.073 -50.572  34.625  1.00  0.00    -0.000 C 
BRANCH  14  15
ATOM     15  C   UNL     1     -42.812 -49.388  33.677  1.00  0.00    -0.000 C 
BRANCH  15  16
ATOM     16  C   UNL     1     -42.608 -48.061  34.423  1.00  0.00    -0.000 C 
BRANCH  16  17
ATOM     17  C   UNL     1     -41.153 -47.587  34.317  1.00  0.00    -0.000 C 
BRANCH  17  18
ATOM     18  C   UNL     1     -40.424 -47.748  35.658  1.00  0.00    -0.000 C 
BRANCH  18  19
ATOM     19  C   UNL     1     -39.104 -48.524  35.523  1.00  0.00    -0.003 C 
ATOM     20  C   UNL     1     -38.825 -48.968  34.088  1.00  0.00     0.004 C 
ENDBRANCH  18  19
ENDBRANCH  17  18
ENDBRANCH  16  17
ENDBRANCH  15  16
ENDBRANCH  14  15
ENDBRANCH  13  14
ENDBRANCH  12  13
ENDBRANCH   1  12
TORSDOF 16
ENDMDL
MODEL 6
REMARK VINA RESULT:    -3.852      3.278      6.216
REMARK INTER + INTRA:          -9.621
REMARK INTER:                  -7.444
REMARK INTRA:                  -2.178
REMARK UNBOUND:                -2.167
REMARK SMILES CCCCCCCCCCCCCCCCCC(=O)[O-]
REMARK SMILES IDX 10 1 11 2 12 3 13 4 14 5 15 6 16 7 17 8 18 9 19 10 20 11
REMARK SMILES IDX 9 12 8 13 7 14 6 15 5 16 4 17 3 18 2 19 1 20
REMARK H PARENT
REMARK Flexibility Score: inf
ROOT
ATOM      1  C   UNL     1     -38.751 -48.309  35.445  1.00  0.00     0.000 C 
ENDROOT
BRANCH   1   2
ATOM      2  C   UNL     1     -39.920 -48.646  34.495  1.00  0.00     0.000 C 
BRANCH   2   3
ATOM      3  C   UNL     1     -41.065 -47.620  34.566  1.00  0.00     0.000 C 
BRANCH   3   4
ATOM      4  C   UNL     1     -42.399 -48.179  34.038  1.00  0.00     0.000 C 
BRANCH   4   5
ATOM      5  C   UNL     1     -43.353 -48.705  35.127  1.00  0.00     0.000 C 
BRANCH   5   6
ATOM      6  C   UNL     1     -43.187 -50.213  35.416  1.00  0.00     0.000 C 
BRANCH   6   7
ATOM      7  C   UNL     1     -44.356 -50.773  36.237  1.00  0.00     0.006 C 
BRANCH   7   8
ATOM      8  C   UNL     1     -45.011 -49.681  37.086  1.00  0.00     0.053 C 
BRANCH   8   9
ATOM      9  C   UNL     1     -46.494 -49.875  37.132  1.00  0.00     0.041 C 
ATOM     10  O   UNL     1     -46.979 -51.035  37.185  1.00  0.00    -0.550 OA
ATOM     11  O   UNL     1     -47.340 -48.777  37.064  1.00  0.00    -0.550 OA
ENDBRANCH   8   9
ENDBRANCH   7   8
ENDBRANCH   6   7
ENDBRANCH   5   6
ENDBRANCH   4   5
ENDBRANCH   3   4
ENDBRANCH   2   3
ENDBRANCH   1   2
BRANCH   1  12
ATOM     12  C   UNL     1     -39.183 -47.881  36.861  1.00  0.00     0.000 C 
BRANCH  12  13
ATOM     13  C   UNL     1     -39.680 -49.014  37.777  1.00  0.00    -0.000 C 
BRANCH  13  14
ATOM     14  C   UNL     1     -41.165 -48.935  38.182  1.00  0.00    -0.000 C 
BRANCH  14  15
ATOM     15  C   UNL     1     -41.745 -47.511  38.246  1.00  0.00    -0.000 C 
BRANCH  15  16
ATOM     16  C   UNL     1     -42.975 -47.408  39.159  1.00  0.00    -0.000 C 
BRANCH  16  17
ATOM     17  C   UNL     1     -42.560 -47.249  40.627  1.00  0.00    -0.000 C 
BRANCH  17  18
ATOM     18  C   UNL     1     -41.441 -46.208  40.772  1.00  0.00    -0.000 C 
BRANCH  18  19
ATOM     19  C   UNL     1     -41.950 -44.868  41.325  1.00  0.00    -0.003 C 
ATOM     20  C   UNL     1     -41.029 -43.698  40.977  1.00  0.00     0.004 C 
ENDBRANCH  18  19
ENDBRANCH  17  18
ENDBRANCH  16  17
ENDBRANCH  15  16
ENDBRANCH  14  15
ENDBRANCH  13  14
ENDBRANCH  12  13
ENDBRANCH   1  12
TORSDOF 16
ENDMDL
MODEL 7
REMARK VINA RESULT:    -3.800      3.258      6.906
REMARK INTER + INTRA:          -9.521
REMARK INTER:                  -6.812
REMARK INTRA:                  -2.709
REMARK UNBOUND:                -2.167
REMARK SMILES CCCCCCCCCCCCCCCCCC(=O)[O-]
REMARK SMILES IDX 10 1 11 2 12 3 13 4 14 5 15 6 16 7 17 8 18 9 19 10 20 11
REMARK SMILES IDX 9 12 8 13 7 14 6 15 5 16 4 17 3 18 2 19 1 20
REMARK H PARENT
REMARK Flexibility Score: inf
ROOT
ATOM      1  C   UNL     1     -43.639 -51.438  38.796  1.00  0.00     0.000 C 
ENDROOT
BRANCH   1   2
ATOM      2  C   UNL     1     -44.139 -51.702  37.360  1.00  0.00     0.000 C 
BRANCH   2   3
ATOM      3  C   UNL     1     -44.370 -50.410  36.557  1.00  0.00     0.000 C 
BRANCH   3   4
ATOM      4  C   UNL     1     -45.707 -49.726  36.900  1.00  0.00     0.000 C 
BRANCH   4   5
ATOM      5  C   UNL     1     -45.573 -48.318  37.509  1.00  0.00     0.000 C 
BRANCH   5   6
ATOM      6  C   UNL     1     -44.113 -47.909  37.798  1.00  0.00     0.000 C 
BRANCH   6   7
ATOM      7  C   UNL     1     -43.833 -47.801  39.304  1.00  0.00     0.006 C 
BRANCH   7   8
ATOM      8  C   UNL     1     -43.907 -46.347  39.778  1.00  0.00     0.053 C 
BRANCH   8   9
ATOM      9  C   UNL     1     -42.603 -45.927  40.379  1.00  0.00     0.041 C 
ATOM     10  O   UNL     1     -41.855 -46.778  40.928  1.00  0.00    -0.550 OA
ATOM     11  O   UNL     1     -42.238 -44.588  40.381  1.00  0.00    -0.550 OA
ENDBRANCH   8   9
ENDBRANCH   7   8
ENDBRANCH   6   7
ENDBRANCH   5   6
ENDBRANCH   4   5
ENDBRANCH   3   4
ENDBRANCH   2   3
ENDBRANCH   1   2
BRANCH   1  12
ATOM     12  C   UNL     1     -44.611 -51.893  39.903  1.00  0.00     0.000 C 
BRANCH  12  13
ATOM     13  C   UNL     1     -45.397 -50.770  40.603  1.00  0.00    -0.000 C 
BRANCH  13  14
ATOM     14  C   UNL     1     -46.892 -50.681  40.235  1.00  0.00    -0.000 C 
BRANCH  14  15
ATOM     15  C   UNL     1     -47.862 -50.935  41.402  1.00  0.00    -0.000 C 
BRANCH  15  16
ATOM     16  C   UNL     1     -48.252 -52.414  41.542  1.00  0.00    -0.000 C 
BRANCH  16  17
ATOM     17  C   UNL     1     -48.546 -53.037  40.172  1.00  0.00    -0.000 C 
BRANCH  17  18
ATOM     18  C   UNL     1     -47.557 -54.169  39.859  1.00  0.00    -0.000 C 
BRANCH  18  19
ATOM     19  C   UNL     1     -47.134 -54.191  38.382  1.00  0.00    -0.003 C 
ATOM     20  C   UNL     1     -47.688 -53.007  37.591  1.00  0.00     0.004 C 
ENDBRANCH  18  19
ENDBRANCH  17  18
ENDBRANCH  16  17
ENDBRANCH  15  16
ENDBRANCH  14  15
ENDBRANCH  13  14
ENDBRANCH  12  13
ENDBRANCH   1  12
TORSDOF 16
ENDMDL
MODEL 8
REMARK VINA RESULT:    -3.776      3.981      7.572
REMARK INTER + INTRA:          -9.476
REMARK INTER:                  -6.691
REMARK INTRA:                  -2.784
REMARK UNBOUND:                -2.167
REMARK SMILES CCCCCCCCCCCCCCCCCC(=O)[O-]
REMARK SMILES IDX 10 1 11 2 12 3 13 4 14 5 15 6 16 7 17 8 18 9 19 10 20 11
REMARK SMILES IDX 9 12 8 13 7 14 6 15 5 16 4 17 3 18 2 19 1 20
REMARK H PARENT
REMARK Flexibility Score: inf
ROOT
ATOM      1  C   UNL     1     -42.022 -49.681  37.940  1.00  0.00     0.000 C 
ENDROOT
BRANCH   1   2
ATOM      2  C   UNL     1     -42.969 -50.795  37.447  1.00  0.00     0.000 C 
BRANCH   2   3
ATOM      3  C   UNL     1     -42.908 -51.005  35.923  1.00  0.00     0.000 C 
BRANCH   3   4
ATOM      4  C   UNL     1     -43.794 -50.012  35.149  1.00  0.00     0.000 C 
BRANCH   4   5
ATOM      5  C   UNL     1     -43.075 -49.255  34.016  1.00  0.00     0.000 C 
BRANCH   5   6
ATOM      6  C   UNL     1     -42.364 -47.969  34.490  1.00  0.00     0.000 C 
BRANCH   6   7
ATOM      7  C   UNL     1     -40.838 -48.075  34.358  1.00  0.00     0.006 C 
BRANCH   7   8
ATOM      8  C   UNL     1     -40.138 -47.616  35.640  1.00  0.00     0.053 C 
BRANCH   8   9
ATOM      9  C   UNL     1     -38.840 -48.338  35.813  1.00  0.00     0.041 C 
ATOM     10  O   UNL     1     -38.731 -49.246  36.678  1.00  0.00    -0.550 OA
ATOM     11  O   UNL     1     -37.735 -47.972  35.057  1.00  0.00    -0.550 OA
ENDBRANCH   8   9
ENDBRANCH   7   8
ENDBRANCH   6   7
ENDBRANCH   5   6
ENDBRANCH   4   5
ENDBRANCH   3   4
ENDBRANCH   2   3
ENDBRANCH   1   2
BRANCH   1  12
ATOM     12  C   UNL     1     -42.716 -48.333  38.221  1.00  0.00     0.000 C 
BRANCH  12  13
ATOM     13  C   UNL     1     -44.213 -48.415  38.567  1.00  0.00    -0.000 C 
BRANCH  13  14
ATOM     14  C   UNL     1     -45.158 -47.686  37.590  1.00  0.00    -0.000 C 
BRANCH  14  15
ATOM     15  C   UNL     1     -46.420 -48.476  37.198  1.00  0.00    -0.000 C 
BRANCH  15  16
ATOM     16  C   UNL     1     -46.496 -49.852  37.875  1.00  0.00    -0.000 C 
BRANCH  16  17
ATOM     17  C   UNL     1     -46.865 -50.943  36.862  1.00  0.00    -0.000 C 
BRANCH  17  18
ATOM     18  C   UNL     1     -46.411 -52.325  37.353  1.00  0.00    -0.000 C 
BRANCH  18  19
ATOM     19  C   UNL     1     -46.354 -52.419  38.886  1.00  0.00    -0.003 C 
ATOM     20  C   UNL     1     -47.675 -52.884  39.498  1.00  0.00     0.004 C 
ENDBRANCH  18  19
ENDBRANCH  17  18
ENDBRANCH  16  17
ENDBRANCH  15  16
ENDBRANCH  14  15
ENDBRANCH  13  14
ENDBRANCH  12  13
ENDBRANCH   1  12
TORSDOF 16
ENDMDL
MODEL 9
REMARK VINA RESULT:    -3.725      1.648      4.635
REMARK INTER + INTRA:          -9.377
REMARK INTER:                  -7.311
REMARK INTRA:                  -2.066
REMARK UNBOUND:                -2.167
REMARK SMILES CCCCCCCCCCCCCCCCCC(=O)[O-]
REMARK SMILES IDX 10 1 11 2 12 3 13 4 14 5 15 6 16 7 17 8 18 9 19 10 20 11
REMARK SMILES IDX 9 12 8 13 7 14 6 15 5 16 4 17 3 18 2 19 1 20
REMARK H PARENT
REMARK Flexibility Score: inf
ROOT
ATOM      1  C   UNL     1     -42.746 -48.744  33.890  1.00  0.00     0.000 C 
ENDROOT
BRANCH   1   2
ATOM      2  C   UNL     1     -43.506 -49.407  35.058  1.00  0.00     0.000 C 
BRANCH   2   3
ATOM      3  C   UNL     1     -43.987 -48.394  36.112  1.00  0.00     0.000 C 
BRANCH   3   4
ATOM      4  C   UNL     1     -45.228 -48.881  36.884  1.00  0.00     0.000 C 
BRANCH   4   5
ATOM      5  C   UNL     1     -45.435 -50.407  36.874  1.00  0.00     0.000 C 
BRANCH   5   6
ATOM      6  C   UNL     1     -46.869 -50.837  37.252  1.00  0.00     0.000 C 
BRANCH   6   7
ATOM      7  C   UNL     1     -47.028 -52.364  37.262  1.00  0.00     0.006 C 
BRANCH   7   8
ATOM      8  C   UNL     1     -47.649 -52.847  38.574  1.00  0.00     0.053 C 
BRANCH   8   9
ATOM      9  C   UNL     1     -46.588 -53.052  39.609  1.00  0.00     0.041 C 
ATOM     10  O   UNL     1     -46.874 -52.976  40.833  1.00  0.00    -0.550 OA
ATOM     11  O   UNL     1     -45.273 -53.273  39.223  1.00  0.00    -0.550 OA
ENDBRANCH   8   9
ENDBRANCH   7   8
ENDBRANCH   6   7
ENDBRANCH   5   6
ENDBRANCH   4   5
ENDBRANCH   3   4
ENDBRANCH   2   3
ENDBRANCH   1   2
BRANCH   1  12
ATOM     12  C   UNL     1     -41.648 -47.753  34.325  1.00  0.00     0.000 C 
BRANCH  12  13
ATOM     13  C   UNL     1     -40.382 -48.385  34.931  1.00  0.00    -0.000 C 
BRANCH  13  14
ATOM     14  C   UNL     1     -39.785 -47.641  36.142  1.00  0.00    -0.000 C 
BRANCH  14  15
ATOM     15  C   UNL     1     -39.813 -48.428  37.465  1.00  0.00    -0.000 C 
BRANCH  15  16
ATOM     16  C   UNL     1     -41.237 -48.682  37.978  1.00  0.00    -0.000 C 
BRANCH  16  17
ATOM     17  C   UNL     1     -41.772 -47.465  38.743  1.00  0.00    -0.000 C 
BRANCH  17  18
ATOM     18  C   UNL     1     -42.733 -47.896  39.860  1.00  0.00    -0.000 C 
BRANCH  18  19
ATOM     19  C   UNL     1     -42.997 -49.410  39.861  1.00  0.00    -0.003 C 
ATOM     20  C   UNL     1     -44.386 -49.766  40.389  1.00  0.00     0.004 C 
ENDBRANCH  18  19
ENDBRANCH  17  18
ENDBRANCH  16  17
ENDBRANCH  15  16
ENDBRANCH  14  15
ENDBRANCH  13  14
ENDBRANCH  12  13
ENDBRANCH   1  12
TORSDOF 16
ENDMDL
