MODEL 1
REMARK VINA RESULT:    -3.910      0.000      0.000
REMARK INTER + INTRA:          -4.885
REMARK INTER:                  -4.824
REMARK INTRA:                  -0.061
REMARK UNBOUND:                -0.061
REMARK SMILES CCCCCC(=O)[O-]
REMARK SMILES IDX 4 1 5 2 6 3 7 4 8 5 3 6 2 7 1 8
REMARK H PARENT
REMARK Flexibility Score: inf
ROOT
ATOM      1  C   UNL     1      26.493   6.559   5.209  1.00  0.00     0.006 C 
ENDROOT
BRANCH   1   2
ATOM      2  C   UNL     1      26.280   7.856   6.005  1.00  0.00     0.053 C 
BRANCH   2   3
ATOM      3  C   UNL     1      24.957   8.489   5.701  1.00  0.00     0.041 C 
ATOM      4  O   UNL     1      23.928   7.777   5.571  1.00  0.00    -0.550 OA
ATOM      5  O   UNL     1      24.868   9.865   5.528  1.00  0.00    -0.550 OA
ENDBRANCH   2   3
ENDBRANCH   1   2
BRANCH   1   6
ATOM      6  C   UNL     1      27.623   5.657   5.746  1.00  0.00     0.000 C 
BRANCH   6   7
ATOM      7  C   UNL     1      27.323   4.974   7.092  1.00  0.00    -0.003 C 
ATOM      8  C   UNL     1      27.670   3.486   7.097  1.00  0.00     0.004 C 
ENDBRANCH   6   7
ENDBRANCH   1   6
TORSDOF 4
ENDMDL
MODEL 2
REMARK VINA RESULT:    -3.760      0.635      1.255
REMARK INTER + INTRA:          -4.700
REMARK INTER:                  -4.623
REMARK INTRA:                  -0.078
REMARK UNBOUND:                -0.061
REMARK SMILES CCCCCC(=O)[O-]
REMARK SMILES IDX 4 1 5 2 6 3 7 4 8 5 3 6 2 7 1 8
REMARK H PARENT
REMARK Flexibility Score: inf
ROOT
ATOM      1  C   UNL     1      26.769   6.323   5.477  1.00  0.00     0.006 C 
ENDROOT
BRANCH   1   2
ATOM      2  C   UNL     1      26.143   7.127   6.627  1.00  0.00     0.053 C 
BRANCH   2   3
ATOM      3  C   UNL     1      25.216   8.192   6.127  1.00  0.00     0.041 C 
ATOM      4  O   UNL     1      25.534   9.406   6.224  1.00  0.00    -0.550 OA
ATOM      5  O   UNL     1      23.985   7.844   5.584  1.00  0.00    -0.550 OA
ENDBRANCH   2   3
ENDBRANCH   1   2
BRANCH   1   6
ATOM      6  C   UNL     1      27.891   5.357   5.909  1.00  0.00     0.000 C 
BRANCH   6   7
ATOM      7  C   UNL     1      27.627   4.604   7.225  1.00  0.00    -0.003 C 
ATOM      8  C   UNL     1      27.687   3.085   7.068  1.00  0.00     0.004 C 
ENDBRANCH   6   7
ENDBRANCH   1   6
TORSDOF 4
ENDMDL
MODEL 3
REMARK VINA RESULT:    -3.554      2.772      4.553
REMARK INTER + INTRA:          -4.446
REMARK INTER:                  -4.365
REMARK INTRA:                  -0.081
REMARK UNBOUND:                -0.061
REMARK SMILES CCCCCC(=O)[O-]
REMARK SMILES IDX 4 1 5 2 6 3 7 4 8 5 3 6 2 7 1 8
REMARK H PARENT
REMARK Flexibility Score: inf
ROOT
ATOM      1  C   UNL     1      26.572   6.416   5.470  1.00  0.00     0.006 C 
ENDROOT
BRANCH   1   2
ATOM      2  C   UNL     1      27.758   5.530   5.879  1.00  0.00     0.053 C 
BRANCH   2   3
ATOM      3  C   UNL     1      27.502   4.810   7.167  1.00  0.00     0.041 C 
ATOM      4  O   UNL     1      27.474   5.444   8.254  1.00  0.00    -0.550 OA
ATOM      5  O   UNL     1      27.327   3.431   7.171  1.00  0.00    -0.550 OA
ENDBRANCH   2   3
ENDBRANCH   1   2
BRANCH   1   6
ATOM      6  C   UNL     1      26.675   7.880   5.943  1.00  0.00     0.000 C 
BRANCH   6   7
ATOM      7  C   UNL     1      25.450   8.754   5.619  1.00  0.00    -0.003 C 
ATOM      8  C   UNL     1      24.150   7.955   5.540  1.00  0.00     0.004 C 
ENDBRANCH   6   7
ENDBRANCH   1   6
TORSDOF 4
ENDMDL
MODEL 4
REMARK VINA RESULT:    -3.509      3.161      4.320
REMARK INTER + INTRA:          -4.391
REMARK INTER:                  -4.277
REMARK INTRA:                  -0.113
REMARK UNBOUND:                -0.061
REMARK SMILES CCCCCC(=O)[O-]
REMARK SMILES IDX 4 1 5 2 6 3 7 4 8 5 3 6 2 7 1 8
REMARK H PARENT
REMARK Flexibility Score: inf
ROOT
ATOM      1  C   UNL     1      27.164   6.051   6.345  1.00  0.00     0.006 C 
ENDROOT
BRANCH   1   2
ATOM      2  C   UNL     1      27.499   7.048   7.465  1.00  0.00     0.053 C 
BRANCH   2   3
ATOM      3  C   UNL     1      27.733   6.362   8.776  1.00  0.00     0.041 C 
ATOM      4  O   UNL     1      27.955   5.124   8.813  1.00  0.00    -0.550 OA
ATOM      5  O   UNL     1      27.671   7.085   9.960  1.00  0.00    -0.550 OA
ENDBRANCH   2   3
ENDBRANCH   1   2
BRANCH   1   6
ATOM      6  C   UNL     1      26.480   6.679   5.113  1.00  0.00     0.000 C 
BRANCH   6   7
ATOM      7  C   UNL     1      25.950   8.108   5.324  1.00  0.00    -0.003 C 
ATOM      8  C   UNL     1      24.437   8.161   5.531  1.00  0.00     0.004 C 
ENDBRANCH   6   7
ENDBRANCH   1   6
TORSDOF 4
ENDMDL
MODEL 5
REMARK VINA RESULT:    -3.477      2.453      3.624
REMARK INTER + INTRA:          -4.352
REMARK INTER:                  -4.127
REMARK INTRA:                  -0.225
REMARK UNBOUND:                -0.061
REMARK SMILES CCCCCC(=O)[O-]
REMARK SMILES IDX 4 1 5 2 6 3 7 4 8 5 3 6 2 7 1 8
REMARK H PARENT
REMARK Flexibility Score: inf
ROOT
ATOM      1  C   UNL     1      26.597   6.792   7.395  1.00  0.00     0.006 C 
ENDROOT
BRANCH   1   2
ATOM      2  C   UNL     1      27.512   7.905   7.930  1.00  0.00     0.053 C 
BRANCH   2   3
ATOM      3  C   UNL     1      26.734   8.998   8.596  1.00  0.00     0.041 C 
ATOM      4  O   UNL     1      26.169   8.791   9.702  1.00  0.00    -0.550 OA
ATOM      5  O   UNL     1      26.606  10.236   7.979  1.00  0.00    -0.550 OA
ENDBRANCH   2   3
ENDBRANCH   1   2
BRANCH   1   6
ATOM      6  C   UNL     1      26.552   6.685   5.857  1.00  0.00     0.000 C 
BRANCH   6   7
ATOM      7  C   UNL     1      25.922   7.893   5.141  1.00  0.00    -0.003 C 
ATOM      8  C   UNL     1      24.495   8.184   5.603  1.00  0.00     0.004 C 
ENDBRANCH   6   7
ENDBRANCH   1   6
TORSDOF 4
ENDMDL
MODEL 6
REMARK VINA RESULT:    -3.469     13.851     15.018
REMARK INTER + INTRA:          -4.341
REMARK INTER:                  -4.100
REMARK INTRA:                  -0.241
REMARK UNBOUND:                -0.061
REMARK SMILES CCCCCC(=O)[O-]
REMARK SMILES IDX 4 1 5 2 6 3 7 4 8 5 3 6 2 7 1 8
REMARK H PARENT
REMARK Flexibility Score: inf
ROOT
ATOM      1  C   UNL     1      16.889  17.015  -1.302  1.00  0.00     0.006 C 
ENDROOT
BRANCH   1   2
ATOM      2  C   UNL     1      15.487  16.484  -0.967  1.00  0.00     0.053 C 
BRANCH   2   3
ATOM      3  C   UNL     1      15.242  16.437   0.510  1.00  0.00     0.041 C 
ATOM      4  O   UNL     1      14.621  15.468   1.019  1.00  0.00    -0.550 OA
ATOM      5  O   UNL     1      15.672  17.481   1.320  1.00  0.00    -0.550 OA
ENDBRANCH   2   3
ENDBRANCH   1   2
BRANCH   1   6
ATOM      6  C   UNL     1      18.011  15.961  -1.207  1.00  0.00     0.000 C 
BRANCH   6   7
ATOM      7  C   UNL     1      18.981  16.151  -0.027  1.00  0.00    -0.003 C 
ATOM      8  C   UNL     1      19.051  17.597   0.463  1.00  0.00     0.004 C 
ENDBRANCH   6   7
ENDBRANCH   1   6
TORSDOF 4
ENDMDL
MODEL 7
REMARK VINA RESULT:    -3.449      3.154      4.391
REMARK INTER + INTRA:          -4.316
REMARK INTER:                  -4.266
REMARK INTRA:                  -0.051
REMARK UNBOUND:                -0.061
REMARK SMILES CCCCCC(=O)[O-]
REMARK SMILES IDX 4 1 5 2 6 3 7 4 8 5 3 6 2 7 1 8
REMARK H PARENT
REMARK Flexibility Score: inf
ROOT
ATOM      1  C   UNL     1      24.669  10.271   5.449  1.00  0.00     0.006 C 
ENDROOT
BRANCH   1   2
ATOM      2  C   UNL     1      23.457  11.140   5.079  1.00  0.00     0.053 C 
BRANCH   2   3
ATOM      3  C   UNL     1      23.733  12.600   5.270  1.00  0.00     0.041 C 
ATOM      4  O   UNL     1      24.737  13.131   4.728  1.00  0.00    -0.550 OA
ATOM      5  O   UNL     1      22.900  13.366   6.076  1.00  0.00    -0.550 OA
ENDBRANCH   2   3
ENDBRANCH   1   2
BRANCH   1   6
ATOM      6  C   UNL     1      24.408   8.752   5.395  1.00  0.00     0.000 C 
BRANCH   6   7
ATOM      7  C   UNL     1      25.662   7.873   5.543  1.00  0.00    -0.003 C 
ATOM      8  C   UNL     1      25.940   7.466   6.989  1.00  0.00     0.004 C 
ENDBRANCH   6   7
ENDBRANCH   1   6
TORSDOF 4
ENDMDL
MODEL 8
REMARK VINA RESULT:    -3.412     13.263     13.964
REMARK INTER + INTRA:          -4.271
REMARK INTER:                  -4.053
REMARK INTRA:                  -0.218
REMARK UNBOUND:                -0.061
REMARK SMILES CCCCCC(=O)[O-]
REMARK SMILES IDX 4 1 5 2 6 3 7 4 8 5 3 6 2 7 1 8
REMARK H PARENT
REMARK Flexibility Score: inf
ROOT
ATOM      1  C   UNL     1      16.487   1.301  -0.914  1.00  0.00     0.006 C 
ENDROOT
BRANCH   1   2
ATOM      2  C   UNL     1      16.861   2.789  -0.837  1.00  0.00     0.053 C 
BRANCH   2   3
ATOM      3  C   UNL     1      15.667   3.678  -1.006  1.00  0.00     0.041 C 
ATOM      4  O   UNL     1      15.029   4.082   0.000  1.00  0.00    -0.550 OA
ATOM      5  O   UNL     1      15.239   4.032  -2.280  1.00  0.00    -0.550 OA
ENDBRANCH   2   3
ENDBRANCH   1   2
BRANCH   1   6
ATOM      6  C   UNL     1      16.543   0.700  -2.333  1.00  0.00     0.000 C 
BRANCH   6   7
ATOM      7  C   UNL     1      15.284  -0.075  -2.760  1.00  0.00    -0.003 C 
ATOM      8  C   UNL     1      13.992   0.707  -2.524  1.00  0.00     0.004 C 
ENDBRANCH   6   7
ENDBRANCH   1   6
TORSDOF 4
ENDMDL
MODEL 9
REMARK VINA RESULT:    -3.407      2.792      3.079
REMARK INTER + INTRA:          -4.265
REMARK INTER:                  -4.070
REMARK INTRA:                  -0.195
REMARK UNBOUND:                -0.061
REMARK SMILES CCCCCC(=O)[O-]
REMARK SMILES IDX 4 1 5 2 6 3 7 4 8 5 3 6 2 7 1 8
REMARK H PARENT
REMARK Flexibility Score: inf
ROOT
ATOM      1  C   UNL     1      25.983   7.355   6.726  1.00  0.00     0.006 C 
ENDROOT
BRANCH   1   2
ATOM      2  C   UNL     1      26.965   8.310   7.421  1.00  0.00     0.053 C 
BRANCH   2   3
ATOM      3  C   UNL     1      26.975   8.122   8.907  1.00  0.00     0.041 C 
ATOM      4  O   UNL     1      27.723   7.256   9.432  1.00  0.00    -0.550 OA
ATOM      5  O   UNL     1      26.131   8.879   9.710  1.00  0.00    -0.550 OA
ENDBRANCH   2   3
ENDBRANCH   1   2
BRANCH   1   6
ATOM      6  C   UNL     1      26.567   6.613   5.507  1.00  0.00     0.000 C 
BRANCH   6   7
ATOM      7  C   UNL     1      27.712   5.637   5.828  1.00  0.00    -0.003 C 
ATOM      8  C   UNL     1      27.387   4.693   6.984  1.00  0.00     0.004 C 
ENDBRANCH   6   7
ENDBRANCH   1   6
TORSDOF 4
ENDMDL
