MODEL 1
REMARK VINA RESULT:     3.116      0.000      0.000
REMARK INTER + INTRA:           3.539
REMARK INTER:                   3.662
REMARK INTRA:                  -0.123
REMARK UNBOUND:                -0.123
REMARK SMILES O=C([O-])C=Cc1ccc(O)c(O)c1
REMARK SMILES IDX 6 1 13 2 7 3 11 4 8 5 9 6 5 7 4 8 2 9 1 10 3 11 12 12 10 14
REMARK H PARENT 12 13 10 15
REMARK Flexibility Score: inf
ROOT
ATOM      1  C   UNL     1      -8.367  -6.122  21.152  1.00  0.00    -0.022 A 
ATOM      2  C   UNL     1      -7.479  -5.063  21.405  1.00  0.00     0.058 A 
ATOM      3  C   UNL     1      -8.767  -6.371  19.825  1.00  0.00     0.012 A 
ATOM      4  C   UNL     1      -6.977  -4.281  20.355  1.00  0.00     0.157 A 
ATOM      5  C   UNL     1      -8.267  -5.591  18.778  1.00  0.00     0.051 A 
ATOM      6  C   UNL     1      -7.371  -4.549  19.035  1.00  0.00     0.157 A 
ENDROOT
BRANCH   1   7
ATOM      7  C   UNL     1      -8.877  -6.912  22.301  1.00  0.00     0.010 C 
ATOM      8  C   UNL     1      -8.140  -7.800  22.981  1.00  0.00     0.025 C 
BRANCH   8   9
ATOM      9  C   UNL     1      -8.685  -8.552  24.122  1.00  0.00     0.064 C 
ATOM     10  O   UNL     1      -9.124  -7.929  25.124  1.00  0.00    -0.545 OA
ATOM     11  O   UNL     1      -8.723  -9.942  24.112  1.00  0.00    -0.545 OA
ENDBRANCH   8   9
ENDBRANCH   1   7
BRANCH   4  12
ATOM     12  O   UNL     1      -6.088  -3.239  20.620  1.00  0.00    -0.504 OA
ATOM     13  H   UNL     1      -5.656  -2.708  19.873  1.00  0.00     0.293 HD
ENDBRANCH   4  12
BRANCH   6  14
ATOM     14  O   UNL     1      -6.889  -3.792  17.968  1.00  0.00    -0.504 OA
ATOM     15  H   UNL     1      -6.462  -4.218  17.155  1.00  0.00     0.293 HD
ENDBRANCH   6  14
TORSDOF 4
ENDMDL
MODEL 2
REMARK VINA RESULT:     5.789      1.013      5.782
REMARK INTER + INTRA:           6.682
REMARK INTER:                   6.810
REMARK INTRA:                  -0.129
REMARK UNBOUND:                -0.123
REMARK SMILES O=C([O-])C=Cc1ccc(O)c(O)c1
REMARK SMILES IDX 6 1 13 2 7 3 11 4 8 5 9 6 5 7 4 8 2 9 1 10 3 11 12 12 10 14
REMARK H PARENT 12 13 10 15
REMARK Flexibility Score: inf
ROOT
ATOM      1  C   UNL     1      -8.429  -6.868  21.485  1.00  0.00    -0.022 A 
ATOM      2  C   UNL     1      -8.638  -6.535  22.834  1.00  0.00     0.058 A 
ATOM      3  C   UNL     1      -8.435  -8.227  21.112  1.00  0.00     0.012 A 
ATOM      4  C   UNL     1      -8.873  -7.532  23.791  1.00  0.00     0.157 A 
ATOM      5  C   UNL     1      -8.669  -9.221  22.066  1.00  0.00     0.051 A 
ATOM      6  C   UNL     1      -8.892  -8.881  23.404  1.00  0.00     0.157 A 
ENDROOT
BRANCH   1   7
ATOM      7  C   UNL     1      -8.174  -5.775  20.513  1.00  0.00     0.010 C 
ATOM      8  C   UNL     1      -7.143  -4.924  20.604  1.00  0.00     0.025 C 
BRANCH   8   9
ATOM      9  C   UNL     1      -6.922  -3.862  19.610  1.00  0.00     0.064 C 
ATOM     10  O   UNL     1      -7.126  -4.100  18.391  1.00  0.00    -0.545 OA
ATOM     11  O   UNL     1      -6.489  -2.599  19.996  1.00  0.00    -0.545 OA
ENDBRANCH   8   9
ENDBRANCH   1   7
BRANCH   4  12
ATOM     12  O   UNL     1      -9.088  -7.186  25.125  1.00  0.00    -0.504 OA
ATOM     13  H   UNL     1      -9.688  -6.411  25.382  1.00  0.00     0.293 HD
ENDBRANCH   4  12
BRANCH   6  14
ATOM     14  O   UNL     1      -9.124  -9.896  24.331  1.00  0.00    -0.504 OA
ATOM     15  H   UNL     1     -10.047 -10.083  24.705  1.00  0.00     0.293 HD
ENDBRANCH   6  14
TORSDOF 4
ENDMDL
