MODEL 1
REMARK VINA RESULT:    -5.343      0.000      0.000
REMARK INTER + INTRA:          -6.759
REMARK INTER:                  -6.592
REMARK INTRA:                  -0.167
REMARK UNBOUND:                -0.167
REMARK SMILES CCCCC=CC(C)=O
REMARK SMILES IDX 4 1 3 2 2 3 1 4 5 5 6 6 7 7 9 8 8 9
REMARK H PARENT
REMARK Flexibility Score: inf
ROOT
ATOM      1  C   UNL     1      22.566 -21.830  20.959  1.00  0.00     0.027 C 
ENDROOT
BRANCH   1   2
ATOM      2  C   UNL     1      22.528 -23.365  20.902  1.00  0.00     0.004 C 
BRANCH   2   3
ATOM      3  C   UNL     1      22.777 -24.011  22.273  1.00  0.00    -0.003 C 
ATOM      4  C   UNL     1      22.191 -25.419  22.377  1.00  0.00     0.004 C 
ENDBRANCH   2   3
ENDBRANCH   1   2
BRANCH   1   5
ATOM      5  C   UNL     1      21.179 -21.255  21.003  1.00  0.00    -0.023 C 
ATOM      6  C   UNL     1      20.904 -20.146  21.698  1.00  0.00     0.042 C 
BRANCH   6   7
ATOM      7  C   UNL     1      19.547 -19.573  21.764  1.00  0.00     0.152 C 
ATOM      8  O   UNL     1      19.355 -18.422  22.243  1.00  0.00    -0.295 OA
ATOM      9  C   UNL     1      18.384 -20.364  21.258  1.00  0.00     0.093 C 
ENDBRANCH   6   7
ENDBRANCH   1   5
TORSDOF 4
ENDMDL
MODEL 2
REMARK VINA RESULT:    -5.154      5.663      7.277
REMARK INTER + INTRA:          -6.527
REMARK INTER:                  -6.363
REMARK INTRA:                  -0.164
REMARK UNBOUND:                -0.167
REMARK SMILES CCCCC=CC(C)=O
REMARK SMILES IDX 4 1 3 2 2 3 1 4 5 5 6 6 7 7 9 8 8 9
REMARK H PARENT
REMARK Flexibility Score: inf
ROOT
ATOM      1  C   UNL     1      24.210 -19.803  18.839  1.00  0.00     0.027 C 
ENDROOT
BRANCH   1   2
ATOM      2  C   UNL     1      24.148 -20.349  17.404  1.00  0.00     0.004 C 
BRANCH   2   3
ATOM      3  C   UNL     1      24.038 -19.234  16.353  1.00  0.00    -0.003 C 
ATOM      4  C   UNL     1      24.121 -19.762  14.921  1.00  0.00     0.004 C 
ENDBRANCH   2   3
ENDBRANCH   1   2
BRANCH   1   5
ATOM      5  C   UNL     1      25.620 -19.469  19.231  1.00  0.00    -0.023 C 
ATOM      6  C   UNL     1      25.886 -18.584  20.198  1.00  0.00     0.042 C 
BRANCH   6   7
ATOM      7  C   UNL     1      27.264 -18.233  20.590  1.00  0.00     0.152 C 
ATOM      8  O   UNL     1      27.481 -17.374  21.486  1.00  0.00    -0.295 OA
ATOM      9  C   UNL     1      28.418 -18.903  19.915  1.00  0.00     0.093 C 
ENDBRANCH   6   7
ENDBRANCH   1   5
TORSDOF 4
ENDMDL
MODEL 3
REMARK VINA RESULT:    -5.051      4.487      6.391
REMARK INTER + INTRA:          -6.400
REMARK INTER:                  -6.158
REMARK INTRA:                  -0.242
REMARK UNBOUND:                -0.167
REMARK SMILES CCCCC=CC(C)=O
REMARK SMILES IDX 4 1 3 2 2 3 1 4 5 5 6 6 7 7 9 8 8 9
REMARK H PARENT
REMARK Flexibility Score: inf
ROOT
ATOM      1  C   UNL     1      23.328 -22.886  20.083  1.00  0.00     0.027 C 
ENDROOT
BRANCH   1   2
ATOM      2  C   UNL     1      22.321 -23.440  21.104  1.00  0.00     0.004 C 
BRANCH   2   3
ATOM      3  C   UNL     1      23.007 -24.119  22.299  1.00  0.00    -0.003 C 
ATOM      4  C   UNL     1      22.659 -25.602  22.415  1.00  0.00     0.004 C 
ENDBRANCH   2   3
ENDBRANCH   1   2
BRANCH   1   5
ATOM      5  C   UNL     1      23.786 -23.959  19.138  1.00  0.00    -0.023 C 
ATOM      6  C   UNL     1      25.055 -24.381  19.123  1.00  0.00     0.042 C 
BRANCH   6   7
ATOM      7  C   UNL     1      25.528 -25.425  18.194  1.00  0.00     0.152 C 
ATOM      8  O   UNL     1      24.719 -26.042  17.450  1.00  0.00    -0.295 OA
ATOM      9  C   UNL     1      26.985 -25.757  18.135  1.00  0.00     0.093 C 
ENDBRANCH   6   7
ENDBRANCH   1   5
TORSDOF 4
ENDMDL
MODEL 4
REMARK VINA RESULT:    -5.038      6.797      7.908
REMARK INTER + INTRA:          -6.384
REMARK INTER:                  -6.254
REMARK INTRA:                  -0.130
REMARK UNBOUND:                -0.167
REMARK SMILES CCCCC=CC(C)=O
REMARK SMILES IDX 4 1 3 2 2 3 1 4 5 5 6 6 7 7 9 8 8 9
REMARK H PARENT
REMARK Flexibility Score: inf
ROOT
ATOM      1  C   UNL     1      22.664 -22.698  16.181  1.00  0.00     0.027 C 
ENDROOT
BRANCH   1   2
ATOM      2  C   UNL     1      22.658 -21.173  16.371  1.00  0.00     0.004 C 
BRANCH   2   3
ATOM      3  C   UNL     1      23.752 -20.472  15.551  1.00  0.00    -0.003 C 
ATOM      4  C   UNL     1      23.595 -18.952  15.534  1.00  0.00     0.004 C 
ENDBRANCH   2   3
ENDBRANCH   1   2
BRANCH   1   5
ATOM      5  C   UNL     1      21.376 -23.174  15.576  1.00  0.00    -0.023 C 
ATOM      6  C   UNL     1      21.260 -24.399  15.052  1.00  0.00     0.042 C 
BRANCH   6   7
ATOM      7  C   UNL     1      20.008 -24.882  14.442  1.00  0.00     0.152 C 
ATOM      8  O   UNL     1      19.978 -25.967  13.801  1.00  0.00    -0.295 OA
ATOM      9  C   UNL     1      18.756 -24.075  14.584  1.00  0.00     0.093 C 
ENDBRANCH   6   7
ENDBRANCH   1   5
TORSDOF 4
ENDMDL
MODEL 5
REMARK VINA RESULT:    -5.014      7.172      7.798
REMARK INTER + INTRA:          -6.354
REMARK INTER:                  -6.165
REMARK INTRA:                  -0.189
REMARK UNBOUND:                -0.167
REMARK SMILES CCCCC=CC(C)=O
REMARK SMILES IDX 4 1 3 2 2 3 1 4 5 5 6 6 7 7 9 8 8 9
REMARK H PARENT
REMARK Flexibility Score: inf
ROOT
ATOM      1  C   UNL     1      28.373 -21.294  18.730  1.00  0.00     0.027 C 
ENDROOT
BRANCH   1   2
ATOM      2  C   UNL     1      29.273 -22.334  19.415  1.00  0.00     0.004 C 
BRANCH   2   3
ATOM      3  C   UNL     1      28.470 -23.467  20.072  1.00  0.00    -0.003 C 
ATOM      4  C   UNL     1      27.562 -24.197  19.083  1.00  0.00     0.004 C 
ENDBRANCH   2   3
ENDBRANCH   1   2
BRANCH   1   5
ATOM      5  C   UNL     1      28.645 -19.914  19.255  1.00  0.00    -0.023 C 
ATOM      6  C   UNL     1      27.800 -19.306  20.095  1.00  0.00     0.042 C 
BRANCH   6   7
ATOM      7  C   UNL     1      28.042 -17.947  20.612  1.00  0.00     0.152 C 
ATOM      8  O   UNL     1      27.238 -17.411  21.423  1.00  0.00    -0.295 OA
ATOM      9  C   UNL     1      29.255 -17.192  20.170  1.00  0.00     0.093 C 
ENDBRANCH   6   7
ENDBRANCH   1   5
TORSDOF 4
ENDMDL
MODEL 6
REMARK VINA RESULT:    -5.000      2.887      3.860
REMARK INTER + INTRA:          -6.336
REMARK INTER:                  -6.201
REMARK INTRA:                  -0.135
REMARK UNBOUND:                -0.167
REMARK SMILES CCCCC=CC(C)=O
REMARK SMILES IDX 4 1 3 2 2 3 1 4 5 5 6 6 7 7 9 8 8 9
REMARK H PARENT
REMARK Flexibility Score: inf
ROOT
ATOM      1  C   UNL     1      21.943 -22.200  21.044  1.00  0.00     0.027 C 
ENDROOT
BRANCH   1   2
ATOM      2  C   UNL     1      22.776 -23.488  20.957  1.00  0.00     0.004 C 
BRANCH   2   3
ATOM      3  C   UNL     1      22.946 -24.174  22.321  1.00  0.00    -0.003 C 
ATOM      4  C   UNL     1      22.341 -25.577  22.356  1.00  0.00     0.004 C 
ENDBRANCH   2   3
ENDBRANCH   1   2
BRANCH   1   5
ATOM      5  C   UNL     1      22.714 -21.021  20.526  1.00  0.00    -0.023 C 
ATOM      6  C   UNL     1      23.483 -21.113  19.436  1.00  0.00     0.042 C 
BRANCH   6   7
ATOM      7  C   UNL     1      24.258 -19.971  18.917  1.00  0.00     0.152 C 
ATOM      8  O   UNL     1      24.924 -19.235  19.695  1.00  0.00    -0.295 OA
ATOM      9  C   UNL     1      24.254 -19.679  17.450  1.00  0.00     0.093 C 
ENDBRANCH   6   7
ENDBRANCH   1   5
TORSDOF 4
ENDMDL
MODEL 7
REMARK VINA RESULT:    -4.962      2.821      5.302
REMARK INTER + INTRA:          -6.290
REMARK INTER:                  -6.178
REMARK INTRA:                  -0.112
REMARK UNBOUND:                -0.167
REMARK SMILES CCCCC=CC(C)=O
REMARK SMILES IDX 4 1 3 2 2 3 1 4 5 5 6 6 7 7 9 8 8 9
REMARK H PARENT
REMARK Flexibility Score: inf
ROOT
ATOM      1  C   UNL     1      22.215 -20.862  20.895  1.00  0.00     0.027 C 
ENDROOT
BRANCH   1   2
ATOM      2  C   UNL     1      20.742 -20.676  21.290  1.00  0.00     0.004 C 
BRANCH   2   3
ATOM      3  C   UNL     1      20.500 -19.373  22.066  1.00  0.00    -0.003 C 
ATOM      4  C   UNL     1      19.028 -18.961  22.084  1.00  0.00     0.004 C 
ENDBRANCH   2   3
ENDBRANCH   1   2
BRANCH   1   5
ATOM      5  C   UNL     1      22.514 -22.299  20.581  1.00  0.00    -0.023 C 
ATOM      6  C   UNL     1      22.607 -23.221  21.546  1.00  0.00     0.042 C 
BRANCH   6   7
ATOM      7  C   UNL     1      22.912 -24.635  21.259  1.00  0.00     0.152 C 
ATOM      8  O   UNL     1      23.578 -24.959  20.238  1.00  0.00    -0.295 OA
ATOM      9  C   UNL     1      22.425 -25.700  22.190  1.00  0.00     0.093 C 
ENDBRANCH   6   7
ENDBRANCH   1   5
TORSDOF 4
ENDMDL
MODEL 8
REMARK VINA RESULT:    -4.923      6.189      7.942
REMARK INTER + INTRA:          -6.241
REMARK INTER:                  -6.037
REMARK INTRA:                  -0.204
REMARK UNBOUND:                -0.167
REMARK SMILES CCCCC=CC(C)=O
REMARK SMILES IDX 4 1 3 2 2 3 1 4 5 5 6 6 7 7 9 8 8 9
REMARK H PARENT
REMARK Flexibility Score: inf
ROOT
ATOM      1  C   UNL     1      24.408 -20.044  18.765  1.00  0.00     0.027 C 
ENDROOT
BRANCH   1   2
ATOM      2  C   UNL     1      24.125 -20.386  17.294  1.00  0.00     0.004 C 
BRANCH   2   3
ATOM      3  C   UNL     1      24.080 -19.139  16.397  1.00  0.00    -0.003 C 
ATOM      4  C   UNL     1      24.321 -19.464  14.923  1.00  0.00     0.004 C 
ENDBRANCH   2   3
ENDBRANCH   1   2
BRANCH   1   5
ATOM      5  C   UNL     1      25.856 -19.707  18.973  1.00  0.00    -0.023 C 
ATOM      6  C   UNL     1      26.800 -20.655  18.980  1.00  0.00     0.042 C 
BRANCH   6   7
ATOM      7  C   UNL     1      28.226 -20.348  19.195  1.00  0.00     0.152 C 
ATOM      8  O   UNL     1      29.116 -21.207  18.948  1.00  0.00    -0.295 OA
ATOM      9  C   UNL     1      28.623 -19.003  19.715  1.00  0.00     0.093 C 
ENDBRANCH   6   7
ENDBRANCH   1   5
TORSDOF 4
ENDMDL
MODEL 9
REMARK VINA RESULT:    -4.910      4.009      4.653
REMARK INTER + INTRA:          -6.226
REMARK INTER:                  -6.041
REMARK INTRA:                  -0.184
REMARK UNBOUND:                -0.167
REMARK SMILES CCCCC=CC(C)=O
REMARK SMILES IDX 4 1 3 2 2 3 1 4 5 5 6 6 7 7 9 8 8 9
REMARK H PARENT
REMARK Flexibility Score: inf
ROOT
ATOM      1  C   UNL     1      23.827 -24.394  19.990  1.00  0.00     0.027 C 
ENDROOT
BRANCH   1   2
ATOM      2  C   UNL     1      22.983 -23.575  20.979  1.00  0.00     0.004 C 
BRANCH   2   3
ATOM      3  C   UNL     1      22.944 -24.202  22.381  1.00  0.00    -0.003 C 
ATOM      4  C   UNL     1      22.194 -25.533  22.412  1.00  0.00     0.004 C 
ENDBRANCH   2   3
ENDBRANCH   1   2
BRANCH   1   5
ATOM      5  C   UNL     1      23.731 -23.833  18.601  1.00  0.00    -0.023 C 
ATOM      6  C   UNL     1      22.963 -22.772  18.328  1.00  0.00     0.042 C 
BRANCH   6   7
ATOM      7  C   UNL     1      22.845 -22.212  16.969  1.00  0.00     0.152 C 
ATOM      8  O   UNL     1      23.475 -21.169  16.643  1.00  0.00    -0.295 OA
ATOM      9  C   UNL     1      21.967 -22.888  15.964  1.00  0.00     0.093 C 
ENDBRANCH   6   7
ENDBRANCH   1   5
TORSDOF 4
ENDMDL
