MODEL 1
REMARK VINA RESULT:    -5.082      0.000      0.000
REMARK INTER + INTRA:          -7.477
REMARK INTER:                  -6.865
REMARK INTRA:                  -0.612
REMARK UNBOUND:                -0.612
REMARK SMILES COc1ccc(-c2cc(=O)c3c(OC)c(OC)c(OC)c(OC)c3o2)cc1
REMARK SMILES IDX 7 1 8 2 9 3 10 4 11 5 24 6 25 7 21 8 18 9 15 10 12 11 6 12
REMARK SMILES IDX 3 13 4 14 27 15 5 16 26 17 2 18 1 19 22 20 23 21 13 22 14 23
REMARK SMILES IDX 19 24 20 25 16 26 17 27
REMARK H PARENT
REMARK Flexibility Score: inf
ROOT
ATOM      1  C   UNL     1      14.413  48.254  31.391  1.00  0.00     0.138 A 
ATOM      2  C   UNL     1      14.369  49.648  31.469  1.00  0.00     0.100 A 
ATOM      3  C   UNL     1      15.025  50.407  30.504  1.00  0.00     0.197 A 
ATOM      4  O   UNL     1      14.977  51.664  30.597  1.00  0.00    -0.289 OA
ATOM      5  C   UNL     1      15.723  49.763  29.454  1.00  0.00     0.115 A 
ATOM      6  C   UNL     1      15.729  48.346  29.447  1.00  0.00     0.188 A 
ATOM      7  O   UNL     1      15.088  47.676  30.402  1.00  0.00    -0.452 OA
ATOM      8  C   UNL     1      16.402  47.644  28.424  1.00  0.00     0.209 A 
ATOM      9  C   UNL     1      17.022  48.357  27.382  1.00  0.00     0.211 A 
ATOM     10  C   UNL     1      17.060  49.773  27.397  1.00  0.00     0.208 A 
ATOM     11  C   UNL     1      16.407  50.480  28.442  1.00  0.00     0.179 A 
ENDROOT
BRANCH   1  12
ATOM     12  C   UNL     1      13.726  47.401  32.390  1.00  0.00     0.018 A 
ATOM     13  C   UNL     1      12.381  45.831  34.313  1.00  0.00     0.118 A 
ATOM     14  C   UNL     1      13.787  45.844  34.262  1.00  0.00     0.047 A 
ATOM     15  C   UNL     1      11.659  46.609  33.401  1.00  0.00     0.047 A 
ATOM     16  C   UNL     1      14.453  46.623  33.311  1.00  0.00     0.016 A 
ATOM     17  C   UNL     1      12.323  47.390  32.451  1.00  0.00     0.016 A 
BRANCH  13  18
ATOM     18  O   UNL     1      11.667  45.065  35.247  1.00  0.00    -0.497 OA
ATOM     19  C   UNL     1      11.153  45.570  36.475  1.00  0.00     0.278 C 
ENDBRANCH  13  18
ENDBRANCH   1  12
BRANCH   8  20
ATOM     20  O   UNL     1      16.507  46.240  28.395  1.00  0.00    -0.490 OA
ATOM     21  C   UNL     1      17.518  45.448  29.007  1.00  0.00     0.278 C 
ENDBRANCH   8  20
BRANCH  11  22
ATOM     22  O   UNL     1      16.401  51.891  28.519  1.00  0.00    -0.492 OA
ATOM     23  C   UNL     1      15.759  52.809  27.642  1.00  0.00     0.278 C 
ENDBRANCH  11  22
BRANCH   9  24
ATOM     24  O   UNL     1      17.632  47.651  26.337  1.00  0.00    -0.490 OA
ATOM     25  C   UNL     1      16.960  47.317  25.126  1.00  0.00     0.279 C 
ENDBRANCH   9  24
BRANCH  10  26
ATOM     26  O   UNL     1      17.716  50.517  26.397  1.00  0.00    -0.490 OA
ATOM     27  C   UNL     1      19.071  50.953  26.384  1.00  0.00     0.278 C 
ENDBRANCH  10  26
TORSDOF 6
ENDMDL
MODEL 2
REMARK VINA RESULT:    -5.037      1.566      4.121
REMARK INTER + INTRA:          -7.416
REMARK INTER:                  -6.884
REMARK INTRA:                  -0.532
REMARK UNBOUND:                -0.612
REMARK SMILES COc1ccc(-c2cc(=O)c3c(OC)c(OC)c(OC)c(OC)c3o2)cc1
REMARK SMILES IDX 7 1 8 2 9 3 10 4 11 5 24 6 25 7 21 8 18 9 15 10 12 11 6 12
REMARK SMILES IDX 3 13 4 14 27 15 5 16 26 17 2 18 1 19 22 20 23 21 13 22 14 23
REMARK SMILES IDX 19 24 20 25 16 26 17 27
REMARK H PARENT
REMARK Flexibility Score: inf
ROOT
ATOM      1  C   UNL     1      14.924  48.591  30.863  1.00  0.00     0.138 A 
ATOM      2  C   UNL     1      15.743  48.031  29.880  1.00  0.00     0.100 A 
ATOM      3  C   UNL     1      16.293  48.853  28.900  1.00  0.00     0.197 A 
ATOM      4  O   UNL     1      17.024  48.326  28.019  1.00  0.00    -0.289 OA
ATOM      5  C   UNL     1      16.021  50.243  28.911  1.00  0.00     0.115 A 
ATOM      6  C   UNL     1      15.175  50.735  29.935  1.00  0.00     0.188 A 
ATOM      7  O   UNL     1      14.674  49.897  30.841  1.00  0.00    -0.452 OA
ATOM      8  C   UNL     1      14.871  52.111  30.005  1.00  0.00     0.209 A 
ATOM      9  C   UNL     1      15.454  53.000  29.085  1.00  0.00     0.211 A 
ATOM     10  C   UNL     1      16.269  52.519  28.030  1.00  0.00     0.208 A 
ATOM     11  C   UNL     1      16.553  51.130  27.942  1.00  0.00     0.179 A 
ENDROOT
BRANCH   1  12
ATOM     12  C   UNL     1      14.320  47.761  31.932  1.00  0.00     0.018 A 
ATOM     13  C   UNL     1      13.212  46.127  33.952  1.00  0.00     0.118 A 
ATOM     14  C   UNL     1      12.378  46.772  33.020  1.00  0.00     0.047 A 
ATOM     15  C   UNL     1      14.597  46.303  33.862  1.00  0.00     0.047 A 
ATOM     16  C   UNL     1      12.926  47.579  32.019  1.00  0.00     0.016 A 
ATOM     17  C   UNL     1      15.148  47.109  32.861  1.00  0.00     0.016 A 
BRANCH  13  18
ATOM     18  O   UNL     1      12.709  45.308  34.974  1.00  0.00    -0.497 OA
ATOM     19  C   UNL     1      11.514  45.573  35.701  1.00  0.00     0.278 C 
ENDBRANCH  13  18
ENDBRANCH   1  12
BRANCH   8  20
ATOM     20  O   UNL     1      13.982  52.656  30.952  1.00  0.00    -0.490 OA
ATOM     21  C   UNL     1      14.271  52.973  32.308  1.00  0.00     0.278 C 
ENDBRANCH   8  20
BRANCH  11  22
ATOM     22  O   UNL     1      17.359  50.580  26.921  1.00  0.00    -0.492 OA
ATOM     23  C   UNL     1      18.763  50.732  26.742  1.00  0.00     0.278 C 
ENDBRANCH  11  22
BRANCH   9  24
ATOM     24  O   UNL     1      15.198  54.372  29.200  1.00  0.00    -0.490 OA
ATOM     25  C   UNL     1      16.023  55.259  29.952  1.00  0.00     0.279 C 
ENDBRANCH   9  24
BRANCH  10  26
ATOM     26  O   UNL     1      16.827  53.375  27.061  1.00  0.00    -0.490 OA
ATOM     27  C   UNL     1      18.037  54.121  27.151  1.00  0.00     0.278 C 
ENDBRANCH  10  26
TORSDOF 6
ENDMDL
MODEL 3
REMARK VINA RESULT:    -4.951      1.395      1.729
REMARK INTER + INTRA:          -7.300
REMARK INTER:                  -6.668
REMARK INTRA:                  -0.632
REMARK UNBOUND:                -0.612
REMARK SMILES COc1ccc(-c2cc(=O)c3c(OC)c(OC)c(OC)c(OC)c3o2)cc1
REMARK SMILES IDX 7 1 8 2 9 3 10 4 11 5 24 6 25 7 21 8 18 9 15 10 12 11 6 12
REMARK SMILES IDX 3 13 4 14 27 15 5 16 26 17 2 18 1 19 22 20 23 21 13 22 14 23
REMARK SMILES IDX 19 24 20 25 16 26 17 27
REMARK H PARENT
REMARK Flexibility Score: inf
ROOT
ATOM      1  C   UNL     1      14.577  49.180  31.120  1.00  0.00     0.138 A 
ATOM      2  C   UNL     1      14.018  50.456  31.220  1.00  0.00     0.100 A 
ATOM      3  C   UNL     1      14.449  51.460  30.359  1.00  0.00     0.197 A 
ATOM      4  O   UNL     1      13.935  52.606  30.470  1.00  0.00    -0.289 OA
ATOM      5  C   UNL     1      15.443  51.180  29.389  1.00  0.00     0.115 A 
ATOM      6  C   UNL     1      15.968  49.864  29.354  1.00  0.00     0.188 A 
ATOM      7  O   UNL     1      15.519  48.948  30.210  1.00  0.00    -0.452 OA
ATOM      8  C   UNL     1      16.956  49.519  28.408  1.00  0.00     0.209 A 
ATOM      9  C   UNL     1      17.379  50.473  27.464  1.00  0.00     0.211 A 
ATOM     10  C   UNL     1      16.894  51.803  27.512  1.00  0.00     0.208 A 
ATOM     11  C   UNL     1      15.920  52.159  28.483  1.00  0.00     0.179 A 
ENDROOT
BRANCH   1  12
ATOM     12  C   UNL     1      14.149  48.074  32.010  1.00  0.00     0.018 A 
ATOM     13  C   UNL     1      13.283  46.010  33.731  1.00  0.00     0.118 A 
ATOM     14  C   UNL     1      14.644  46.361  33.669  1.00  0.00     0.047 A 
ATOM     15  C   UNL     1      12.364  46.700  32.933  1.00  0.00     0.047 A 
ATOM     16  C   UNL     1      15.072  47.384  32.817  1.00  0.00     0.016 A 
ATOM     17  C   UNL     1      12.790  47.725  32.082  1.00  0.00     0.016 A 
BRANCH  13  18
ATOM     18  O   UNL     1      12.805  44.991  34.568  1.00  0.00    -0.497 OA
ATOM     19  C   UNL     1      11.647  45.102  35.390  1.00  0.00     0.278 C 
ENDBRANCH  13  18
ENDBRANCH   1  12
BRANCH   8  20
ATOM     20  O   UNL     1      17.571  48.253  28.363  1.00  0.00    -0.490 OA
ATOM     21  C   UNL     1      17.085  47.092  27.700  1.00  0.00     0.278 C 
ENDBRANCH   8  20
BRANCH  11  22
ATOM     22  O   UNL     1      15.390  53.464  28.588  1.00  0.00    -0.492 OA
ATOM     23  C   UNL     1      16.044  54.635  29.064  1.00  0.00     0.278 C 
ENDBRANCH  11  22
BRANCH   9  24
ATOM     24  O   UNL     1      18.313  50.103  26.488  1.00  0.00    -0.490 OA
ATOM     25  C   UNL     1      17.949  49.747  25.156  1.00  0.00     0.279 C 
ENDBRANCH   9  24
BRANCH  10  26
ATOM     26  O   UNL     1      17.335  52.796  26.616  1.00  0.00    -0.490 OA
ATOM     27  C   UNL     1      18.562  53.517  26.649  1.00  0.00     0.278 C 
ENDBRANCH  10  26
TORSDOF 6
ENDMDL
MODEL 4
REMARK VINA RESULT:    -4.950      2.023      4.534
REMARK INTER + INTRA:          -7.298
REMARK INTER:                  -6.681
REMARK INTRA:                  -0.617
REMARK UNBOUND:                -0.612
REMARK SMILES COc1ccc(-c2cc(=O)c3c(OC)c(OC)c(OC)c(OC)c3o2)cc1
REMARK SMILES IDX 7 1 8 2 9 3 10 4 11 5 24 6 25 7 21 8 18 9 15 10 12 11 6 12
REMARK SMILES IDX 3 13 4 14 27 15 5 16 26 17 2 18 1 19 22 20 23 21 13 22 14 23
REMARK SMILES IDX 19 24 20 25 16 26 17 27
REMARK H PARENT
REMARK Flexibility Score: inf
ROOT
ATOM      1  C   UNL     1      14.526  49.047  31.070  1.00  0.00     0.138 A 
ATOM      2  C   UNL     1      15.099  48.707  29.842  1.00  0.00     0.100 A 
ATOM      3  C   UNL     1      15.539  49.717  28.991  1.00  0.00     0.197 A 
ATOM      4  O   UNL     1      16.047  49.389  27.885  1.00  0.00    -0.289 OA
ATOM      5  C   UNL     1      15.407  51.073  29.378  1.00  0.00     0.115 A 
ATOM      6  C   UNL     1      14.809  51.338  30.635  1.00  0.00     0.188 A 
ATOM      7  O   UNL     1      14.402  50.328  31.401  1.00  0.00    -0.452 OA
ATOM      8  C   UNL     1      14.654  52.668  31.081  1.00  0.00     0.209 A 
ATOM      9  C   UNL     1      15.145  53.727  30.296  1.00  0.00     0.211 A 
ATOM     10  C   UNL     1      15.708  53.481  29.019  1.00  0.00     0.208 A 
ATOM     11  C   UNL     1      15.838  52.144  28.557  1.00  0.00     0.179 A 
ENDROOT
BRANCH   1  12
ATOM     12  C   UNL     1      14.048  48.009  32.014  1.00  0.00     0.018 A 
ATOM     13  C   UNL     1      13.087  46.076  33.834  1.00  0.00     0.118 A 
ATOM     14  C   UNL     1      14.456  46.397  33.794  1.00  0.00     0.047 A 
ATOM     15  C   UNL     1      12.207  46.730  32.964  1.00  0.00     0.047 A 
ATOM     16  C   UNL     1      14.931  47.355  32.893  1.00  0.00     0.016 A 
ATOM     17  C   UNL     1      12.680  47.690  32.065  1.00  0.00     0.016 A 
BRANCH  13  18
ATOM     18  O   UNL     1      12.562  45.122  34.719  1.00  0.00    -0.497 OA
ATOM     19  C   UNL     1      11.547  45.390  35.681  1.00  0.00     0.278 C 
ENDBRANCH  13  18
ENDBRANCH   1  12
BRANCH   8  20
ATOM     20  O   UNL     1      14.007  53.005  32.285  1.00  0.00    -0.490 OA
ATOM     21  C   UNL     1      14.580  53.021  33.586  1.00  0.00     0.278 C 
ENDBRANCH   8  20
BRANCH  11  22
ATOM     22  O   UNL     1      16.392  51.824  27.298  1.00  0.00    -0.492 OA
ATOM     23  C   UNL     1      17.735  52.005  26.864  1.00  0.00     0.278 C 
ENDBRANCH  11  22
BRANCH   9  24
ATOM     24  O   UNL     1      15.046  55.039  30.776  1.00  0.00    -0.490 OA
ATOM     25  C   UNL     1      16.102  55.697  31.471  1.00  0.00     0.279 C 
ENDBRANCH   9  24
BRANCH  10  26
ATOM     26  O   UNL     1      16.162  54.521  28.186  1.00  0.00    -0.490 OA
ATOM     27  C   UNL     1      15.388  55.343  27.318  1.00  0.00     0.278 C 
ENDBRANCH  10  26
TORSDOF 6
ENDMDL
MODEL 5
REMARK VINA RESULT:    -4.801      2.847      7.982
REMARK INTER + INTRA:          -7.098
REMARK INTER:                  -6.472
REMARK INTRA:                  -0.626
REMARK UNBOUND:                -0.612
REMARK SMILES COc1ccc(-c2cc(=O)c3c(OC)c(OC)c(OC)c(OC)c3o2)cc1
REMARK SMILES IDX 7 1 8 2 9 3 10 4 11 5 24 6 25 7 21 8 18 9 15 10 12 11 6 12
REMARK SMILES IDX 3 13 4 14 27 15 5 16 26 17 2 18 1 19 22 20 23 21 13 22 14 23
REMARK SMILES IDX 19 24 20 25 16 26 17 27
REMARK H PARENT
REMARK Flexibility Score: inf
ROOT
ATOM      1  C   UNL     1      15.734  47.033  30.318  1.00  0.00     0.138 A 
ATOM      2  C   UNL     1      15.311  47.503  31.563  1.00  0.00     0.100 A 
ATOM      3  C   UNL     1      14.776  46.608  32.486  1.00  0.00     0.197 A 
ATOM      4  O   UNL     1      14.395  47.055  33.601  1.00  0.00    -0.289 OA
ATOM      5  C   UNL     1      14.670  45.235  32.156  1.00  0.00     0.115 A 
ATOM      6  C   UNL     1      15.113  44.836  30.871  1.00  0.00     0.188 A 
ATOM      7  O   UNL     1      15.610  45.741  30.031  1.00  0.00    -0.452 OA
ATOM      8  C   UNL     1      15.041  43.481  30.485  1.00  0.00     0.209 A 
ATOM      9  C   UNL     1      14.577  42.519  31.401  1.00  0.00     0.211 A 
ATOM     10  C   UNL     1      14.092  42.908  32.675  1.00  0.00     0.208 A 
ATOM     11  C   UNL     1      14.138  44.276  33.054  1.00  0.00     0.179 A 
ENDROOT
BRANCH   1  12
ATOM     12  C   UNL     1      16.316  47.944  29.304  1.00  0.00     0.018 A 
ATOM     13  C   UNL     1      17.478  49.636  27.364  1.00  0.00     0.118 A 
ATOM     14  C   UNL     1      17.058  50.155  28.602  1.00  0.00     0.047 A 
ATOM     15  C   UNL     1      17.315  48.270  27.108  1.00  0.00     0.047 A 
ATOM     16  C   UNL     1      16.484  49.317  29.563  1.00  0.00     0.016 A 
ATOM     17  C   UNL     1      16.743  47.430  28.068  1.00  0.00     0.016 A 
BRANCH  13  18
ATOM     18  O   UNL     1      18.057  50.436  26.368  1.00  0.00    -0.497 OA
ATOM     19  C   UNL     1      19.337  51.051  26.475  1.00  0.00     0.278 C 
ENDBRANCH  13  18
ENDBRANCH   1  12
BRANCH   8  20
ATOM     20  O   UNL     1      15.397  43.026  29.201  1.00  0.00    -0.490 OA
ATOM     21  C   UNL     1      16.706  42.714  28.740  1.00  0.00     0.278 C 
ENDBRANCH   8  20
BRANCH  11  22
ATOM     22  O   UNL     1      13.675  44.736  34.307  1.00  0.00    -0.492 OA
ATOM     23  C   UNL     1      12.327  44.912  34.727  1.00  0.00     0.278 C 
ENDBRANCH  11  22
BRANCH   9  24
ATOM     24  O   UNL     1      14.568  41.168  31.032  1.00  0.00    -0.490 OA
ATOM     25  C   UNL     1      15.553  40.235  31.469  1.00  0.00     0.279 C 
ENDBRANCH   9  24
BRANCH  10  26
ATOM     26  O   UNL     1      13.572  41.979  33.596  1.00  0.00    -0.490 OA
ATOM     27  C   UNL     1      12.288  41.365  33.584  1.00  0.00     0.278 C 
ENDBRANCH  10  26
TORSDOF 6
ENDMDL
MODEL 6
REMARK VINA RESULT:    -4.762      3.105      7.133
REMARK INTER + INTRA:          -7.045
REMARK INTER:                  -6.433
REMARK INTRA:                  -0.612
REMARK UNBOUND:                -0.612
REMARK SMILES COc1ccc(-c2cc(=O)c3c(OC)c(OC)c(OC)c(OC)c3o2)cc1
REMARK SMILES IDX 7 1 8 2 9 3 10 4 11 5 24 6 25 7 21 8 18 9 15 10 12 11 6 12
REMARK SMILES IDX 3 13 4 14 27 15 5 16 26 17 2 18 1 19 22 20 23 21 13 22 14 23
REMARK SMILES IDX 19 24 20 25 16 26 17 27
REMARK H PARENT
REMARK Flexibility Score: inf
ROOT
ATOM      1  C   UNL     1      14.890  47.119  31.434  1.00  0.00     0.138 A 
ATOM      2  C   UNL     1      14.309  46.651  32.615  1.00  0.00     0.100 A 
ATOM      3  C   UNL     1      14.212  45.279  32.832  1.00  0.00     0.197 A 
ATOM      4  O   UNL     1      13.679  44.879  33.902  1.00  0.00    -0.289 OA
ATOM      5  C   UNL     1      14.706  44.375  31.861  1.00  0.00     0.115 A 
ATOM      6  C   UNL     1      15.275  44.925  30.686  1.00  0.00     0.188 A 
ATOM      7  O   UNL     1      15.332  46.247  30.534  1.00  0.00    -0.452 OA
ATOM      8  C   UNL     1      15.791  44.078  29.683  1.00  0.00     0.209 A 
ATOM      9  C   UNL     1      15.787  42.685  29.879  1.00  0.00     0.211 A 
ATOM     10  C   UNL     1      15.185  42.117  31.029  1.00  0.00     0.208 A 
ATOM     11  C   UNL     1      14.640  42.969  32.026  1.00  0.00     0.179 A 
ENDROOT
BRANCH   1  12
ATOM     12  C   UNL     1      15.021  48.569  31.158  1.00  0.00     0.018 A 
ATOM     13  C   UNL     1      15.211  51.330  30.597  1.00  0.00     0.118 A 
ATOM     14  C   UNL     1      16.287  50.470  30.311  1.00  0.00     0.047 A 
ATOM     15  C   UNL     1      14.045  50.799  31.159  1.00  0.00     0.047 A 
ATOM     16  C   UNL     1      16.192  49.103  30.588  1.00  0.00     0.016 A 
ATOM     17  C   UNL     1      13.947  49.432  31.434  1.00  0.00     0.016 A 
BRANCH  13  18
ATOM     18  O   UNL     1      15.259  52.708  30.340  1.00  0.00    -0.497 OA
ATOM     19  C   UNL     1      15.368  53.711  31.345  1.00  0.00     0.278 C 
ENDBRANCH  13  18
ENDBRANCH   1  12
BRANCH   8  20
ATOM     20  O   UNL     1      16.304  44.554  28.462  1.00  0.00    -0.490 OA
ATOM     21  C   UNL     1      17.632  44.998  28.210  1.00  0.00     0.278 C 
ENDBRANCH   8  20
BRANCH  11  22
ATOM     22  O   UNL     1      14.028  42.475  33.200  1.00  0.00    -0.492 OA
ATOM     23  C   UNL     1      12.831  41.710  33.303  1.00  0.00     0.278 C 
ENDBRANCH  11  22
BRANCH   9  24
ATOM     24  O   UNL     1      16.359  41.854  28.907  1.00  0.00    -0.490 OA
ATOM     25  C   UNL     1      15.601  41.221  27.879  1.00  0.00     0.279 C 
ENDBRANCH   9  24
BRANCH  10  26
ATOM     26  O   UNL     1      15.117  40.725  31.233  1.00  0.00    -0.490 OA
ATOM     27  C   UNL     1      16.120  39.875  31.778  1.00  0.00     0.278 C 
ENDBRANCH  10  26
TORSDOF 6
ENDMDL
MODEL 7
REMARK VINA RESULT:    -4.720      3.385      6.286
REMARK INTER + INTRA:          -6.988
REMARK INTER:                  -6.364
REMARK INTRA:                  -0.624
REMARK UNBOUND:                -0.612
REMARK SMILES COc1ccc(-c2cc(=O)c3c(OC)c(OC)c(OC)c(OC)c3o2)cc1
REMARK SMILES IDX 7 1 8 2 9 3 10 4 11 5 24 6 25 7 21 8 18 9 15 10 12 11 6 12
REMARK SMILES IDX 3 13 4 14 27 15 5 16 26 17 2 18 1 19 22 20 23 21 13 22 14 23
REMARK SMILES IDX 19 24 20 25 16 26 17 27
REMARK H PARENT
REMARK Flexibility Score: inf
ROOT
ATOM      1  C   UNL     1      15.331  50.844  30.451  1.00  0.00     0.138 A 
ATOM      2  C   UNL     1      15.283  51.160  29.091  1.00  0.00     0.100 A 
ATOM      3  C   UNL     1      15.323  52.495  28.699  1.00  0.00     0.197 A 
ATOM      4  O   UNL     1      15.272  52.759  27.467  1.00  0.00    -0.289 OA
ATOM      5  C   UNL     1      15.416  53.516  29.677  1.00  0.00     0.115 A 
ATOM      6  C   UNL     1      15.452  53.116  31.036  1.00  0.00     0.188 A 
ATOM      7  O   UNL     1      15.404  51.823  31.348  1.00  0.00    -0.452 OA
ATOM      8  C   UNL     1      15.551  54.084  32.058  1.00  0.00     0.209 A 
ATOM      9  C   UNL     1      15.668  55.445  31.719  1.00  0.00     0.211 A 
ATOM     10  C   UNL     1      15.592  55.863  30.367  1.00  0.00     0.208 A 
ATOM     11  C   UNL     1      15.463  54.891  29.339  1.00  0.00     0.179 A 
ENDROOT
BRANCH   1  12
ATOM     12  C   UNL     1      15.298  49.438  30.920  1.00  0.00     0.018 A 
ATOM     13  C   UNL     1      15.245  46.739  31.749  1.00  0.00     0.118 A 
ATOM     14  C   UNL     1      14.201  47.613  32.102  1.00  0.00     0.047 A 
ATOM     15  C   UNL     1      16.308  47.224  30.978  1.00  0.00     0.047 A 
ATOM     16  C   UNL     1      14.226  48.949  31.691  1.00  0.00     0.016 A 
ATOM     17  C   UNL     1      16.334  48.559  30.564  1.00  0.00     0.016 A 
BRANCH  13  18
ATOM     18  O   UNL     1      15.266  45.392  32.139  1.00  0.00    -0.497 OA
ATOM     19  C   UNL     1      14.117  44.655  32.546  1.00  0.00     0.278 C 
ENDBRANCH  13  18
ENDBRANCH   1  12
BRANCH   8  20
ATOM     20  O   UNL     1      15.521  53.763  33.428  1.00  0.00    -0.490 OA
ATOM     21  C   UNL     1      14.367  53.503  34.218  1.00  0.00     0.278 C 
ENDBRANCH   8  20
BRANCH  11  22
ATOM     22  O   UNL     1      15.385  55.234  27.972  1.00  0.00    -0.492 OA
ATOM     23  C   UNL     1      16.393  55.830  27.163  1.00  0.00     0.278 C 
ENDBRANCH  11  22
BRANCH   9  24
ATOM     24  O   UNL     1      15.830  56.393  32.737  1.00  0.00    -0.490 OA
ATOM     25  C   UNL     1      14.745  57.128  33.297  1.00  0.00     0.279 C 
ENDBRANCH   9  24
BRANCH  10  26
ATOM     26  O   UNL     1      15.653  57.220  29.997  1.00  0.00    -0.490 OA
ATOM     27  C   UNL     1      14.566  58.103  29.742  1.00  0.00     0.278 C 
ENDBRANCH  10  26
TORSDOF 6
ENDMDL
MODEL 8
REMARK VINA RESULT:    -4.701      3.062      5.144
REMARK INTER + INTRA:          -6.963
REMARK INTER:                  -6.283
REMARK INTRA:                  -0.680
REMARK UNBOUND:                -0.612
REMARK SMILES COc1ccc(-c2cc(=O)c3c(OC)c(OC)c(OC)c(OC)c3o2)cc1
REMARK SMILES IDX 7 1 8 2 9 3 10 4 11 5 24 6 25 7 21 8 18 9 15 10 12 11 6 12
REMARK SMILES IDX 3 13 4 14 27 15 5 16 26 17 2 18 1 19 22 20 23 21 13 22 14 23
REMARK SMILES IDX 19 24 20 25 16 26 17 27
REMARK H PARENT
REMARK Flexibility Score: inf
ROOT
ATOM      1  C   UNL     1      14.966  51.888  31.182  1.00  0.00     0.138 A 
ATOM      2  C   UNL     1      15.274  52.477  29.953  1.00  0.00     0.100 A 
ATOM      3  C   UNL     1      15.833  51.698  28.943  1.00  0.00     0.197 A 
ATOM      4  O   UNL     1      16.108  52.251  27.845  1.00  0.00    -0.289 OA
ATOM      5  C   UNL     1      16.077  50.321  29.167  1.00  0.00     0.115 A 
ATOM      6  C   UNL     1      15.745  49.798  30.442  1.00  0.00     0.188 A 
ATOM      7  O   UNL     1      15.220  50.596  31.369  1.00  0.00    -0.452 OA
ATOM      8  C   UNL     1      15.958  48.433  30.726  1.00  0.00     0.209 A 
ATOM      9  C   UNL     1      16.452  47.581  29.721  1.00  0.00     0.211 A 
ATOM     10  C   UNL     1      16.827  48.097  28.455  1.00  0.00     0.208 A 
ATOM     11  C   UNL     1      16.640  49.477  28.178  1.00  0.00     0.179 A 
ENDROOT
BRANCH   1  12
ATOM     12  C   UNL     1      14.365  52.672  32.287  1.00  0.00     0.018 A 
ATOM     13  C   UNL     1      13.214  54.219  34.350  1.00  0.00     0.118 A 
ATOM     14  C   UNL     1      14.435  53.551  34.557  1.00  0.00     0.047 A 
ATOM     15  C   UNL     1      12.581  54.110  33.107  1.00  0.00     0.047 A 
ATOM     16  C   UNL     1      15.005  52.786  33.536  1.00  0.00     0.016 A 
ATOM     17  C   UNL     1      13.151  53.347  32.083  1.00  0.00     0.016 A 
BRANCH  13  18
ATOM     18  O   UNL     1      12.602  54.997  35.343  1.00  0.00    -0.497 OA
ATOM     19  C   UNL     1      11.704  56.072  35.084  1.00  0.00     0.278 C 
ENDBRANCH  13  18
ENDBRANCH   1  12
BRANCH   8  20
ATOM     20  O   UNL     1      15.717  47.863  31.991  1.00  0.00    -0.490 OA
ATOM     21  C   UNL     1      14.461  47.445  32.513  1.00  0.00     0.278 C 
ENDBRANCH   8  20
BRANCH  11  22
ATOM     22  O   UNL     1      16.987  50.060  26.939  1.00  0.00    -0.492 OA
ATOM     23  C   UNL     1      18.293  50.296  26.423  1.00  0.00     0.278 C 
ENDBRANCH  11  22
BRANCH   9  24
ATOM     24  O   UNL     1      16.600  46.215  29.991  1.00  0.00    -0.490 OA
ATOM     25  C   UNL     1      15.593  45.249  29.702  1.00  0.00     0.279 C 
ENDBRANCH   9  24
BRANCH  10  26
ATOM     26  O   UNL     1      17.373  47.283  27.445  1.00  0.00    -0.490 OA
ATOM     27  C   UNL     1      16.681  46.614  26.396  1.00  0.00     0.278 C 
ENDBRANCH  10  26
TORSDOF 6
ENDMDL
MODEL 9
REMARK VINA RESULT:    -4.654      2.905      6.655
REMARK INTER + INTRA:          -6.899
REMARK INTER:                  -6.357
REMARK INTRA:                  -0.542
REMARK UNBOUND:                -0.612
REMARK SMILES COc1ccc(-c2cc(=O)c3c(OC)c(OC)c(OC)c(OC)c3o2)cc1
REMARK SMILES IDX 7 1 8 2 9 3 10 4 11 5 24 6 25 7 21 8 18 9 15 10 12 11 6 12
REMARK SMILES IDX 3 13 4 14 27 15 5 16 26 17 2 18 1 19 22 20 23 21 13 22 14 23
REMARK SMILES IDX 19 24 20 25 16 26 17 27
REMARK H PARENT
REMARK Flexibility Score: inf
ROOT
ATOM      1  C   UNL     1      15.000  50.289  31.258  1.00  0.00     0.138 A 
ATOM      2  C   UNL     1      16.171  50.066  30.529  1.00  0.00     0.100 A 
ATOM      3  C   UNL     1      16.568  48.759  30.257  1.00  0.00     0.197 A 
ATOM      4  O   UNL     1      17.631  48.581  29.604  1.00  0.00    -0.289 OA
ATOM      5  C   UNL     1      15.782  47.673  30.715  1.00  0.00     0.115 A 
ATOM      6  C   UNL     1      14.613  47.979  31.454  1.00  0.00     0.188 A 
ATOM      7  O   UNL     1      14.290  49.250  31.687  1.00  0.00    -0.452 OA
ATOM      8  C   UNL     1      13.784  46.943  31.932  1.00  0.00     0.209 A 
ATOM      9  C   UNL     1      14.095  45.606  31.626  1.00  0.00     0.211 A 
ATOM     10  C   UNL     1      15.283  45.281  30.924  1.00  0.00     0.208 A 
ATOM     11  C   UNL     1      16.133  46.323  30.467  1.00  0.00     0.179 A 
ENDROOT
BRANCH   1  12
ATOM     12  C   UNL     1      14.531  51.660  31.569  1.00  0.00     0.018 A 
ATOM     13  C   UNL     1      13.657  54.263  32.227  1.00  0.00     0.118 A 
ATOM     14  C   UNL     1      12.808  53.381  31.535  1.00  0.00     0.047 A 
ATOM     15  C   UNL     1      14.938  53.832  32.589  1.00  0.00     0.047 A 
ATOM     16  C   UNL     1      13.241  52.092  31.209  1.00  0.00     0.016 A 
ATOM     17  C   UNL     1      15.372  52.543  32.267  1.00  0.00     0.016 A 
BRANCH  13  18
ATOM     18  O   UNL     1      13.270  55.566  32.575  1.00  0.00    -0.497 OA
ATOM     19  C   UNL     1      13.999  56.413  33.457  1.00  0.00     0.278 C 
ENDBRANCH  13  18
ENDBRANCH   1  12
BRANCH   8  20
ATOM     20  O   UNL     1      12.647  47.172  32.731  1.00  0.00    -0.490 OA
ATOM     21  C   UNL     1      11.324  47.429  32.277  1.00  0.00     0.278 C 
ENDBRANCH   8  20
BRANCH  11  22
ATOM     22  O   UNL     1      17.329  46.075  29.759  1.00  0.00    -0.492 OA
ATOM     23  C   UNL     1      17.470  45.598  28.425  1.00  0.00     0.278 C 
ENDBRANCH  11  22
BRANCH   9  24
ATOM     24  O   UNL     1      13.233  44.586  32.050  1.00  0.00    -0.490 OA
ATOM     25  C   UNL     1      13.406  43.879  33.275  1.00  0.00     0.279 C 
ENDBRANCH   9  24
BRANCH  10  26
ATOM     26  O   UNL     1      15.651  43.951  30.646  1.00  0.00    -0.490 OA
ATOM     27  C   UNL     1      15.110  43.086  29.654  1.00  0.00     0.278 C 
ENDBRANCH  10  26
TORSDOF 6
ENDMDL
