MODEL 1
REMARK VINA RESULT:    -6.617      0.000      0.000
REMARK INTER + INTRA:          -8.079
REMARK INTER:                  -7.777
REMARK INTRA:                  -0.301
REMARK UNBOUND:                -0.301
REMARK SMILES O=c1cc(-c2ccc(O)c(O)c2)oc2cc(O)cc(O)c12
REMARK SMILES IDX 4 1 3 2 2 3 1 4 21 5 19 6 18 7 16 8 15 9 14 10 13 11 5 12
REMARK SMILES IDX 6 13 7 14 8 15 12 16 10 17 9 18 11 20 20 22 17 24
REMARK H PARENT 9 19 11 21 20 23 17 25
REMARK Flexibility Score: inf
ROOT
ATOM      1  C   UNL     1      69.431  48.357   8.470  1.00  0.00     0.138 A 
ATOM      2  C   UNL     1      70.385  48.389   9.497  1.00  0.00     0.100 A 
ATOM      3  C   UNL     1      71.743  48.326   9.179  1.00  0.00     0.197 A 
ATOM      4  O   UNL     1      72.573  48.294  10.125  1.00  0.00    -0.289 OA
ATOM      5  C   UNL     1      72.146  48.261   7.825  1.00  0.00     0.107 A 
ATOM      6  C   UNL     1      73.502  48.234   7.381  1.00  0.00     0.134 A 
ATOM      7  C   UNL     1      73.780  48.052   6.021  1.00  0.00     0.093 A 
ATOM      8  C   UNL     1      72.749  47.957   5.080  1.00  0.00     0.123 A 
ATOM      9  C   UNL     1      71.423  48.036   5.498  1.00  0.00     0.094 A 
ATOM     10  C   UNL     1      71.113  48.183   6.852  1.00  0.00     0.146 A 
ATOM     11  O   UNL     1      69.835  48.240   7.210  1.00  0.00    -0.456 OA
ENDROOT
BRANCH   1  12
ATOM     12  C   UNL     1      67.974  48.423   8.752  1.00  0.00     0.021 A 
ATOM     13  C   UNL     1      67.512  49.215   9.818  1.00  0.00     0.016 A 
ATOM     14  C   UNL     1      66.148  49.288  10.109  1.00  0.00     0.051 A 
ATOM     15  C   UNL     1      65.223  48.567   9.350  1.00  0.00     0.157 A 
ATOM     16  C   UNL     1      67.040  47.687   7.998  1.00  0.00     0.062 A 
ATOM     17  C   UNL     1      65.670  47.759   8.292  1.00  0.00     0.158 A 
BRANCH  15  18
ATOM     18  O   UNL     1      63.868  48.662   9.663  1.00  0.00    -0.504 OA
ATOM     19  H   UNL     1      63.305  47.845   9.869  1.00  0.00     0.293 HD
ENDBRANCH  15  18
BRANCH  17  20
ATOM     20  O   UNL     1      64.753  47.028   7.537  1.00  0.00    -0.504 OA
ATOM     21  H   UNL     1      63.829  47.389   7.327  1.00  0.00     0.293 HD
ENDBRANCH  17  20
ENDBRANCH   1  12
BRANCH   6  22
ATOM     22  O   UNL     1      74.604  48.405   8.225  1.00  0.00    -0.507 OA
ATOM     23  H   UNL     1      75.446  47.850   8.193  1.00  0.00     0.293 HD
ENDBRANCH   6  22
BRANCH   8  24
ATOM     24  O   UNL     1      73.035  47.790   3.727  1.00  0.00    -0.508 OA
ATOM     25  H   UNL     1      73.925  47.420   3.415  1.00  0.00     0.293 HD
ENDBRANCH   8  24
TORSDOF 5
ENDMDL
MODEL 2
REMARK VINA RESULT:    -6.418      1.254      2.644
REMARK INTER + INTRA:          -7.844
REMARK INTER:                  -7.572
REMARK INTRA:                  -0.272
REMARK UNBOUND:                -0.301
REMARK SMILES O=c1cc(-c2ccc(O)c(O)c2)oc2cc(O)cc(O)c12
REMARK SMILES IDX 4 1 3 2 2 3 1 4 21 5 19 6 18 7 16 8 15 9 14 10 13 11 5 12
REMARK SMILES IDX 6 13 7 14 8 15 12 16 10 17 9 18 11 20 20 22 17 24
REMARK H PARENT 9 19 11 21 20 23 17 25
REMARK Flexibility Score: inf
ROOT
ATOM      1  C   UNL     1      69.054  48.120   7.869  1.00  0.00     0.138 A 
ATOM      2  C   UNL     1      69.406  48.495   6.566  1.00  0.00     0.100 A 
ATOM      3  C   UNL     1      70.748  48.476   6.180  1.00  0.00     0.197 A 
ATOM      4  O   UNL     1      71.040  48.877   5.023  1.00  0.00    -0.289 OA
ATOM      5  C   UNL     1      71.737  48.049   7.097  1.00  0.00     0.107 A 
ATOM      6  C   UNL     1      73.130  47.949   6.803  1.00  0.00     0.134 A 
ATOM      7  C   UNL     1      74.030  47.626   7.825  1.00  0.00     0.093 A 
ATOM      8  C   UNL     1      73.581  47.338   9.118  1.00  0.00     0.123 A 
ATOM      9  C   UNL     1      72.218  47.380   9.401  1.00  0.00     0.094 A 
ATOM     10  C   UNL     1      71.298  47.733   8.411  1.00  0.00     0.146 A 
ATOM     11  O   UNL     1      70.008  47.775   8.727  1.00  0.00    -0.456 OA
ENDROOT
BRANCH   1  12
ATOM     12  C   UNL     1      67.643  48.120   8.330  1.00  0.00     0.021 A 
ATOM     13  C   UNL     1      67.299  48.815   9.503  1.00  0.00     0.016 A 
ATOM     14  C   UNL     1      65.981  48.824   9.963  1.00  0.00     0.051 A 
ATOM     15  C   UNL     1      64.984  48.136   9.267  1.00  0.00     0.157 A 
ATOM     16  C   UNL     1      66.638  47.417   7.639  1.00  0.00     0.062 A 
ATOM     17  C   UNL     1      65.313  47.425   8.101  1.00  0.00     0.158 A 
BRANCH  15  18
ATOM     18  O   UNL     1      63.676  48.166   9.749  1.00  0.00    -0.504 OA
ATOM     19  H   UNL     1      62.873  48.133   9.131  1.00  0.00     0.293 HD
ENDBRANCH  15  18
BRANCH  17  20
ATOM     20  O   UNL     1      64.325  46.726   7.408  1.00  0.00    -0.504 OA
ATOM     21  H   UNL     1      64.514  46.280   6.518  1.00  0.00     0.293 HD
ENDBRANCH  17  20
ENDBRANCH   1  12
BRANCH   6  22
ATOM     22  O   UNL     1      73.674  48.134   5.528  1.00  0.00    -0.507 OA
ATOM     23  H   UNL     1      74.184  47.433   5.012  1.00  0.00     0.293 HD
ENDBRANCH   6  22
BRANCH   8  24
ATOM     24  O   UNL     1      74.483  47.003  10.125  1.00  0.00    -0.508 OA
ATOM     25  H   UNL     1      75.030  46.152  10.084  1.00  0.00     0.293 HD
ENDBRANCH   8  24
TORSDOF 5
ENDMDL
MODEL 3
REMARK VINA RESULT:    -6.159      4.077      7.076
REMARK INTER + INTRA:          -7.540
REMARK INTER:                  -7.275
REMARK INTRA:                  -0.265
REMARK UNBOUND:                -0.301
REMARK SMILES O=c1cc(-c2ccc(O)c(O)c2)oc2cc(O)cc(O)c12
REMARK SMILES IDX 4 1 3 2 2 3 1 4 21 5 19 6 18 7 16 8 15 9 14 10 13 11 5 12
REMARK SMILES IDX 6 13 7 14 8 15 12 16 10 17 9 18 11 20 20 22 17 24
REMARK H PARENT 9 19 11 21 20 23 17 25
REMARK Flexibility Score: inf
ROOT
ATOM      1  C   UNL     1      72.294  46.200   5.309  1.00  0.00     0.138 A 
ATOM      2  C   UNL     1      71.903  46.888   6.466  1.00  0.00     0.100 A 
ATOM      3  C   UNL     1      71.237  48.110   6.350  1.00  0.00     0.197 A 
ATOM      4  O   UNL     1      70.954  48.734   7.406  1.00  0.00    -0.289 OA
ATOM      5  C   UNL     1      70.934  48.628   5.069  1.00  0.00     0.107 A 
ATOM      6  C   UNL     1      70.223  49.842   4.830  1.00  0.00     0.134 A 
ATOM      7  C   UNL     1      70.084  50.314   3.520  1.00  0.00     0.093 A 
ATOM      8  C   UNL     1      70.577  49.584   2.434  1.00  0.00     0.123 A 
ATOM      9  C   UNL     1      71.224  48.370   2.653  1.00  0.00     0.094 A 
ATOM     10  C   UNL     1      71.410  47.890   3.952  1.00  0.00     0.146 A 
ATOM     11  O   UNL     1      72.046  46.735   4.118  1.00  0.00    -0.456 OA
ENDROOT
BRANCH   1  12
ATOM     12  C   UNL     1      73.003  44.897   5.374  1.00  0.00     0.021 A 
ATOM     13  C   UNL     1      74.373  44.871   5.686  1.00  0.00     0.016 A 
ATOM     14  C   UNL     1      75.066  43.660   5.746  1.00  0.00     0.051 A 
ATOM     15  C   UNL     1      74.407  42.455   5.489  1.00  0.00     0.157 A 
ATOM     16  C   UNL     1      72.346  43.682   5.103  1.00  0.00     0.062 A 
ATOM     17  C   UNL     1      73.041  42.465   5.161  1.00  0.00     0.158 A 
BRANCH  15  18
ATOM     18  O   UNL     1      75.124  41.262   5.559  1.00  0.00    -0.504 OA
ATOM     19  H   UNL     1      74.665  40.362   5.648  1.00  0.00     0.293 HD
ENDBRANCH  15  18
BRANCH  17  20
ATOM     20  O   UNL     1      72.380  41.266   4.892  1.00  0.00    -0.504 OA
ATOM     21  H   UNL     1      71.957  41.084   3.990  1.00  0.00     0.293 HD
ENDBRANCH  17  20
ENDBRANCH   1  12
BRANCH   6  22
ATOM     22  O   UNL     1      69.620  50.604   5.835  1.00  0.00    -0.507 OA
ATOM     23  H   UNL     1      70.068  51.357   6.335  1.00  0.00     0.293 HD
ENDBRANCH   6  22
BRANCH   8  24
ATOM     24  O   UNL     1      70.420  50.054   1.132  1.00  0.00    -0.508 OA
ATOM     25  H   UNL     1      69.642  49.763   0.553  1.00  0.00     0.293 HD
ENDBRANCH   8  24
TORSDOF 5
ENDMDL
MODEL 4
REMARK VINA RESULT:    -6.035      1.792      6.952
REMARK INTER + INTRA:          -7.395
REMARK INTER:                  -7.077
REMARK INTRA:                  -0.318
REMARK UNBOUND:                -0.301
REMARK SMILES O=c1cc(-c2ccc(O)c(O)c2)oc2cc(O)cc(O)c12
REMARK SMILES IDX 4 1 3 2 2 3 1 4 21 5 19 6 18 7 16 8 15 9 14 10 13 11 5 12
REMARK SMILES IDX 6 13 7 14 8 15 12 16 10 17 9 18 11 20 20 22 17 24
REMARK H PARENT 9 19 11 21 20 23 17 25
REMARK Flexibility Score: inf
ROOT
ATOM      1  C   UNL     1      69.087  48.066   8.799  1.00  0.00     0.138 A 
ATOM      2  C   UNL     1      68.394  49.089   9.462  1.00  0.00     0.100 A 
ATOM      3  C   UNL     1      67.005  49.017   9.580  1.00  0.00     0.197 A 
ATOM      4  O   UNL     1      66.404  49.980  10.125  1.00  0.00    -0.289 OA
ATOM      5  C   UNL     1      66.312  47.899   9.059  1.00  0.00     0.107 A 
ATOM      6  C   UNL     1      64.902  47.698   9.158  1.00  0.00     0.134 A 
ATOM      7  C   UNL     1      64.312  46.611   8.502  1.00  0.00     0.093 A 
ATOM      8  C   UNL     1      65.089  45.682   7.803  1.00  0.00     0.123 A 
ATOM      9  C   UNL     1      66.472  45.840   7.747  1.00  0.00     0.094 A 
ATOM     10  C   UNL     1      67.086  46.934   8.361  1.00  0.00     0.146 A 
ATOM     11  O   UNL     1      68.406  47.055   8.272  1.00  0.00    -0.456 OA
ENDROOT
BRANCH   1  12
ATOM     12  C   UNL     1      70.564  48.093   8.647  1.00  0.00     0.021 A 
ATOM     13  C   UNL     1      71.291  49.186   9.149  1.00  0.00     0.016 A 
ATOM     14  C   UNL     1      72.680  49.239   9.011  1.00  0.00     0.051 A 
ATOM     15  C   UNL     1      73.366  48.209   8.365  1.00  0.00     0.157 A 
ATOM     16  C   UNL     1      71.258  47.063   7.984  1.00  0.00     0.062 A 
ATOM     17  C   UNL     1      72.653  47.116   7.844  1.00  0.00     0.158 A 
BRANCH  15  18
ATOM     18  O   UNL     1      74.753  48.289   8.245  1.00  0.00    -0.504 OA
ATOM     19  H   UNL     1      75.243  47.948   7.426  1.00  0.00     0.293 HD
ENDBRANCH  15  18
BRANCH  17  20
ATOM     20  O   UNL     1      73.331  46.090   7.187  1.00  0.00    -0.504 OA
ATOM     21  H   UNL     1      73.732  45.309   7.693  1.00  0.00     0.293 HD
ENDBRANCH  17  20
ENDBRANCH   1  12
BRANCH   6  22
ATOM     22  O   UNL     1      64.046  48.518   9.900  1.00  0.00    -0.507 OA
ATOM     23  H   UNL     1      63.722  49.427   9.608  1.00  0.00     0.293 HD
ENDBRANCH   6  22
BRANCH   8  24
ATOM     24  O   UNL     1      64.495  44.595   7.166  1.00  0.00    -0.508 OA
ATOM     25  H   UNL     1      65.039  43.797   6.860  1.00  0.00     0.293 HD
ENDBRANCH   8  24
TORSDOF 5
ENDMDL
MODEL 5
REMARK VINA RESULT:    -5.459      2.157      2.400
REMARK INTER + INTRA:          -6.717
REMARK INTER:                  -6.454
REMARK INTRA:                  -0.264
REMARK UNBOUND:                -0.301
REMARK SMILES O=c1cc(-c2ccc(O)c(O)c2)oc2cc(O)cc(O)c12
REMARK SMILES IDX 4 1 3 2 2 3 1 4 21 5 19 6 18 7 16 8 15 9 14 10 13 11 5 12
REMARK SMILES IDX 6 13 7 14 8 15 12 16 10 17 9 18 11 20 20 22 17 24
REMARK H PARENT 9 19 11 21 20 23 17 25
REMARK Flexibility Score: inf
ROOT
ATOM      1  C   UNL     1      69.488  46.692   7.516  1.00  0.00     0.138 A 
ATOM      2  C   UNL     1      69.835  45.349   7.719  1.00  0.00     0.100 A 
ATOM      3  C   UNL     1      71.062  44.875   7.252  1.00  0.00     0.197 A 
ATOM      4  O   UNL     1      71.319  43.651   7.393  1.00  0.00    -0.289 OA
ATOM      5  C   UNL     1      71.958  45.759   6.607  1.00  0.00     0.107 A 
ATOM      6  C   UNL     1      73.252  45.398   6.126  1.00  0.00     0.134 A 
ATOM      7  C   UNL     1      74.004  46.329   5.399  1.00  0.00     0.093 A 
ATOM      8  C   UNL     1      73.533  47.629   5.189  1.00  0.00     0.123 A 
ATOM      9  C   UNL     1      72.294  48.007   5.701  1.00  0.00     0.094 A 
ATOM     10  C   UNL     1      71.506  47.091   6.400  1.00  0.00     0.146 A 
ATOM     11  O   UNL     1      70.324  47.488   6.859  1.00  0.00    -0.456 OA
ENDROOT
BRANCH   1  12
ATOM     12  C   UNL     1      68.196  47.248   7.994  1.00  0.00     0.021 A 
ATOM     13  C   UNL     1      68.179  48.074   9.132  1.00  0.00     0.016 A 
ATOM     14  C   UNL     1      66.976  48.603   9.606  1.00  0.00     0.051 A 
ATOM     15  C   UNL     1      65.772  48.313   8.961  1.00  0.00     0.157 A 
ATOM     16  C   UNL     1      66.979  46.947   7.355  1.00  0.00     0.062 A 
ATOM     17  C   UNL     1      65.770  47.477   7.832  1.00  0.00     0.158 A 
BRANCH  15  18
ATOM     18  O   UNL     1      64.588  48.858   9.457  1.00  0.00    -0.504 OA
ATOM     19  H   UNL     1      64.419  49.858   9.467  1.00  0.00     0.293 HD
ENDBRANCH  15  18
BRANCH  17  20
ATOM     20  O   UNL     1      64.570  47.174   7.190  1.00  0.00    -0.504 OA
ATOM     21  H   UNL     1      64.261  47.686   6.373  1.00  0.00     0.293 HD
ENDBRANCH  17  20
ENDBRANCH   1  12
BRANCH   6  22
ATOM     22  O   UNL     1      73.851  44.155   6.354  1.00  0.00    -0.507 OA
ATOM     23  H   UNL     1      74.104  43.496   5.633  1.00  0.00     0.293 HD
ENDBRANCH   6  22
BRANCH   8  24
ATOM     24  O   UNL     1      74.295  48.553   4.477  1.00  0.00    -0.508 OA
ATOM     25  H   UNL     1      75.289  48.656   4.638  1.00  0.00     0.293 HD
ENDBRANCH   8  24
TORSDOF 5
ENDMDL
MODEL 6
REMARK VINA RESULT:    -5.398      2.278      7.193
REMARK INTER + INTRA:          -6.646
REMARK INTER:                  -6.372
REMARK INTRA:                  -0.275
REMARK UNBOUND:                -0.301
REMARK SMILES O=c1cc(-c2ccc(O)c(O)c2)oc2cc(O)cc(O)c12
REMARK SMILES IDX 4 1 3 2 2 3 1 4 21 5 19 6 18 7 16 8 15 9 14 10 13 11 5 12
REMARK SMILES IDX 6 13 7 14 8 15 12 16 10 17 9 18 11 20 20 22 17 24
REMARK H PARENT 9 19 11 21 20 23 17 25
REMARK Flexibility Score: inf
ROOT
ATOM      1  C   UNL     1      68.832  46.677   8.399  1.00  0.00     0.138 A 
ATOM      2  C   UNL     1      68.845  45.351   7.942  1.00  0.00     0.100 A 
ATOM      3  C   UNL     1      67.641  44.659   7.799  1.00  0.00     0.197 A 
ATOM      4  O   UNL     1      67.688  43.451   7.448  1.00  0.00    -0.289 OA
ATOM      5  C   UNL     1      66.418  45.309   8.085  1.00  0.00     0.107 A 
ATOM      6  C   UNL     1      65.127  44.716   7.937  1.00  0.00     0.134 A 
ATOM      7  C   UNL     1      63.993  45.418   8.361  1.00  0.00     0.093 A 
ATOM      8  C   UNL     1      64.096  46.715   8.873  1.00  0.00     0.123 A 
ATOM      9  C   UNL     1      65.345  47.322   8.971  1.00  0.00     0.094 A 
ATOM     10  C   UNL     1      66.500  46.635   8.588  1.00  0.00     0.146 A 
ATOM     11  O   UNL     1      67.674  47.246   8.712  1.00  0.00    -0.456 OA
ENDROOT
BRANCH   1  12
ATOM     12  C   UNL     1      70.083  47.459   8.567  1.00  0.00     0.021 A 
ATOM     13  C   UNL     1      70.319  48.132   9.779  1.00  0.00     0.016 A 
ATOM     14  C   UNL     1      71.484  48.881   9.960  1.00  0.00     0.051 A 
ATOM     15  C   UNL     1      72.428  48.979   8.935  1.00  0.00     0.157 A 
ATOM     16  C   UNL     1      71.031  47.572   7.532  1.00  0.00     0.062 A 
ATOM     17  C   UNL     1      72.200  48.326   7.713  1.00  0.00     0.158 A 
BRANCH  15  18
ATOM     18  O   UNL     1      73.582  49.733   9.147  1.00  0.00    -0.504 OA
ATOM     19  H   UNL     1      73.589  50.549   9.748  1.00  0.00     0.293 HD
ENDBRANCH  15  18
BRANCH  17  20
ATOM     20  O   UNL     1      73.133  48.430   6.682  1.00  0.00    -0.504 OA
ATOM     21  H   UNL     1      73.776  47.676   6.469  1.00  0.00     0.293 HD
ENDBRANCH  17  20
ENDBRANCH   1  12
BRANCH   6  22
ATOM     22  O   UNL     1      64.907  43.462   7.361  1.00  0.00    -0.507 OA
ATOM     23  H   UNL     1      65.598  42.931   6.853  1.00  0.00     0.293 HD
ENDBRANCH   6  22
BRANCH   8  24
ATOM     24  O   UNL     1      62.959  47.410   9.279  1.00  0.00    -0.508 OA
ATOM     25  H   UNL     1      62.497  47.204  10.157  1.00  0.00     0.293 HD
ENDBRANCH   8  24
TORSDOF 5
ENDMDL
MODEL 7
REMARK VINA RESULT:    -5.349      2.650      4.254
REMARK INTER + INTRA:          -6.588
REMARK INTER:                  -6.288
REMARK INTRA:                  -0.301
REMARK UNBOUND:                -0.301
REMARK SMILES O=c1cc(-c2ccc(O)c(O)c2)oc2cc(O)cc(O)c12
REMARK SMILES IDX 4 1 3 2 2 3 1 4 21 5 19 6 18 7 16 8 15 9 14 10 13 11 5 12
REMARK SMILES IDX 6 13 7 14 8 15 12 16 10 17 9 18 11 20 20 22 17 24
REMARK H PARENT 9 19 11 21 20 23 17 25
REMARK Flexibility Score: inf
ROOT
ATOM      1  C   UNL     1      66.282  47.159   9.062  1.00  0.00     0.138 A 
ATOM      2  C   UNL     1      66.227  48.485   9.511  1.00  0.00     0.100 A 
ATOM      3  C   UNL     1      67.410  49.213   9.659  1.00  0.00     0.197 A 
ATOM      4  O   UNL     1      67.334  50.380  10.125  1.00  0.00    -0.289 OA
ATOM      5  C   UNL     1      68.648  48.618   9.325  1.00  0.00     0.107 A 
ATOM      6  C   UNL     1      69.913  49.276   9.397  1.00  0.00     0.134 A 
ATOM      7  C   UNL     1      71.084  48.550   9.152  1.00  0.00     0.093 A 
ATOM      8  C   UNL     1      71.034  47.203   8.778  1.00  0.00     0.123 A 
ATOM      9  C   UNL     1      69.801  46.567   8.653  1.00  0.00     0.094 A 
ATOM     10  C   UNL     1      68.616  47.255   8.924  1.00  0.00     0.146 A 
ATOM     11  O   UNL     1      67.462  46.606   8.807  1.00  0.00    -0.456 OA
ENDROOT
BRANCH   1  12
ATOM     12  C   UNL     1      65.055  46.341   8.885  1.00  0.00     0.021 A 
ATOM     13  C   UNL     1      63.988  46.492   9.788  1.00  0.00     0.016 A 
ATOM     14  C   UNL     1      62.827  45.729   9.649  1.00  0.00     0.051 A 
ATOM     15  C   UNL     1      62.712  44.798   8.614  1.00  0.00     0.157 A 
ATOM     16  C   UNL     1      64.941  45.392   7.851  1.00  0.00     0.062 A 
ATOM     17  C   UNL     1      63.775  44.623   7.712  1.00  0.00     0.158 A 
BRANCH  15  18
ATOM     18  O   UNL     1      61.539  44.052   8.499  1.00  0.00    -0.504 OA
ATOM     19  H   UNL     1      61.498  43.191   7.967  1.00  0.00     0.293 HD
ENDBRANCH  15  18
BRANCH  17  20
ATOM     20  O   UNL     1      63.671  43.687   6.684  1.00  0.00    -0.504 OA
ATOM     21  H   UNL     1      64.338  43.660   5.921  1.00  0.00     0.293 HD
ENDBRANCH  17  20
ENDBRANCH   1  12
BRANCH   6  22
ATOM     22  O   UNL     1      70.070  50.636   9.679  1.00  0.00    -0.507 OA
ATOM     23  H   UNL     1      70.611  51.008  10.445  1.00  0.00     0.293 HD
ENDBRANCH   6  22
BRANCH   8  24
ATOM     24  O   UNL     1      72.204  46.493   8.522  1.00  0.00    -0.508 OA
ATOM     25  H   UNL     1      73.092  46.773   8.919  1.00  0.00     0.293 HD
ENDBRANCH   8  24
TORSDOF 5
ENDMDL
MODEL 8
REMARK VINA RESULT:    -5.265      2.169      3.043
REMARK INTER + INTRA:          -6.490
REMARK INTER:                  -6.208
REMARK INTRA:                  -0.282
REMARK UNBOUND:                -0.301
REMARK SMILES O=c1cc(-c2ccc(O)c(O)c2)oc2cc(O)cc(O)c12
REMARK SMILES IDX 4 1 3 2 2 3 1 4 21 5 19 6 18 7 16 8 15 9 14 10 13 11 5 12
REMARK SMILES IDX 6 13 7 14 8 15 12 16 10 17 9 18 11 20 20 22 17 24
REMARK H PARENT 9 19 11 21 20 23 17 25
REMARK Flexibility Score: inf
ROOT
ATOM      1  C   UNL     1      67.916  46.990   8.116  1.00  0.00     0.138 A 
ATOM      2  C   UNL     1      67.999  48.234   8.756  1.00  0.00     0.100 A 
ATOM      3  C   UNL     1      69.204  48.939   8.742  1.00  0.00     0.197 A 
ATOM      4  O   UNL     1      69.265  50.024   9.378  1.00  0.00    -0.289 OA
ATOM      5  C   UNL     1      70.322  48.407   8.058  1.00  0.00     0.107 A 
ATOM      6  C   UNL     1      71.589  49.055   7.942  1.00  0.00     0.134 A 
ATOM      7  C   UNL     1      72.657  48.379   7.340  1.00  0.00     0.093 A 
ATOM      8  C   UNL     1      72.488  47.103   6.794  1.00  0.00     0.123 A 
ATOM      9  C   UNL     1      71.241  46.486   6.854  1.00  0.00     0.094 A 
ATOM     10  C   UNL     1      70.164  47.119   7.479  1.00  0.00     0.146 A 
ATOM     11  O   UNL     1      68.996  46.488   7.527  1.00  0.00    -0.456 OA
ENDROOT
BRANCH   1  12
ATOM     12  C   UNL     1      66.659  46.201   8.098  1.00  0.00     0.021 A 
ATOM     13  C   UNL     1      66.719  44.803   8.236  1.00  0.00     0.016 A 
ATOM     14  C   UNL     1      65.551  44.036   8.214  1.00  0.00     0.051 A 
ATOM     15  C   UNL     1      64.307  44.647   8.048  1.00  0.00     0.157 A 
ATOM     16  C   UNL     1      65.403  46.811   7.918  1.00  0.00     0.062 A 
ATOM     17  C   UNL     1      64.230  46.041   7.894  1.00  0.00     0.158 A 
BRANCH  15  18
ATOM     18  O   UNL     1      63.159  43.855   8.033  1.00  0.00    -0.504 OA
ATOM     19  H   UNL     1      62.612  43.685   8.870  1.00  0.00     0.293 HD
ENDBRANCH  15  18
BRANCH  17  20
ATOM     20  O   UNL     1      62.991  46.657   7.716  1.00  0.00    -0.504 OA
ATOM     21  H   UNL     1      62.126  46.192   7.967  1.00  0.00     0.293 HD
ENDBRANCH  17  20
ENDBRANCH   1  12
BRANCH   6  22
ATOM     22  O   UNL     1      71.841  50.359   8.379  1.00  0.00    -0.507 OA
ATOM     23  H   UNL     1      71.883  51.169   7.779  1.00  0.00     0.293 HD
ENDBRANCH   6  22
BRANCH   8  24
ATOM     24  O   UNL     1      73.553  46.446   6.183  1.00  0.00    -0.508 OA
ATOM     25  H   UNL     1      73.654  45.439   6.235  1.00  0.00     0.293 HD
ENDBRANCH   8  24
TORSDOF 5
ENDMDL
