MODEL 1
REMARK VINA RESULT:    -5.653      0.000      0.000
REMARK INTER + INTRA:         -11.012
REMARK INTER:                 -10.280
REMARK INTRA:                  -0.733
REMARK UNBOUND:                -0.733
REMARK SMILES CCCCCCCCCCCCCC[C@@H](C)C(=O)[O-]
REMARK SMILES IDX 9 1 10 2 11 3 12 4 13 5 14 6 15 7 16 8 17 9 18 10 19 11 8 12
REMARK SMILES IDX 7 13 6 14 5 15 4 16 3 17 2 18 1 19
REMARK H PARENT
REMARK Flexibility Score: inf
ROOT
ATOM      1  C   UNL     1      -8.467  26.540 -27.488  1.00  0.00     0.000 C 
ENDROOT
BRANCH   1   2
ATOM      2  C   UNL     1      -8.739  27.338 -26.201  1.00  0.00     0.000 C 
BRANCH   2   3
ATOM      3  C   UNL     1      -7.449  27.850 -25.540  1.00  0.00     0.000 C 
BRANCH   3   4
ATOM      4  C   UNL     1      -7.638  28.193 -24.055  1.00  0.00     0.000 C 
BRANCH   4   5
ATOM      5  C   UNL     1      -6.337  28.746 -23.452  1.00  0.00     0.001 C 
BRANCH   5   6
ATOM      6  C   UNL     1      -6.526  29.325 -22.036  1.00  0.00     0.009 C 
BRANCH   6   7
ATOM      7  C   UNL     1      -6.017  28.422 -20.888  1.00  0.00     0.032 C 
ATOM      8  C   UNL     1      -4.532  28.062 -21.038  1.00  0.00     0.014 C 
BRANCH   7   9
ATOM      9  C   UNL     1      -6.246  29.107 -19.568  1.00  0.00     0.044 C 
ATOM     10  O   UNL     1      -6.813  30.231 -19.518  1.00  0.00    -0.550 OA
ATOM     11  O   UNL     1      -5.839  28.493 -18.389  1.00  0.00    -0.550 OA
ENDBRANCH   7   9
ENDBRANCH   6   7
ENDBRANCH   5   6
ENDBRANCH   4   5
ENDBRANCH   3   4
ENDBRANCH   2   3
ENDBRANCH   1   2
BRANCH   1  12
ATOM     12  C   UNL     1      -9.191  25.181 -27.511  1.00  0.00     0.000 C 
BRANCH  12  13
ATOM     13  C   UNL     1      -9.399  24.526 -26.131  1.00  0.00    -0.000 C 
BRANCH  13  14
ATOM     14  C   UNL     1     -10.267  23.252 -26.133  1.00  0.00    -0.000 C 
BRANCH  14  15
ATOM     15  C   UNL     1      -9.931  22.232 -25.029  1.00  0.00    -0.000 C 
BRANCH  15  16
ATOM     16  C   UNL     1      -9.141  22.853 -23.864  1.00  0.00    -0.000 C 
BRANCH  16  17
ATOM     17  C   UNL     1      -9.987  22.994 -22.589  1.00  0.00    -0.000 C 
BRANCH  17  18
ATOM     18  C   UNL     1      -9.163  22.805 -21.306  1.00  0.00    -0.003 C 
ATOM     19  C   UNL     1     -10.052  22.867 -20.068  1.00  0.00     0.004 C 
ENDBRANCH  17  18
ENDBRANCH  16  17
ENDBRANCH  15  16
ENDBRANCH  14  15
ENDBRANCH  13  14
ENDBRANCH  12  13
ENDBRANCH   1  12
TORSDOF 14
ENDMDL
MODEL 2
REMARK VINA RESULT:    -5.415      1.695      3.133
REMARK INTER + INTRA:         -10.580
REMARK INTER:                  -9.763
REMARK INTRA:                  -0.817
REMARK UNBOUND:                -0.733
REMARK SMILES CCCCCCCCCCCCCC[C@@H](C)C(=O)[O-]
REMARK SMILES IDX 9 1 10 2 11 3 12 4 13 5 14 6 15 7 16 8 17 9 18 10 19 11 8 12
REMARK SMILES IDX 7 13 6 14 5 15 4 16 3 17 2 18 1 19
REMARK H PARENT
REMARK Flexibility Score: inf
ROOT
ATOM      1  C   UNL     1      -8.314  27.669 -24.664  1.00  0.00     0.000 C 
ENDROOT
BRANCH   1   2
ATOM      2  C   UNL     1      -6.939  28.329 -24.459  1.00  0.00     0.000 C 
BRANCH   2   3
ATOM      3  C   UNL     1      -6.660  28.667 -22.986  1.00  0.00     0.000 C 
BRANCH   3   4
ATOM      4  C   UNL     1      -5.354  29.451 -22.793  1.00  0.00     0.000 C 
BRANCH   4   5
ATOM      5  C   UNL     1      -4.220  28.521 -22.336  1.00  0.00     0.001 C 
BRANCH   5   6
ATOM      6  C   UNL     1      -3.676  28.873 -20.938  1.00  0.00     0.009 C 
BRANCH   6   7
ATOM      7  C   UNL     1      -3.324  27.658 -20.048  1.00  0.00     0.032 C 
ATOM      8  C   UNL     1      -2.901  28.070 -18.631  1.00  0.00     0.014 C 
BRANCH   7   9
ATOM      9  C   UNL     1      -4.503  26.725 -19.978  1.00  0.00     0.044 C 
ATOM     10  O   UNL     1      -5.630  27.143 -19.602  1.00  0.00    -0.550 OA
ATOM     11  O   UNL     1      -4.354  25.391 -20.341  1.00  0.00    -0.550 OA
ENDBRANCH   7   9
ENDBRANCH   6   7
ENDBRANCH   5   6
ENDBRANCH   4   5
ENDBRANCH   3   4
ENDBRANCH   2   3
ENDBRANCH   1   2
BRANCH   1  12
ATOM     12  C   UNL     1      -8.764  27.672 -26.137  1.00  0.00     0.000 C 
BRANCH  12  13
ATOM     13  C   UNL     1      -7.860  26.877 -27.099  1.00  0.00    -0.000 C 
BRANCH  13  14
ATOM     14  C   UNL     1      -8.568  25.763 -27.897  1.00  0.00    -0.000 C 
BRANCH  14  15
ATOM     15  C   UNL     1      -9.654  24.995 -27.122  1.00  0.00    -0.000 C 
BRANCH  15  16
ATOM     16  C   UNL     1      -9.069  24.001 -26.104  1.00  0.00    -0.000 C 
BRANCH  16  17
ATOM     17  C   UNL     1      -9.849  22.678 -26.058  1.00  0.00    -0.000 C 
BRANCH  17  18
ATOM     18  C   UNL     1     -10.553  22.449 -24.713  1.00  0.00    -0.003 C 
ATOM     19  C   UNL     1      -9.689  22.933 -23.552  1.00  0.00     0.004 C 
ENDBRANCH  17  18
ENDBRANCH  16  17
ENDBRANCH  15  16
ENDBRANCH  14  15
ENDBRANCH  13  14
ENDBRANCH  12  13
ENDBRANCH   1  12
TORSDOF 14
ENDMDL
MODEL 3
REMARK VINA RESULT:    -5.292      3.068      6.692
REMARK INTER + INTRA:         -10.356
REMARK INTER:                  -9.195
REMARK INTRA:                  -1.161
REMARK UNBOUND:                -0.733
REMARK SMILES CCCCCCCCCCCCCC[C@@H](C)C(=O)[O-]
REMARK SMILES IDX 9 1 10 2 11 3 12 4 13 5 14 6 15 7 16 8 17 9 18 10 19 11 8 12
REMARK SMILES IDX 7 13 6 14 5 15 4 16 3 17 2 18 1 19
REMARK H PARENT
REMARK Flexibility Score: inf
ROOT
ATOM      1  C   UNL     1      -6.695  27.788 -26.286  1.00  0.00     0.000 C 
ENDROOT
BRANCH   1   2
ATOM      2  C   UNL     1      -6.932  27.339 -27.738  1.00  0.00     0.000 C 
BRANCH   2   3
ATOM      3  C   UNL     1      -7.488  25.909 -27.831  1.00  0.00     0.000 C 
BRANCH   3   4
ATOM      4  C   UNL     1      -8.905  25.858 -28.421  1.00  0.00     0.000 C 
BRANCH   4   5
ATOM      5  C   UNL     1      -9.892  25.235 -27.422  1.00  0.00     0.001 C 
BRANCH   5   6
ATOM      6  C   UNL     1      -9.220  24.249 -26.446  1.00  0.00     0.009 C 
BRANCH   6   7
ATOM      7  C   UNL     1     -10.049  23.912 -25.184  1.00  0.00     0.032 C 
ATOM      8  C   UNL     1     -11.355  23.176 -25.518  1.00  0.00     0.014 C 
BRANCH   7   9
ATOM      9  C   UNL     1      -9.221  23.080 -24.243  1.00  0.00     0.044 C 
ATOM     10  O   UNL     1      -8.186  22.490 -24.650  1.00  0.00    -0.550 OA
ATOM     11  O   UNL     1      -9.591  22.969 -22.907  1.00  0.00    -0.550 OA
ENDBRANCH   7   9
ENDBRANCH   6   7
ENDBRANCH   5   6
ENDBRANCH   4   5
ENDBRANCH   3   4
ENDBRANCH   2   3
ENDBRANCH   1   2
BRANCH   1  12
ATOM     12  C   UNL     1      -7.968  27.719 -25.424  1.00  0.00     0.000 C 
BRANCH  12  13
ATOM     13  C   UNL     1      -7.791  28.158 -23.957  1.00  0.00    -0.000 C 
BRANCH  13  14
ATOM     14  C   UNL     1      -6.418  28.774 -23.617  1.00  0.00    -0.000 C 
BRANCH  14  15
ATOM     15  C   UNL     1      -6.168  29.025 -22.119  1.00  0.00    -0.000 C 
BRANCH  15  16
ATOM     16  C   UNL     1      -4.729  28.688 -21.690  1.00  0.00    -0.000 C 
BRANCH  16  17
ATOM     17  C   UNL     1      -4.678  27.619 -20.588  1.00  0.00    -0.000 C 
BRANCH  17  18
ATOM     18  C   UNL     1      -6.029  27.428 -19.883  1.00  0.00    -0.003 C 
ATOM     19  C   UNL     1      -6.090  28.231 -18.587  1.00  0.00     0.004 C 
ENDBRANCH  17  18
ENDBRANCH  16  17
ENDBRANCH  15  16
ENDBRANCH  14  15
ENDBRANCH  13  14
ENDBRANCH  12  13
ENDBRANCH   1  12
TORSDOF 14
ENDMDL
MODEL 4
REMARK VINA RESULT:    -5.004      5.701      9.148
REMARK INTER + INTRA:          -9.832
REMARK INTER:                  -7.825
REMARK INTRA:                  -2.006
REMARK UNBOUND:                -0.733
REMARK SMILES CCCCCCCCCCCCCC[C@@H](C)C(=O)[O-]
REMARK SMILES IDX 9 1 10 2 11 3 12 4 13 5 14 6 15 7 16 8 17 9 18 10 19 11 8 12
REMARK SMILES IDX 7 13 6 14 5 15 4 16 3 17 2 18 1 19
REMARK H PARENT
REMARK Flexibility Score: inf
ROOT
ATOM      1  C   UNL     1      -6.701  31.775 -18.530  1.00  0.00     0.000 C 
ENDROOT
BRANCH   1   2
ATOM      2  C   UNL     1      -6.128  30.553 -19.266  1.00  0.00     0.000 C 
BRANCH   2   3
ATOM      3  C   UNL     1      -6.658  30.426 -20.703  1.00  0.00     0.000 C 
BRANCH   3   4
ATOM      4  C   UNL     1      -6.118  29.184 -21.429  1.00  0.00     0.000 C 
BRANCH   4   5
ATOM      5  C   UNL     1      -4.706  29.442 -21.977  1.00  0.00     0.001 C 
BRANCH   5   6
ATOM      6  C   UNL     1      -3.693  28.354 -21.571  1.00  0.00     0.009 C 
BRANCH   6   7
ATOM      7  C   UNL     1      -3.935  27.722 -20.180  1.00  0.00     0.032 C 
ATOM      8  C   UNL     1      -3.859  26.189 -20.211  1.00  0.00     0.014 C 
BRANCH   7   9
ATOM      9  C   UNL     1      -2.931  28.263 -19.198  1.00  0.00     0.044 C 
ATOM     10  O   UNL     1      -2.734  27.684 -18.097  1.00  0.00    -0.550 OA
ATOM     11  O   UNL     1      -2.203  29.405 -19.510  1.00  0.00    -0.550 OA
ENDBRANCH   7   9
ENDBRANCH   6   7
ENDBRANCH   5   6
ENDBRANCH   4   5
ENDBRANCH   3   4
ENDBRANCH   2   3
ENDBRANCH   1   2
BRANCH   1  12
ATOM     12  C   UNL     1      -6.745  33.037 -19.411  1.00  0.00     0.000 C 
BRANCH  12  13
ATOM     13  C   UNL     1      -5.802  34.175 -18.972  1.00  0.00    -0.000 C 
BRANCH  13  14
ATOM     14  C   UNL     1      -4.670  34.510 -19.965  1.00  0.00    -0.000 C 
BRANCH  14  15
ATOM     15  C   UNL     1      -4.757  33.787 -21.322  1.00  0.00    -0.000 C 
BRANCH  15  16
ATOM     16  C   UNL     1      -3.668  32.714 -21.495  1.00  0.00    -0.000 C 
BRANCH  16  17
ATOM     17  C   UNL     1      -2.683  32.678 -20.316  1.00  0.00    -0.000 C 
BRANCH  17  18
ATOM     18  C   UNL     1      -1.231  32.934 -20.748  1.00  0.00    -0.003 C 
ATOM     19  C   UNL     1      -0.248  32.272 -19.787  1.00  0.00     0.004 C 
ENDBRANCH  17  18
ENDBRANCH  16  17
ENDBRANCH  15  16
ENDBRANCH  14  15
ENDBRANCH  13  14
ENDBRANCH  12  13
ENDBRANCH   1  12
TORSDOF 14
ENDMDL
MODEL 5
REMARK VINA RESULT:    -4.962      6.318      8.600
REMARK INTER + INTRA:          -9.756
REMARK INTER:                  -8.261
REMARK INTRA:                  -1.494
REMARK UNBOUND:                -0.733
REMARK SMILES CCCCCCCCCCCCCC[C@@H](C)C(=O)[O-]
REMARK SMILES IDX 9 1 10 2 11 3 12 4 13 5 14 6 15 7 16 8 17 9 18 10 19 11 8 12
REMARK SMILES IDX 7 13 6 14 5 15 4 16 3 17 2 18 1 19
REMARK H PARENT
REMARK Flexibility Score: inf
ROOT
ATOM      1  C   UNL     1      -3.273  27.730 -20.781  1.00  0.00     0.000 C 
ENDROOT
BRANCH   1   2
ATOM      2  C   UNL     1      -4.040  28.713 -21.682  1.00  0.00     0.000 C 
BRANCH   2   3
ATOM      3  C   UNL     1      -3.827  30.179 -21.273  1.00  0.00     0.000 C 
BRANCH   3   4
ATOM      4  C   UNL     1      -2.958  30.325 -20.015  1.00  0.00     0.000 C 
BRANCH   4   5
ATOM      5  C   UNL     1      -2.125  31.615 -20.073  1.00  0.00     0.001 C 
BRANCH   5   6
ATOM      6  C   UNL     1      -0.678  31.422 -19.578  1.00  0.00     0.009 C 
BRANCH   6   7
ATOM      7  C   UNL     1       0.255  32.636 -19.798  1.00  0.00     0.032 C 
ATOM      8  C   UNL     1       1.170  32.900 -18.593  1.00  0.00     0.014 C 
BRANCH   7   9
ATOM      9  C   UNL     1       1.087  32.416 -21.032  1.00  0.00     0.044 C 
ATOM     10  O   UNL     1       0.726  32.889 -22.142  1.00  0.00    -0.550 OA
ATOM     11  O   UNL     1       2.272  31.693 -20.950  1.00  0.00    -0.550 OA
ENDBRANCH   7   9
ENDBRANCH   6   7
ENDBRANCH   5   6
ENDBRANCH   4   5
ENDBRANCH   3   4
ENDBRANCH   2   3
ENDBRANCH   1   2
BRANCH   1  12
ATOM     12  C   UNL     1      -4.202  26.894 -19.882  1.00  0.00     0.000 C 
BRANCH  12  13
ATOM     13  C   UNL     1      -5.687  27.303 -19.915  1.00  0.00    -0.000 C 
BRANCH  13  14
ATOM     14  C   UNL     1      -6.149  28.196 -18.745  1.00  0.00    -0.000 C 
BRANCH  14  15
ATOM     15  C   UNL     1      -6.631  29.602 -19.147  1.00  0.00    -0.000 C 
BRANCH  15  16
ATOM     16  C   UNL     1      -7.073  30.448 -17.941  1.00  0.00    -0.000 C 
BRANCH  16  17
ATOM     17  C   UNL     1      -6.721  31.935 -18.104  1.00  0.00    -0.000 C 
BRANCH  17  18
ATOM     18  C   UNL     1      -6.605  32.360 -19.575  1.00  0.00    -0.003 C 
ATOM     19  C   UNL     1      -6.247  33.838 -19.694  1.00  0.00     0.004 C 
ENDBRANCH  17  18
ENDBRANCH  16  17
ENDBRANCH  15  16
ENDBRANCH  14  15
ENDBRANCH  13  14
ENDBRANCH  12  13
ENDBRANCH   1  12
TORSDOF 14
ENDMDL
MODEL 6
REMARK VINA RESULT:    -4.956      5.862      9.330
REMARK INTER + INTRA:          -9.744
REMARK INTER:                  -8.125
REMARK INTRA:                  -1.619
REMARK UNBOUND:                -0.733
REMARK SMILES CCCCCCCCCCCCCC[C@@H](C)C(=O)[O-]
REMARK SMILES IDX 9 1 10 2 11 3 12 4 13 5 14 6 15 7 16 8 17 9 18 10 19 11 8 12
REMARK SMILES IDX 7 13 6 14 5 15 4 16 3 17 2 18 1 19
REMARK H PARENT
REMARK Flexibility Score: inf
ROOT
ATOM      1  C   UNL     1      -6.989  32.081 -19.638  1.00  0.00     0.000 C 
ENDROOT
BRANCH   1   2
ATOM      2  C   UNL     1      -6.928  31.069 -18.480  1.00  0.00     0.000 C 
BRANCH   2   3
ATOM      3  C   UNL     1      -5.841  30.002 -18.684  1.00  0.00     0.000 C 
BRANCH   3   4
ATOM      4  C   UNL     1      -6.416  28.583 -18.802  1.00  0.00     0.000 C 
BRANCH   4   5
ATOM      5  C   UNL     1      -6.084  27.971 -20.172  1.00  0.00     0.001 C 
BRANCH   5   6
ATOM      6  C   UNL     1      -4.788  27.138 -20.163  1.00  0.00     0.009 C 
BRANCH   6   7
ATOM      7  C   UNL     1      -3.526  27.887 -20.653  1.00  0.00     0.032 C 
ATOM      8  C   UNL     1      -3.860  29.029 -21.624  1.00  0.00     0.014 C 
BRANCH   7   9
ATOM      9  C   UNL     1      -2.769  28.428 -19.471  1.00  0.00     0.044 C 
ATOM     10  O   UNL     1      -2.150  29.522 -19.551  1.00  0.00    -0.550 OA
ATOM     11  O   UNL     1      -2.758  27.722 -18.273  1.00  0.00    -0.550 OA
ENDBRANCH   7   9
ENDBRANCH   6   7
ENDBRANCH   5   6
ENDBRANCH   4   5
ENDBRANCH   3   4
ENDBRANCH   2   3
ENDBRANCH   1   2
BRANCH   1  12
ATOM     12  C   UNL     1      -6.493  33.481 -19.233  1.00  0.00     0.000 C 
BRANCH  12  13
ATOM     13  C   UNL     1      -5.556  34.163 -20.251  1.00  0.00    -0.000 C 
BRANCH  13  14
ATOM     14  C   UNL     1      -4.711  33.202 -21.112  1.00  0.00    -0.000 C 
BRANCH  14  15
ATOM     15  C   UNL     1      -3.394  32.733 -20.466  1.00  0.00    -0.000 C 
BRANCH  15  16
ATOM     16  C   UNL     1      -2.311  32.389 -21.503  1.00  0.00    -0.000 C 
BRANCH  16  17
ATOM     17  C   UNL     1      -1.032  33.220 -21.317  1.00  0.00    -0.000 C 
BRANCH  17  18
ATOM     18  C   UNL     1      -0.404  33.040 -19.927  1.00  0.00    -0.003 C 
ATOM     19  C   UNL     1       0.592  31.883 -19.921  1.00  0.00     0.004 C 
ENDBRANCH  17  18
ENDBRANCH  16  17
ENDBRANCH  15  16
ENDBRANCH  14  15
ENDBRANCH  13  14
ENDBRANCH  12  13
ENDBRANCH   1  12
TORSDOF 14
ENDMDL
MODEL 7
REMARK VINA RESULT:    -4.908      5.427      9.185
REMARK INTER + INTRA:          -9.658
REMARK INTER:                  -7.513
REMARK INTRA:                  -2.145
REMARK UNBOUND:                -0.733
REMARK SMILES CCCCCCCCCCCCCC[C@@H](C)C(=O)[O-]
REMARK SMILES IDX 9 1 10 2 11 3 12 4 13 5 14 6 15 7 16 8 17 9 18 10 19 11 8 12
REMARK SMILES IDX 7 13 6 14 5 15 4 16 3 17 2 18 1 19
REMARK H PARENT
REMARK Flexibility Score: inf
ROOT
ATOM      1  C   UNL     1      -5.406  34.140 -19.370  1.00  0.00     0.000 C 
ENDROOT
BRANCH   1   2
ATOM      2  C   UNL     1      -6.681  33.375 -18.973  1.00  0.00     0.000 C 
BRANCH   2   3
ATOM      3  C   UNL     1      -6.631  31.893 -19.378  1.00  0.00     0.000 C 
BRANCH   3   4
ATOM      4  C   UNL     1      -6.737  30.944 -18.174  1.00  0.00     0.000 C 
BRANCH   4   5
ATOM      5  C   UNL     1      -6.776  29.479 -18.635  1.00  0.00     0.001 C 
BRANCH   5   6
ATOM      6  C   UNL     1      -5.414  28.969 -19.144  1.00  0.00     0.009 C 
BRANCH   6   7
ATOM      7  C   UNL     1      -5.491  27.935 -20.291  1.00  0.00     0.032 C 
ATOM      8  C   UNL     1      -6.053  28.536 -21.587  1.00  0.00     0.014 C 
BRANCH   7   9
ATOM      9  C   UNL     1      -4.124  27.360 -20.546  1.00  0.00     0.044 C 
ATOM     10  O   UNL     1      -3.364  27.871 -21.411  1.00  0.00    -0.550 OA
ATOM     11  O   UNL     1      -3.686  26.262 -19.814  1.00  0.00    -0.550 OA
ENDBRANCH   7   9
ENDBRANCH   6   7
ENDBRANCH   5   6
ENDBRANCH   4   5
ENDBRANCH   3   4
ENDBRANCH   2   3
ENDBRANCH   1   2
BRANCH   1  12
ATOM     12  C   UNL     1      -5.241  34.274 -20.895  1.00  0.00     0.000 C 
BRANCH  12  13
ATOM     13  C   UNL     1      -3.922  33.713 -21.462  1.00  0.00    -0.000 C 
BRANCH  13  14
ATOM     14  C   UNL     1      -4.036  32.338 -22.151  1.00  0.00    -0.000 C 
BRANCH  14  15
ATOM     15  C   UNL     1      -3.376  31.171 -21.394  1.00  0.00    -0.000 C 
BRANCH  15  16
ATOM     16  C   UNL     1      -2.810  31.593 -20.026  1.00  0.00    -0.000 C 
BRANCH  16  17
ATOM     17  C   UNL     1      -1.322  31.242 -19.871  1.00  0.00    -0.000 C 
BRANCH  17  18
ATOM     18  C   UNL     1      -0.437  32.483 -19.683  1.00  0.00    -0.003 C 
ATOM     19  C   UNL     1      -1.197  33.597 -18.968  1.00  0.00     0.004 C 
ENDBRANCH  17  18
ENDBRANCH  16  17
ENDBRANCH  15  16
ENDBRANCH  14  15
ENDBRANCH  13  14
ENDBRANCH  12  13
ENDBRANCH   1  12
TORSDOF 14
ENDMDL
MODEL 8
REMARK VINA RESULT:    -4.872      5.359      9.286
REMARK INTER + INTRA:          -9.593
REMARK INTER:                  -7.554
REMARK INTRA:                  -2.039
REMARK UNBOUND:                -0.733
REMARK SMILES CCCCCCCCCCCCCC[C@@H](C)C(=O)[O-]
REMARK SMILES IDX 9 1 10 2 11 3 12 4 13 5 14 6 15 7 16 8 17 9 18 10 19 11 8 12
REMARK SMILES IDX 7 13 6 14 5 15 4 16 3 17 2 18 1 19
REMARK H PARENT
REMARK Flexibility Score: inf
ROOT
ATOM      1  C   UNL     1      -6.567  33.997 -19.544  1.00  0.00     0.000 C 
ENDROOT
BRANCH   1   2
ATOM      2  C   UNL     1      -6.519  32.478 -19.302  1.00  0.00     0.000 C 
BRANCH   2   3
ATOM      3  C   UNL     1      -6.941  32.093 -17.875  1.00  0.00     0.000 C 
BRANCH   3   4
ATOM      4  C   UNL     1      -7.052  30.574 -17.677  1.00  0.00     0.000 C 
BRANCH   4   5
ATOM      5  C   UNL     1      -6.607  29.824 -18.942  1.00  0.00     0.001 C 
BRANCH   5   6
ATOM      6  C   UNL     1      -6.388  28.317 -18.705  1.00  0.00     0.009 C 
BRANCH   6   7
ATOM      7  C   UNL     1      -5.863  27.532 -19.930  1.00  0.00     0.032 C 
ATOM      8  C   UNL     1      -6.096  28.280 -21.251  1.00  0.00     0.014 C 
BRANCH   7   9
ATOM      9  C   UNL     1      -4.396  27.247 -19.756  1.00  0.00     0.044 C 
ATOM     10  O   UNL     1      -3.700  27.931 -18.960  1.00  0.00    -0.550 OA
ATOM     11  O   UNL     1      -3.801  26.214 -20.470  1.00  0.00    -0.550 OA
ENDBRANCH   7   9
ENDBRANCH   6   7
ENDBRANCH   5   6
ENDBRANCH   4   5
ENDBRANCH   3   4
ENDBRANCH   2   3
ENDBRANCH   1   2
BRANCH   1  12
ATOM     12  C   UNL     1      -5.203  34.580 -19.955  1.00  0.00     0.000 C 
BRANCH  12  13
ATOM     13  C   UNL     1      -5.093  35.006 -21.432  1.00  0.00    -0.000 C 
BRANCH  13  14
ATOM     14  C   UNL     1      -3.686  34.874 -22.051  1.00  0.00    -0.000 C 
BRANCH  14  15
ATOM     15  C   UNL     1      -2.583  34.426 -21.074  1.00  0.00    -0.000 C 
BRANCH  15  16
ATOM     16  C   UNL     1      -2.101  32.989 -21.338  1.00  0.00    -0.000 C 
BRANCH  16  17
ATOM     17  C   UNL     1      -2.343  32.058 -20.139  1.00  0.00    -0.000 C 
BRANCH  17  18
ATOM     18  C   UNL     1      -3.385  30.969 -20.435  1.00  0.00    -0.003 C 
ATOM     19  C   UNL     1      -4.070  31.213 -21.777  1.00  0.00     0.004 C 
ENDBRANCH  17  18
ENDBRANCH  16  17
ENDBRANCH  15  16
ENDBRANCH  14  15
ENDBRANCH  13  14
ENDBRANCH  12  13
ENDBRANCH   1  12
TORSDOF 14
ENDMDL
MODEL 9
REMARK VINA RESULT:    -4.842      5.848      8.095
REMARK INTER + INTRA:          -9.538
REMARK INTER:                  -7.646
REMARK INTRA:                  -1.892
REMARK UNBOUND:                -0.733
REMARK SMILES CCCCCCCCCCCCCC[C@@H](C)C(=O)[O-]
REMARK SMILES IDX 9 1 10 2 11 3 12 4 13 5 14 6 15 7 16 8 17 9 18 10 19 11 8 12
REMARK SMILES IDX 7 13 6 14 5 15 4 16 3 17 2 18 1 19
REMARK H PARENT
REMARK Flexibility Score: inf
ROOT
ATOM      1  C   UNL     1      -7.030  32.259 -19.466  1.00  0.00     0.000 C 
ENDROOT
BRANCH   1   2
ATOM      2  C   UNL     1      -6.663  33.660 -18.947  1.00  0.00     0.000 C 
BRANCH   2   3
ATOM      3  C   UNL     1      -5.773  34.439 -19.929  1.00  0.00     0.000 C 
BRANCH   3   4
ATOM      4  C   UNL     1      -4.293  34.035 -19.839  1.00  0.00     0.000 C 
BRANCH   4   5
ATOM      5  C   UNL     1      -3.939  33.012 -20.928  1.00  0.00     0.001 C 
BRANCH   5   6
ATOM      6  C   UNL     1      -2.868  31.999 -20.480  1.00  0.00     0.009 C 
BRANCH   6   7
ATOM      7  C   UNL     1      -1.521  32.622 -20.044  1.00  0.00     0.032 C 
ATOM      8  C   UNL     1      -0.486  31.562 -19.639  1.00  0.00     0.014 C 
BRANCH   7   9
ATOM      9  C   UNL     1      -0.972  33.470 -21.159  1.00  0.00     0.044 C 
ATOM     10  O   UNL     1      -0.597  32.944 -22.240  1.00  0.00    -0.550 OA
ATOM     11  O   UNL     1      -0.887  34.849 -21.004  1.00  0.00    -0.550 OA
ENDBRANCH   7   9
ENDBRANCH   6   7
ENDBRANCH   5   6
ENDBRANCH   4   5
ENDBRANCH   3   4
ENDBRANCH   2   3
ENDBRANCH   1   2
BRANCH   1  12
ATOM     12  C   UNL     1      -6.725  31.146 -18.447  1.00  0.00     0.000 C 
BRANCH  12  13
ATOM     13  C   UNL     1      -6.263  29.809 -19.058  1.00  0.00    -0.000 C 
BRANCH  13  14
ATOM     14  C   UNL     1      -6.329  29.731 -20.597  1.00  0.00    -0.000 C 
BRANCH  14  15
ATOM     15  C   UNL     1      -5.937  28.369 -21.199  1.00  0.00    -0.000 C 
BRANCH  15  16
ATOM     16  C   UNL     1      -5.709  27.288 -20.129  1.00  0.00    -0.000 C 
BRANCH  16  17
ATOM     17  C   UNL     1      -4.291  26.699 -20.179  1.00  0.00    -0.000 C 
BRANCH  17  18
ATOM     18  C   UNL     1      -3.221  27.754 -20.500  1.00  0.00    -0.003 C 
ATOM     19  C   UNL     1      -2.751  28.462 -19.233  1.00  0.00     0.004 C 
ENDBRANCH  17  18
ENDBRANCH  16  17
ENDBRANCH  15  16
ENDBRANCH  14  15
ENDBRANCH  13  14
ENDBRANCH  12  13
ENDBRANCH   1  12
TORSDOF 14
ENDMDL
