MODEL 1
REMARK VINA RESULT:     8.697      0.000      0.000
REMARK INTER + INTRA:           8.951
REMARK INTER:                   8.951
REMARK INTRA:                   0.000
REMARK UNBOUND:                 0.000
REMARK SMILES C[C@H]1CC[C@]2(OC1)O[C@@H]1C[C@H]3[C@H]4CC=C5C[C@H](O)CC[C@]5(C)[C@H]4CC[C@]3(C)[C@@H]1[C@@H]2C
REMARK SMILES IDX 1 1 2 2 3 3 4 4 5 5 29 6 28 7 9 8 8 9 10 10 11 11 26 12
REMARK SMILES IDX 25 13 24 14 23 15 12 16 13 17 14 18 15 19 21 20 20 21 19 22
REMARK SMILES IDX 17 23 16 24 22 25 27 26 30 27 6 28 7 29 18 30
REMARK H PARENT 18 31
REMARK Flexibility Score: inf
ROOT
ATOM      1  C   UNL     1       7.366   5.206  11.875  1.00  0.00     0.010 C 
ATOM      2  C   UNL     1       6.293   5.797  12.799  1.00  0.00     0.012 C 
ATOM      3  C   UNL     1       6.835   6.986  13.596  1.00  0.00     0.011 C 
ATOM      4  C   UNL     1       5.714   7.618  14.426  1.00  0.00     0.066 C 
ATOM      5  C   UNL     1       4.471   7.931  13.544  1.00  0.00     0.171 C 
ATOM      6  C   UNL     1       3.244   8.458  14.333  1.00  0.00     0.052 C 
ATOM      7  C   UNL     1       2.441   9.063  13.150  1.00  0.00     0.033 C 
ATOM      8  C   UNL     1       3.561   9.512  12.196  1.00  0.00     0.126 C 
ATOM      9  O   UNL     1       4.788   8.956  12.618  1.00  0.00    -0.346 OA
ATOM     10  C   UNL     1       3.585  11.061  12.218  1.00  0.00     0.037 C 
ATOM     11  C   UNL     1       2.498  11.446  13.224  1.00  0.00     0.002 C 
ATOM     12  C   UNL     1       1.479  10.295  13.196  1.00  0.00    -0.024 C 
ATOM     13  C   UNL     1       0.484  10.427  14.372  1.00  0.00     0.008 C 
ATOM     14  C   UNL     1      -0.121  11.857  14.455  1.00  0.00     0.005 C 
ATOM     15  C   UNL     1       0.962  12.985  14.508  1.00  0.00     0.003 C 
ATOM     16  C   UNL     1       1.941  12.886  13.298  1.00  0.00     0.000 C 
ATOM     17  C   UNL     1       1.323  13.433  12.002  1.00  0.00     0.031 C 
ATOM     18  C   UNL     1       0.740  14.795  12.210  1.00  0.00    -0.027 C 
ATOM     19  C   UNL     1       0.265  15.246  13.393  1.00  0.00    -0.065 C 
ATOM     20  C   UNL     1       0.425  14.469  14.710  1.00  0.00    -0.008 C 
ATOM     21  C   UNL     1       1.466  15.259  15.570  1.00  0.00     0.014 C 
ATOM     22  C   UNL     1       1.180  16.774  15.687  1.00  0.00     0.033 C 
ATOM     23  C   UNL     1       0.978  17.446  14.313  1.00  0.00     0.118 C 
ATOM     24  C   UNL     1      -0.097  16.716  13.497  1.00  0.00     0.063 C 
ATOM     25  C   UNL     1      -0.931  14.459  15.470  1.00  0.00     0.016 C 
ATOM     26  C   UNL     1       0.632  10.234  11.875  1.00  0.00     0.012 C 
ATOM     27  C   UNL     1       3.686   9.380  15.498  1.00  0.00     0.014 C 
ATOM     28  O   UNL     1       4.060   6.743  12.865  1.00  0.00    -0.349 OA
ATOM     29  C   UNL     1       5.065   6.245  12.000  1.00  0.00     0.167 C 
ENDROOT
BRANCH  23  30
ATOM     30  O   UNL     1       2.184  17.452  13.598  1.00  0.00    -0.393 OA
ATOM     31  H   UNL     1       2.856  17.910  14.171  1.00  0.00     0.210 HD
ENDBRANCH  23  30
TORSDOF 1
ENDMDL
MODEL 2
REMARK VINA RESULT:    10.071      1.520      2.393
REMARK INTER + INTRA:          10.366
REMARK INTER:                  10.366
REMARK INTRA:                   0.000
REMARK UNBOUND:                 0.000
REMARK SMILES C[C@H]1CC[C@]2(OC1)O[C@@H]1C[C@H]3[C@H]4CC=C5C[C@H](O)CC[C@]5(C)[C@H]4CC[C@]3(C)[C@@H]1[C@@H]2C
REMARK SMILES IDX 1 1 2 2 3 3 4 4 5 5 29 6 28 7 9 8 8 9 10 10 11 11 26 12
REMARK SMILES IDX 25 13 24 14 23 15 12 16 13 17 14 18 15 19 21 20 20 21 19 22
REMARK SMILES IDX 17 23 16 24 22 25 27 26 30 27 6 28 7 29 18 30
REMARK H PARENT 18 31
REMARK Flexibility Score: inf
ROOT
ATOM      1  C   UNL     1       6.042   6.533  12.080  1.00  0.00     0.010 C 
ATOM      2  C   UNL     1       4.826   7.152  12.783  1.00  0.00     0.012 C 
ATOM      3  C   UNL     1       5.227   7.840  14.090  1.00  0.00     0.011 C 
ATOM      4  C   UNL     1       4.013   8.538  14.711  1.00  0.00     0.066 C 
ATOM      5  C   UNL     1       3.303   9.457  13.676  1.00  0.00     0.171 C 
ATOM      6  C   UNL     1       1.991  10.104  14.189  1.00  0.00     0.052 C 
ATOM      7  C   UNL     1       1.851  11.233  13.133  1.00  0.00     0.033 C 
ATOM      8  C   UNL     1       3.320  11.551  12.805  1.00  0.00     0.126 C 
ATOM      9  O   UNL     1       4.150  10.544  13.342  1.00  0.00    -0.346 OA
ATOM     10  C   UNL     1       3.630  12.944  13.409  1.00  0.00     0.037 C 
ATOM     11  C   UNL     1       2.330  13.358  14.103  1.00  0.00     0.002 C 
ATOM     12  C   UNL     1       1.205  12.641  13.339  1.00  0.00    -0.024 C 
ATOM     13  C   UNL     1      -0.129  12.749  14.115  1.00  0.00     0.008 C 
ATOM     14  C   UNL     1      -0.430  14.216  14.536  1.00  0.00     0.005 C 
ATOM     15  C   UNL     1       0.738  14.885  15.333  1.00  0.00     0.003 C 
ATOM     16  C   UNL     1       2.076  14.820  14.534  1.00  0.00     0.000 C 
ATOM     17  C   UNL     1       2.136  15.870  13.414  1.00  0.00     0.031 C 
ATOM     18  C   UNL     1       1.790  17.233  13.925  1.00  0.00    -0.027 C 
ATOM     19  C   UNL     1       0.984  17.465  14.986  1.00  0.00    -0.065 C 
ATOM     20  C   UNL     1       0.460  16.345  15.899  1.00  0.00    -0.008 C 
ATOM     21  C   UNL     1       1.208  16.497  17.264  1.00  0.00     0.014 C 
ATOM     22  C   UNL     1       1.195  17.930  17.844  1.00  0.00     0.033 C 
ATOM     23  C   UNL     1       1.684  18.983  16.829  1.00  0.00     0.118 C 
ATOM     24  C   UNL     1       0.900  18.885  15.513  1.00  0.00     0.063 C 
ATOM     25  C   UNL     1      -1.060  16.552  16.148  1.00  0.00     0.016 C 
ATOM     26  C   UNL     1       0.952  13.217  11.899  1.00  0.00     0.012 C 
ATOM     27  C   UNL     1       2.105  10.480  15.689  1.00  0.00     0.014 C 
ATOM     28  O   UNL     1       2.974   8.695  12.512  1.00  0.00    -0.349 OA
ATOM     29  C   UNL     1       4.123   8.166  11.875  1.00  0.00     0.167 C 
ENDROOT
BRANCH  23  30
ATOM     30  O   UNL     1       3.051  18.808  16.572  1.00  0.00    -0.393 OA
ATOM     31  H   UNL     1       3.538  19.125  17.379  1.00  0.00     0.210 HD
ENDBRANCH  23  30
TORSDOF 1
ENDMDL
