MODEL 1
REMARK VINA RESULT:    -3.721      0.000      0.000
REMARK INTER + INTRA:          -3.829
REMARK INTER:                  -3.829
REMARK INTRA:                   0.000
REMARK UNBOUND:                 0.000
REMARK SMILES O=c1ccc2cc(O)ccc2o1
REMARK SMILES IDX 9 1 10 2 11 3 5 4 4 5 3 6 2 7 1 8 12 9 6 10 7 11 8 12
REMARK H PARENT 8 13
REMARK Flexibility Score: inf
ROOT
ATOM      1  C   UNL     1      -6.702   9.206  -9.952  1.00  0.00     0.050 A 
ATOM      2  C   UNL     1      -6.531   8.657  -8.676  1.00  0.00     0.052 A 
ATOM      3  C   UNL     1      -7.641   8.433  -7.855  1.00  0.00     0.138 A 
ATOM      4  C   UNL     1      -8.935   8.763  -8.318  1.00  0.00     0.021 A 
ATOM      5  C   UNL     1     -10.024   8.528  -7.475  1.00  0.00     0.019 A 
ATOM      6  C   UNL     1      -9.806   7.980  -6.212  1.00  0.00     0.094 A 
ATOM      7  C   UNL     1      -8.497   7.678  -5.819  1.00  0.00     0.336 A 
ATOM      8  O   UNL     1      -8.279   7.182  -4.683  1.00  0.00    -0.246 OA
ATOM      9  O   UNL     1      -7.477   7.912  -6.642  1.00  0.00    -0.423 OA
ATOM     10  C   UNL     1      -9.100   9.313  -9.597  1.00  0.00     0.058 A 
ATOM     11  C   UNL     1      -7.982   9.534 -10.416  1.00  0.00     0.116 A 
ENDROOT
BRANCH  11  12
ATOM     12  O   UNL     1      -8.131  10.079 -11.689  1.00  0.00    -0.508 OA
ATOM     13  H   UNL     1      -7.645   9.695 -12.490  1.00  0.00     0.293 HD
ENDBRANCH  11  12
TORSDOF 1
ENDMDL
MODEL 2
REMARK VINA RESULT:    -3.519     17.089     18.335
REMARK INTER + INTRA:          -3.622
REMARK INTER:                  -3.622
REMARK INTRA:                   0.000
REMARK UNBOUND:                 0.000
REMARK SMILES O=c1ccc2cc(O)ccc2o1
REMARK SMILES IDX 9 1 10 2 11 3 5 4 4 5 3 6 2 7 1 8 12 9 6 10 7 11 8 12
REMARK H PARENT 8 13
REMARK Flexibility Score: inf
ROOT
ATOM      1  C   UNL     1       7.825  10.031  -2.941  1.00  0.00     0.050 A 
ATOM      2  C   UNL     1       7.118  10.125  -1.737  1.00  0.00     0.052 A 
ATOM      3  C   UNL     1       7.684   9.645  -0.552  1.00  0.00     0.138 A 
ATOM      4  C   UNL     1       8.973   9.065  -0.575  1.00  0.00     0.021 A 
ATOM      5  C   UNL     1       9.512   8.594   0.625  1.00  0.00     0.019 A 
ATOM      6  C   UNL     1       8.771   8.708   1.801  1.00  0.00     0.094 A 
ATOM      7  C   UNL     1       7.501   9.293   1.748  1.00  0.00     0.336 A 
ATOM      8  O   UNL     1       6.816   9.406   2.798  1.00  0.00    -0.246 OA
ATOM      9  O   UNL     1       7.010   9.733   0.592  1.00  0.00    -0.423 OA
ATOM     10  C   UNL     1       9.677   8.974  -1.783  1.00  0.00     0.058 A 
ATOM     11  C   UNL     1       9.102   9.458  -2.969  1.00  0.00     0.116 A 
ENDROOT
BRANCH  11  12
ATOM     12  O   UNL     1       9.791   9.374  -4.176  1.00  0.00    -0.508 OA
ATOM     13  H   UNL     1       9.536   9.946  -4.972  1.00  0.00     0.293 HD
ENDBRANCH  11  12
TORSDOF 1
ENDMDL
MODEL 3
REMARK VINA RESULT:    -3.436     13.549     13.850
REMARK INTER + INTRA:          -3.536
REMARK INTER:                  -3.536
REMARK INTRA:                   0.000
REMARK UNBOUND:                 0.000
REMARK SMILES O=c1ccc2cc(O)ccc2o1
REMARK SMILES IDX 9 1 10 2 11 3 5 4 4 5 3 6 2 7 1 8 12 9 6 10 7 11 8 12
REMARK H PARENT 8 13
REMARK Flexibility Score: inf
ROOT
ATOM      1  C   UNL     1      -5.578  -4.586 -14.119  1.00  0.00     0.050 A 
ATOM      2  C   UNL     1      -6.153  -3.310 -14.124  1.00  0.00     0.052 A 
ATOM      3  C   UNL     1      -7.477  -3.136 -13.707  1.00  0.00     0.138 A 
ATOM      4  C   UNL     1      -8.230  -4.252 -13.280  1.00  0.00     0.021 A 
ATOM      5  C   UNL     1      -9.550  -4.047 -12.869  1.00  0.00     0.019 A 
ATOM      6  C   UNL     1     -10.081  -2.758 -12.891  1.00  0.00     0.094 A 
ATOM      7  C   UNL     1      -9.276  -1.699 -13.327  1.00  0.00     0.336 A 
ATOM      8  O   UNL     1      -9.737  -0.529 -13.354  1.00  0.00    -0.246 OA
ATOM      9  O   UNL     1      -8.022  -1.923 -13.713  1.00  0.00    -0.423 OA
ATOM     10  C   UNL     1      -7.650  -5.528 -13.277  1.00  0.00     0.058 A 
ATOM     11  C   UNL     1      -6.321  -5.695 -13.697  1.00  0.00     0.116 A 
ENDROOT
BRANCH  11  12
ATOM     12  O   UNL     1      -5.731  -6.957 -13.698  1.00  0.00    -0.508 OA
ATOM     13  H   UNL     1      -6.280  -7.799 -13.574  1.00  0.00     0.293 HD
ENDBRANCH  11  12
TORSDOF 1
ENDMDL
MODEL 4
REMARK VINA RESULT:    -3.414     15.471     15.566
REMARK INTER + INTRA:          -3.514
REMARK INTER:                  -3.514
REMARK INTRA:                   0.000
REMARK UNBOUND:                 0.000
REMARK SMILES O=c1ccc2cc(O)ccc2o1
REMARK SMILES IDX 9 1 10 2 11 3 5 4 4 5 3 6 2 7 1 8 12 9 6 10 7 11 8 12
REMARK H PARENT 8 13
REMARK Flexibility Score: inf
ROOT
ATOM      1  C   UNL     1      -6.456  -4.021 -13.832  1.00  0.00     0.050 A 
ATOM      2  C   UNL     1      -6.246  -5.400 -13.731  1.00  0.00     0.052 A 
ATOM      3  C   UNL     1      -7.291  -6.242 -13.336  1.00  0.00     0.138 A 
ATOM      4  C   UNL     1      -8.558  -5.694 -13.038  1.00  0.00     0.021 A 
ATOM      5  C   UNL     1      -9.582  -6.559 -12.645  1.00  0.00     0.019 A 
ATOM      6  C   UNL     1      -9.327  -7.927 -12.558  1.00  0.00     0.094 A 
ATOM      7  C   UNL     1      -8.047  -8.400 -12.868  1.00  0.00     0.336 A 
ATOM      8  O   UNL     1      -7.796  -9.631 -12.797  1.00  0.00    -0.246 OA
ATOM      9  O   UNL     1      -7.089  -7.553 -13.240  1.00  0.00    -0.423 OA
ATOM     10  C   UNL     1      -8.763  -4.310 -13.140  1.00  0.00     0.058 A 
ATOM     11  C   UNL     1      -7.710  -3.473 -13.538  1.00  0.00     0.116 A 
ENDROOT
BRANCH  11  12
ATOM     12  O   UNL     1      -7.900  -2.097 -13.644  1.00  0.00    -0.508 OA
ATOM     13  H   UNL     1      -7.123  -1.464 -13.789  1.00  0.00     0.293 HD
ENDBRANCH  11  12
TORSDOF 1
ENDMDL
MODEL 5
REMARK VINA RESULT:    -3.199     17.482     18.801
REMARK INTER + INTRA:          -3.292
REMARK INTER:                  -3.292
REMARK INTRA:                   0.000
REMARK UNBOUND:                 0.000
REMARK SMILES O=c1ccc2cc(O)ccc2o1
REMARK SMILES IDX 9 1 10 2 11 3 5 4 4 5 3 6 2 7 1 8 12 9 6 10 7 11 8 12
REMARK H PARENT 8 13
REMARK Flexibility Score: inf
ROOT
ATOM      1  C   UNL     1      -8.683  -4.242   5.451  1.00  0.00     0.050 A 
ATOM      2  C   UNL     1      -8.217  -5.502   5.060  1.00  0.00     0.052 A 
ATOM      3  C   UNL     1      -8.700  -6.096   3.890  1.00  0.00     0.138 A 
ATOM      4  C   UNL     1      -9.661  -5.420   3.105  1.00  0.00     0.021 A 
ATOM      5  C   UNL     1     -10.125  -6.039   1.941  1.00  0.00     0.019 A 
ATOM      6  C   UNL     1      -9.632  -7.295   1.590  1.00  0.00     0.094 A 
ATOM      7  C   UNL     1      -8.681  -7.906   2.416  1.00  0.00     0.336 A 
ATOM      8  O   UNL     1      -8.224  -9.039   2.117  1.00  0.00    -0.246 OA
ATOM      9  O   UNL     1      -8.256  -7.294   3.519  1.00  0.00    -0.423 OA
ATOM     10  C   UNL     1     -10.125  -4.158   3.501  1.00  0.00     0.058 A 
ATOM     11  C   UNL     1      -9.635  -3.568   4.677  1.00  0.00     0.116 A 
ENDROOT
BRANCH  11  12
ATOM     12  O   UNL     1     -10.087  -2.315   5.082  1.00  0.00    -0.508 OA
ATOM     13  H   UNL     1      -9.634  -1.805   5.831  1.00  0.00     0.293 HD
ENDBRANCH  11  12
TORSDOF 1
ENDMDL
MODEL 6
REMARK VINA RESULT:    -3.044     18.092     19.244
REMARK INTER + INTRA:          -3.133
REMARK INTER:                  -3.133
REMARK INTRA:                   0.000
REMARK UNBOUND:                 0.000
REMARK SMILES O=c1ccc2cc(O)ccc2o1
REMARK SMILES IDX 9 1 10 2 11 3 5 4 4 5 3 6 2 7 1 8 12 9 6 10 7 11 8 12
REMARK H PARENT 8 13
REMARK Flexibility Score: inf
ROOT
ATOM      1  C   UNL     1      10.058   8.243  -0.381  1.00  0.00     0.050 A 
ATOM      2  C   UNL     1      10.065   8.344   1.014  1.00  0.00     0.052 A 
ATOM      3  C   UNL     1       8.992   8.945   1.679  1.00  0.00     0.138 A 
ATOM      4  C   UNL     1       7.901   9.450   0.937  1.00  0.00     0.021 A 
ATOM      5  C   UNL     1       6.843  10.046   1.630  1.00  0.00     0.019 A 
ATOM      6  C   UNL     1       6.894  10.125   3.021  1.00  0.00     0.094 A 
ATOM      7  C   UNL     1       8.007   9.604   3.690  1.00  0.00     0.336 A 
ATOM      8  O   UNL     1       8.072   9.665   4.945  1.00  0.00    -0.246 OA
ATOM      9  O   UNL     1       9.001   9.042   3.006  1.00  0.00    -0.423 OA
ATOM     10  C   UNL     1       7.898   9.346  -0.461  1.00  0.00     0.058 A 
ATOM     11  C   UNL     1       8.979   8.741  -1.121  1.00  0.00     0.116 A 
ENDROOT
BRANCH  11  12
ATOM     12  O   UNL     1       8.989   8.631  -2.510  1.00  0.00    -0.508 OA
ATOM     13  H   UNL     1       8.349   9.160  -3.088  1.00  0.00     0.293 HD
ENDBRANCH  11  12
TORSDOF 1
ENDMDL
MODEL 7
REMARK VINA RESULT:    -3.010     17.172     17.951
REMARK INTER + INTRA:          -3.098
REMARK INTER:                  -3.098
REMARK INTRA:                   0.000
REMARK UNBOUND:                 0.000
REMARK SMILES O=c1ccc2cc(O)ccc2o1
REMARK SMILES IDX 9 1 10 2 11 3 5 4 4 5 3 6 2 7 1 8 12 9 6 10 7 11 8 12
REMARK H PARENT 8 13
REMARK Flexibility Score: inf
ROOT
ATOM      1  C   UNL     1      -7.957  -9.710  -8.949  1.00  0.00     0.050 A 
ATOM      2  C   UNL     1      -7.220  -9.203 -10.024  1.00  0.00     0.052 A 
ATOM      3  C   UNL     1      -7.877  -8.596 -11.100  1.00  0.00     0.138 A 
ATOM      4  C   UNL     1      -9.287  -8.498 -11.096  1.00  0.00     0.021 A 
ATOM      5  C   UNL     1      -9.914  -7.887 -12.185  1.00  0.00     0.019 A 
ATOM      6  C   UNL     1      -9.140  -7.396 -13.235  1.00  0.00     0.094 A 
ATOM      7  C   UNL     1      -7.748  -7.529 -13.171  1.00  0.00     0.336 A 
ATOM      8  O   UNL     1      -7.031  -7.092 -14.109  1.00  0.00    -0.246 OA
ATOM      9  O   UNL     1      -7.175  -8.115 -12.123  1.00  0.00    -0.423 OA
ATOM     10  C   UNL     1     -10.020  -9.008 -10.015  1.00  0.00     0.058 A 
ATOM     11  C   UNL     1      -9.354  -9.615  -8.940  1.00  0.00     0.116 A 
ENDROOT
BRANCH  11  12
ATOM     12  O   UNL     1     -10.070 -10.125  -7.860  1.00  0.00    -0.508 OA
ATOM     13  H   UNL     1     -10.755  -9.566  -7.367  1.00  0.00     0.293 HD
ENDBRANCH  11  12
TORSDOF 1
ENDMDL
MODEL 8
REMARK VINA RESULT:    -2.967     14.767     15.296
REMARK INTER + INTRA:          -3.054
REMARK INTER:                  -3.054
REMARK INTRA:                   0.000
REMARK UNBOUND:                 0.000
REMARK SMILES O=c1ccc2cc(O)ccc2o1
REMARK SMILES IDX 9 1 10 2 11 3 5 4 4 5 3 6 2 7 1 8 12 9 6 10 7 11 8 12
REMARK H PARENT 8 13
REMARK Flexibility Score: inf
ROOT
ATOM      1  C   UNL     1      -9.193  -7.114 -12.709  1.00  0.00     0.050 A 
ATOM      2  C   UNL     1      -9.541  -5.769 -12.879  1.00  0.00     0.052 A 
ATOM      3  C   UNL     1      -8.579  -4.844 -13.299  1.00  0.00     0.138 A 
ATOM      4  C   UNL     1      -7.257  -5.273 -13.551  1.00  0.00     0.021 A 
ATOM      5  C   UNL     1      -6.318  -4.325 -13.969  1.00  0.00     0.019 A 
ATOM      6  C   UNL     1      -6.710  -2.996 -14.124  1.00  0.00     0.094 A 
ATOM      7  C   UNL     1      -8.037  -2.644 -13.856  1.00  0.00     0.336 A 
ATOM      8  O   UNL     1      -8.411  -1.450 -13.991  1.00  0.00    -0.246 OA
ATOM      9  O   UNL     1      -8.911  -3.566 -13.459  1.00  0.00    -0.423 OA
ATOM     10  C   UNL     1      -6.914  -6.621 -13.379  1.00  0.00     0.058 A 
ATOM     11  C   UNL     1      -7.884  -7.543 -12.958  1.00  0.00     0.116 A 
ENDROOT
BRANCH  11  12
ATOM     12  O   UNL     1      -7.558  -8.886 -12.784  1.00  0.00    -0.508 OA
ATOM     13  H   UNL     1      -6.915  -9.186 -12.061  1.00  0.00     0.293 HD
ENDBRANCH  11  12
TORSDOF 1
ENDMDL
MODEL 9
REMARK VINA RESULT:    -2.939     17.398     18.223
REMARK INTER + INTRA:          -3.024
REMARK INTER:                  -3.024
REMARK INTRA:                   0.000
REMARK UNBOUND:                 0.000
REMARK SMILES O=c1ccc2cc(O)ccc2o1
REMARK SMILES IDX 9 1 10 2 11 3 5 4 4 5 3 6 2 7 1 8 12 9 6 10 7 11 8 12
REMARK H PARENT 8 13
REMARK Flexibility Score: inf
ROOT
ATOM      1  C   UNL     1      -5.707  -9.852  -8.677  1.00  0.00     0.050 A 
ATOM      2  C   UNL     1      -6.067 -10.125 -10.001  1.00  0.00     0.052 A 
ATOM      3  C   UNL     1      -7.154  -9.464 -10.582  1.00  0.00     0.138 A 
ATOM      4  C   UNL     1      -7.887  -8.521  -9.828  1.00  0.00     0.021 A 
ATOM      5  C   UNL     1      -8.968  -7.878 -10.436  1.00  0.00     0.019 A 
ATOM      6  C   UNL     1      -9.291  -8.181 -11.758  1.00  0.00     0.094 A 
ATOM      7  C   UNL     1      -8.520  -9.127 -12.444  1.00  0.00     0.336 A 
ATOM      8  O   UNL     1      -8.795  -9.414 -13.638  1.00  0.00    -0.246 OA
ATOM      9  O   UNL     1      -7.496  -9.725 -11.842  1.00  0.00    -0.423 OA
ATOM     10  C   UNL     1      -7.522  -8.252  -8.501  1.00  0.00     0.058 A 
ATOM     11  C   UNL     1      -6.430  -8.919  -7.925  1.00  0.00     0.116 A 
ENDROOT
BRANCH  11  12
ATOM     12  O   UNL     1      -6.056  -8.660  -6.609  1.00  0.00    -0.508 OA
ATOM     13  H   UNL     1      -5.400  -7.924  -6.379  1.00  0.00     0.293 HD
ENDBRANCH  11  12
TORSDOF 1
ENDMDL
