MODEL 1
REMARK VINA RESULT:    -5.237      0.000      0.000
REMARK INTER + INTRA:          -5.237
REMARK INTER:                  -5.237
REMARK INTRA:                   0.000
REMARK UNBOUND:                 0.000
REMARK SMILES CC1=CC[C@]2(C)CCCC(C)(C)[C@]23C[C@H]13
REMARK SMILES IDX 1 1 2 2 3 3 4 4 5 5 7 6 8 7 9 8 10 9 13 10 15 11 14 12 11 13
REMARK SMILES IDX 12 14 6 15
REMARK H PARENT
REMARK Flexibility Score: inf
ROOT
ATOM      1  C   UNL     1      -2.313   1.350  14.871  1.00  0.00     0.039 C 
ATOM      2  C   UNL     1      -1.724   2.368  13.937  1.00  0.00    -0.074 C 
ATOM      3  C   UNL     1      -0.528   2.120  13.363  1.00  0.00    -0.027 C 
ATOM      4  C   UNL     1       0.125   3.102  12.422  1.00  0.00     0.034 C 
ATOM      5  C   UNL     1      -0.939   3.863  11.578  1.00  0.00    -0.022 C 
ATOM      6  C   UNL     1      -0.234   4.976  10.767  1.00  0.00     0.008 C 
ATOM      7  C   UNL     1      -1.214   5.889  10.008  1.00  0.00     0.001 C 
ATOM      8  C   UNL     1      -2.254   6.536  10.936  1.00  0.00     0.007 C 
ATOM      9  C   UNL     1      -3.064   5.534  11.808  1.00  0.00    -0.029 C 
ATOM     10  C   UNL     1      -2.037   4.537  12.496  1.00  0.00    -0.012 C 
ATOM     11  C   UNL     1      -2.496   3.650  13.664  1.00  0.00     0.022 C 
ATOM     12  C   UNL     1      -1.663   4.896  13.962  1.00  0.00     0.017 C 
ATOM     13  C   UNL     1      -4.091   4.760  10.945  1.00  0.00     0.012 C 
ATOM     14  C   UNL     1      -3.901   6.394  12.802  1.00  0.00     0.012 C 
ATOM     15  C   UNL     1      -1.568   2.808  10.614  1.00  0.00     0.012 C 
ENDROOT
TORSDOF 0
ENDMDL
MODEL 2
REMARK VINA RESULT:    -5.236      1.244      4.055
REMARK INTER + INTRA:          -5.236
REMARK INTER:                  -5.236
REMARK INTRA:                   0.000
REMARK UNBOUND:                 0.000
REMARK SMILES CC1=CC[C@]2(C)CCCC(C)(C)[C@]23C[C@H]13
REMARK SMILES IDX 1 1 2 2 3 3 4 4 5 5 7 6 8 7 9 8 10 9 13 10 15 11 14 12 11 13
REMARK SMILES IDX 12 14 6 15
REMARK H PARENT
REMARK Flexibility Score: inf
ROOT
ATOM      1  C   UNL     1      -3.817   7.809  12.010  1.00  0.00     0.039 C 
ATOM      2  C   UNL     1      -3.340   6.401  11.788  1.00  0.00    -0.074 C 
ATOM      3  C   UNL     1      -3.546   5.818  10.588  1.00  0.00    -0.027 C 
ATOM      4  C   UNL     1      -3.101   4.406  10.300  1.00  0.00     0.034 C 
ATOM      5  C   UNL     1      -1.780   4.070  11.051  1.00  0.00    -0.022 C 
ATOM      6  C   UNL     1      -1.467   2.566  10.868  1.00  0.00     0.008 C 
ATOM      7  C   UNL     1      -0.257   2.091  11.693  1.00  0.00     0.001 C 
ATOM      8  C   UNL     1      -0.417   2.384  13.193  1.00  0.00     0.007 C 
ATOM      9  C   UNL     1      -0.718   3.870  13.540  1.00  0.00    -0.029 C 
ATOM     10  C   UNL     1      -1.898   4.367  12.601  1.00  0.00    -0.012 C 
ATOM     11  C   UNL     1      -2.636   5.675  12.925  1.00  0.00     0.022 C 
ATOM     12  C   UNL     1      -3.307   4.343  13.257  1.00  0.00     0.017 C 
ATOM     13  C   UNL     1       0.546   4.745  13.348  1.00  0.00     0.012 C 
ATOM     14  C   UNL     1      -1.039   3.910  15.064  1.00  0.00     0.012 C 
ATOM     15  C   UNL     1      -0.666   4.939  10.385  1.00  0.00     0.012 C 
ENDROOT
TORSDOF 0
ENDMDL
MODEL 3
REMARK VINA RESULT:    -5.229      1.465      4.239
REMARK INTER + INTRA:          -5.229
REMARK INTER:                  -5.229
REMARK INTRA:                   0.000
REMARK UNBOUND:                 0.000
REMARK SMILES CC1=CC[C@]2(C)CCCC(C)(C)[C@]23C[C@H]13
REMARK SMILES IDX 1 1 2 2 3 3 4 4 5 5 7 6 8 7 9 8 10 9 13 10 15 11 14 12 11 13
REMARK SMILES IDX 12 14 6 15
REMARK H PARENT
REMARK Flexibility Score: inf
ROOT
ATOM      1  C   UNL     1      -4.090   4.782   9.987  1.00  0.00     0.039 C 
ATOM      2  C   UNL     1      -2.768   4.881  10.694  1.00  0.00    -0.074 C 
ATOM      3  C   UNL     1      -2.060   6.027  10.605  1.00  0.00    -0.027 C 
ATOM      4  C   UNL     1      -0.721   6.192  11.282  1.00  0.00     0.034 C 
ATOM      5  C   UNL     1      -0.674   5.414  12.630  1.00  0.00    -0.022 C 
ATOM      6  C   UNL     1       0.767   5.467  13.190  1.00  0.00     0.008 C 
ATOM      7  C   UNL     1       0.962   4.602  14.448  1.00  0.00     0.001 C 
ATOM      8  C   UNL     1       0.574   3.133  14.219  1.00  0.00     0.007 C 
ATOM      9  C   UNL     1      -0.865   2.915  13.671  1.00  0.00    -0.029 C 
ATOM     10  C   UNL     1      -1.078   3.895  12.440  1.00  0.00    -0.012 C 
ATOM     11  C   UNL     1      -2.268   3.685  11.490  1.00  0.00     0.022 C 
ATOM     12  C   UNL     1      -0.876   3.241  11.044  1.00  0.00     0.017 C 
ATOM     13  C   UNL     1      -1.919   3.180  14.775  1.00  0.00     0.012 C 
ATOM     14  C   UNL     1      -0.980   1.401  13.324  1.00  0.00     0.012 C 
ATOM     15  C   UNL     1      -1.657   6.150  13.595  1.00  0.00     0.012 C 
ENDROOT
TORSDOF 0
ENDMDL
MODEL 4
REMARK VINA RESULT:    -5.171      1.358      2.430
REMARK INTER + INTRA:          -5.171
REMARK INTER:                  -5.171
REMARK INTRA:                   0.000
REMARK UNBOUND:                 0.000
REMARK SMILES CC1=CC[C@]2(C)CCCC(C)(C)[C@]23C[C@H]13
REMARK SMILES IDX 1 1 2 2 3 3 4 4 5 5 7 6 8 7 9 8 10 9 13 10 15 11 14 12 11 13
REMARK SMILES IDX 12 14 6 15
REMARK H PARENT
REMARK Flexibility Score: inf
ROOT
ATOM      1  C   UNL     1      -1.493   1.285  14.875  1.00  0.00     0.039 C 
ATOM      2  C   UNL     1      -1.472   2.752  14.551  1.00  0.00    -0.074 C 
ATOM      3  C   UNL     1      -0.923   3.613  15.435  1.00  0.00    -0.027 C 
ATOM      4  C   UNL     1      -0.876   5.099  15.177  1.00  0.00     0.034 C 
ATOM      5  C   UNL     1      -0.690   5.400  13.661  1.00  0.00    -0.022 C 
ATOM      6  C   UNL     1      -0.829   6.924  13.432  1.00  0.00     0.008 C 
ATOM      7  C   UNL     1      -0.810   7.319  11.944  1.00  0.00     0.001 C 
ATOM      8  C   UNL     1      -1.892   6.595  11.129  1.00  0.00     0.007 C 
ATOM      9  C   UNL     1      -1.868   5.043  11.243  1.00  0.00    -0.029 C 
ATOM     10  C   UNL     1      -1.781   4.664  12.783  1.00  0.00    -0.012 C 
ATOM     11  C   UNL     1      -2.070   3.223  13.234  1.00  0.00     0.022 C 
ATOM     12  C   UNL     1      -3.140   4.294  13.441  1.00  0.00     0.017 C 
ATOM     13  C   UNL     1      -0.669   4.454  10.461  1.00  0.00     0.012 C 
ATOM     14  C   UNL     1      -3.147   4.529  10.518  1.00  0.00     0.012 C 
ATOM     15  C   UNL     1       0.753   4.928  13.296  1.00  0.00     0.012 C 
ENDROOT
TORSDOF 0
ENDMDL
MODEL 5
REMARK VINA RESULT:    -5.108      1.404      4.105
REMARK INTER + INTRA:          -5.108
REMARK INTER:                  -5.108
REMARK INTRA:                   0.000
REMARK UNBOUND:                 0.000
REMARK SMILES CC1=CC[C@]2(C)CCCC(C)(C)[C@]23C[C@H]13
REMARK SMILES IDX 1 1 2 2 3 3 4 4 5 5 7 6 8 7 9 8 10 9 13 10 15 11 14 12 11 13
REMARK SMILES IDX 12 14 6 15
REMARK H PARENT
REMARK Flexibility Score: inf
ROOT
ATOM      1  C   UNL     1      -1.405   7.339  13.321  1.00  0.00     0.039 C 
ATOM      2  C   UNL     1      -1.511   5.943  12.774  1.00  0.00    -0.074 C 
ATOM      3  C   UNL     1      -1.130   5.704  11.502  1.00  0.00    -0.027 C 
ATOM      4  C   UNL     1      -1.219   4.329  10.887  1.00  0.00     0.034 C 
ATOM      5  C   UNL     1      -0.943   3.222  11.946  1.00  0.00    -0.022 C 
ATOM      6  C   UNL     1      -1.222   1.839  11.311  1.00  0.00     0.008 C 
ATOM      7  C   UNL     1      -1.124   0.677  12.316  1.00  0.00     0.001 C 
ATOM      8  C   UNL     1      -2.054   0.864  13.524  1.00  0.00     0.007 C 
ATOM      9  C   UNL     1      -1.877   2.210  14.284  1.00  0.00    -0.029 C 
ATOM     10  C   UNL     1      -1.875   3.383  13.214  1.00  0.00    -0.012 C 
ATOM     11  C   UNL     1      -2.047   4.840  13.674  1.00  0.00     0.022 C 
ATOM     12  C   UNL     1      -3.237   4.115  13.048  1.00  0.00     0.017 C 
ATOM     13  C   UNL     1      -0.562   2.208  15.103  1.00  0.00     0.012 C 
ATOM     14  C   UNL     1      -3.031   2.282  15.327  1.00  0.00     0.012 C 
ATOM     15  C   UNL     1       0.567   3.347  12.326  1.00  0.00     0.012 C 
ENDROOT
TORSDOF 0
ENDMDL
MODEL 6
REMARK VINA RESULT:    -4.954      1.318      1.987
REMARK INTER + INTRA:          -4.954
REMARK INTER:                  -4.954
REMARK INTRA:                   0.000
REMARK UNBOUND:                 0.000
REMARK SMILES CC1=CC[C@]2(C)CCCC(C)(C)[C@]23C[C@H]13
REMARK SMILES IDX 1 1 2 2 3 3 4 4 5 5 7 6 8 7 9 8 10 9 13 10 15 11 14 12 11 13
REMARK SMILES IDX 12 14 6 15
REMARK H PARENT
REMARK Flexibility Score: inf
ROOT
ATOM      1  C   UNL     1      -2.091  -0.111  14.029  1.00  0.00     0.039 C 
ATOM      2  C   UNL     1      -1.484   0.997  13.216  1.00  0.00    -0.074 C 
ATOM      3  C   UNL     1      -1.073   0.739  11.956  1.00  0.00    -0.027 C 
ATOM      4  C   UNL     1      -0.448   1.802  11.087  1.00  0.00     0.034 C 
ATOM      5  C   UNL     1      -1.072   3.199  11.373  1.00  0.00    -0.022 C 
ATOM      6  C   UNL     1      -0.278   4.273  10.593  1.00  0.00     0.008 C 
ATOM      7  C   UNL     1      -0.718   5.712  10.919  1.00  0.00     0.001 C 
ATOM      8  C   UNL     1      -0.633   6.027  12.420  1.00  0.00     0.007 C 
ATOM      9  C   UNL     1      -1.405   5.038  13.341  1.00  0.00    -0.029 C 
ATOM     10  C   UNL     1      -1.014   3.560  12.913  1.00  0.00    -0.012 C 
ATOM     11  C   UNL     1      -1.353   2.380  13.837  1.00  0.00     0.022 C 
ATOM     12  C   UNL     1       0.083   2.896  13.791  1.00  0.00     0.017 C 
ATOM     13  C   UNL     1      -2.933   5.260  13.225  1.00  0.00     0.012 C 
ATOM     14  C   UNL     1      -1.027   5.413  14.804  1.00  0.00     0.012 C 
ATOM     15  C   UNL     1      -2.545   3.134  10.856  1.00  0.00     0.012 C 
ENDROOT
TORSDOF 0
ENDMDL
MODEL 7
REMARK VINA RESULT:    -4.906      1.395      4.549
REMARK INTER + INTRA:          -4.906
REMARK INTER:                  -4.906
REMARK INTRA:                   0.000
REMARK UNBOUND:                 0.000
REMARK SMILES CC1=CC[C@]2(C)CCCC(C)(C)[C@]23C[C@H]13
REMARK SMILES IDX 1 1 2 2 3 3 4 4 5 5 7 6 8 7 9 8 10 9 13 10 15 11 14 12 11 13
REMARK SMILES IDX 12 14 6 15
REMARK H PARENT
REMARK Flexibility Score: inf
ROOT
ATOM      1  C   UNL     1       0.416   6.712   8.754  1.00  0.00     0.039 C 
ATOM      2  C   UNL     1      -0.523   6.319   9.860  1.00  0.00    -0.074 C 
ATOM      3  C   UNL     1      -1.853   6.339   9.631  1.00  0.00    -0.027 C 
ATOM      4  C   UNL     1      -2.852   5.966  10.699  1.00  0.00     0.034 C 
ATOM      5  C   UNL     1      -2.293   4.845  11.623  1.00  0.00    -0.022 C 
ATOM      6  C   UNL     1      -3.274   4.628  12.799  1.00  0.00     0.008 C 
ATOM      7  C   UNL     1      -2.747   3.642  13.857  1.00  0.00     0.001 C 
ATOM      8  C   UNL     1      -1.382   4.061  14.423  1.00  0.00     0.007 C 
ATOM      9  C   UNL     1      -0.276   4.298  13.354  1.00  0.00    -0.029 C 
ATOM     10  C   UNL     1      -0.880   5.232  12.220  1.00  0.00    -0.012 C 
ATOM     11  C   UNL     1       0.056   5.908  11.206  1.00  0.00     0.022 C 
ATOM     12  C   UNL     1      -0.516   6.738  12.353  1.00  0.00     0.017 C 
ATOM     13  C   UNL     1       0.211   2.954  12.760  1.00  0.00     0.012 C 
ATOM     14  C   UNL     1       0.945   4.900  14.110  1.00  0.00     0.012 C 
ATOM     15  C   UNL     1      -2.209   3.556  10.744  1.00  0.00     0.012 C 
ENDROOT
TORSDOF 0
ENDMDL
MODEL 8
REMARK VINA RESULT:    -4.769      1.469      2.968
REMARK INTER + INTRA:          -4.769
REMARK INTER:                  -4.769
REMARK INTRA:                   0.000
REMARK UNBOUND:                 0.000
REMARK SMILES CC1=CC[C@]2(C)CCCC(C)(C)[C@]23C[C@H]13
REMARK SMILES IDX 1 1 2 2 3 3 4 4 5 5 7 6 8 7 9 8 10 9 13 10 15 11 14 12 11 13
REMARK SMILES IDX 12 14 6 15
REMARK H PARENT
REMARK Flexibility Score: inf
ROOT
ATOM      1  C   UNL     1      -1.024   1.266  11.122  1.00  0.00     0.039 C 
ATOM      2  C   UNL     1      -1.291   2.557  11.842  1.00  0.00    -0.074 C 
ATOM      3  C   UNL     1      -1.231   2.583  13.191  1.00  0.00    -0.027 C 
ATOM      4  C   UNL     1      -1.497   3.843  13.977  1.00  0.00     0.034 C 
ATOM      5  C   UNL     1      -1.002   5.101  13.206  1.00  0.00    -0.022 C 
ATOM      6  C   UNL     1      -1.458   6.368  13.968  1.00  0.00     0.008 C 
ATOM      7  C   UNL     1      -1.150   7.675  13.215  1.00  0.00     0.001 C 
ATOM      8  C   UNL     1      -1.760   7.699  11.805  1.00  0.00     0.007 C 
ATOM      9  C   UNL     1      -1.374   6.490  10.905  1.00  0.00    -0.029 C 
ATOM     10  C   UNL     1      -1.600   5.160  11.742  1.00  0.00    -0.012 C 
ATOM     11  C   UNL     1      -1.622   3.799  11.028  1.00  0.00     0.022 C 
ATOM     12  C   UNL     1      -2.944   4.432  11.458  1.00  0.00     0.017 C 
ATOM     13  C   UNL     1       0.098   6.603  10.436  1.00  0.00     0.012 C 
ATOM     14  C   UNL     1      -2.244   6.604   9.618  1.00  0.00     0.012 C 
ATOM     15  C   UNL     1       0.557   5.016  13.184  1.00  0.00     0.012 C 
ENDROOT
TORSDOF 0
ENDMDL
MODEL 9
REMARK VINA RESULT:    -4.646      2.203      3.859
REMARK INTER + INTRA:          -4.646
REMARK INTER:                  -4.646
REMARK INTRA:                   0.000
REMARK UNBOUND:                 0.000
REMARK SMILES CC1=CC[C@]2(C)CCCC(C)(C)[C@]23C[C@H]13
REMARK SMILES IDX 1 1 2 2 3 3 4 4 5 5 7 6 8 7 9 8 10 9 13 10 15 11 14 12 11 13
REMARK SMILES IDX 12 14 6 15
REMARK H PARENT
REMARK Flexibility Score: inf
ROOT
ATOM      1  C   UNL     1       2.883   5.500  14.869  1.00  0.00     0.039 C 
ATOM      2  C   UNL     1       1.481   5.854  14.458  1.00  0.00    -0.074 C 
ATOM      3  C   UNL     1       1.210   7.116  14.063  1.00  0.00    -0.027 C 
ATOM      4  C   UNL     1      -0.176   7.542  13.646  1.00  0.00     0.034 C 
ATOM      5  C   UNL     1      -0.928   6.382  12.931  1.00  0.00    -0.022 C 
ATOM      6  C   UNL     1      -2.395   6.809  12.688  1.00  0.00     0.008 C 
ATOM      7  C   UNL     1      -3.271   5.679  12.118  1.00  0.00     0.001 C 
ATOM      8  C   UNL     1      -3.261   4.423  13.003  1.00  0.00     0.007 C 
ATOM      9  C   UNL     1      -1.847   3.858  13.321  1.00  0.00    -0.029 C 
ATOM     10  C   UNL     1      -0.933   5.063  13.806  1.00  0.00    -0.012 C 
ATOM     11  C   UNL     1       0.408   4.776  14.500  1.00  0.00     0.022 C 
ATOM     12  C   UNL     1      -0.792   5.194  15.349  1.00  0.00     0.017 C 
ATOM     13  C   UNL     1      -1.237   3.170  12.075  1.00  0.00     0.012 C 
ATOM     14  C   UNL     1      -2.050   2.731  14.376  1.00  0.00     0.012 C 
ATOM     15  C   UNL     1      -0.197   6.161  11.568  1.00  0.00     0.012 C 
ENDROOT
TORSDOF 0
ENDMDL
