MODEL 1
REMARK VINA RESULT:    -5.295      0.000      0.000
REMARK INTER + INTRA:          -8.576
REMARK INTER:                  -8.082
REMARK INTRA:                  -0.495
REMARK UNBOUND:                -0.495
REMARK SMILES CCCCCCCCCCC(=O)[O-]
REMARK SMILES IDX 7 1 8 2 9 3 10 4 11 5 12 6 13 7 6 8 5 9 4 10 3 11 2 12 1 13
REMARK H PARENT
REMARK Flexibility Score: inf
ROOT
ATOM      1  C   UNL     1      12.908   4.622  53.983  1.00  0.00     0.000 C 
ENDROOT
BRANCH   1   2
ATOM      2  C   UNL     1      11.606   4.092  53.357  1.00  0.00     0.000 C 
BRANCH   2   3
ATOM      3  C   UNL     1      10.843   3.135  54.291  1.00  0.00     0.006 C 
BRANCH   3   4
ATOM      4  C   UNL     1       9.495   3.676  54.793  1.00  0.00     0.053 C 
BRANCH   4   5
ATOM      5  C   UNL     1       9.628   5.033  55.412  1.00  0.00     0.041 C 
ATOM      6  O   UNL     1      10.162   5.162  56.546  1.00  0.00    -0.550 OA
ATOM      7  O   UNL     1       9.195   6.158  54.723  1.00  0.00    -0.550 OA
ENDBRANCH   4   5
ENDBRANCH   3   4
ENDBRANCH   2   3
ENDBRANCH   1   2
BRANCH   1   8
ATOM      8  C   UNL     1      13.229   3.953  55.330  1.00  0.00     0.000 C 
BRANCH   8   9
ATOM      9  C   UNL     1      14.738   3.851  55.597  1.00  0.00    -0.000 C 
BRANCH   9  10
ATOM     10  C   UNL     1      15.096   2.486  56.205  1.00  0.00    -0.000 C 
BRANCH  10  11
ATOM     11  C   UNL     1      16.312   1.836  55.528  1.00  0.00    -0.000 C 
BRANCH  11  12
ATOM     12  C   UNL     1      16.504   0.368  55.937  1.00  0.00    -0.003 C 
ATOM     13  C   UNL     1      17.166   0.262  57.308  1.00  0.00     0.004 C 
ENDBRANCH  11  12
ENDBRANCH  10  11
ENDBRANCH   9  10
ENDBRANCH   8   9
ENDBRANCH   1   8
TORSDOF 9
ENDMDL
MODEL 2
REMARK VINA RESULT:    -5.157      1.522      2.070
REMARK INTER + INTRA:          -8.366
REMARK INTER:                  -7.732
REMARK INTRA:                  -0.633
REMARK UNBOUND:                -0.495
REMARK SMILES CCCCCCCCCCC(=O)[O-]
REMARK SMILES IDX 7 1 8 2 9 3 10 4 11 5 12 6 13 7 6 8 5 9 4 10 3 11 2 12 1 13
REMARK H PARENT
REMARK Flexibility Score: inf
ROOT
ATOM      1  C   UNL     1      11.482   3.309  55.455  1.00  0.00     0.000 C 
ENDROOT
BRANCH   1   2
ATOM      2  C   UNL     1      11.031   4.009  54.162  1.00  0.00     0.000 C 
BRANCH   2   3
ATOM      3  C   UNL     1      12.211   4.563  53.342  1.00  0.00     0.006 C 
BRANCH   3   4
ATOM      4  C   UNL     1      12.053   6.030  52.911  1.00  0.00     0.053 C 
BRANCH   4   5
ATOM      5  C   UNL     1      11.179   6.802  53.850  1.00  0.00     0.041 C 
ATOM      6  O   UNL     1      11.643   7.229  54.941  1.00  0.00    -0.550 OA
ATOM      7  O   UNL     1       9.863   7.081  53.507  1.00  0.00    -0.550 OA
ENDBRANCH   4   5
ENDBRANCH   3   4
ENDBRANCH   2   3
ENDBRANCH   1   2
BRANCH   1   8
ATOM      8  C   UNL     1      12.628   4.054  56.160  1.00  0.00     0.000 C 
BRANCH   8   9
ATOM      9  C   UNL     1      13.833   3.147  56.454  1.00  0.00    -0.000 C 
BRANCH   9  10
ATOM     10  C   UNL     1      15.010   3.482  55.524  1.00  0.00    -0.000 C 
BRANCH  10  11
ATOM     11  C   UNL     1      16.118   2.419  55.563  1.00  0.00    -0.000 C 
BRANCH  11  12
ATOM     12  C   UNL     1      15.722   1.180  56.380  1.00  0.00    -0.003 C 
ATOM     13  C   UNL     1      16.575  -0.027  55.997  1.00  0.00     0.004 C 
ENDBRANCH  11  12
ENDBRANCH  10  11
ENDBRANCH   9  10
ENDBRANCH   8   9
ENDBRANCH   1   8
TORSDOF 9
ENDMDL
MODEL 3
REMARK VINA RESULT:    -5.065      2.932      6.094
REMARK INTER + INTRA:          -8.225
REMARK INTER:                  -7.072
REMARK INTRA:                  -1.153
REMARK UNBOUND:                -0.495
REMARK SMILES CCCCCCCCCCC(=O)[O-]
REMARK SMILES IDX 7 1 8 2 9 3 10 4 11 5 12 6 13 7 6 8 5 9 4 10 3 11 2 12 1 13
REMARK H PARENT
REMARK Flexibility Score: inf
ROOT
ATOM      1  C   UNL     1      10.632   3.463  54.852  1.00  0.00     0.000 C 
ENDROOT
BRANCH   1   2
ATOM      2  C   UNL     1      11.498   3.830  53.635  1.00  0.00     0.000 C 
BRANCH   2   3
ATOM      3  C   UNL     1      12.799   4.556  54.027  1.00  0.00     0.006 C 
BRANCH   3   4
ATOM      4  C   UNL     1      13.100   4.551  55.535  1.00  0.00     0.053 C 
BRANCH   4   5
ATOM      5  C   UNL     1      14.215   3.614  55.883  1.00  0.00     0.041 C 
ATOM      6  O   UNL     1      15.391   3.863  55.508  1.00  0.00    -0.550 OA
ATOM      7  O   UNL     1      13.962   2.486  56.651  1.00  0.00    -0.550 OA
ENDBRANCH   4   5
ENDBRANCH   3   4
ENDBRANCH   2   3
ENDBRANCH   1   2
BRANCH   1   8
ATOM      8  C   UNL     1       9.406   4.379  55.002  1.00  0.00     0.000 C 
BRANCH   8   9
ATOM      9  C   UNL     1       9.601   5.462  56.074  1.00  0.00    -0.000 C 
BRANCH   9  10
ATOM     10  C   UNL     1       9.263   6.853  55.517  1.00  0.00    -0.000 C 
BRANCH  10  11
ATOM     11  C   UNL     1       9.789   7.064  54.089  1.00  0.00    -0.000 C 
BRANCH  11  12
ATOM     12  C   UNL     1      11.180   7.715  54.061  1.00  0.00    -0.003 C 
ATOM     13  C   UNL     1      11.407   8.580  55.299  1.00  0.00     0.004 C 
ENDBRANCH  11  12
ENDBRANCH  10  11
ENDBRANCH   9  10
ENDBRANCH   8   9
ENDBRANCH   1   8
TORSDOF 9
ENDMDL
MODEL 4
REMARK VINA RESULT:    -5.038      1.677      2.833
REMARK INTER + INTRA:          -8.183
REMARK INTER:                  -7.380
REMARK INTRA:                  -0.803
REMARK UNBOUND:                -0.495
REMARK SMILES CCCCCCCCCCC(=O)[O-]
REMARK SMILES IDX 7 1 8 2 9 3 10 4 11 5 12 6 13 7 6 8 5 9 4 10 3 11 2 12 1 13
REMARK H PARENT
REMARK Flexibility Score: inf
ROOT
ATOM      1  C   UNL     1      10.736   3.389  54.771  1.00  0.00     0.000 C 
ENDROOT
BRANCH   1   2
ATOM      2  C   UNL     1       9.544   4.355  54.880  1.00  0.00     0.000 C 
BRANCH   2   3
ATOM      3  C   UNL     1       9.853   5.585  55.753  1.00  0.00     0.006 C 
BRANCH   3   4
ATOM      4  C   UNL     1       9.632   6.935  55.050  1.00  0.00     0.053 C 
BRANCH   4   5
ATOM      5  C   UNL     1      10.923   7.574  54.641  1.00  0.00     0.041 C 
ATOM      6  O   UNL     1      11.416   7.338  53.506  1.00  0.00    -0.550 OA
ATOM      7  O   UNL     1      11.563   8.459  55.499  1.00  0.00    -0.550 OA
ENDBRANCH   4   5
ENDBRANCH   3   4
ENDBRANCH   2   3
ENDBRANCH   1   2
BRANCH   1   8
ATOM      8  C   UNL     1      11.862   3.941  53.880  1.00  0.00     0.000 C 
BRANCH   8   9
ATOM      9  C   UNL     1      13.088   4.396  54.686  1.00  0.00    -0.000 C 
BRANCH   9  10
ATOM     10  C   UNL     1      13.041   3.837  56.116  1.00  0.00    -0.000 C 
BRANCH  10  11
ATOM     11  C   UNL     1      14.167   2.830  56.396  1.00  0.00    -0.000 C 
BRANCH  11  12
ATOM     12  C   UNL     1      15.421   3.092  55.548  1.00  0.00    -0.003 C 
ATOM     13  C   UNL     1      16.377   1.903  55.601  1.00  0.00     0.004 C 
ENDBRANCH  11  12
ENDBRANCH  10  11
ENDBRANCH   9  10
ENDBRANCH   8   9
ENDBRANCH   1   8
TORSDOF 9
ENDMDL
MODEL 5
REMARK VINA RESULT:    -5.022      3.117      5.429
REMARK INTER + INTRA:          -8.160
REMARK INTER:                  -6.922
REMARK INTRA:                  -1.238
REMARK UNBOUND:                -0.495
REMARK SMILES CCCCCCCCCCC(=O)[O-]
REMARK SMILES IDX 7 1 8 2 9 3 10 4 11 5 12 6 13 7 6 8 5 9 4 10 3 11 2 12 1 13
REMARK H PARENT
REMARK Flexibility Score: inf
ROOT
ATOM      1  C   UNL     1       9.300   5.887  56.034  1.00  0.00     0.000 C 
ENDROOT
BRANCH   1   2
ATOM      2  C   UNL     1       9.886   4.513  55.668  1.00  0.00     0.000 C 
BRANCH   2   3
ATOM      3  C   UNL     1      10.972   4.047  56.656  1.00  0.00     0.006 C 
BRANCH   3   4
ATOM      4  C   UNL     1      12.384   4.564  56.339  1.00  0.00     0.053 C 
BRANCH   4   5
ATOM      5  C   UNL     1      13.403   3.466  56.357  1.00  0.00     0.041 C 
ATOM      6  O   UNL     1      13.260   2.483  57.131  1.00  0.00    -0.550 OA
ATOM      7  O   UNL     1      14.490   3.511  55.495  1.00  0.00    -0.550 OA
ENDBRANCH   4   5
ENDBRANCH   3   4
ENDBRANCH   2   3
ENDBRANCH   1   2
BRANCH   1   8
ATOM      8  C   UNL     1       9.533   6.938  54.936  1.00  0.00     0.000 C 
BRANCH   8   9
ATOM      9  C   UNL     1      10.844   7.716  55.128  1.00  0.00    -0.000 C 
BRANCH   9  10
ATOM     10  C   UNL     1      11.648   7.767  53.819  1.00  0.00    -0.000 C 
BRANCH  10  11
ATOM     11  C   UNL     1      11.344   6.582  52.890  1.00  0.00    -0.000 C 
BRANCH  11  12
ATOM     12  C   UNL     1      12.507   5.582  52.805  1.00  0.00    -0.003 C 
ATOM     13  C   UNL     1      11.996   4.143  52.828  1.00  0.00     0.004 C 
ENDBRANCH  11  12
ENDBRANCH  10  11
ENDBRANCH   9  10
ENDBRANCH   8   9
ENDBRANCH   1   8
TORSDOF 9
ENDMDL
MODEL 6
REMARK VINA RESULT:    -4.993      3.191      5.882
REMARK INTER + INTRA:          -8.115
REMARK INTER:                  -6.927
REMARK INTRA:                  -1.188
REMARK UNBOUND:                -0.495
REMARK SMILES CCCCCCCCCCC(=O)[O-]
REMARK SMILES IDX 7 1 8 2 9 3 10 4 11 5 12 6 13 7 6 8 5 9 4 10 3 11 2 12 1 13
REMARK H PARENT
REMARK Flexibility Score: inf
ROOT
ATOM      1  C   UNL     1      11.392   3.815  53.787  1.00  0.00     0.000 C 
ENDROOT
BRANCH   1   2
ATOM      2  C   UNL     1      10.631   3.909  55.121  1.00  0.00     0.000 C 
BRANCH   2   3
ATOM      3  C   UNL     1      11.518   4.401  56.279  1.00  0.00     0.006 C 
BRANCH   3   4
ATOM      4  C   UNL     1      11.727   3.372  57.402  1.00  0.00     0.053 C 
BRANCH   4   5
ATOM      5  C   UNL     1      12.990   2.589  57.221  1.00  0.00     0.041 C 
ATOM      6  O   UNL     1      13.191   1.545  57.897  1.00  0.00    -0.550 OA
ATOM      7  O   UNL     1      13.929   2.990  56.280  1.00  0.00    -0.550 OA
ENDBRANCH   4   5
ENDBRANCH   3   4
ENDBRANCH   2   3
ENDBRANCH   1   2
BRANCH   1   8
ATOM      8  C   UNL     1      12.476   4.897  53.650  1.00  0.00     0.000 C 
BRANCH   8   9
ATOM      9  C   UNL     1      12.173   5.903  52.529  1.00  0.00    -0.000 C 
BRANCH   9  10
ATOM     10  C   UNL     1      11.073   6.887  52.959  1.00  0.00    -0.000 C 
BRANCH  10  11
ATOM     11  C   UNL     1      11.521   7.816  54.098  1.00  0.00    -0.000 C 
BRANCH  11  12
ATOM     12  C   UNL     1      10.556   7.796  55.292  1.00  0.00    -0.003 C 
ATOM     13  C   UNL     1       9.130   7.490  54.841  1.00  0.00     0.004 C 
ENDBRANCH  11  12
ENDBRANCH  10  11
ENDBRANCH   9  10
ENDBRANCH   8   9
ENDBRANCH   1   8
TORSDOF 9
ENDMDL
MODEL 7
REMARK VINA RESULT:    -4.964      2.993      5.579
REMARK INTER + INTRA:          -8.071
REMARK INTER:                  -6.830
REMARK INTRA:                  -1.240
REMARK UNBOUND:                -0.495
REMARK SMILES CCCCCCCCCCC(=O)[O-]
REMARK SMILES IDX 7 1 8 2 9 3 10 4 11 5 12 6 13 7 6 8 5 9 4 10 3 11 2 12 1 13
REMARK H PARENT
REMARK Flexibility Score: inf
ROOT
ATOM      1  C   UNL     1      12.469   5.391  52.813  1.00  0.00     0.000 C 
ENDROOT
BRANCH   1   2
ATOM      2  C   UNL     1      12.228   4.295  53.866  1.00  0.00     0.000 C 
BRANCH   2   3
ATOM      3  C   UNL     1      13.398   4.153  54.857  1.00  0.00     0.006 C 
BRANCH   3   4
ATOM      4  C   UNL     1      13.075   4.601  56.292  1.00  0.00     0.053 C 
BRANCH   4   5
ATOM      5  C   UNL     1      12.662   3.454  57.160  1.00  0.00     0.041 C 
ATOM      6  O   UNL     1      11.691   3.578  57.953  1.00  0.00    -0.550 OA
ATOM      7  O   UNL     1      13.324   2.237  57.068  1.00  0.00    -0.550 OA
ENDBRANCH   4   5
ENDBRANCH   3   4
ENDBRANCH   2   3
ENDBRANCH   1   2
BRANCH   1   8
ATOM      8  C   UNL     1      11.442   6.532  52.904  1.00  0.00     0.000 C 
BRANCH   8   9
ATOM      9  C   UNL     1      11.676   7.447  54.115  1.00  0.00    -0.000 C 
BRANCH   9  10
ATOM     10  C   UNL     1      10.367   7.686  54.883  1.00  0.00    -0.000 C 
BRANCH  10  11
ATOM     11  C   UNL     1       9.391   6.505  54.774  1.00  0.00    -0.000 C 
BRANCH  11  12
ATOM     12  C   UNL     1       9.483   5.548  55.971  1.00  0.00    -0.003 C 
ATOM     13  C   UNL     1       9.242   4.104  55.539  1.00  0.00     0.004 C 
ENDBRANCH  11  12
ENDBRANCH  10  11
ENDBRANCH   9  10
ENDBRANCH   8   9
ENDBRANCH   1   8
TORSDOF 9
ENDMDL
MODEL 8
REMARK VINA RESULT:    -4.895      2.752      4.640
REMARK INTER + INTRA:          -7.966
REMARK INTER:                  -6.998
REMARK INTRA:                  -0.968
REMARK UNBOUND:                -0.495
REMARK SMILES CCCCCCCCCCC(=O)[O-]
REMARK SMILES IDX 7 1 8 2 9 3 10 4 11 5 12 6 13 7 6 8 5 9 4 10 3 11 2 12 1 13
REMARK H PARENT
REMARK Flexibility Score: inf
ROOT
ATOM      1  C   UNL     1       9.651   6.381  55.229  1.00  0.00     0.000 C 
ENDROOT
BRANCH   1   2
ATOM      2  C   UNL     1      10.999   7.123  55.241  1.00  0.00     0.000 C 
BRANCH   2   3
ATOM      3  C   UNL     1      11.248   7.926  53.952  1.00  0.00     0.006 C 
BRANCH   3   4
ATOM      4  C   UNL     1      10.890   7.178  52.657  1.00  0.00     0.053 C 
BRANCH   4   5
ATOM      5  C   UNL     1       9.899   7.934  51.826  1.00  0.00     0.041 C 
ATOM      6  O   UNL     1       9.726   7.631  50.616  1.00  0.00    -0.550 OA
ATOM      7  O   UNL     1       9.142   8.948  52.397  1.00  0.00    -0.550 OA
ENDBRANCH   4   5
ENDBRANCH   3   4
ENDBRANCH   2   3
ENDBRANCH   1   2
BRANCH   1   8
ATOM      8  C   UNL     1       9.707   5.045  55.990  1.00  0.00     0.000 C 
BRANCH   8   9
ATOM      9  C   UNL     1       9.535   3.829  55.067  1.00  0.00    -0.000 C 
BRANCH   9  10
ATOM     10  C   UNL     1      10.883   3.403  54.465  1.00  0.00    -0.000 C 
BRANCH  10  11
ATOM     11  C   UNL     1      12.044   3.528  55.463  1.00  0.00    -0.000 C 
BRANCH  11  12
ATOM     12  C   UNL     1      13.263   4.250  54.868  1.00  0.00    -0.003 C 
ATOM     13  C   UNL     1      14.545   3.852  55.593  1.00  0.00     0.004 C 
ENDBRANCH  11  12
ENDBRANCH  10  11
ENDBRANCH   9  10
ENDBRANCH   8   9
ENDBRANCH   1   8
TORSDOF 9
ENDMDL
MODEL 9
REMARK VINA RESULT:    -4.862      3.814      6.851
REMARK INTER + INTRA:          -7.915
REMARK INTER:                  -6.863
REMARK INTRA:                  -1.052
REMARK UNBOUND:                -0.495
REMARK SMILES CCCCCCCCCCC(=O)[O-]
REMARK SMILES IDX 7 1 8 2 9 3 10 4 11 5 12 6 13 7 6 8 5 9 4 10 3 11 2 12 1 13
REMARK H PARENT
REMARK Flexibility Score: inf
ROOT
ATOM      1  C   UNL     1      11.662   7.529  53.891  1.00  0.00     0.000 C 
ENDROOT
BRANCH   1   2
ATOM      2  C   UNL     1      11.664   6.400  52.846  1.00  0.00     0.000 C 
BRANCH   2   3
ATOM      3  C   UNL     1      12.491   5.179  53.291  1.00  0.00     0.006 C 
BRANCH   3   4
ATOM      4  C   UNL     1      11.748   3.836  53.189  1.00  0.00     0.053 C 
BRANCH   4   5
ATOM      5  C   UNL     1      11.032   3.492  54.458  1.00  0.00     0.041 C 
ATOM      6  O   UNL     1      11.677   3.346  55.530  1.00  0.00    -0.550 OA
ATOM      7  O   UNL     1       9.649   3.366  54.464  1.00  0.00    -0.550 OA
ENDBRANCH   4   5
ENDBRANCH   3   4
ENDBRANCH   2   3
ENDBRANCH   1   2
BRANCH   1   8
ATOM      8  C   UNL     1      11.007   7.104  55.216  1.00  0.00     0.000 C 
BRANCH   8   9
ATOM      9  C   UNL     1       9.485   6.929  55.096  1.00  0.00    -0.000 C 
BRANCH   9  10
ATOM     10  C   UNL     1       8.811   8.248  54.689  1.00  0.00    -0.000 C 
BRANCH  10  11
ATOM     11  C   UNL     1       8.141   8.171  53.309  1.00  0.00    -0.000 C 
BRANCH  11  12
ATOM     12  C   UNL     1       8.762   9.140  52.293  1.00  0.00    -0.003 C 
ATOM     13  C   UNL     1       9.171   8.409  51.016  1.00  0.00     0.004 C 
ENDBRANCH  11  12
ENDBRANCH  10  11
ENDBRANCH   9  10
ENDBRANCH   8   9
ENDBRANCH   1   8
TORSDOF 9
ENDMDL
