MODEL 1
REMARK VINA RESULT:    -4.231      0.000      0.000
REMARK INTER + INTRA:          -8.501
REMARK INTER:                  -7.693
REMARK INTRA:                  -0.808
REMARK UNBOUND:                -0.808
REMARK SMILES CCCCCCCCCCCCCC[C@@H](C)C(=O)[O-]
REMARK SMILES IDX 9 1 10 2 11 3 12 4 13 5 14 6 15 7 16 8 17 9 18 10 19 11 8 12
REMARK SMILES IDX 7 13 6 14 5 15 4 16 3 17 2 18 1 19
REMARK H PARENT
REMARK Flexibility Score: inf
ROOT
ATOM      1  C   UNL     1      43.844  27.505   1.750  1.00  0.00     0.000 C 
ENDROOT
BRANCH   1   2
ATOM      2  C   UNL     1      44.169  26.788   3.065  1.00  0.00     0.000 C 
BRANCH   2   3
ATOM      3  C   UNL     1      45.662  26.911   3.404  1.00  0.00     0.000 C 
BRANCH   3   4
ATOM      4  C   UNL     1      46.119  25.901   4.472  1.00  0.00     0.000 C 
BRANCH   4   5
ATOM      5  C   UNL     1      46.934  26.500   5.633  1.00  0.00     0.001 C 
BRANCH   5   6
ATOM      6  C   UNL     1      46.274  26.428   7.028  1.00  0.00     0.009 C 
BRANCH   6   7
ATOM      7  C   UNL     1      46.271  27.729   7.872  1.00  0.00     0.032 C 
ATOM      8  C   UNL     1      46.019  28.992   7.034  1.00  0.00     0.014 C 
BRANCH   7   9
ATOM      9  C   UNL     1      45.360  27.633   9.070  1.00  0.00     0.044 C 
ATOM     10  O   UNL     1      45.075  26.520   9.588  1.00  0.00    -0.550 OA
ATOM     11  O   UNL     1      44.809  28.790   9.606  1.00  0.00    -0.550 OA
ENDBRANCH   7   9
ENDBRANCH   6   7
ENDBRANCH   5   6
ENDBRANCH   4   5
ENDBRANCH   3   4
ENDBRANCH   2   3
ENDBRANCH   1   2
BRANCH   1  12
ATOM     12  C   UNL     1      44.158  29.003   1.846  1.00  0.00     0.000 C 
BRANCH  12  13
ATOM     13  C   UNL     1      45.165  29.425   0.766  1.00  0.00    -0.000 C 
BRANCH  13  14
ATOM     14  C   UNL     1      45.693  28.238  -0.060  1.00  0.00    -0.000 C 
BRANCH  14  15
ATOM     15  C   UNL     1      46.299  28.602  -1.433  1.00  0.00    -0.000 C 
BRANCH  15  16
ATOM     16  C   UNL     1      46.009  27.596  -2.564  1.00  0.00    -0.000 C 
BRANCH  16  17
ATOM     17  C   UNL     1      45.662  28.260  -3.915  1.00  0.00    -0.000 C 
BRANCH  17  18
ATOM     18  C   UNL     1      44.960  27.313  -4.902  1.00  0.00    -0.003 C 
ATOM     19  C   UNL     1      43.597  27.832  -5.355  1.00  0.00     0.004 C 
ENDBRANCH  17  18
ENDBRANCH  16  17
ENDBRANCH  15  16
ENDBRANCH  14  15
ENDBRANCH  13  14
ENDBRANCH  12  13
ENDBRANCH   1  12
TORSDOF 14
ENDMDL
MODEL 2
REMARK VINA RESULT:    -4.219      1.183      2.245
REMARK INTER + INTRA:          -8.480
REMARK INTER:                  -7.525
REMARK INTRA:                  -0.956
REMARK UNBOUND:                -0.808
REMARK SMILES CCCCCCCCCCCCCC[C@@H](C)C(=O)[O-]
REMARK SMILES IDX 9 1 10 2 11 3 12 4 13 5 14 6 15 7 16 8 17 9 18 10 19 11 8 12
REMARK SMILES IDX 7 13 6 14 5 15 4 16 3 17 2 18 1 19
REMARK H PARENT
REMARK Flexibility Score: inf
ROOT
ATOM      1  C   UNL     1      45.354  27.034   3.042  1.00  0.00     0.000 C 
ENDROOT
BRANCH   1   2
ATOM      2  C   UNL     1      45.533  25.895   4.053  1.00  0.00     0.000 C 
BRANCH   2   3
ATOM      3  C   UNL     1      46.338  26.365   5.274  1.00  0.00     0.000 C 
BRANCH   3   4
ATOM      4  C   UNL     1      46.392  27.898   5.402  1.00  0.00     0.000 C 
BRANCH   4   5
ATOM      5  C   UNL     1      46.211  28.441   6.832  1.00  0.00     0.001 C 
BRANCH   5   6
ATOM      6  C   UNL     1      46.158  27.380   7.954  1.00  0.00     0.009 C 
BRANCH   6   7
ATOM      7  C   UNL     1      46.135  27.902   9.414  1.00  0.00     0.032 C 
ATOM      8  C   UNL     1      44.950  28.836   9.703  1.00  0.00     0.014 C 
BRANCH   7   9
ATOM      9  C   UNL     1      46.259  26.788  10.423  1.00  0.00     0.044 C 
ATOM     10  O   UNL     1      45.869  25.619  10.158  1.00  0.00    -0.550 OA
ATOM     11  O   UNL     1      46.798  27.055  11.675  1.00  0.00    -0.550 OA
ENDBRANCH   7   9
ENDBRANCH   6   7
ENDBRANCH   5   6
ENDBRANCH   4   5
ENDBRANCH   3   4
ENDBRANCH   2   3
ENDBRANCH   1   2
BRANCH   1  12
ATOM     12  C   UNL     1      43.908  27.099   2.534  1.00  0.00     0.000 C 
BRANCH  12  13
ATOM     13  C   UNL     1      43.608  28.465   1.900  1.00  0.00    -0.000 C 
BRANCH  13  14
ATOM     14  C   UNL     1      44.818  29.418   1.926  1.00  0.00    -0.000 C 
BRANCH  14  15
ATOM     15  C   UNL     1      45.411  29.775   0.546  1.00  0.00    -0.000 C 
BRANCH  15  16
ATOM     16  C   UNL     1      45.995  28.586  -0.243  1.00  0.00    -0.000 C 
BRANCH  16  17
ATOM     17  C   UNL     1      46.239  28.890  -1.738  1.00  0.00    -0.000 C 
BRANCH  17  18
ATOM     18  C   UNL     1      46.032  27.672  -2.653  1.00  0.00    -0.003 C 
ATOM     19  C   UNL     1      45.362  28.033  -3.978  1.00  0.00     0.004 C 
ENDBRANCH  17  18
ENDBRANCH  16  17
ENDBRANCH  15  16
ENDBRANCH  14  15
ENDBRANCH  13  14
ENDBRANCH  12  13
ENDBRANCH   1  12
TORSDOF 14
ENDMDL
MODEL 3
REMARK VINA RESULT:    -4.108      4.762      9.717
REMARK INTER + INTRA:          -8.277
REMARK INTER:                  -7.266
REMARK INTRA:                  -1.011
REMARK UNBOUND:                -0.808
REMARK SMILES CCCCCCCCCCCCCC[C@@H](C)C(=O)[O-]
REMARK SMILES IDX 9 1 10 2 11 3 12 4 13 5 14 6 15 7 16 8 17 9 18 10 19 11 8 12
REMARK SMILES IDX 7 13 6 14 5 15 4 16 3 17 2 18 1 19
REMARK H PARENT
REMARK Flexibility Score: inf
ROOT
ATOM      1  C   UNL     1      44.131  27.286   2.246  1.00  0.00     0.000 C 
ENDROOT
BRANCH   1   2
ATOM      2  C   UNL     1      44.455  28.774   2.416  1.00  0.00     0.000 C 
BRANCH   2   3
ATOM      3  C   UNL     1      45.189  29.321   1.183  1.00  0.00     0.000 C 
BRANCH   3   4
ATOM      4  C   UNL     1      45.650  28.213   0.219  1.00  0.00     0.000 C 
BRANCH   4   5
ATOM      5  C   UNL     1      46.585  28.678  -0.913  1.00  0.00     0.001 C 
BRANCH   5   6
ATOM      6  C   UNL     1      45.888  29.190  -2.194  1.00  0.00     0.009 C 
BRANCH   6   7
ATOM      7  C   UNL     1      46.211  28.445  -3.515  1.00  0.00     0.032 C 
ATOM      8  C   UNL     1      46.947  27.114  -3.293  1.00  0.00     0.014 C 
BRANCH   7   9
ATOM      9  C   UNL     1      44.999  28.299  -4.401  1.00  0.00     0.044 C 
ATOM     10  O   UNL     1      44.619  27.169  -4.809  1.00  0.00    -0.550 OA
ATOM     11  O   UNL     1      44.296  29.432  -4.791  1.00  0.00    -0.550 OA
ENDBRANCH   7   9
ENDBRANCH   6   7
ENDBRANCH   5   6
ENDBRANCH   4   5
ENDBRANCH   3   4
ENDBRANCH   2   3
ENDBRANCH   1   2
BRANCH   1  12
ATOM     12  C   UNL     1      44.674  26.465   3.423  1.00  0.00     0.000 C 
BRANCH  12  13
ATOM     13  C   UNL     1      46.209  26.482   3.443  1.00  0.00    -0.000 C 
BRANCH  13  14
ATOM     14  C   UNL     1      46.791  26.560   4.866  1.00  0.00    -0.000 C 
BRANCH  14  15
ATOM     15  C   UNL     1      46.279  27.733   5.730  1.00  0.00    -0.000 C 
BRANCH  15  16
ATOM     16  C   UNL     1      46.645  27.653   7.225  1.00  0.00    -0.000 C 
BRANCH  16  17
ATOM     17  C   UNL     1      45.891  26.544   7.993  1.00  0.00    -0.000 C 
BRANCH  17  18
ATOM     18  C   UNL     1      45.417  26.978   9.390  1.00  0.00    -0.003 C 
ATOM     19  C   UNL     1      45.127  28.474   9.479  1.00  0.00     0.004 C 
ENDBRANCH  17  18
ENDBRANCH  16  17
ENDBRANCH  15  16
ENDBRANCH  14  15
ENDBRANCH  13  14
ENDBRANCH  12  13
ENDBRANCH   1  12
TORSDOF 14
ENDMDL
MODEL 4
REMARK VINA RESULT:    -4.101      4.401      9.665
REMARK INTER + INTRA:          -8.265
REMARK INTER:                  -7.525
REMARK INTRA:                  -0.740
REMARK UNBOUND:                -0.808
REMARK SMILES CCCCCCCCCCCCCC[C@@H](C)C(=O)[O-]
REMARK SMILES IDX 9 1 10 2 11 3 12 4 13 5 14 6 15 7 16 8 17 9 18 10 19 11 8 12
REMARK SMILES IDX 7 13 6 14 5 15 4 16 3 17 2 18 1 19
REMARK H PARENT
REMARK Flexibility Score: inf
ROOT
ATOM      1  C   UNL     1      44.045  26.907   2.662  1.00  0.00     0.000 C 
ENDROOT
BRANCH   1   2
ATOM      2  C   UNL     1      44.222  27.516   1.267  1.00  0.00     0.000 C 
BRANCH   2   3
ATOM      3  C   UNL     1      45.009  28.833   1.337  1.00  0.00     0.000 C 
BRANCH   3   4
ATOM      4  C   UNL     1      46.247  28.841   0.422  1.00  0.00     0.000 C 
BRANCH   4   5
ATOM      5  C   UNL     1      46.240  29.917  -0.679  1.00  0.00     0.001 C 
BRANCH   5   6
ATOM      6  C   UNL     1      46.722  29.457  -2.073  1.00  0.00     0.009 C 
BRANCH   6   7
ATOM      7  C   UNL     1      45.655  28.842  -3.017  1.00  0.00     0.032 C 
ATOM      8  C   UNL     1      45.366  29.713  -4.249  1.00  0.00     0.014 C 
BRANCH   7   9
ATOM      9  C   UNL     1      45.964  27.410  -3.376  1.00  0.00     0.044 C 
ATOM     10  O   UNL     1      46.984  26.827  -2.920  1.00  0.00    -0.550 OA
ATOM     11  O   UNL     1      45.119  26.722  -4.237  1.00  0.00    -0.550 OA
ENDBRANCH   7   9
ENDBRANCH   6   7
ENDBRANCH   5   6
ENDBRANCH   4   5
ENDBRANCH   3   4
ENDBRANCH   2   3
ENDBRANCH   1   2
BRANCH   1  12
ATOM     12  C   UNL     1      45.260  27.201   3.550  1.00  0.00     0.000 C 
BRANCH  12  13
ATOM     13  C   UNL     1      45.838  25.905   4.138  1.00  0.00    -0.000 C 
BRANCH  13  14
ATOM     14  C   UNL     1      46.826  26.156   5.292  1.00  0.00    -0.000 C 
BRANCH  14  15
ATOM     15  C   UNL     1      46.394  27.231   6.313  1.00  0.00    -0.000 C 
BRANCH  15  16
ATOM     16  C   UNL     1      46.850  26.977   7.763  1.00  0.00    -0.000 C 
BRANCH  16  17
ATOM     17  C   UNL     1      45.764  26.335   8.655  1.00  0.00    -0.000 C 
BRANCH  17  18
ATOM     18  C   UNL     1      45.282  27.253   9.791  1.00  0.00    -0.003 C 
ATOM     19  C   UNL     1      45.102  28.703   9.346  1.00  0.00     0.004 C 
ENDBRANCH  17  18
ENDBRANCH  16  17
ENDBRANCH  15  16
ENDBRANCH  14  15
ENDBRANCH  13  14
ENDBRANCH  12  13
ENDBRANCH   1  12
TORSDOF 14
ENDMDL
MODEL 5
REMARK VINA RESULT:    -4.038      5.043     10.387
REMARK INTER + INTRA:          -8.150
REMARK INTER:                  -7.600
REMARK INTRA:                  -0.550
REMARK UNBOUND:                -0.808
REMARK SMILES CCCCCCCCCCCCCC[C@@H](C)C(=O)[O-]
REMARK SMILES IDX 9 1 10 2 11 3 12 4 13 5 14 6 15 7 16 8 17 9 18 10 19 11 8 12
REMARK SMILES IDX 7 13 6 14 5 15 4 16 3 17 2 18 1 19
REMARK H PARENT
REMARK Flexibility Score: inf
ROOT
ATOM      1  C   UNL     1      44.572  28.125   1.519  1.00  0.00     0.000 C 
ENDROOT
BRANCH   1   2
ATOM      2  C   UNL     1      45.265  29.257   0.750  1.00  0.00     0.000 C 
BRANCH   2   3
ATOM      3  C   UNL     1      46.022  28.710  -0.469  1.00  0.00     0.000 C 
BRANCH   3   4
ATOM      4  C   UNL     1      46.006  29.677  -1.667  1.00  0.00     0.000 C 
BRANCH   4   5
ATOM      5  C   UNL     1      45.885  29.005  -3.047  1.00  0.00     0.001 C 
BRANCH   5   6
ATOM      6  C   UNL     1      45.022  29.755  -4.087  1.00  0.00     0.009 C 
BRANCH   6   7
ATOM      7  C   UNL     1      44.255  28.888  -5.120  1.00  0.00     0.032 C 
ATOM      8  C   UNL     1      44.397  27.379  -4.865  1.00  0.00     0.014 C 
BRANCH   7   9
ATOM      9  C   UNL     1      42.818  29.320  -5.277  1.00  0.00     0.044 C 
ATOM     10  O   UNL     1      42.283  30.118  -4.462  1.00  0.00    -0.550 OA
ATOM     11  O   UNL     1      42.064  28.817  -6.329  1.00  0.00    -0.550 OA
ENDBRANCH   7   9
ENDBRANCH   6   7
ENDBRANCH   5   6
ENDBRANCH   4   5
ENDBRANCH   3   4
ENDBRANCH   2   3
ENDBRANCH   1   2
BRANCH   1  12
ATOM     12  C   UNL     1      45.506  27.525   2.577  1.00  0.00     0.000 C 
BRANCH  12  13
ATOM     13  C   UNL     1      44.781  26.455   3.407  1.00  0.00    -0.000 C 
BRANCH  13  14
ATOM     14  C   UNL     1      45.685  25.806   4.472  1.00  0.00    -0.000 C 
BRANCH  14  15
ATOM     15  C   UNL     1      46.506  26.788   5.335  1.00  0.00    -0.000 C 
BRANCH  15  16
ATOM     16  C   UNL     1      46.169  26.776   6.839  1.00  0.00    -0.000 C 
BRANCH  16  17
ATOM     17  C   UNL     1      46.077  28.184   7.469  1.00  0.00    -0.000 C 
BRANCH  17  18
ATOM     18  C   UNL     1      45.368  28.200   8.833  1.00  0.00    -0.003 C 
ATOM     19  C   UNL     1      45.441  26.857   9.555  1.00  0.00     0.004 C 
ENDBRANCH  17  18
ENDBRANCH  16  17
ENDBRANCH  15  16
ENDBRANCH  14  15
ENDBRANCH  13  14
ENDBRANCH  12  13
ENDBRANCH   1  12
TORSDOF 14
ENDMDL
MODEL 6
REMARK VINA RESULT:    -3.863      5.067      9.997
REMARK INTER + INTRA:          -7.833
REMARK INTER:                  -6.828
REMARK INTRA:                  -1.005
REMARK UNBOUND:                -0.808
REMARK SMILES CCCCCCCCCCCCCC[C@@H](C)C(=O)[O-]
REMARK SMILES IDX 9 1 10 2 11 3 12 4 13 5 14 6 15 7 16 8 17 9 18 10 19 11 8 12
REMARK SMILES IDX 7 13 6 14 5 15 4 16 3 17 2 18 1 19
REMARK H PARENT
REMARK Flexibility Score: inf
ROOT
ATOM      1  C   UNL     1      45.834  28.278   0.426  1.00  0.00     0.000 C 
ENDROOT
BRANCH   1   2
ATOM      2  C   UNL     1      46.289  28.721  -0.969  1.00  0.00     0.000 C 
BRANCH   2   3
ATOM      3  C   UNL     1      45.911  27.676  -2.029  1.00  0.00     0.000 C 
BRANCH   3   4
ATOM      4  C   UNL     1      46.288  28.107  -3.458  1.00  0.00     0.000 C 
BRANCH   4   5
ATOM      5  C   UNL     1      45.935  29.562  -3.817  1.00  0.00     0.001 C 
BRANCH   5   6
ATOM      6  C   UNL     1      44.439  29.848  -4.075  1.00  0.00     0.009 C 
BRANCH   6   7
ATOM      7  C   UNL     1      43.892  29.504  -5.485  1.00  0.00     0.032 C 
ATOM      8  C   UNL     1      44.989  29.439  -6.560  1.00  0.00     0.014 C 
BRANCH   7   9
ATOM      9  C   UNL     1      43.013  28.278  -5.476  1.00  0.00     0.044 C 
ATOM     10  O   UNL     1      43.507  27.119  -5.445  1.00  0.00    -0.550 OA
ATOM     11  O   UNL     1      41.632  28.425  -5.517  1.00  0.00    -0.550 OA
ENDBRANCH   7   9
ENDBRANCH   6   7
ENDBRANCH   5   6
ENDBRANCH   4   5
ENDBRANCH   3   4
ENDBRANCH   2   3
ENDBRANCH   1   2
BRANCH   1  12
ATOM     12  C   UNL     1      44.841  29.281   1.027  1.00  0.00     0.000 C 
BRANCH  12  13
ATOM     13  C   UNL     1      44.339  28.804   2.397  1.00  0.00    -0.000 C 
BRANCH  13  14
ATOM     14  C   UNL     1      43.952  27.314   2.411  1.00  0.00    -0.000 C 
BRANCH  14  15
ATOM     15  C   UNL     1      44.700  26.443   3.444  1.00  0.00    -0.000 C 
BRANCH  15  16
ATOM     16  C   UNL     1      45.811  27.168   4.228  1.00  0.00    -0.000 C 
BRANCH  16  17
ATOM     17  C   UNL     1      46.463  26.302   5.329  1.00  0.00    -0.000 C 
BRANCH  17  18
ATOM     18  C   UNL     1      46.276  26.868   6.746  1.00  0.00    -0.003 C 
ATOM     19  C   UNL     1      46.150  28.390   6.765  1.00  0.00     0.004 C 
ENDBRANCH  17  18
ENDBRANCH  16  17
ENDBRANCH  15  16
ENDBRANCH  14  15
ENDBRANCH  13  14
ENDBRANCH  12  13
ENDBRANCH   1  12
TORSDOF 14
ENDMDL
MODEL 7
REMARK VINA RESULT:    -3.820      5.505      9.866
REMARK INTER + INTRA:          -7.755
REMARK INTER:                  -6.632
REMARK INTRA:                  -1.123
REMARK UNBOUND:                -0.808
REMARK SMILES CCCCCCCCCCCCCC[C@@H](C)C(=O)[O-]
REMARK SMILES IDX 9 1 10 2 11 3 12 4 13 5 14 6 15 7 16 8 17 9 18 10 19 11 8 12
REMARK SMILES IDX 7 13 6 14 5 15 4 16 3 17 2 18 1 19
REMARK H PARENT
REMARK Flexibility Score: inf
ROOT
ATOM      1  C   UNL     1      46.017  28.516  -0.490  1.00  0.00     0.000 C 
ENDROOT
BRANCH   1   2
ATOM      2  C   UNL     1      46.718  28.868  -1.806  1.00  0.00     0.000 C 
BRANCH   2   3
ATOM      3  C   UNL     1      46.424  27.815  -2.885  1.00  0.00     0.000 C 
BRANCH   3   4
ATOM      4  C   UNL     1      46.122  28.435  -4.262  1.00  0.00     0.000 C 
BRANCH   4   5
ATOM      5  C   UNL     1      44.845  29.291  -4.327  1.00  0.00     0.001 C 
BRANCH   5   6
ATOM      6  C   UNL     1      44.469  29.834  -5.724  1.00  0.00     0.009 C 
BRANCH   6   7
ATOM      7  C   UNL     1      43.455  29.001  -6.551  1.00  0.00     0.032 C 
ATOM      8  C   UNL     1      43.941  27.573  -6.842  1.00  0.00     0.014 C 
BRANCH   7   9
ATOM      9  C   UNL     1      42.067  29.036  -5.960  1.00  0.00     0.044 C 
ATOM     10  O   UNL     1      41.685  28.161  -5.137  1.00  0.00    -0.550 OA
ATOM     11  O   UNL     1      41.186  30.040  -6.341  1.00  0.00    -0.550 OA
ENDBRANCH   7   9
ENDBRANCH   6   7
ENDBRANCH   5   6
ENDBRANCH   4   5
ENDBRANCH   3   4
ENDBRANCH   2   3
ENDBRANCH   1   2
BRANCH   1  12
ATOM     12  C   UNL     1      45.424  29.766   0.172  1.00  0.00     0.000 C 
BRANCH  12  13
ATOM     13  C   UNL     1      46.181  30.119   1.460  1.00  0.00    -0.000 C 
BRANCH  13  14
ATOM     14  C   UNL     1      46.853  28.898   2.116  1.00  0.00    -0.000 C 
BRANCH  14  15
ATOM     15  C   UNL     1      46.003  28.159   3.172  1.00  0.00    -0.000 C 
BRANCH  15  16
ATOM     16  C   UNL     1      45.326  26.866   2.678  1.00  0.00    -0.000 C 
BRANCH  16  17
ATOM     17  C   UNL     1      43.793  26.853   2.867  1.00  0.00    -0.000 C 
BRANCH  17  18
ATOM     18  C   UNL     1      43.079  28.020   2.165  1.00  0.00    -0.003 C 
ATOM     19  C   UNL     1      41.626  28.181   2.610  1.00  0.00     0.004 C 
ENDBRANCH  17  18
ENDBRANCH  16  17
ENDBRANCH  15  16
ENDBRANCH  14  15
ENDBRANCH  13  14
ENDBRANCH  12  13
ENDBRANCH   1  12
TORSDOF 14
ENDMDL
MODEL 8
REMARK VINA RESULT:    -3.806      1.582      2.284
REMARK INTER + INTRA:          -7.728
REMARK INTER:                  -6.201
REMARK INTRA:                  -1.528
REMARK UNBOUND:                -0.808
REMARK SMILES CCCCCCCCCCCCCC[C@@H](C)C(=O)[O-]
REMARK SMILES IDX 9 1 10 2 11 3 12 4 13 5 14 6 15 7 16 8 17 9 18 10 19 11 8 12
REMARK SMILES IDX 7 13 6 14 5 15 4 16 3 17 2 18 1 19
REMARK H PARENT
REMARK Flexibility Score: inf
ROOT
ATOM      1  C   UNL     1      43.707  29.328   2.515  1.00  0.00     0.000 C 
ENDROOT
BRANCH   1   2
ATOM      2  C   UNL     1      42.960  28.028   2.197  1.00  0.00     0.000 C 
BRANCH   2   3
ATOM      3  C   UNL     1      43.931  26.840   2.124  1.00  0.00     0.000 C 
BRANCH   3   4
ATOM      4  C   UNL     1      44.605  26.533   3.475  1.00  0.00     0.000 C 
BRANCH   4   5
ATOM      5  C   UNL     1      46.136  26.379   3.421  1.00  0.00     0.001 C 
BRANCH   5   6
ATOM      6  C   UNL     1      46.930  27.177   4.479  1.00  0.00     0.009 C 
BRANCH   6   7
ATOM      7  C   UNL     1      46.228  27.434   5.838  1.00  0.00     0.032 C 
ATOM      8  C   UNL     1      46.747  26.529   6.967  1.00  0.00     0.014 C 
BRANCH   7   9
ATOM      9  C   UNL     1      46.227  28.895   6.216  1.00  0.00     0.044 C 
ATOM     10  O   UNL     1      46.624  29.277   7.349  1.00  0.00    -0.550 OA
ATOM     11  O   UNL     1      45.766  29.837   5.305  1.00  0.00    -0.550 OA
ENDBRANCH   7   9
ENDBRANCH   6   7
ENDBRANCH   5   6
ENDBRANCH   4   5
ENDBRANCH   3   4
ENDBRANCH   2   3
ENDBRANCH   1   2
BRANCH   1  12
ATOM     12  C   UNL     1      44.546  29.790   1.316  1.00  0.00     0.000 C 
BRANCH  12  13
ATOM     13  C   UNL     1      46.047  29.646   1.607  1.00  0.00    -0.000 C 
BRANCH  13  14
ATOM     14  C   UNL     1      46.871  29.287   0.356  1.00  0.00    -0.000 C 
BRANCH  14  15
ATOM     15  C   UNL     1      46.080  29.243  -0.969  1.00  0.00    -0.000 C 
BRANCH  15  16
ATOM     16  C   UNL     1      46.760  28.462  -2.111  1.00  0.00    -0.000 C 
BRANCH  16  17
ATOM     17  C   UNL     1      45.864  27.370  -2.738  1.00  0.00    -0.000 C 
BRANCH  17  18
ATOM     18  C   UNL     1      45.706  27.507  -4.262  1.00  0.00    -0.003 C 
ATOM     19  C   UNL     1      44.795  28.665  -4.662  1.00  0.00     0.004 C 
ENDBRANCH  17  18
ENDBRANCH  16  17
ENDBRANCH  15  16
ENDBRANCH  14  15
ENDBRANCH  13  14
ENDBRANCH  12  13
ENDBRANCH   1  12
TORSDOF 14
ENDMDL
MODEL 9
REMARK VINA RESULT:    -3.631      4.744      8.753
REMARK INTER + INTRA:          -7.411
REMARK INTER:                  -5.967
REMARK INTRA:                  -1.444
REMARK UNBOUND:                -0.808
REMARK SMILES CCCCCCCCCCCCCC[C@@H](C)C(=O)[O-]
REMARK SMILES IDX 9 1 10 2 11 3 12 4 13 5 14 6 15 7 16 8 17 9 18 10 19 11 8 12
REMARK SMILES IDX 7 13 6 14 5 15 4 16 3 17 2 18 1 19
REMARK H PARENT
REMARK Flexibility Score: inf
ROOT
ATOM      1  C   UNL     1      43.346  28.577   2.382  1.00  0.00     0.000 C 
ENDROOT
BRANCH   1   2
ATOM      2  C   UNL     1      44.001  27.540   1.464  1.00  0.00     0.000 C 
BRANCH   2   3
ATOM      3  C   UNL     1      45.442  27.943   1.117  1.00  0.00     0.000 C 
BRANCH   3   4
ATOM      4  C   UNL     1      45.689  28.044  -0.399  1.00  0.00     0.000 C 
BRANCH   4   5
ATOM      5  C   UNL     1      46.021  29.456  -0.915  1.00  0.00     0.001 C 
BRANCH   5   6
ATOM      6  C   UNL     1      46.419  29.551  -2.405  1.00  0.00     0.009 C 
BRANCH   6   7
ATOM      7  C   UNL     1      45.663  28.626  -3.395  1.00  0.00     0.032 C 
ATOM      8  C   UNL     1      44.836  29.400  -4.433  1.00  0.00     0.014 C 
BRANCH   7   9
ATOM      9  C   UNL     1      46.568  27.596  -4.022  1.00  0.00     0.044 C 
ATOM     10  O   UNL     1      46.823  27.613  -5.256  1.00  0.00    -0.550 OA
ATOM     11  O   UNL     1      47.121  26.598  -3.229  1.00  0.00    -0.550 OA
ENDBRANCH   7   9
ENDBRANCH   6   7
ENDBRANCH   5   6
ENDBRANCH   4   5
ENDBRANCH   3   4
ENDBRANCH   2   3
ENDBRANCH   1   2
BRANCH   1  12
ATOM     12  C   UNL     1      44.145  29.887   2.393  1.00  0.00     0.000 C 
BRANCH  12  13
ATOM     13  C   UNL     1      44.806  30.116   3.760  1.00  0.00    -0.000 C 
BRANCH  13  14
ATOM     14  C   UNL     1      46.344  30.056   3.702  1.00  0.00    -0.000 C 
BRANCH  14  15
ATOM     15  C   UNL     1      47.041  29.614   5.007  1.00  0.00    -0.000 C 
BRANCH  15  16
ATOM     16  C   UNL     1      46.173  28.767   5.958  1.00  0.00    -0.000 C 
BRANCH  16  17
ATOM     17  C   UNL     1      46.462  27.251   5.880  1.00  0.00    -0.000 C 
BRANCH  17  18
ATOM     18  C   UNL     1      46.529  26.712   4.441  1.00  0.00    -0.003 C 
ATOM     19  C   UNL     1      45.425  25.703   4.133  1.00  0.00     0.004 C 
ENDBRANCH  17  18
ENDBRANCH  16  17
ENDBRANCH  15  16
ENDBRANCH  14  15
ENDBRANCH  13  14
ENDBRANCH  12  13
ENDBRANCH   1  12
TORSDOF 14
ENDMDL
