MODEL 1
REMARK VINA RESULT:    -5.147      0.000      0.000
REMARK INTER + INTRA:          -5.592
REMARK INTER:                  -5.448
REMARK INTRA:                  -0.144
REMARK UNBOUND:                -0.144
REMARK SMILES CC1=CC=C(C(C)C)CC1
REMARK SMILES IDX 1 1 2 2 3 3 4 4 5 5 9 6 10 7 6 8 7 9 8 10
REMARK H PARENT
REMARK Flexibility Score: inf
ROOT
ATOM      1  C   UNL     1     112.212 111.081 114.046  1.00  0.00     0.039 C 
ATOM      2  C   UNL     1     112.561 110.999 112.589  1.00  0.00    -0.073 C 
ATOM      3  C   UNL     1     112.893 112.113 111.919  1.00  0.00    -0.001 C 
ATOM      4  C   UNL     1     113.234 112.056 110.484  1.00  0.00    -0.001 C 
ATOM      5  C   UNL     1     113.005 110.944 109.760  1.00  0.00    -0.067 C 
ATOM      6  C   UNL     1     112.287 109.779 110.407  1.00  0.00     0.035 C 
ATOM      7  C   UNL     1     112.639 109.658 111.898  1.00  0.00     0.035 C 
ENDROOT
BRANCH   5   8
ATOM      8  C   UNL     1     113.370 110.872 108.288  1.00  0.00     0.009 C 
ATOM      9  C   UNL     1     112.957 109.530 107.671  1.00  0.00     0.012 C 
ATOM     10  C   UNL     1     112.768 112.049 107.511  1.00  0.00     0.012 C 
ENDBRANCH   5   8
TORSDOF 1
ENDMDL
MODEL 2
REMARK VINA RESULT:    -5.124      3.351      3.420
REMARK INTER + INTRA:          -5.568
REMARK INTER:                  -5.423
REMARK INTRA:                  -0.145
REMARK UNBOUND:                -0.144
REMARK SMILES CC1=CC=C(C(C)C)CC1
REMARK SMILES IDX 1 1 2 2 3 3 4 4 5 5 9 6 10 7 6 8 7 9 8 10
REMARK H PARENT
REMARK Flexibility Score: inf
ROOT
ATOM      1  C   UNL     1     109.143 111.311 114.325  1.00  0.00     0.039 C 
ATOM      2  C   UNL     1     109.373 111.352 112.843  1.00  0.00    -0.073 C 
ATOM      3  C   UNL     1     109.561 112.531 112.229  1.00  0.00    -0.001 C 
ATOM      4  C   UNL     1     109.782 112.596 110.772  1.00  0.00    -0.001 C 
ATOM      5  C   UNL     1     109.580 111.518 109.991  1.00  0.00    -0.067 C 
ATOM      6  C   UNL     1     109.011 110.257 110.607  1.00  0.00     0.035 C 
ATOM      7  C   UNL     1     109.496 110.070 112.053  1.00  0.00     0.035 C 
ENDROOT
BRANCH   5   8
ATOM      8  C   UNL     1     109.824 111.571 108.493  1.00  0.00     0.009 C 
ATOM      9  C   UNL     1     109.398 110.268 107.807  1.00  0.00     0.012 C 
ATOM     10  C   UNL     1     109.128 112.783 107.862  1.00  0.00     0.012 C 
ENDBRANCH   5   8
TORSDOF 1
ENDMDL
MODEL 3
REMARK VINA RESULT:    -5.116      2.962      4.924
REMARK INTER + INTRA:          -5.559
REMARK INTER:                  -5.415
REMARK INTRA:                  -0.144
REMARK UNBOUND:                -0.144
REMARK SMILES CC1=CC=C(C(C)C)CC1
REMARK SMILES IDX 1 1 2 2 3 3 4 4 5 5 9 6 10 7 6 8 7 9 8 10
REMARK H PARENT
REMARK Flexibility Score: inf
ROOT
ATOM      1  C   UNL     1     112.146 111.130 118.956  1.00  0.00     0.039 C 
ATOM      2  C   UNL     1     112.519 111.016 117.507  1.00  0.00    -0.073 C 
ATOM      3  C   UNL     1     112.918 112.105 116.832  1.00  0.00    -0.001 C 
ATOM      4  C   UNL     1     113.282 112.018 115.406  1.00  0.00    -0.001 C 
ATOM      5  C   UNL     1     113.014 110.911 114.687  1.00  0.00    -0.067 C 
ATOM      6  C   UNL     1     112.227 109.788 115.331  1.00  0.00     0.035 C 
ATOM      7  C   UNL     1     112.544 109.665 116.829  1.00  0.00     0.035 C 
ENDROOT
BRANCH   5   8
ATOM      8  C   UNL     1     113.403 110.806 113.224  1.00  0.00     0.009 C 
ATOM      9  C   UNL     1     112.994 109.453 112.628  1.00  0.00     0.012 C 
ATOM     10  C   UNL     1     112.819 111.968 112.411  1.00  0.00     0.012 C 
ENDBRANCH   5   8
TORSDOF 1
ENDMDL
MODEL 4
REMARK VINA RESULT:    -5.097      3.294      3.728
REMARK INTER + INTRA:          -5.539
REMARK INTER:                  -5.374
REMARK INTRA:                  -0.165
REMARK UNBOUND:                -0.144
REMARK SMILES CC1=CC=C(C(C)C)CC1
REMARK SMILES IDX 1 1 2 2 3 3 4 4 5 5 9 6 10 7 6 8 7 9 8 10
REMARK H PARENT
REMARK Flexibility Score: inf
ROOT
ATOM      1  C   UNL     1     109.160 111.197 114.238  1.00  0.00     0.039 C 
ATOM      2  C   UNL     1     109.287 111.331 112.749  1.00  0.00    -0.073 C 
ATOM      3  C   UNL     1     109.124 110.253 111.966  1.00  0.00    -0.001 C 
ATOM      4  C   UNL     1     109.251 110.360 110.500  1.00  0.00    -0.001 C 
ATOM      5  C   UNL     1     109.750 111.471 109.926  1.00  0.00    -0.067 C 
ATOM      6  C   UNL     1     110.290 112.577 110.808  1.00  0.00     0.035 C 
ATOM      7  C   UNL     1     109.497 112.688 112.120  1.00  0.00     0.035 C 
ENDROOT
BRANCH   5   8
ATOM      8  C   UNL     1     109.866 111.596 108.417  1.00  0.00     0.009 C 
ATOM      9  C   UNL     1     109.372 110.329 107.708  1.00  0.00     0.012 C 
ATOM     10  C   UNL     1     109.129 112.840 107.907  1.00  0.00     0.012 C 
ENDBRANCH   5   8
TORSDOF 1
ENDMDL
MODEL 5
REMARK VINA RESULT:    -5.070      3.501      5.996
REMARK INTER + INTRA:          -5.511
REMARK INTER:                  -5.349
REMARK INTRA:                  -0.162
REMARK UNBOUND:                -0.144
REMARK SMILES CC1=CC=C(C(C)C)CC1
REMARK SMILES IDX 1 1 2 2 3 3 4 4 5 5 9 6 10 7 6 8 7 9 8 10
REMARK H PARENT
REMARK Flexibility Score: inf
ROOT
ATOM      1  C   UNL     1     109.423 111.505 109.118  1.00  0.00     0.039 C 
ATOM      2  C   UNL     1     109.486 111.466 110.617  1.00  0.00    -0.073 C 
ATOM      3  C   UNL     1     109.271 110.311 111.265  1.00  0.00    -0.001 C 
ATOM      4  C   UNL     1     109.321 110.251 112.738  1.00  0.00    -0.001 C 
ATOM      5  C   UNL     1     109.356 111.376 113.477  1.00  0.00    -0.067 C 
ATOM      6  C   UNL     1     109.230 112.717 112.784  1.00  0.00     0.035 C 
ATOM      7  C   UNL     1     109.888 112.697 111.396  1.00  0.00     0.035 C 
ENDROOT
BRANCH   5   8
ATOM      8  C   UNL     1     109.427 111.323 114.993  1.00  0.00     0.009 C 
ATOM      9  C   UNL     1     109.086 109.925 115.523  1.00  0.00     0.012 C 
ATOM     10  C   UNL     1     110.798 111.789 115.499  1.00  0.00     0.012 C 
ENDBRANCH   5   8
TORSDOF 1
ENDMDL
MODEL 6
REMARK VINA RESULT:    -5.040      0.485      1.985
REMARK INTER + INTRA:          -5.479
REMARK INTER:                  -5.335
REMARK INTRA:                  -0.145
REMARK UNBOUND:                -0.144
REMARK SMILES CC1=CC=C(C(C)C)CC1
REMARK SMILES IDX 1 1 2 2 3 3 4 4 5 5 9 6 10 7 6 8 7 9 8 10
REMARK H PARENT
REMARK Flexibility Score: inf
ROOT
ATOM      1  C   UNL     1     113.053 110.789 113.994  1.00  0.00     0.039 C 
ATOM      2  C   UNL     1     112.816 110.817 112.513  1.00  0.00    -0.073 C 
ATOM      3  C   UNL     1     112.532 109.679 111.860  1.00  0.00    -0.001 C 
ATOM      4  C   UNL     1     112.302 109.682 110.403  1.00  0.00    -0.001 C 
ATOM      5  C   UNL     1     112.588 110.766 109.658  1.00  0.00    -0.067 C 
ATOM      6  C   UNL     1     113.259 111.954 110.313  1.00  0.00     0.035 C 
ATOM      7  C   UNL     1     112.795 112.131 111.767  1.00  0.00     0.035 C 
ENDROOT
BRANCH   5   8
ATOM      8  C   UNL     1     112.336 110.783 108.161  1.00  0.00     0.009 C 
ATOM      9  C   UNL     1     112.889 112.058 107.512  1.00  0.00     0.012 C 
ATOM     10  C   UNL     1     112.906 109.527 107.489  1.00  0.00     0.012 C 
ENDBRANCH   5   8
TORSDOF 1
ENDMDL
MODEL 7
REMARK VINA RESULT:    -5.036      4.068      6.401
REMARK INTER + INTRA:          -5.475
REMARK INTER:                  -5.331
REMARK INTRA:                  -0.144
REMARK UNBOUND:                -0.144
REMARK SMILES CC1=CC=C(C(C)C)CC1
REMARK SMILES IDX 1 1 2 2 3 3 4 4 5 5 9 6 10 7 6 8 7 9 8 10
REMARK H PARENT
REMARK Flexibility Score: inf
ROOT
ATOM      1  C   UNL     1     109.730 111.483 119.204  1.00  0.00     0.039 C 
ATOM      2  C   UNL     1     109.544 111.489 117.715  1.00  0.00    -0.073 C 
ATOM      3  C   UNL     1     109.304 110.338 117.067  1.00  0.00    -0.001 C 
ATOM      4  C   UNL     1     109.125 110.319 115.603  1.00  0.00    -0.001 C 
ATOM      5  C   UNL     1     109.416 111.400 114.854  1.00  0.00    -0.067 C 
ATOM      6  C   UNL     1     110.041 112.609 115.518  1.00  0.00     0.035 C 
ATOM      7  C   UNL     1     109.524 112.794 116.953  1.00  0.00     0.035 C 
ENDROOT
BRANCH   5   8
ATOM      8  C   UNL     1     109.215 111.395 113.349  1.00  0.00     0.009 C 
ATOM      9  C   UNL     1     109.174 112.820 112.783  1.00  0.00     0.012 C 
ATOM     10  C   UNL     1     110.289 110.552 112.651  1.00  0.00     0.012 C 
ENDBRANCH   5   8
TORSDOF 1
ENDMDL
MODEL 8
REMARK VINA RESULT:    -5.007      1.584      5.026
REMARK INTER + INTRA:          -5.445
REMARK INTER:                  -5.283
REMARK INTRA:                  -0.162
REMARK UNBOUND:                -0.144
REMARK SMILES CC1=CC=C(C(C)C)CC1
REMARK SMILES IDX 1 1 2 2 3 3 4 4 5 5 9 6 10 7 6 8 7 9 8 10
REMARK H PARENT
REMARK Flexibility Score: inf
ROOT
ATOM      1  C   UNL     1     112.846 110.649 104.254  1.00  0.00     0.039 C 
ATOM      2  C   UNL     1     112.791 110.747 105.750  1.00  0.00    -0.073 C 
ATOM      3  C   UNL     1     112.956 111.937 106.347  1.00  0.00    -0.001 C 
ATOM      4  C   UNL     1     112.913 112.056 107.817  1.00  0.00    -0.001 C 
ATOM      5  C   UNL     1     112.936 110.963 108.603  1.00  0.00    -0.067 C 
ATOM      6  C   UNL     1     113.121 109.601 107.965  1.00  0.00     0.035 C 
ATOM      7  C   UNL     1     112.454 109.532 106.583  1.00  0.00     0.035 C 
ENDROOT
BRANCH   5   8
ATOM      8  C   UNL     1     112.873 111.076 110.115  1.00  0.00     0.009 C 
ATOM      9  C   UNL     1     113.163 112.507 110.585  1.00  0.00     0.012 C 
ATOM     10  C   UNL     1     111.525 110.579 110.652  1.00  0.00     0.012 C 
ENDBRANCH   5   8
TORSDOF 1
ENDMDL
MODEL 9
REMARK VINA RESULT:    -4.981      1.061      4.697
REMARK INTER + INTRA:          -5.416
REMARK INTER:                  -5.272
REMARK INTRA:                  -0.145
REMARK UNBOUND:                -0.144
REMARK SMILES CC1=CC=C(C(C)C)CC1
REMARK SMILES IDX 1 1 2 2 3 3 4 4 5 5 9 6 10 7 6 8 7 9 8 10
REMARK H PARENT
REMARK Flexibility Score: inf
ROOT
ATOM      1  C   UNL     1     113.150 110.766 108.921  1.00  0.00     0.039 C 
ATOM      2  C   UNL     1     112.875 110.849 110.393  1.00  0.00    -0.073 C 
ATOM      3  C   UNL     1     112.994 112.024 111.030  1.00  0.00    -0.001 C 
ATOM      4  C   UNL     1     112.735 112.128 112.478  1.00  0.00    -0.001 C 
ATOM      5  C   UNL     1     112.597 111.025 113.239  1.00  0.00    -0.067 C 
ATOM      6  C   UNL     1     112.822 109.665 112.612  1.00  0.00     0.035 C 
ATOM      7  C   UNL     1     112.368 109.640 111.144  1.00  0.00     0.035 C 
ENDROOT
BRANCH   5   8
ATOM      8  C   UNL     1     112.311 111.124 114.727  1.00  0.00     0.009 C 
ATOM      9  C   UNL     1     112.419 109.756 115.412  1.00  0.00     0.012 C 
ATOM     10  C   UNL     1     113.227 112.154 115.399  1.00  0.00     0.012 C 
ENDBRANCH   5   8
TORSDOF 1
ENDMDL
