MODEL 1
REMARK VINA RESULT:    15.445      0.000      0.000
REMARK INTER + INTRA:          18.813
REMARK INTER:                  18.605
REMARK INTRA:                   0.208
REMARK UNBOUND:                 0.208
REMARK SMILES O=c1c(O)c(-c2ccc(O)c(O)c2)oc2cc(O)cc(O)c12
REMARK SMILES IDX 5 1 3 2 2 3 1 4 22 5 20 6 19 7 17 8 16 9 15 10 14 11 6 12
REMARK SMILES IDX 7 13 8 14 9 15 13 16 11 17 10 18 12 20 4 22 21 24 18 26
REMARK H PARENT 10 19 12 21 4 23 21 25 18 27
REMARK Flexibility Score: inf
ROOT
ATOM      1  C   UNL     1       0.078 -17.092 -26.234  1.00  0.00     0.180 A 
ATOM      2  C   UNL     1       1.361 -17.334 -25.705  1.00  0.00     0.208 A 
ATOM      3  C   UNL     1       1.704 -18.641 -25.329  1.00  0.00     0.238 A 
ATOM      4  O   UNL     1       2.847 -18.867 -24.845  1.00  0.00    -0.285 OA
ATOM      5  C   UNL     1       0.773 -19.685 -25.506  1.00  0.00     0.111 A 
ATOM      6  C   UNL     1       1.042 -21.030 -25.157  1.00  0.00     0.134 A 
ATOM      7  C   UNL     1       0.065 -22.014 -25.372  1.00  0.00     0.093 A 
ATOM      8  C   UNL     1      -1.172 -21.680 -25.928  1.00  0.00     0.123 A 
ATOM      9  C   UNL     1      -1.444 -20.352 -26.275  1.00  0.00     0.094 A 
ATOM     10  C   UNL     1      -0.484 -19.357 -26.067  1.00  0.00     0.146 A 
ATOM     11  O   UNL     1      -0.769 -18.104 -26.400  1.00  0.00    -0.452 OA
ENDROOT
BRANCH   1  12
ATOM     12  C   UNL     1      -0.365 -15.738 -26.636  1.00  0.00     0.025 A 
ATOM     13  C   UNL     1      -1.691 -15.344 -26.392  1.00  0.00     0.016 A 
ATOM     14  C   UNL     1      -2.125 -14.063 -26.743  1.00  0.00     0.051 A 
ATOM     15  C   UNL     1      -1.237 -13.153 -27.330  1.00  0.00     0.157 A 
ATOM     16  C   UNL     1       0.528 -14.813 -27.205  1.00  0.00     0.062 A 
ATOM     17  C   UNL     1       0.098 -13.529 -27.557  1.00  0.00     0.158 A 
BRANCH  15  18
ATOM     18  O   UNL     1      -1.674 -11.877 -27.682  1.00  0.00    -0.504 OA
ATOM     19  H   UNL     1      -2.114 -11.261 -27.008  1.00  0.00     0.293 HD
ENDBRANCH  15  18
BRANCH  17  20
ATOM     20  O   UNL     1       1.010 -12.640 -28.125  1.00  0.00    -0.504 OA
ATOM     21  H   UNL     1       1.318 -12.725 -29.086  1.00  0.00     0.293 HD
ENDBRANCH  17  20
ENDBRANCH   1  12
BRANCH   2  22
ATOM     22  O   UNL     1       2.283 -16.290 -25.587  1.00  0.00    -0.502 OA
ATOM     23  H   UNL     1       2.997 -16.276 -24.869  1.00  0.00     0.293 HD
ENDBRANCH   2  22
BRANCH   6  24
ATOM     24  O   UNL     1       2.268 -21.397 -24.600  1.00  0.00    -0.507 OA
ATOM     25  H   UNL     1       2.929 -21.979 -25.100  1.00  0.00     0.293 HD
ENDBRANCH   6  24
BRANCH   8  26
ATOM     26  O   UNL     1      -2.125 -22.675 -26.132  1.00  0.00    -0.508 OA
ATOM     27  H   UNL     1      -2.779 -22.632 -26.905  1.00  0.00     0.293 HD
ENDBRANCH   8  26
TORSDOF 6
ENDMDL
