MODEL 1
REMARK VINA RESULT:    -3.873      0.000      0.000
REMARK INTER + INTRA:          -6.986
REMARK INTER:                  -5.910
REMARK INTRA:                  -1.076
REMARK UNBOUND:                -1.076
REMARK SMILES CCCCCCCCCCC(=O)[O-]
REMARK SMILES IDX 7 1 8 2 9 3 10 4 11 5 12 6 13 7 6 8 5 9 4 10 3 11 2 12 1 13
REMARK H PARENT
REMARK Flexibility Score: inf
ROOT
ATOM      1  C   UNL     1      12.869  35.806  19.213  1.00  0.00     0.000 C 
ENDROOT
BRANCH   1   2
ATOM      2  C   UNL     1      13.827  35.764  20.414  1.00  0.00     0.000 C 
BRANCH   2   3
ATOM      3  C   UNL     1      14.341  34.345  20.715  1.00  0.00     0.006 C 
BRANCH   3   4
ATOM      4  C   UNL     1      13.218  33.301  20.671  1.00  0.00     0.053 C 
BRANCH   4   5
ATOM      5  C   UNL     1      13.375  32.270  21.747  1.00  0.00     0.041 C 
ATOM      6  O   UNL     1      12.362  31.818  22.343  1.00  0.00    -0.550 OA
ATOM      7  O   UNL     1      14.636  31.782  22.065  1.00  0.00    -0.550 OA
ENDBRANCH   4   5
ENDBRANCH   3   4
ENDBRANCH   2   3
ENDBRANCH   1   2
BRANCH   1   8
ATOM      8  C   UNL     1      11.605  36.638  19.496  1.00  0.00     0.000 C 
BRANCH   8   9
ATOM      9  C   UNL     1      10.321  35.793  19.451  1.00  0.00    -0.000 C 
BRANCH   9  10
ATOM     10  C   UNL     1       9.908  35.266  20.832  1.00  0.00    -0.000 C 
BRANCH  10  11
ATOM     11  C   UNL     1      10.354  36.224  21.942  1.00  0.00    -0.000 C 
BRANCH  11  12
ATOM     12  C   UNL     1      11.180  35.490  23.005  1.00  0.00    -0.003 C 
ATOM     13  C   UNL     1      11.041  36.160  24.369  1.00  0.00     0.004 C 
ENDBRANCH  11  12
ENDBRANCH  10  11
ENDBRANCH   9  10
ENDBRANCH   8   9
ENDBRANCH   1   8
TORSDOF 9
ENDMDL
MODEL 2
REMARK VINA RESULT:    -3.668      4.060      6.020
REMARK INTER + INTRA:          -6.674
REMARK INTER:                  -6.251
REMARK INTRA:                  -0.423
REMARK UNBOUND:                -1.076
REMARK SMILES CCCCCCCCCCC(=O)[O-]
REMARK SMILES IDX 7 1 8 2 9 3 10 4 11 5 12 6 13 7 6 8 5 9 4 10 3 11 2 12 1 13
REMARK H PARENT
REMARK Flexibility Score: inf
ROOT
ATOM      1  C   UNL     1       9.188  34.398  20.418  1.00  0.00     0.000 C 
ENDROOT
BRANCH   1   2
ATOM      2  C   UNL     1       7.943  34.279  19.526  1.00  0.00     0.000 C 
BRANCH   2   3
ATOM      3  C   UNL     1       6.697  33.816  20.302  1.00  0.00     0.006 C 
BRANCH   3   4
ATOM      4  C   UNL     1       6.254  32.404  19.895  1.00  0.00     0.053 C 
BRANCH   4   5
ATOM      5  C   UNL     1       5.019  31.976  20.628  1.00  0.00     0.041 C 
ATOM      6  O   UNL     1       4.810  32.378  21.802  1.00  0.00    -0.550 OA
ATOM      7  O   UNL     1       4.083  31.163  20.000  1.00  0.00    -0.550 OA
ENDBRANCH   4   5
ENDBRANCH   3   4
ENDBRANCH   2   3
ENDBRANCH   1   2
BRANCH   1   8
ATOM      8  C   UNL     1       9.592  35.860  20.676  1.00  0.00     0.000 C 
BRANCH   8   9
ATOM      9  C   UNL     1      10.356  36.038  21.998  1.00  0.00    -0.000 C 
BRANCH   9  10
ATOM     10  C   UNL     1      11.880  35.960  21.820  1.00  0.00    -0.000 C 
BRANCH  10  11
ATOM     11  C   UNL     1      12.285  36.337  20.390  1.00  0.00    -0.000 C 
BRANCH  11  12
ATOM     12  C   UNL     1      13.655  35.750  20.033  1.00  0.00    -0.003 C 
ATOM     13  C   UNL     1      13.925  34.466  20.813  1.00  0.00     0.004 C 
ENDBRANCH  11  12
ENDBRANCH  10  11
ENDBRANCH   9  10
ENDBRANCH   8   9
ENDBRANCH   1   8
TORSDOF 9
ENDMDL
MODEL 3
REMARK VINA RESULT:    -3.622      1.807      2.421
REMARK INTER + INTRA:          -6.604
REMARK INTER:                  -6.140
REMARK INTRA:                  -0.464
REMARK UNBOUND:                -1.076
REMARK SMILES CCCCCCCCCCC(=O)[O-]
REMARK SMILES IDX 7 1 8 2 9 3 10 4 11 5 12 6 13 7 6 8 5 9 4 10 3 11 2 12 1 13
REMARK H PARENT
REMARK Flexibility Score: inf
ROOT
ATOM      1  C   UNL     1      14.063  34.746  19.251  1.00  0.00     0.000 C 
ENDROOT
BRANCH   1   2
ATOM      2  C   UNL     1      14.459  34.188  20.628  1.00  0.00     0.000 C 
BRANCH   2   3
ATOM      3  C   UNL     1      15.680  33.253  20.562  1.00  0.00     0.006 C 
BRANCH   3   4
ATOM      4  C   UNL     1      15.481  31.982  21.398  1.00  0.00     0.053 C 
BRANCH   4   5
ATOM      5  C   UNL     1      16.698  31.653  22.207  1.00  0.00     0.041 C 
ATOM      6  O   UNL     1      17.834  32.040  21.828  1.00  0.00    -0.550 OA
ATOM      7  O   UNL     1      16.573  30.950  23.399  1.00  0.00    -0.550 OA
ENDBRANCH   4   5
ENDBRANCH   3   4
ENDBRANCH   2   3
ENDBRANCH   1   2
BRANCH   1   8
ATOM      8  C   UNL     1      13.242  36.043  19.355  1.00  0.00     0.000 C 
BRANCH   8   9
ATOM      9  C   UNL     1      12.600  36.225  20.741  1.00  0.00    -0.000 C 
BRANCH   9  10
ATOM     10  C   UNL     1      11.082  35.989  20.728  1.00  0.00    -0.000 C 
BRANCH  10  11
ATOM     11  C   UNL     1      10.463  36.326  22.090  1.00  0.00    -0.000 C 
BRANCH  11  12
ATOM     12  C   UNL     1      11.158  35.554  23.217  1.00  0.00    -0.003 C 
ATOM     13  C   UNL     1      10.810  36.141  24.582  1.00  0.00     0.004 C 
ENDBRANCH  11  12
ENDBRANCH  10  11
ENDBRANCH   9  10
ENDBRANCH   8   9
ENDBRANCH   1   8
TORSDOF 9
ENDMDL
MODEL 4
REMARK VINA RESULT:    -3.578      2.976      4.115
REMARK INTER + INTRA:          -6.536
REMARK INTER:                  -6.061
REMARK INTRA:                  -0.474
REMARK UNBOUND:                -1.076
REMARK SMILES CCCCCCCCCCC(=O)[O-]
REMARK SMILES IDX 7 1 8 2 9 3 10 4 11 5 12 6 13 7 6 8 5 9 4 10 3 11 2 12 1 13
REMARK H PARENT
REMARK Flexibility Score: inf
ROOT
ATOM      1  C   UNL     1      14.936  32.569  21.385  1.00  0.00     0.000 C 
ENDROOT
BRANCH   1   2
ATOM      2  C   UNL     1      16.267  32.912  20.697  1.00  0.00     0.000 C 
BRANCH   2   3
ATOM      3  C   UNL     1      17.468  32.188  21.331  1.00  0.00     0.006 C 
BRANCH   3   4
ATOM      4  C   UNL     1      17.058  31.336  22.540  1.00  0.00     0.053 C 
BRANCH   4   5
ATOM      5  C   UNL     1      18.197  31.140  23.494  1.00  0.00     0.041 C 
ATOM      6  O   UNL     1      18.071  31.464  24.704  1.00  0.00    -0.550 OA
ATOM      7  O   UNL     1      19.383  30.566  23.054  1.00  0.00    -0.550 OA
ENDBRANCH   4   5
ENDBRANCH   3   4
ENDBRANCH   2   3
ENDBRANCH   1   2
BRANCH   1   8
ATOM      8  C   UNL     1      13.759  33.393  20.833  1.00  0.00     0.000 C 
BRANCH   8   9
ATOM      9  C   UNL     1      14.130  34.865  20.592  1.00  0.00    -0.000 C 
BRANCH   9  10
ATOM     10  C   UNL     1      12.914  35.801  20.647  1.00  0.00    -0.000 C 
BRANCH  10  11
ATOM     11  C   UNL     1      12.368  35.910  22.075  1.00  0.00    -0.000 C 
BRANCH  11  12
ATOM     12  C   UNL     1      10.907  35.452  22.143  1.00  0.00    -0.003 C 
ATOM     13  C   UNL     1      10.016  36.323  21.262  1.00  0.00     0.004 C 
ENDBRANCH  11  12
ENDBRANCH  10  11
ENDBRANCH   9  10
ENDBRANCH   8   9
ENDBRANCH   1   8
TORSDOF 9
ENDMDL
MODEL 5
REMARK VINA RESULT:    -3.569      1.661      2.995
REMARK INTER + INTRA:          -6.523
REMARK INTER:                  -5.735
REMARK INTRA:                  -0.788
REMARK UNBOUND:                -1.076
REMARK SMILES CCCCCCCCCCC(=O)[O-]
REMARK SMILES IDX 7 1 8 2 9 3 10 4 11 5 12 6 13 7 6 8 5 9 4 10 3 11 2 12 1 13
REMARK H PARENT
REMARK Flexibility Score: inf
ROOT
ATOM      1  C   UNL     1      11.482  35.620  22.327  1.00  0.00     0.000 C 
ENDROOT
BRANCH   1   2
ATOM      2  C   UNL     1      12.606  35.816  21.297  1.00  0.00     0.000 C 
BRANCH   2   3
ATOM      3  C   UNL     1      13.272  34.491  20.886  1.00  0.00     0.006 C 
BRANCH   3   4
ATOM      4  C   UNL     1      12.400  33.275  21.225  1.00  0.00     0.053 C 
BRANCH   4   5
ATOM      5  C   UNL     1      13.216  32.138  21.762  1.00  0.00     0.041 C 
ATOM      6  O   UNL     1      14.468  32.241  21.842  1.00  0.00    -0.550 OA
ATOM      7  O   UNL     1      12.590  30.980  22.206  1.00  0.00    -0.550 OA
ENDBRANCH   4   5
ENDBRANCH   3   4
ENDBRANCH   2   3
ENDBRANCH   1   2
BRANCH   1   8
ATOM      8  C   UNL     1      10.156  36.262  21.881  1.00  0.00     0.000 C 
BRANCH   8   9
ATOM      9  C   UNL     1      10.173  36.685  20.403  1.00  0.00    -0.000 C 
BRANCH   9  10
ATOM     10  C   UNL     1       9.156  35.910  19.552  1.00  0.00    -0.000 C 
BRANCH  10  11
ATOM     11  C   UNL     1       8.612  34.696  20.315  1.00  0.00    -0.000 C 
BRANCH  11  12
ATOM     12  C   UNL     1       7.081  34.661  20.274  1.00  0.00    -0.003 C 
ATOM     13  C   UNL     1       6.563  33.225  20.264  1.00  0.00     0.004 C 
ENDBRANCH  11  12
ENDBRANCH  10  11
ENDBRANCH   9  10
ENDBRANCH   8   9
ENDBRANCH   1   8
TORSDOF 9
ENDMDL
MODEL 6
REMARK VINA RESULT:    -3.530      2.888      4.163
REMARK INTER + INTRA:          -6.462
REMARK INTER:                  -5.886
REMARK INTRA:                  -0.576
REMARK UNBOUND:                -1.076
REMARK SMILES CCCCCCCCCCC(=O)[O-]
REMARK SMILES IDX 7 1 8 2 9 3 10 4 11 5 12 6 13 7 6 8 5 9 4 10 3 11 2 12 1 13
REMARK H PARENT
REMARK Flexibility Score: inf
ROOT
ATOM      1  C   UNL     1       9.939  36.307  20.653  1.00  0.00     0.000 C 
ENDROOT
BRANCH   1   2
ATOM      2  C   UNL     1      10.232  36.355  22.161  1.00  0.00     0.000 C 
BRANCH   2   3
ATOM      3  C   UNL     1      11.677  35.949  22.499  1.00  0.00     0.006 C 
BRANCH   3   4
ATOM      4  C   UNL     1      12.591  35.982  21.267  1.00  0.00     0.053 C 
BRANCH   4   5
ATOM      5  C   UNL     1      13.245  34.655  21.025  1.00  0.00     0.041 C 
ATOM      6  O   UNL     1      12.582  33.592  21.144  1.00  0.00    -0.550 OA
ATOM      7  O   UNL     1      14.577  34.597  20.634  1.00  0.00    -0.550 OA
ENDBRANCH   4   5
ENDBRANCH   3   4
ENDBRANCH   2   3
ENDBRANCH   1   2
BRANCH   1   8
ATOM      8  C   UNL     1       8.744  35.399  20.314  1.00  0.00     0.000 C 
BRANCH   8   9
ATOM      9  C   UNL     1       9.163  34.134  19.546  1.00  0.00    -0.000 C 
BRANCH   9  10
ATOM     10  C   UNL     1       8.243  32.936  19.828  1.00  0.00    -0.000 C 
BRANCH  10  11
ATOM     11  C   UNL     1       6.831  33.403  20.197  1.00  0.00    -0.000 C 
BRANCH  11  12
ATOM     12  C   UNL     1       5.830  32.245  20.121  1.00  0.00    -0.003 C 
ATOM     13  C   UNL     1       4.952  32.193  21.368  1.00  0.00     0.004 C 
ENDBRANCH  11  12
ENDBRANCH  10  11
ENDBRANCH   9  10
ENDBRANCH   8   9
ENDBRANCH   1   8
TORSDOF 9
ENDMDL
MODEL 7
REMARK VINA RESULT:    -3.517      4.392      5.981
REMARK INTER + INTRA:          -6.442
REMARK INTER:                  -5.894
REMARK INTRA:                  -0.548
REMARK UNBOUND:                -1.076
REMARK SMILES CCCCCCCCCCC(=O)[O-]
REMARK SMILES IDX 7 1 8 2 9 3 10 4 11 5 12 6 13 7 6 8 5 9 4 10 3 11 2 12 1 13
REMARK H PARENT
REMARK Flexibility Score: inf
ROOT
ATOM      1  C   UNL     1       7.539  35.167  19.840  1.00  0.00     0.000 C 
ENDROOT
BRANCH   1   2
ATOM      2  C   UNL     1       7.430  33.829  19.091  1.00  0.00     0.000 C 
BRANCH   2   3
ATOM      3  C   UNL     1       7.090  32.652  20.022  1.00  0.00     0.006 C 
BRANCH   3   4
ATOM      4  C   UNL     1       5.960  31.779  19.461  1.00  0.00     0.053 C 
BRANCH   4   5
ATOM      5  C   UNL     1       4.755  31.790  20.352  1.00  0.00     0.041 C 
ATOM      6  O   UNL     1       3.703  31.195  20.001  1.00  0.00    -0.550 OA
ATOM      7  O   UNL     1       4.807  32.428  21.586  1.00  0.00    -0.550 OA
ENDBRANCH   4   5
ENDBRANCH   3   4
ENDBRANCH   2   3
ENDBRANCH   1   2
BRANCH   1   8
ATOM      8  C   UNL     1       8.235  36.256  19.004  1.00  0.00     0.000 C 
BRANCH   8   9
ATOM      9  C   UNL     1       9.358  36.966  19.777  1.00  0.00    -0.000 C 
BRANCH   9  10
ATOM     10  C   UNL     1      10.724  36.288  19.597  1.00  0.00    -0.000 C 
BRANCH  10  11
ATOM     11  C   UNL     1      11.385  36.014  20.953  1.00  0.00    -0.000 C 
BRANCH  11  12
ATOM     12  C   UNL     1      10.407  36.274  22.104  1.00  0.00    -0.003 C 
ATOM     13  C   UNL     1      11.033  35.918  23.450  1.00  0.00     0.004 C 
ENDBRANCH  11  12
ENDBRANCH  10  11
ENDBRANCH   9  10
ENDBRANCH   8   9
ENDBRANCH   1   8
TORSDOF 9
ENDMDL
MODEL 8
REMARK VINA RESULT:    -3.501      1.353      2.342
REMARK INTER + INTRA:          -6.419
REMARK INTER:                  -5.879
REMARK INTRA:                  -0.541
REMARK UNBOUND:                -1.076
REMARK SMILES CCCCCCCCCCC(=O)[O-]
REMARK SMILES IDX 7 1 8 2 9 3 10 4 11 5 12 6 13 7 6 8 5 9 4 10 3 11 2 12 1 13
REMARK H PARENT
REMARK Flexibility Score: inf
ROOT
ATOM      1  C   UNL     1      14.866  33.891  19.953  1.00  0.00     0.000 C 
ENDROOT
BRANCH   1   2
ATOM      2  C   UNL     1      16.040  33.246  20.707  1.00  0.00     0.000 C 
BRANCH   2   3
ATOM      3  C   UNL     1      15.627  31.979  21.477  1.00  0.00     0.006 C 
BRANCH   3   4
ATOM      4  C   UNL     1      14.319  31.379  20.945  1.00  0.00     0.053 C 
BRANCH   4   5
ATOM      5  C   UNL     1      13.316  31.176  22.040  1.00  0.00     0.041 C 
ATOM      6  O   UNL     1      13.330  30.120  22.724  1.00  0.00    -0.550 OA
ATOM      7  O   UNL     1      12.388  32.170  22.327  1.00  0.00    -0.550 OA
ENDBRANCH   4   5
ENDBRANCH   3   4
ENDBRANCH   2   3
ENDBRANCH   1   2
BRANCH   1   8
ATOM      8  C   UNL     1      14.168  34.988  20.776  1.00  0.00     0.000 C 
BRANCH   8   9
ATOM      9  C   UNL     1      13.280  35.899  19.913  1.00  0.00    -0.000 C 
BRANCH   9  10
ATOM     10  C   UNL     1      11.945  36.242  20.589  1.00  0.00    -0.000 C 
BRANCH  10  11
ATOM     11  C   UNL     1      11.827  35.552  21.953  1.00  0.00    -0.000 C 
BRANCH  11  12
ATOM     12  C   UNL     1      10.706  36.177  22.791  1.00  0.00    -0.003 C 
ATOM     13  C   UNL     1      11.036  36.121  24.280  1.00  0.00     0.004 C 
ENDBRANCH  11  12
ENDBRANCH  10  11
ENDBRANCH   9  10
ENDBRANCH   8   9
ENDBRANCH   1   8
TORSDOF 9
ENDMDL
MODEL 9
REMARK VINA RESULT:    -3.433      2.996      4.957
REMARK INTER + INTRA:          -6.314
REMARK INTER:                  -5.421
REMARK INTRA:                  -0.893
REMARK UNBOUND:                -1.076
REMARK SMILES CCCCCCCCCCC(=O)[O-]
REMARK SMILES IDX 7 1 8 2 9 3 10 4 11 5 12 6 13 7 6 8 5 9 4 10 3 11 2 12 1 13
REMARK H PARENT
REMARK Flexibility Score: inf
ROOT
ATOM      1  C   UNL     1      11.867  36.157  21.834  1.00  0.00     0.000 C 
ENDROOT
BRANCH   1   2
ATOM      2  C   UNL     1      10.373  35.795  21.846  1.00  0.00     0.000 C 
BRANCH   2   3
ATOM      3  C   UNL     1       9.991  34.812  20.725  1.00  0.00     0.006 C 
BRANCH   3   4
ATOM      4  C   UNL     1       8.886  35.370  19.818  1.00  0.00     0.053 C 
BRANCH   4   5
ATOM      5  C   UNL     1       7.613  34.589  19.949  1.00  0.00     0.041 C 
ATOM      6  O   UNL     1       6.677  35.021  20.671  1.00  0.00    -0.550 OA
ATOM      7  O   UNL     1       7.448  33.404  19.244  1.00  0.00    -0.550 OA
ENDBRANCH   4   5
ENDBRANCH   3   4
ENDBRANCH   2   3
ENDBRANCH   1   2
BRANCH   1   8
ATOM      8  C   UNL     1      12.437  36.259  20.409  1.00  0.00     0.000 C 
BRANCH   8   9
ATOM      9  C   UNL     1      13.827  35.613  20.281  1.00  0.00    -0.000 C 
BRANCH   9  10
ATOM     10  C   UNL     1      13.758  34.100  20.026  1.00  0.00    -0.000 C 
BRANCH  10  11
ATOM     11  C   UNL     1      14.785  33.351  20.883  1.00  0.00    -0.000 C 
BRANCH  11  12
ATOM     12  C   UNL     1      14.131  32.183  21.630  1.00  0.00    -0.003 C 
ATOM     13  C   UNL     1      12.635  32.418  21.821  1.00  0.00     0.004 C 
ENDBRANCH  11  12
ENDBRANCH  10  11
ENDBRANCH   9  10
ENDBRANCH   8   9
ENDBRANCH   1   8
TORSDOF 9
ENDMDL
