MODEL 1
REMARK VINA RESULT:    -3.932      0.000      0.000
REMARK INTER + INTRA:          -4.288
REMARK INTER:                  -4.161
REMARK INTRA:                  -0.126
REMARK UNBOUND:                -0.126
REMARK SMILES C=C(C)[C@H]1CC=C(C)CC1
REMARK SMILES IDX 8 1 7 2 6 3 5 4 4 5 10 6 9 7 2 8 1 9 3 10
REMARK H PARENT
REMARK Flexibility Score: inf
ROOT
ATOM      1  C   UNL     1     -61.724  16.376 -19.524  1.00  0.00     0.039 C 
ATOM      2  C   UNL     1     -60.466  17.022 -19.010  1.00  0.00    -0.077 C 
ATOM      3  C   UNL     1     -59.579  17.524 -19.896  1.00  0.00    -0.027 C 
ATOM      4  C   UNL     1     -58.266  18.143 -19.482  1.00  0.00     0.035 C 
ATOM      5  C   UNL     1     -58.289  18.636 -18.024  1.00  0.00     0.018 C 
ATOM      6  C   UNL     1     -58.855  17.539 -17.111  1.00  0.00     0.013 C 
ATOM      7  C   UNL     1     -60.298  17.208 -17.515  1.00  0.00     0.031 C 
ENDROOT
BRANCH   5   8
ATOM      8  C   UNL     1     -56.907  19.084 -17.570  1.00  0.00    -0.077 C 
ATOM      9  C   UNL     1     -56.770  19.819 -16.455  1.00  0.00     0.008 C 
ATOM     10  C   UNL     1     -55.667  18.729 -18.354  1.00  0.00     0.039 C 
ENDBRANCH   5   8
TORSDOF 1
ENDMDL
MODEL 2
REMARK VINA RESULT:    -3.908      1.180      1.745
REMARK INTER + INTRA:          -4.262
REMARK INTER:                  -4.133
REMARK INTRA:                  -0.129
REMARK UNBOUND:                -0.126
REMARK SMILES C=C(C)[C@H]1CC=C(C)CC1
REMARK SMILES IDX 8 1 7 2 6 3 5 4 4 5 10 6 9 7 2 8 1 9 3 10
REMARK H PARENT
REMARK Flexibility Score: inf
ROOT
ATOM      1  C   UNL     1     -61.624  16.358 -17.881  1.00  0.00     0.039 C 
ATOM      2  C   UNL     1     -60.315  17.081 -17.722  1.00  0.00    -0.077 C 
ATOM      3  C   UNL     1     -60.263  18.177 -16.934  1.00  0.00    -0.027 C 
ATOM      4  C   UNL     1     -59.011  19.000 -16.753  1.00  0.00     0.035 C 
ATOM      5  C   UNL     1     -57.737  18.200 -17.073  1.00  0.00     0.018 C 
ATOM      6  C   UNL     1     -57.899  17.474 -18.416  1.00  0.00     0.013 C 
ATOM      7  C   UNL     1     -59.067  16.482 -18.343  1.00  0.00     0.031 C 
ENDROOT
BRANCH   5   8
ATOM      8  C   UNL     1     -56.505  19.095 -17.066  1.00  0.00    -0.077 C 
ATOM      9  C   UNL     1     -56.414  20.109 -16.190  1.00  0.00     0.008 C 
ATOM     10  C   UNL     1     -55.369  18.879 -18.036  1.00  0.00     0.039 C 
ENDBRANCH   5   8
TORSDOF 1
ENDMDL
MODEL 3
REMARK VINA RESULT:    -3.833      1.283      4.482
REMARK INTER + INTRA:          -4.183
REMARK INTER:                  -4.057
REMARK INTRA:                  -0.127
REMARK UNBOUND:                -0.126
REMARK SMILES C=C(C)[C@H]1CC=C(C)CC1
REMARK SMILES IDX 8 1 7 2 6 3 5 4 4 5 10 6 9 7 2 8 1 9 3 10
REMARK H PARENT
REMARK Flexibility Score: inf
ROOT
ATOM      1  C   UNL     1     -56.756  19.966 -16.433  1.00  0.00     0.039 C 
ATOM      2  C   UNL     1     -57.656  18.926 -17.041  1.00  0.00    -0.077 C 
ATOM      3  C   UNL     1     -58.961  18.904 -16.695  1.00  0.00    -0.027 C 
ATOM      4  C   UNL     1     -59.931  17.869 -17.209  1.00  0.00     0.035 C 
ATOM      5  C   UNL     1     -59.457  17.230 -18.526  1.00  0.00     0.018 C 
ATOM      6  C   UNL     1     -57.988  16.800 -18.398  1.00  0.00     0.013 C 
ATOM      7  C   UNL     1     -57.101  18.021 -18.125  1.00  0.00     0.031 C 
ENDROOT
BRANCH   5   8
ATOM      8  C   UNL     1     -60.349  16.064 -18.929  1.00  0.00    -0.077 C 
ATOM      9  C   UNL     1     -61.681  16.222 -18.978  1.00  0.00     0.008 C 
ATOM     10  C   UNL     1     -59.771  14.713 -19.271  1.00  0.00     0.039 C 
ENDBRANCH   5   8
TORSDOF 1
ENDMDL
MODEL 4
REMARK VINA RESULT:    -3.686     18.563     19.633
REMARK INTER + INTRA:          -4.027
REMARK INTER:                  -3.898
REMARK INTRA:                  -0.129
REMARK UNBOUND:                -0.126
REMARK SMILES C=C(C)[C@H]1CC=C(C)CC1
REMARK SMILES IDX 8 1 7 2 6 3 5 4 4 5 10 6 9 7 2 8 1 9 3 10
REMARK H PARENT
REMARK Flexibility Score: inf
ROOT
ATOM      1  C   UNL     1     -43.599  25.139  -7.143  1.00  0.00     0.039 C 
ATOM      2  C   UNL     1     -44.811  24.962  -6.271  1.00  0.00    -0.077 C 
ATOM      3  C   UNL     1     -45.433  23.763  -6.247  1.00  0.00    -0.027 C 
ATOM      4  C   UNL     1     -46.685  23.502  -5.447  1.00  0.00     0.035 C 
ATOM      5  C   UNL     1     -46.851  24.497  -4.285  1.00  0.00     0.018 C 
ATOM      6  C   UNL     1     -46.640  25.932  -4.792  1.00  0.00     0.013 C 
ATOM      7  C   UNL     1     -45.218  26.092  -5.345  1.00  0.00     0.031 C 
ENDROOT
BRANCH   5   8
ATOM      8  C   UNL     1     -48.205  24.337  -3.608  1.00  0.00    -0.077 C 
ATOM      9  C   UNL     1     -49.113  25.325  -3.675  1.00  0.00     0.008 C 
ATOM     10  C   UNL     1     -48.560  23.085  -2.843  1.00  0.00     0.039 C 
ENDBRANCH   5   8
TORSDOF 1
ENDMDL
MODEL 5
REMARK VINA RESULT:    -3.667     18.589     19.057
REMARK INTER + INTRA:          -4.007
REMARK INTER:                  -3.878
REMARK INTRA:                  -0.129
REMARK UNBOUND:                -0.126
REMARK SMILES C=C(C)[C@H]1CC=C(C)CC1
REMARK SMILES IDX 8 1 7 2 6 3 5 4 4 5 10 6 9 7 2 8 1 9 3 10
REMARK H PARENT
REMARK Flexibility Score: inf
ROOT
ATOM      1  C   UNL     1     -51.357  23.833  -2.302  1.00  0.00     0.039 C 
ATOM      2  C   UNL     1     -50.064  24.121  -3.015  1.00  0.00    -0.077 C 
ATOM      3  C   UNL     1     -49.910  25.309  -3.639  1.00  0.00    -0.027 C 
ATOM      4  C   UNL     1     -48.673  25.670  -4.424  1.00  0.00     0.035 C 
ATOM      5  C   UNL     1     -47.449  24.842  -3.995  1.00  0.00     0.018 C 
ATOM      6  C   UNL     1     -47.821  23.353  -3.936  1.00  0.00     0.013 C 
ATOM      7  C   UNL     1     -48.926  23.125  -2.897  1.00  0.00     0.031 C 
ENDROOT
BRANCH   5   8
ATOM      8  C   UNL     1     -46.264  25.086  -4.919  1.00  0.00    -0.077 C 
ATOM      9  C   UNL     1     -45.878  24.135  -5.785  1.00  0.00     0.008 C 
ATOM     10  C   UNL     1     -45.493  26.382  -4.884  1.00  0.00     0.039 C 
ENDBRANCH   5   8
TORSDOF 1
ENDMDL
MODEL 6
REMARK VINA RESULT:    -3.664     18.318     19.338
REMARK INTER + INTRA:          -4.004
REMARK INTER:                  -3.875
REMARK INTRA:                  -0.129
REMARK UNBOUND:                -0.126
REMARK SMILES C=C(C)[C@H]1CC=C(C)CC1
REMARK SMILES IDX 8 1 7 2 6 3 5 4 4 5 10 6 9 7 2 8 1 9 3 10
REMARK H PARENT
REMARK Flexibility Score: inf
ROOT
ATOM      1  C   UNL     1     -44.172  24.586  -7.287  1.00  0.00     0.039 C 
ATOM      2  C   UNL     1     -45.270  24.439  -6.270  1.00  0.00    -0.077 C 
ATOM      3  C   UNL     1     -45.577  25.491  -5.480  1.00  0.00    -0.027 C 
ATOM      4  C   UNL     1     -46.626  25.425  -4.397  1.00  0.00     0.035 C 
ATOM      5  C   UNL     1     -47.646  24.300  -4.641  1.00  0.00     0.018 C 
ATOM      6  C   UNL     1     -46.912  22.993  -4.973  1.00  0.00     0.013 C 
ATOM      7  C   UNL     1     -46.087  23.161  -6.255  1.00  0.00     0.031 C 
ENDROOT
BRANCH   5   8
ATOM      8  C   UNL     1     -48.579  24.130  -3.450  1.00  0.00    -0.077 C 
ATOM      9  C   UNL     1     -48.633  22.957  -2.799  1.00  0.00     0.008 C 
ATOM     10  C   UNL     1     -49.466  25.257  -2.977  1.00  0.00     0.039 C 
ENDBRANCH   5   8
TORSDOF 1
ENDMDL
MODEL 7
REMARK VINA RESULT:    -3.642     16.767     18.060
REMARK INTER + INTRA:          -3.981
REMARK INTER:                  -3.850
REMARK INTRA:                  -0.131
REMARK UNBOUND:                -0.126
REMARK SMILES C=C(C)[C@H]1CC=C(C)CC1
REMARK SMILES IDX 8 1 7 2 6 3 5 4 4 5 10 6 9 7 2 8 1 9 3 10
REMARK H PARENT
REMARK Flexibility Score: inf
ROOT
ATOM      1  C   UNL     1     -56.166  11.884   0.034  1.00  0.00     0.039 C 
ATOM      2  C   UNL     1     -54.981  12.407  -0.731  1.00  0.00    -0.077 C 
ATOM      3  C   UNL     1     -54.582  11.757  -1.846  1.00  0.00    -0.027 C 
ATOM      4  C   UNL     1     -53.375  12.172  -2.651  1.00  0.00     0.035 C 
ATOM      5  C   UNL     1     -53.004  13.648  -2.426  1.00  0.00     0.018 C 
ATOM      6  C   UNL     1     -52.971  13.954  -0.921  1.00  0.00     0.013 C 
ATOM      7  C   UNL     1     -54.356  13.721  -0.303  1.00  0.00     0.031 C 
ENDROOT
BRANCH   5   8
ATOM      8  C   UNL     1     -51.683  13.996  -3.097  1.00  0.00    -0.077 C 
ATOM      9  C   UNL     1     -50.734  13.057  -3.241  1.00  0.00     0.008 C 
ATOM     10  C   UNL     1     -51.400  15.389  -3.604  1.00  0.00     0.039 C 
ENDBRANCH   5   8
TORSDOF 1
ENDMDL
MODEL 8
REMARK VINA RESULT:    -3.633      8.328      9.882
REMARK INTER + INTRA:          -3.971
REMARK INTER:                  -3.849
REMARK INTRA:                  -0.123
REMARK UNBOUND:                -0.126
REMARK SMILES C=C(C)[C@H]1CC=C(C)CC1
REMARK SMILES IDX 8 1 7 2 6 3 5 4 4 5 10 6 9 7 2 8 1 9 3 10
REMARK H PARENT
REMARK Flexibility Score: inf
ROOT
ATOM      1  C   UNL     1     -57.114  17.451  -7.663  1.00  0.00     0.039 C 
ATOM      2  C   UNL     1     -56.397  16.595  -8.670  1.00  0.00    -0.077 C 
ATOM      3  C   UNL     1     -55.367  15.824  -8.261  1.00  0.00    -0.027 C 
ATOM      4  C   UNL     1     -54.553  14.973  -9.204  1.00  0.00     0.035 C 
ATOM      5  C   UNL     1     -55.317  14.642 -10.498  1.00  0.00     0.018 C 
ATOM      6  C   UNL     1     -55.936  15.922 -11.080  1.00  0.00     0.013 C 
ATOM      7  C   UNL     1     -56.938  16.524 -10.086  1.00  0.00     0.031 C 
ENDROOT
BRANCH   5   8
ATOM      8  C   UNL     1     -54.418  13.945 -11.510  1.00  0.00    -0.077 C 
ATOM      9  C   UNL     1     -54.888  12.913 -12.228  1.00  0.00     0.008 C 
ATOM     10  C   UNL     1     -52.990  14.382 -11.726  1.00  0.00     0.039 C 
ENDBRANCH   5   8
TORSDOF 1
ENDMDL
MODEL 9
REMARK VINA RESULT:    -3.609      8.019      9.794
REMARK INTER + INTRA:          -3.946
REMARK INTER:                  -3.818
REMARK INTRA:                  -0.129
REMARK UNBOUND:                -0.126
REMARK SMILES C=C(C)[C@H]1CC=C(C)CC1
REMARK SMILES IDX 8 1 7 2 6 3 5 4 4 5 10 6 9 7 2 8 1 9 3 10
REMARK H PARENT
REMARK Flexibility Score: inf
ROOT
ATOM      1  C   UNL     1     -61.310  28.504 -13.740  1.00  0.00     0.039 C 
ATOM      2  C   UNL     1     -60.095  27.804 -14.281  1.00  0.00    -0.077 C 
ATOM      3  C   UNL     1     -59.880  26.512 -13.950  1.00  0.00    -0.027 C 
ATOM      4  C   UNL     1     -58.664  25.740 -14.399  1.00  0.00     0.035 C 
ATOM      5  C   UNL     1     -58.023  26.345 -15.659  1.00  0.00     0.018 C 
ATOM      6  C   UNL     1     -57.853  27.861 -15.482  1.00  0.00     0.013 C 
ATOM      7  C   UNL     1     -59.221  28.527 -15.288  1.00  0.00     0.031 C 
ENDROOT
BRANCH   5   8
ATOM      8  C   UNL     1     -56.699  25.668 -15.986  1.00  0.00    -0.077 C 
ATOM      9  C   UNL     1     -55.983  26.069 -17.049  1.00  0.00     0.008 C 
ATOM     10  C   UNL     1     -56.163  24.537 -15.144  1.00  0.00     0.039 C 
ENDBRANCH   5   8
TORSDOF 1
ENDMDL
