MODEL 1
REMARK VINA RESULT:    -5.868      0.000      0.000
REMARK INTER + INTRA:          -7.162
REMARK INTER:                  -6.897
REMARK INTRA:                  -0.264
REMARK UNBOUND:                -0.264
REMARK SMILES O=c1cc(-c2ccc(O)c(O)c2)oc2cc(O)cc(O)c12
REMARK SMILES IDX 4 1 3 2 2 3 1 4 21 5 19 6 18 7 16 8 15 9 14 10 13 11 5 12
REMARK SMILES IDX 6 13 7 14 8 15 12 16 10 17 9 18 11 20 20 22 17 24
REMARK H PARENT 9 19 11 21 20 23 17 25
REMARK Flexibility Score: inf
ROOT
ATOM      1  C   UNL     1      -4.098   9.305   4.985  1.00  0.00     0.138 A 
ATOM      2  C   UNL     1      -5.030   9.472   6.018  1.00  0.00     0.100 A 
ATOM      3  C   UNL     1      -4.586   9.717   7.318  1.00  0.00     0.197 A 
ATOM      4  O   UNL     1      -5.447   9.924   8.211  1.00  0.00    -0.289 OA
ATOM      5  C   UNL     1      -3.198   9.762   7.588  1.00  0.00     0.107 A 
ATOM      6  C   UNL     1      -2.628   9.963   8.882  1.00  0.00     0.134 A 
ATOM      7  C   UNL     1      -1.241  10.105   9.011  1.00  0.00     0.093 A 
ATOM      8  C   UNL     1      -0.399   9.993   7.904  1.00  0.00     0.123 A 
ATOM      9  C   UNL     1      -0.941   9.743   6.643  1.00  0.00     0.094 A 
ATOM     10  C   UNL     1      -2.324   9.630   6.477  1.00  0.00     0.146 A 
ATOM     11  O   UNL     1      -2.801   9.406   5.257  1.00  0.00    -0.456 OA
ENDROOT
BRANCH   1  12
ATOM     12  C   UNL     1      -4.516   9.042   3.585  1.00  0.00     0.021 A 
ATOM     13  C   UNL     1      -4.222   9.943   2.544  1.00  0.00     0.016 A 
ATOM     14  C   UNL     1      -4.636   9.676   1.237  1.00  0.00     0.051 A 
ATOM     15  C   UNL     1      -5.356   8.513   0.946  1.00  0.00     0.157 A 
ATOM     16  C   UNL     1      -5.253   7.881   3.288  1.00  0.00     0.062 A 
ATOM     17  C   UNL     1      -5.669   7.611   1.977  1.00  0.00     0.158 A 
BRANCH  15  18
ATOM     18  O   UNL     1      -5.755   8.273  -0.369  1.00  0.00    -0.504 OA
ATOM     19  H   UNL     1      -6.732   8.249  -0.639  1.00  0.00     0.293 HD
ENDBRANCH  15  18
BRANCH  17  20
ATOM     20  O   UNL     1      -6.390   6.452   1.694  1.00  0.00    -0.504 OA
ATOM     21  H   UNL     1      -5.933   5.552   1.610  1.00  0.00     0.293 HD
ENDBRANCH  17  20
ENDBRANCH   1  12
BRANCH   6  22
ATOM     22  O   UNL     1      -3.372  10.005  10.065  1.00  0.00    -0.507 OA
ATOM     23  H   UNL     1      -2.977  10.066  10.991  1.00  0.00     0.293 HD
ENDBRANCH   6  22
BRANCH   8  24
ATOM     24  O   UNL     1       0.977  10.125   8.072  1.00  0.00    -0.508 OA
ATOM     25  H   UNL     1       1.630   9.841   7.351  1.00  0.00     0.293 HD
ENDBRANCH   8  24
TORSDOF 5
ENDMDL
MODEL 2
REMARK VINA RESULT:    -5.810     15.497     16.970
REMARK INTER + INTRA:          -7.093
REMARK INTER:                  -6.831
REMARK INTRA:                  -0.263
REMARK UNBOUND:                -0.264
REMARK SMILES O=c1cc(-c2ccc(O)c(O)c2)oc2cc(O)cc(O)c12
REMARK SMILES IDX 4 1 3 2 2 3 1 4 21 5 19 6 18 7 16 8 15 9 14 10 13 11 5 12
REMARK SMILES IDX 6 13 7 14 8 15 12 16 10 17 9 18 11 20 20 22 17 24
REMARK H PARENT 9 19 11 21 20 23 17 25
REMARK Flexibility Score: inf
ROOT
ATOM      1  C   UNL     1      -4.201  -6.535   7.662  1.00  0.00     0.138 A 
ATOM      2  C   UNL     1      -3.373  -6.755   8.771  1.00  0.00     0.100 A 
ATOM      3  C   UNL     1      -2.268  -7.600   8.653  1.00  0.00     0.197 A 
ATOM      4  O   UNL     1      -1.510  -7.729   9.648  1.00  0.00    -0.289 OA
ATOM      5  C   UNL     1      -2.012  -8.253   7.424  1.00  0.00     0.107 A 
ATOM      6  C   UNL     1      -0.941  -9.169   7.199  1.00  0.00     0.134 A 
ATOM      7  C   UNL     1      -0.716  -9.665   5.908  1.00  0.00     0.093 A 
ATOM      8  C   UNL     1      -1.560  -9.327   4.850  1.00  0.00     0.123 A 
ATOM      9  C   UNL     1      -2.643  -8.475   5.071  1.00  0.00     0.094 A 
ATOM     10  C   UNL     1      -2.872  -7.937   6.340  1.00  0.00     0.146 A 
ATOM     11  O   UNL     1      -3.906  -7.118   6.505  1.00  0.00    -0.456 OA
ENDROOT
BRANCH   1  12
ATOM     12  C   UNL     1      -5.388  -5.647   7.733  1.00  0.00     0.021 A 
ATOM     13  C   UNL     1      -6.699  -6.159   7.688  1.00  0.00     0.016 A 
ATOM     14  C   UNL     1      -7.798  -5.300   7.747  1.00  0.00     0.051 A 
ATOM     15  C   UNL     1      -7.612  -3.917   7.843  1.00  0.00     0.157 A 
ATOM     16  C   UNL     1      -5.208  -4.254   7.816  1.00  0.00     0.062 A 
ATOM     17  C   UNL     1      -6.311  -3.391   7.876  1.00  0.00     0.158 A 
BRANCH  15  18
ATOM     18  O   UNL     1      -8.730  -3.085   7.901  1.00  0.00    -0.504 OA
ATOM     19  H   UNL     1      -8.721  -2.206   8.405  1.00  0.00     0.293 HD
ENDBRANCH  15  18
BRANCH  17  20
ATOM     20  O   UNL     1      -6.118  -2.013   7.967  1.00  0.00    -0.504 OA
ATOM     21  H   UNL     1      -6.798  -1.412   8.417  1.00  0.00     0.293 HD
ENDBRANCH  17  20
ENDBRANCH   1  12
BRANCH   6  22
ATOM     22  O   UNL     1      -0.090  -9.639   8.203  1.00  0.00    -0.507 OA
ATOM     23  H   UNL     1       0.768 -10.144   8.042  1.00  0.00     0.293 HD
ENDBRANCH   6  22
BRANCH   8  24
ATOM     24  O   UNL     1      -1.315  -9.851   3.583  1.00  0.00    -0.508 OA
ATOM     25  H   UNL     1      -1.145 -10.840   3.441  1.00  0.00     0.293 HD
ENDBRANCH   8  24
TORSDOF 5
ENDMDL
MODEL 3
REMARK VINA RESULT:    -5.156     15.407     18.101
REMARK INTER + INTRA:          -6.324
REMARK INTER:                  -6.021
REMARK INTRA:                  -0.304
REMARK UNBOUND:                -0.264
REMARK SMILES O=c1cc(-c2ccc(O)c(O)c2)oc2cc(O)cc(O)c12
REMARK SMILES IDX 4 1 3 2 2 3 1 4 21 5 19 6 18 7 16 8 15 9 14 10 13 11 5 12
REMARK SMILES IDX 6 13 7 14 8 15 12 16 10 17 9 18 11 20 20 22 17 24
REMARK H PARENT 9 19 11 21 20 23 17 25
REMARK Flexibility Score: inf
ROOT
ATOM      1  C   UNL     1       5.841   3.126  -7.537  1.00  0.00     0.138 A 
ATOM      2  C   UNL     1       5.270   2.734  -8.755  1.00  0.00     0.100 A 
ATOM      3  C   UNL     1       5.138   1.377  -9.051  1.00  0.00     0.197 A 
ATOM      4  O   UNL     1       4.566   1.056 -10.125  1.00  0.00    -0.289 OA
ATOM      5  C   UNL     1       5.608   0.408  -8.133  1.00  0.00     0.107 A 
ATOM      6  C   UNL     1       5.564  -1.002  -8.346  1.00  0.00     0.134 A 
ATOM      7  C   UNL     1       5.953  -1.869  -7.317  1.00  0.00     0.093 A 
ATOM      8  C   UNL     1       6.442  -1.377  -6.107  1.00  0.00     0.123 A 
ATOM      9  C   UNL     1       6.541   0.001  -5.908  1.00  0.00     0.094 A 
ATOM     10  C   UNL     1       6.128   0.891  -6.903  1.00  0.00     0.146 A 
ATOM     11  O   UNL     1       6.225   2.196  -6.669  1.00  0.00    -0.456 OA
ENDROOT
BRANCH   1  12
ATOM     12  C   UNL     1       6.006   4.555  -7.172  1.00  0.00     0.021 A 
ATOM     13  C   UNL     1       6.304   5.536  -8.138  1.00  0.00     0.016 A 
ATOM     14  C   UNL     1       6.465   6.872  -7.766  1.00  0.00     0.051 A 
ATOM     15  C   UNL     1       6.339   7.255  -6.427  1.00  0.00     0.157 A 
ATOM     16  C   UNL     1       5.896   4.945  -5.825  1.00  0.00     0.062 A 
ATOM     17  C   UNL     1       6.056   6.286  -5.450  1.00  0.00     0.158 A 
BRANCH  15  18
ATOM     18  O   UNL     1       6.505   8.597  -6.086  1.00  0.00    -0.504 OA
ATOM     19  H   UNL     1       7.259   9.159  -6.463  1.00  0.00     0.293 HD
ENDBRANCH  15  18
BRANCH  17  20
ATOM     20  O   UNL     1       5.934   6.660  -4.113  1.00  0.00    -0.504 OA
ATOM     21  H   UNL     1       5.557   7.562  -3.846  1.00  0.00     0.293 HD
ENDBRANCH  17  20
ENDBRANCH   1  12
BRANCH   6  22
ATOM     22  O   UNL     1       5.172  -1.599  -9.549  1.00  0.00    -0.507 OA
ATOM     23  H   UNL     1       4.906  -2.567  -9.651  1.00  0.00     0.293 HD
ENDBRANCH   6  22
BRANCH   8  24
ATOM     24  O   UNL     1       6.834  -2.267  -5.111  1.00  0.00    -0.508 OA
ATOM     25  H   UNL     1       7.758  -2.226  -4.696  1.00  0.00     0.293 HD
ENDBRANCH   8  24
TORSDOF 5
ENDMDL
MODEL 4
REMARK VINA RESULT:    -5.117     13.458     16.387
REMARK INTER + INTRA:          -6.278
REMARK INTER:                  -6.000
REMARK INTRA:                  -0.278
REMARK UNBOUND:                -0.264
REMARK SMILES O=c1cc(-c2ccc(O)c(O)c2)oc2cc(O)cc(O)c12
REMARK SMILES IDX 4 1 3 2 2 3 1 4 21 5 19 6 18 7 16 8 15 9 14 10 13 11 5 12
REMARK SMILES IDX 6 13 7 14 8 15 12 16 10 17 9 18 11 20 20 22 17 24
REMARK H PARENT 9 19 11 21 20 23 17 25
REMARK Flexibility Score: inf
ROOT
ATOM      1  C   UNL     1       6.336   6.848  -5.119  1.00  0.00     0.138 A 
ATOM      2  C   UNL     1       6.980   7.503  -6.177  1.00  0.00     0.100 A 
ATOM      3  C   UNL     1       7.124   6.857  -7.405  1.00  0.00     0.197 A 
ATOM      4  O   UNL     1       7.651   7.493  -8.353  1.00  0.00    -0.289 OA
ATOM      5  C   UNL     1       6.646   5.534  -7.563  1.00  0.00     0.107 A 
ATOM      6  C   UNL     1       6.774   4.761  -8.756  1.00  0.00     0.134 A 
ATOM      7  C   UNL     1       6.159   3.505  -8.834  1.00  0.00     0.093 A 
ATOM      8  C   UNL     1       5.475   2.968  -7.743  1.00  0.00     0.123 A 
ATOM      9  C   UNL     1       5.391   3.693  -6.553  1.00  0.00     0.094 A 
ATOM     10  C   UNL     1       5.964   4.963  -6.456  1.00  0.00     0.146 A 
ATOM     11  O   UNL     1       5.848   5.626  -5.310  1.00  0.00    -0.456 OA
ENDROOT
BRANCH   1  12
ATOM     12  C   UNL     1       6.157   7.489  -3.791  1.00  0.00     0.021 A 
ATOM     13  C   UNL     1       5.473   8.711  -3.646  1.00  0.00     0.016 A 
ATOM     14  C   UNL     1       5.327   9.297  -2.387  1.00  0.00     0.051 A 
ATOM     15  C   UNL     1       5.866   8.682  -1.253  1.00  0.00     0.157 A 
ATOM     16  C   UNL     1       6.708   6.882  -2.648  1.00  0.00     0.062 A 
ATOM     17  C   UNL     1       6.563   7.469  -1.384  1.00  0.00     0.158 A 
BRANCH  15  18
ATOM     18  O   UNL     1       5.704   9.291  -0.009  1.00  0.00    -0.504 OA
ATOM     19  H   UNL     1       6.020   8.855   0.849  1.00  0.00     0.293 HD
ENDBRANCH  15  18
BRANCH  17  20
ATOM     20  O   UNL     1       7.106   6.852  -0.258  1.00  0.00    -0.504 OA
ATOM     21  H   UNL     1       6.706   6.984   0.664  1.00  0.00     0.293 HD
ENDBRANCH  17  20
ENDBRANCH   1  12
BRANCH   6  22
ATOM     22  O   UNL     1       7.508   5.166  -9.875  1.00  0.00    -0.507 OA
ATOM     23  H   UNL     1       8.403   4.787 -10.144  1.00  0.00     0.293 HD
ENDBRANCH   6  22
BRANCH   8  24
ATOM     24  O   UNL     1       4.889   1.710  -7.851  1.00  0.00    -0.508 OA
ATOM     25  H   UNL     1       5.374   0.934  -8.287  1.00  0.00     0.293 HD
ENDBRANCH   8  24
TORSDOF 5
ENDMDL
MODEL 5
REMARK VINA RESULT:    -5.027     15.252     16.810
REMARK INTER + INTRA:          -6.174
REMARK INTER:                  -5.910
REMARK INTRA:                  -0.264
REMARK UNBOUND:                -0.264
REMARK SMILES O=c1cc(-c2ccc(O)c(O)c2)oc2cc(O)cc(O)c12
REMARK SMILES IDX 4 1 3 2 2 3 1 4 21 5 19 6 18 7 16 8 15 9 14 10 13 11 5 12
REMARK SMILES IDX 6 13 7 14 8 15 12 16 10 17 9 18 11 20 20 22 17 24
REMARK H PARENT 9 19 11 21 20 23 17 25
REMARK Flexibility Score: inf
ROOT
ATOM      1  C   UNL     1      -4.308  -6.875   7.923  1.00  0.00     0.138 A 
ATOM      2  C   UNL     1      -5.474  -7.588   7.612  1.00  0.00     0.100 A 
ATOM      3  C   UNL     1      -6.700  -6.923   7.572  1.00  0.00     0.197 A 
ATOM      4  O   UNL     1      -7.719  -7.577   7.230  1.00  0.00    -0.289 OA
ATOM      5  C   UNL     1      -6.761  -5.543   7.876  1.00  0.00     0.107 A 
ATOM      6  C   UNL     1      -7.961  -4.770   7.907  1.00  0.00     0.134 A 
ATOM      7  C   UNL     1      -7.886  -3.386   8.107  1.00  0.00     0.093 A 
ATOM      8  C   UNL     1      -6.663  -2.756   8.337  1.00  0.00     0.123 A 
ATOM      9  C   UNL     1      -5.489  -3.510   8.364  1.00  0.00     0.094 A 
ATOM     10  C   UNL     1      -5.528  -4.888   8.133  1.00  0.00     0.146 A 
ATOM     11  O   UNL     1      -4.386  -5.568   8.151  1.00  0.00    -0.456 OA
ENDROOT
BRANCH   1  12
ATOM     12  C   UNL     1      -2.978  -7.532   7.981  1.00  0.00     0.021 A 
ATOM     13  C   UNL     1      -2.211  -7.548   9.162  1.00  0.00     0.016 A 
ATOM     14  C   UNL     1      -0.958  -8.165   9.185  1.00  0.00     0.051 A 
ATOM     15  C   UNL     1      -0.445  -8.770   8.034  1.00  0.00     0.157 A 
ATOM     16  C   UNL     1      -2.450  -8.130   6.822  1.00  0.00     0.062 A 
ATOM     17  C   UNL     1      -1.192  -8.750   6.845  1.00  0.00     0.158 A 
BRANCH  15  18
ATOM     18  O   UNL     1       0.809  -9.378   8.089  1.00  0.00    -0.504 OA
ATOM     19  H   UNL     1       0.948 -10.348   7.831  1.00  0.00     0.293 HD
ENDBRANCH  15  18
BRANCH  17  20
ATOM     20  O   UNL     1      -0.685  -9.347   5.692  1.00  0.00    -0.504 OA
ATOM     21  H   UNL     1      -1.209 -10.050   5.184  1.00  0.00     0.293 HD
ENDBRANCH  17  20
ENDBRANCH   1  12
BRANCH   6  22
ATOM     22  O   UNL     1      -9.243  -5.311   7.773  1.00  0.00    -0.507 OA
ATOM     23  H   UNL     1     -10.066  -4.788   7.515  1.00  0.00     0.293 HD
ENDBRANCH   6  22
BRANCH   8  24
ATOM     24  O   UNL     1      -6.627  -1.380   8.548  1.00  0.00    -0.508 OA
ATOM     25  H   UNL     1      -6.082  -0.972   9.298  1.00  0.00     0.293 HD
ENDBRANCH   8  24
TORSDOF 5
ENDMDL
MODEL 6
REMARK VINA RESULT:    -4.899     14.752     16.447
REMARK INTER + INTRA:          -6.023
REMARK INTER:                  -5.722
REMARK INTRA:                  -0.300
REMARK UNBOUND:                -0.264
REMARK SMILES O=c1cc(-c2ccc(O)c(O)c2)oc2cc(O)cc(O)c12
REMARK SMILES IDX 4 1 3 2 2 3 1 4 21 5 19 6 18 7 16 8 15 9 14 10 13 11 5 12
REMARK SMILES IDX 6 13 7 14 8 15 12 16 10 17 9 18 11 20 20 22 17 24
REMARK H PARENT 9 19 11 21 20 23 17 25
REMARK Flexibility Score: inf
ROOT
ATOM      1  C   UNL     1      -4.561  -5.959   8.064  1.00  0.00     0.138 A 
ATOM      2  C   UNL     1      -4.504  -4.875   8.950  1.00  0.00     0.100 A 
ATOM      3  C   UNL     1      -5.597  -4.014   9.060  1.00  0.00     0.197 A 
ATOM      4  O   UNL     1      -5.540  -3.086   9.907  1.00  0.00    -0.289 OA
ATOM      5  C   UNL     1      -6.741  -4.225   8.253  1.00  0.00     0.107 A 
ATOM      6  C   UNL     1      -7.898  -3.389   8.250  1.00  0.00     0.134 A 
ATOM      7  C   UNL     1      -9.017  -3.761   7.495  1.00  0.00     0.093 A 
ATOM      8  C   UNL     1      -8.999  -4.906   6.697  1.00  0.00     0.123 A 
ATOM      9  C   UNL     1      -7.854  -5.701   6.650  1.00  0.00     0.094 A 
ATOM     10  C   UNL     1      -6.734  -5.374   7.419  1.00  0.00     0.146 A 
ATOM     11  O   UNL     1      -5.668  -6.166   7.359  1.00  0.00    -0.456 OA
ENDROOT
BRANCH   1  12
ATOM     12  C   UNL     1      -3.427  -6.904   7.908  1.00  0.00     0.021 A 
ATOM     13  C   UNL     1      -2.614  -7.271   8.998  1.00  0.00     0.016 A 
ATOM     14  C   UNL     1      -1.547  -8.155   8.821  1.00  0.00     0.051 A 
ATOM     15  C   UNL     1      -1.266  -8.682   7.556  1.00  0.00     0.157 A 
ATOM     16  C   UNL     1      -3.130  -7.427   6.636  1.00  0.00     0.062 A 
ATOM     17  C   UNL     1      -2.060  -8.315   6.457  1.00  0.00     0.158 A 
BRANCH  15  18
ATOM     18  O   UNL     1      -0.195  -9.563   7.411  1.00  0.00    -0.504 OA
ATOM     19  H   UNL     1       0.382  -9.576   6.578  1.00  0.00     0.293 HD
ENDBRANCH  15  18
BRANCH  17  20
ATOM     20  O   UNL     1      -1.783  -8.833   5.193  1.00  0.00    -0.504 OA
ATOM     21  H   UNL     1      -1.986  -8.310   4.350  1.00  0.00     0.293 HD
ENDBRANCH  17  20
ENDBRANCH   1  12
BRANCH   6  22
ATOM     22  O   UNL     1      -7.990  -2.179   8.944  1.00  0.00    -0.507 OA
ATOM     23  H   UNL     1      -8.849  -1.683   9.126  1.00  0.00     0.293 HD
ENDBRANCH   6  22
BRANCH   8  24
ATOM     24  O   UNL     1     -10.125  -5.238   5.947  1.00  0.00    -0.508 OA
ATOM     25  H   UNL     1     -10.287  -6.184   5.623  1.00  0.00     0.293 HD
ENDBRANCH   8  24
TORSDOF 5
ENDMDL
MODEL 7
REMARK VINA RESULT:    -4.695      2.949      7.033
REMARK INTER + INTRA:          -5.783
REMARK INTER:                  -5.488
REMARK INTRA:                  -0.295
REMARK UNBOUND:                -0.264
REMARK SMILES O=c1cc(-c2ccc(O)c(O)c2)oc2cc(O)cc(O)c12
REMARK SMILES IDX 4 1 3 2 2 3 1 4 21 5 19 6 18 7 16 8 15 9 14 10 13 11 5 12
REMARK SMILES IDX 6 13 7 14 8 15 12 16 10 17 9 18 11 20 20 22 17 24
REMARK H PARENT 9 19 11 21 20 23 17 25
REMARK Flexibility Score: inf
ROOT
ATOM      1  C   UNL     1      -2.192   9.822   7.571  1.00  0.00     0.138 A 
ATOM      2  C   UNL     1      -2.534   9.942   6.217  1.00  0.00     0.100 A 
ATOM      3  C   UNL     1      -3.878   9.954   5.842  1.00  0.00     0.197 A 
ATOM      4  O   UNL     1      -4.155  10.125   4.627  1.00  0.00    -0.289 OA
ATOM      5  C   UNL     1      -4.883   9.815   6.829  1.00  0.00     0.107 A 
ATOM      6  C   UNL     1      -6.285   9.773   6.560  1.00  0.00     0.134 A 
ATOM      7  C   UNL     1      -7.192   9.749   7.627  1.00  0.00     0.093 A 
ATOM      8  C   UNL     1      -6.748   9.705   8.949  1.00  0.00     0.123 A 
ATOM      9  C   UNL     1      -5.380   9.690   9.221  1.00  0.00     0.094 A 
ATOM     10  C   UNL     1      -4.450   9.748   8.179  1.00  0.00     0.146 A 
ATOM     11  O   UNL     1      -3.156   9.748   8.482  1.00  0.00    -0.456 OA
ENDROOT
BRANCH   1  12
ATOM     12  C   UNL     1      -0.778   9.802   8.023  1.00  0.00     0.021 A 
ATOM     13  C   UNL     1      -0.440   9.759   9.390  1.00  0.00     0.016 A 
ATOM     14  C   UNL     1       0.899   9.751   9.789  1.00  0.00     0.051 A 
ATOM     15  C   UNL     1       1.922   9.793   8.837  1.00  0.00     0.157 A 
ATOM     16  C   UNL     1       0.256   9.857   7.071  1.00  0.00     0.062 A 
ATOM     17  C   UNL     1       1.600   9.849   7.471  1.00  0.00     0.158 A 
BRANCH  15  18
ATOM     18  O   UNL     1       3.249   9.783   9.266  1.00  0.00    -0.504 OA
ATOM     19  H   UNL     1       3.497   9.749  10.247  1.00  0.00     0.293 HD
ENDBRANCH  15  18
BRANCH  17  20
ATOM     20  O   UNL     1       2.615   9.895   6.516  1.00  0.00    -0.504 OA
ATOM     21  H   UNL     1       2.536  10.470   5.686  1.00  0.00     0.293 HD
ENDBRANCH  17  20
ENDBRANCH   1  12
BRANCH   6  22
ATOM     22  O   UNL     1      -6.833   9.728   5.275  1.00  0.00    -0.507 OA
ATOM     23  H   UNL     1      -7.639   9.182   5.011  1.00  0.00     0.293 HD
ENDBRANCH   6  22
BRANCH   8  24
ATOM     24  O   UNL     1      -7.679   9.666   9.984  1.00  0.00    -0.508 OA
ATOM     25  H   UNL     1      -7.607  10.282  10.786  1.00  0.00     0.293 HD
ENDBRANCH   8  24
TORSDOF 5
ENDMDL
