MODEL 1
REMARK VINA RESULT:    -7.979      0.000      0.000
REMARK INTER + INTRA:         -10.018
REMARK INTER:                  -9.378
REMARK INTRA:                  -0.640
REMARK UNBOUND:                -0.640
REMARK SMILES C=C(C)[C@H]1CC[C@@]2(CO)CC[C@@]3(C)[C@@H](CC[C@@H]4[C@@]5(C)CC[C@H](O)C(C)(C)[C@@H]5CC[C@@]43C)[C@H]12
REMARK SMILES IDX 4 1 5 2 6 3 7 4 32 5 14 6 15 7 16 8 17 9 18 10 20 11 21 12
REMARK SMILES IDX 22 13 24 14 27 15 28 16 29 17 30 18 12 19 11 20 10 21 13 22
REMARK SMILES IDX 31 23 25 24 26 25 19 26 2 27 3 28 1 29 8 30 9 31 23 33
REMARK H PARENT 9 32 23 34
REMARK Flexibility Score: inf
ROOT
ATOM      1  C   UNL     1      16.166  29.727  29.602  1.00  0.00     0.018 C 
ATOM      2  C   UNL     1      14.745  30.314  29.796  1.00  0.00     0.009 C 
ATOM      3  C   UNL     1      14.906  31.580  30.660  1.00  0.00     0.010 C 
ATOM      4  C   UNL     1      16.389  31.955  30.528  1.00  0.00    -0.003 C 
ATOM      5  C   UNL     1      17.044  30.566  30.550  1.00  0.00     0.008 C 
ATOM      6  C   UNL     1      18.585  30.634  30.335  1.00  0.00    -0.000 C 
ATOM      7  C   UNL     1      19.207  29.227  30.301  1.00  0.00     0.005 C 
ATOM      8  C   UNL     1      20.716  29.168  30.584  1.00  0.00     0.005 C 
ATOM      9  C   UNL     1      21.519  30.490  30.364  1.00  0.00     0.002 C 
ATOM     10  C   UNL     1      23.068  30.309  30.755  1.00  0.00    -0.026 C 
ATOM     11  C   UNL     1      23.745  29.404  29.673  1.00  0.00     0.010 C 
ATOM     12  C   UNL     1      25.268  29.336  29.796  1.00  0.00     0.033 C 
ATOM     13  C   UNL     1      25.901  30.729  29.652  1.00  0.00     0.120 C 
ATOM     14  C   UNL     1      25.376  31.730  30.730  1.00  0.00    -0.006 C 
ATOM     15  C   UNL     1      23.785  31.710  30.724  1.00  0.00     0.003 C 
ATOM     16  C   UNL     1      23.128  32.774  31.650  1.00  0.00     0.005 C 
ATOM     17  C   UNL     1      21.664  32.495  32.026  1.00  0.00     0.008 C 
ATOM     18  C   UNL     1      20.813  31.836  30.892  1.00  0.00    -0.024 C 
ATOM     19  C   UNL     1      19.297  31.576  31.397  1.00  0.00    -0.024 C 
ATOM     20  C   UNL     1      18.487  32.930  31.568  1.00  0.00     0.008 C 
ATOM     21  C   UNL     1      16.958  32.753  31.722  1.00  0.00     0.010 C 
ATOM     22  C   UNL     1      19.288  30.914  32.823  1.00  0.00     0.012 C 
ATOM     23  C   UNL     1      20.801  32.877  29.708  1.00  0.00     0.012 C 
ATOM     24  C   UNL     1      26.041  31.423  32.109  1.00  0.00     0.014 C 
ATOM     25  C   UNL     1      25.847  33.150  30.308  1.00  0.00     0.014 C 
ATOM     26  C   UNL     1      23.213  29.603  32.140  1.00  0.00     0.012 C 
ENDROOT
BRANCH   1  27
ATOM     27  C   UNL     1      16.201  28.226  29.875  1.00  0.00    -0.077 C 
ATOM     28  C   UNL     1      16.581  27.234  28.801  1.00  0.00     0.039 C 
ATOM     29  C   UNL     1      15.917  27.759  31.102  1.00  0.00     0.008 C 
ENDBRANCH   1  27
BRANCH   4  30
ATOM     30  C   UNL     1      16.569  32.745  29.182  1.00  0.00     0.163 C 
BRANCH  30  31
ATOM     31  O   UNL     1      15.813  33.926  29.207  1.00  0.00    -0.396 OA
ATOM     32  H   UNL     1      16.457  34.665  29.360  1.00  0.00     0.210 HD
ENDBRANCH  30  31
ENDBRANCH   4  30
BRANCH  13  33
ATOM     33  O   UNL     1      27.302  30.619  29.726  1.00  0.00    -0.393 OA
ATOM     34  H   UNL     1      27.645  30.654  28.794  1.00  0.00     0.210 HD
ENDBRANCH  13  33
TORSDOF 4
ENDMDL
MODEL 2
REMARK VINA RESULT:    -5.853      2.454      4.209
REMARK INTER + INTRA:          -7.520
REMARK INTER:                  -6.896
REMARK INTRA:                  -0.624
REMARK UNBOUND:                -0.640
REMARK SMILES C=C(C)[C@H]1CC[C@@]2(CO)CC[C@@]3(C)[C@@H](CC[C@@H]4[C@@]5(C)CC[C@H](O)C(C)(C)[C@@H]5CC[C@@]43C)[C@H]12
REMARK SMILES IDX 4 1 5 2 6 3 7 4 32 5 14 6 15 7 16 8 17 9 18 10 20 11 21 12
REMARK SMILES IDX 22 13 24 14 27 15 28 16 29 17 30 18 12 19 11 20 10 21 13 22
REMARK SMILES IDX 31 23 25 24 26 25 19 26 2 27 3 28 1 29 8 30 9 31 23 33
REMARK H PARENT 9 32 23 34
REMARK Flexibility Score: inf
ROOT
ATOM      1  C   UNL     1      15.507  27.431  30.949  1.00  0.00     0.018 C 
ATOM      2  C   UNL     1      14.435  26.708  30.095  1.00  0.00     0.009 C 
ATOM      3  C   UNL     1      15.005  26.604  28.667  1.00  0.00     0.010 C 
ATOM      4  C   UNL     1      16.517  26.805  28.837  1.00  0.00    -0.003 C 
ATOM      5  C   UNL     1      16.547  27.900  29.913  1.00  0.00     0.008 C 
ATOM      6  C   UNL     1      17.997  28.250  30.363  1.00  0.00    -0.000 C 
ATOM      7  C   UNL     1      17.995  29.304  31.483  1.00  0.00     0.005 C 
ATOM      8  C   UNL     1      19.313  30.074  31.664  1.00  0.00     0.005 C 
ATOM      9  C   UNL     1      20.601  29.394  31.099  1.00  0.00     0.002 C 
ATOM     10  C   UNL     1      21.895  30.328  31.297  1.00  0.00    -0.026 C 
ATOM     11  C   UNL     1      22.254  30.352  32.820  1.00  0.00     0.010 C 
ATOM     12  C   UNL     1      23.597  31.018  33.122  1.00  0.00     0.033 C 
ATOM     13  C   UNL     1      24.752  30.288  32.417  1.00  0.00     0.120 C 
ATOM     14  C   UNL     1      24.569  30.256  30.866  1.00  0.00    -0.006 C 
ATOM     15  C   UNL     1      23.117  29.703  30.527  1.00  0.00     0.003 C 
ATOM     16  C   UNL     1      22.855  29.477  29.009  1.00  0.00     0.005 C 
ATOM     17  C   UNL     1      21.374  29.398  28.608  1.00  0.00     0.008 C 
ATOM     18  C   UNL     1      20.451  28.696  29.656  1.00  0.00    -0.024 C 
ATOM     19  C   UNL     1      18.916  28.678  29.141  1.00  0.00    -0.024 C 
ATOM     20  C   UNL     1      18.712  27.686  27.919  1.00  0.00     0.008 C 
ATOM     21  C   UNL     1      17.235  27.365  27.589  1.00  0.00     0.010 C 
ATOM     22  C   UNL     1      18.493  30.090  28.594  1.00  0.00     0.012 C 
ATOM     23  C   UNL     1      20.984  27.217  29.772  1.00  0.00     0.012 C 
ATOM     24  C   UNL     1      24.907  31.656  30.261  1.00  0.00     0.014 C 
ATOM     25  C   UNL     1      25.617  29.256  30.299  1.00  0.00     0.014 C 
ATOM     26  C   UNL     1      21.598  31.791  30.843  1.00  0.00     0.012 C 
ENDROOT
BRANCH   1  27
ATOM     27  C   UNL     1      14.902  28.553  31.787  1.00  0.00    -0.077 C 
ATOM     28  C   UNL     1      14.330  29.797  31.150  1.00  0.00     0.039 C 
ATOM     29  C   UNL     1      14.844  28.437  33.123  1.00  0.00     0.008 C 
ENDBRANCH   1  27
BRANCH   4  30
ATOM     30  C   UNL     1      17.140  25.432  29.279  1.00  0.00     0.163 C 
BRANCH  30  31
ATOM     31  O   UNL     1      16.505  24.374  28.613  1.00  0.00    -0.396 OA
ATOM     32  H   UNL     1      15.549  24.412  28.876  1.00  0.00     0.210 HD
ENDBRANCH  30  31
ENDBRANCH   4  30
BRANCH  13  33
ATOM     33  O   UNL     1      25.972  30.903  32.754  1.00  0.00    -0.393 OA
ATOM     34  H   UNL     1      25.804  31.455  33.563  1.00  0.00     0.210 HD
ENDBRANCH  13  33
TORSDOF 4
ENDMDL
MODEL 3
REMARK VINA RESULT:    -5.360      1.926      7.848
REMARK INTER + INTRA:          -6.940
REMARK INTER:                  -7.666
REMARK INTRA:                   0.725
REMARK UNBOUND:                -0.640
REMARK SMILES C=C(C)[C@H]1CC[C@@]2(CO)CC[C@@]3(C)[C@@H](CC[C@@H]4[C@@]5(C)CC[C@H](O)C(C)(C)[C@@H]5CC[C@@]43C)[C@H]12
REMARK SMILES IDX 4 1 5 2 6 3 7 4 32 5 14 6 15 7 16 8 17 9 18 10 20 11 21 12
REMARK SMILES IDX 22 13 24 14 27 15 28 16 29 17 30 18 12 19 11 20 10 21 13 22
REMARK SMILES IDX 31 23 25 24 26 25 19 26 2 27 3 28 1 29 8 30 9 31 23 33
REMARK H PARENT 9 32 23 34
REMARK Flexibility Score: inf
ROOT
ATOM      1  C   UNL     1      24.983  29.258  30.404  1.00  0.00     0.018 C 
ATOM      2  C   UNL     1      26.270  29.999  30.845  1.00  0.00     0.009 C 
ATOM      3  C   UNL     1      25.824  31.362  31.407  1.00  0.00     0.010 C 
ATOM      4  C   UNL     1      24.334  31.182  31.727  1.00  0.00    -0.003 C 
ATOM      5  C   UNL     1      23.880  30.327  30.534  1.00  0.00     0.008 C 
ATOM      6  C   UNL     1      22.386  29.900  30.643  1.00  0.00    -0.000 C 
ATOM      7  C   UNL     1      21.976  28.996  29.469  1.00  0.00     0.005 C 
ATOM      8  C   UNL     1      20.466  28.916  29.196  1.00  0.00     0.005 C 
ATOM      9  C   UNL     1      19.522  29.300  30.381  1.00  0.00     0.002 C 
ATOM     10  C   UNL     1      17.976  29.235  29.946  1.00  0.00    -0.026 C 
ATOM     11  C   UNL     1      17.579  27.732  29.768  1.00  0.00     0.010 C 
ATOM     12  C   UNL     1      16.077  27.513  29.577  1.00  0.00     0.033 C 
ATOM     13  C   UNL     1      15.281  28.030  30.786  1.00  0.00     0.120 C 
ATOM     14  C   UNL     1      15.516  29.554  31.039  1.00  0.00    -0.006 C 
ATOM     15  C   UNL     1      17.082  29.834  31.095  1.00  0.00     0.003 C 
ATOM     16  C   UNL     1      17.458  31.292  31.490  1.00  0.00     0.005 C 
ATOM     17  C   UNL     1      18.884  31.721  31.113  1.00  0.00     0.008 C 
ATOM     18  C   UNL     1      19.960  30.594  31.235  1.00  0.00    -0.024 C 
ATOM     19  C   UNL     1      21.418  31.148  30.803  1.00  0.00    -0.024 C 
ATOM     20  C   UNL     1      22.002  32.171  31.867  1.00  0.00     0.008 C 
ATOM     21  C   UNL     1      23.507  32.486  31.700  1.00  0.00     0.010 C 
ATOM     22  C   UNL     1      21.331  31.962  29.461  1.00  0.00     0.012 C 
ATOM     23  C   UNL     1      19.981  30.187  32.758  1.00  0.00     0.012 C 
ATOM     24  C   UNL     1      14.726  30.396  29.987  1.00  0.00     0.014 C 
ATOM     25  C   UNL     1      14.911  29.889  32.432  1.00  0.00     0.014 C 
ATOM     26  C   UNL     1      17.751  29.963  28.584  1.00  0.00     0.012 C 
ENDROOT
BRANCH   1  27
ATOM     27  C   UNL     1      25.122  28.664  29.005  1.00  0.00    -0.077 C 
ATOM     28  C   UNL     1      24.455  27.363  28.628  1.00  0.00     0.039 C 
ATOM     29  C   UNL     1      25.827  29.315  28.066  1.00  0.00     0.008 C 
ENDBRANCH   1  27
BRANCH   4  30
ATOM     30  C   UNL     1      24.223  30.471  33.124  1.00  0.00     0.163 C 
BRANCH  30  31
ATOM     31  O   UNL     1      23.529  29.259  32.998  1.00  0.00    -0.396 OA
ATOM     32  H   UNL     1      23.237  29.008  33.913  1.00  0.00     0.210 HD
ENDBRANCH  30  31
ENDBRANCH   4  30
BRANCH  13  33
ATOM     33  O   UNL     1      13.911  27.772  30.592  1.00  0.00    -0.393 OA
ATOM     34  H   UNL     1      13.793  26.786  30.643  1.00  0.00     0.210 HD
ENDBRANCH  13  33
TORSDOF 4
ENDMDL
MODEL 4
REMARK VINA RESULT:    -5.338      1.840      2.958
REMARK INTER + INTRA:          -6.914
REMARK INTER:                  -6.696
REMARK INTRA:                  -0.219
REMARK UNBOUND:                -0.640
REMARK SMILES C=C(C)[C@H]1CC[C@@]2(CO)CC[C@@]3(C)[C@@H](CC[C@@H]4[C@@]5(C)CC[C@H](O)C(C)(C)[C@@H]5CC[C@@]43C)[C@H]12
REMARK SMILES IDX 4 1 5 2 6 3 7 4 32 5 14 6 15 7 16 8 17 9 18 10 20 11 21 12
REMARK SMILES IDX 22 13 24 14 27 15 28 16 29 17 30 18 12 19 11 20 10 21 13 22
REMARK SMILES IDX 31 23 25 24 26 25 19 26 2 27 3 28 1 29 8 30 9 31 23 33
REMARK H PARENT 9 32 23 34
REMARK Flexibility Score: inf
ROOT
ATOM      1  C   UNL     1      19.163  28.072  28.442  1.00  0.00     0.018 C 
ATOM      2  C   UNL     1      17.629  28.056  28.657  1.00  0.00     0.009 C 
ATOM      3  C   UNL     1      17.345  28.957  29.874  1.00  0.00     0.010 C 
ATOM      4  C   UNL     1      18.601  29.827  30.015  1.00  0.00    -0.003 C 
ATOM      5  C   UNL     1      19.701  28.808  29.684  1.00  0.00     0.008 C 
ATOM      6  C   UNL     1      21.119  29.453  29.659  1.00  0.00    -0.000 C 
ATOM      7  C   UNL     1      22.193  28.425  29.267  1.00  0.00     0.005 C 
ATOM      8  C   UNL     1      23.630  28.787  29.673  1.00  0.00     0.005 C 
ATOM      9  C   UNL     1      23.918  30.298  29.945  1.00  0.00     0.002 C 
ATOM     10  C   UNL     1      25.435  30.532  30.421  1.00  0.00    -0.026 C 
ATOM     11  C   UNL     1      26.376  30.301  29.192  1.00  0.00     0.010 C 
ATOM     12  C   UNL     1      27.828  30.711  29.444  1.00  0.00     0.033 C 
ATOM     13  C   UNL     1      27.931  32.204  29.793  1.00  0.00     0.120 C 
ATOM     14  C   UNL     1      27.099  32.573  31.063  1.00  0.00    -0.006 C 
ATOM     15  C   UNL     1      25.616  32.025  30.887  1.00  0.00     0.003 C 
ATOM     16  C   UNL     1      24.637  32.453  32.018  1.00  0.00     0.005 C 
ATOM     17  C   UNL     1      23.367  31.595  32.140  1.00  0.00     0.008 C 
ATOM     18  C   UNL     1      22.789  31.088  30.779  1.00  0.00    -0.024 C 
ATOM     19  C   UNL     1      21.466  30.189  31.023  1.00  0.00    -0.024 C 
ATOM     20  C   UNL     1      20.235  31.064  31.510  1.00  0.00     0.008 C 
ATOM     21  C   UNL     1      18.867  30.345  31.446  1.00  0.00     0.010 C 
ATOM     22  C   UNL     1      21.703  29.145  32.174  1.00  0.00     0.012 C 
ATOM     23  C   UNL     1      22.403  32.384  29.970  1.00  0.00     0.012 C 
ATOM     24  C   UNL     1      27.843  32.084  32.346  1.00  0.00     0.014 C 
ATOM     25  C   UNL     1      27.039  34.125  31.140  1.00  0.00     0.014 C 
ATOM     26  C   UNL     1      25.832  29.514  31.535  1.00  0.00     0.012 C 
ENDROOT
BRANCH   1  27
ATOM     27  C   UNL     1      19.724  26.665  28.252  1.00  0.00    -0.077 C 
ATOM     28  C   UNL     1      20.377  25.913  29.387  1.00  0.00     0.039 C 
ATOM     29  C   UNL     1      19.617  26.055  27.060  1.00  0.00     0.008 C 
ENDBRANCH   1  27
BRANCH   4  30
ATOM     30  C   UNL     1      18.480  31.017  28.995  1.00  0.00     0.163 C 
BRANCH  30  31
ATOM     31  O   UNL     1      17.413  31.855  29.351  1.00  0.00    -0.396 OA
ATOM     32  H   UNL     1      17.596  32.734  28.928  1.00  0.00     0.210 HD
ENDBRANCH  30  31
ENDBRANCH   4  30
BRANCH  13  33
ATOM     33  O   UNL     1      29.283  32.552  29.975  1.00  0.00    -0.393 OA
ATOM     34  H   UNL     1      29.816  31.959  29.382  1.00  0.00     0.210 HD
ENDBRANCH  13  33
TORSDOF 4
ENDMDL
MODEL 5
REMARK VINA RESULT:    -5.316      1.896      8.192
REMARK INTER + INTRA:          -6.888
REMARK INTER:                  -6.256
REMARK INTRA:                  -0.633
REMARK UNBOUND:                -0.640
REMARK SMILES C=C(C)[C@H]1CC[C@@]2(CO)CC[C@@]3(C)[C@@H](CC[C@@H]4[C@@]5(C)CC[C@H](O)C(C)(C)[C@@H]5CC[C@@]43C)[C@H]12
REMARK SMILES IDX 4 1 5 2 6 3 7 4 32 5 14 6 15 7 16 8 17 9 18 10 20 11 21 12
REMARK SMILES IDX 22 13 24 14 27 15 28 16 29 17 30 18 12 19 11 20 10 21 13 22
REMARK SMILES IDX 31 23 25 24 26 25 19 26 2 27 3 28 1 29 8 30 9 31 23 33
REMARK H PARENT 9 32 23 34
REMARK Flexibility Score: inf
ROOT
ATOM      1  C   UNL     1      25.191  29.932  29.048  1.00  0.00     0.018 C 
ATOM      2  C   UNL     1      26.280  29.009  28.446  1.00  0.00     0.009 C 
ATOM      3  C   UNL     1      25.614  27.642  28.202  1.00  0.00     0.010 C 
ATOM      4  C   UNL     1      24.108  27.939  28.196  1.00  0.00    -0.003 C 
ATOM      5  C   UNL     1      24.011  28.979  29.322  1.00  0.00     0.008 C 
ATOM      6  C   UNL     1      22.569  29.546  29.484  1.00  0.00    -0.000 C 
ATOM      7  C   UNL     1      22.513  30.628  30.575  1.00  0.00     0.005 C 
ATOM      8  C   UNL     1      21.119  30.902  31.160  1.00  0.00     0.005 C 
ATOM      9  C   UNL     1      19.899  30.475  30.282  1.00  0.00     0.002 C 
ATOM     10  C   UNL     1      18.506  30.758  31.033  1.00  0.00    -0.026 C 
ATOM     11  C   UNL     1      18.275  32.306  31.073  1.00  0.00     0.010 C 
ATOM     12  C   UNL     1      16.881  32.706  31.556  1.00  0.00     0.033 C 
ATOM     13  C   UNL     1      15.788  32.129  30.642  1.00  0.00     0.120 C 
ATOM     14  C   UNL     1      15.842  30.570  30.568  1.00  0.00    -0.006 C 
ATOM     15  C   UNL     1      17.326  30.120  30.210  1.00  0.00     0.003 C 
ATOM     16  C   UNL     1      17.489  28.592  29.958  1.00  0.00     0.005 C 
ATOM     17  C   UNL     1      18.928  28.064  30.070  1.00  0.00     0.008 C 
ATOM     18  C   UNL     1      20.026  29.046  29.551  1.00  0.00    -0.024 C 
ATOM     19  C   UNL     1      21.499  28.398  29.726  1.00  0.00    -0.024 C 
ATOM     20  C   UNL     1      21.740  27.193  28.720  1.00  0.00     0.008 C 
ATOM     21  C   UNL     1      23.215  26.743  28.596  1.00  0.00     0.010 C 
ATOM     22  C   UNL     1      21.667  27.772  31.158  1.00  0.00     0.012 C 
ATOM     23  C   UNL     1      19.722  29.255  28.018  1.00  0.00     0.012 C 
ATOM     24  C   UNL     1      15.258  29.955  31.880  1.00  0.00     0.014 C 
ATOM     25  C   UNL     1      14.906  30.130  29.408  1.00  0.00     0.014 C 
ATOM     26  C   UNL     1      18.551  30.235  32.503  1.00  0.00     0.012 C 
ENDROOT
BRANCH   1  27
ATOM     27  C   UNL     1      25.696  30.678  30.280  1.00  0.00    -0.077 C 
ATOM     28  C   UNL     1      25.940  32.168  30.258  1.00  0.00     0.039 C 
ATOM     29  C   UNL     1      25.908  30.014  31.427  1.00  0.00     0.008 C 
ENDBRANCH   1  27
BRANCH   4  30
ATOM     30  C   UNL     1      23.728  28.477  26.770  1.00  0.00     0.163 C 
BRANCH  30  31
ATOM     31  O   UNL     1      24.112  27.556  25.785  1.00  0.00    -0.396 OA
ATOM     32  H   UNL     1      25.100  27.484  25.840  1.00  0.00     0.210 HD
ENDBRANCH  30  31
ENDBRANCH   4  30
BRANCH  13  33
ATOM     33  O   UNL     1      14.524  32.554  31.093  1.00  0.00    -0.393 OA
ATOM     34  H   UNL     1      14.426  33.506  30.822  1.00  0.00     0.210 HD
ENDBRANCH  13  33
TORSDOF 4
ENDMDL
