MODEL 1
REMARK VINA RESULT:    -3.491      0.000      0.000
REMARK INTER + INTRA:          -4.578
REMARK INTER:                  -4.307
REMARK INTRA:                  -0.271
REMARK UNBOUND:                -0.271
REMARK SMILES C=CCc1ccc(OC)c(OC)c1
REMARK SMILES IDX 7 1 10 2 13 3 4 4 5 5 6 6 8 7 9 8 11 9 12 10 3 11 2 12 1 13
REMARK H PARENT
REMARK Flexibility Score: inf
ROOT
ATOM      1  C   UNL     1      -9.249  33.381 -11.724  1.00  0.00     0.160 A 
ATOM      2  C   UNL     1      -9.666  34.666 -11.344  1.00  0.00     0.160 A 
ATOM      3  C   UNL     1      -8.830  35.772 -11.597  1.00  0.00     0.054 A 
ATOM      4  C   UNL     1      -7.591  35.600 -12.232  1.00  0.00    -0.040 A 
ATOM      5  C   UNL     1      -7.179  34.312 -12.598  1.00  0.00     0.008 A 
ATOM      6  C   UNL     1      -8.001  33.211 -12.351  1.00  0.00     0.051 A 
ENDROOT
BRANCH   1   7
ATOM      7  O   UNL     1     -10.103  32.297 -11.460  1.00  0.00    -0.493 OA
ATOM      8  C   UNL     1      -9.687  31.064 -10.885  1.00  0.00     0.278 C 
ENDBRANCH   1   7
BRANCH   2   9
ATOM      9  O   UNL     1     -10.913  34.803 -10.715  1.00  0.00    -0.493 OA
ATOM     10  C   UNL     1     -11.848  35.841 -10.994  1.00  0.00     0.278 C 
ENDBRANCH   2   9
BRANCH   4  11
ATOM     11  C   UNL     1      -6.687  36.780 -12.472  1.00  0.00     0.062 C 
BRANCH  11  12
ATOM     12  C   UNL     1      -5.246  36.353 -12.492  1.00  0.00    -0.030 C 
ATOM     13  C   UNL     1      -4.277  37.125 -11.991  1.00  0.00     0.004 C 
ENDBRANCH  11  12
ENDBRANCH   4  11
TORSDOF 4
ENDMDL
MODEL 2
REMARK VINA RESULT:    -3.465      0.788      2.617
REMARK INTER + INTRA:          -4.546
REMARK INTER:                  -4.235
REMARK INTRA:                  -0.311
REMARK UNBOUND:                -0.271
REMARK SMILES C=CCc1ccc(OC)c(OC)c1
REMARK SMILES IDX 7 1 10 2 13 3 4 4 5 5 6 6 8 7 9 8 11 9 12 10 3 11 2 12 1 13
REMARK H PARENT
REMARK Flexibility Score: inf
ROOT
ATOM      1  C   UNL     1      -9.855  35.017 -11.797  1.00  0.00     0.160 A 
ATOM      2  C   UNL     1      -9.128  33.878 -12.177  1.00  0.00     0.160 A 
ATOM      3  C   UNL     1      -7.758  33.997 -12.483  1.00  0.00     0.054 A 
ATOM      4  C   UNL     1      -7.113  35.240 -12.405  1.00  0.00    -0.040 A 
ATOM      5  C   UNL     1      -7.850  36.374 -12.036  1.00  0.00     0.008 A 
ATOM      6  C   UNL     1      -9.208  36.265 -11.730  1.00  0.00     0.051 A 
ENDROOT
BRANCH   1   7
ATOM      7  O   UNL     1     -11.219  34.869 -11.497  1.00  0.00    -0.493 OA
ATOM      8  C   UNL     1     -11.788  35.072 -10.208  1.00  0.00     0.278 C 
ENDBRANCH   1   7
BRANCH   2   9
ATOM      9  O   UNL     1      -9.802  32.648 -12.240  1.00  0.00    -0.493 OA
ATOM     10  C   UNL     1      -9.735  31.638 -11.238  1.00  0.00     0.278 C 
ENDBRANCH   2   9
BRANCH   4  11
ATOM     11  C   UNL     1      -5.657  35.369 -12.764  1.00  0.00     0.062 C 
BRANCH  11  12
ATOM     12  C   UNL     1      -5.126  36.716 -12.363  1.00  0.00    -0.030 C 
ATOM     13  C   UNL     1      -3.852  36.888 -11.998  1.00  0.00     0.004 C 
ENDBRANCH  11  12
ENDBRANCH   4  11
TORSDOF 4
ENDMDL
MODEL 3
REMARK VINA RESULT:    -3.390      5.498      7.187
REMARK INTER + INTRA:          -4.454
REMARK INTER:                  -4.174
REMARK INTRA:                  -0.280
REMARK UNBOUND:                -0.271
REMARK SMILES C=CCc1ccc(OC)c(OC)c1
REMARK SMILES IDX 7 1 10 2 13 3 4 4 5 5 6 6 8 7 9 8 11 9 12 10 3 11 2 12 1 13
REMARK H PARENT
REMARK Flexibility Score: inf
ROOT
ATOM      1  C   UNL     1     -10.239  36.658  -4.825  1.00  0.00     0.160 A 
ATOM      2  C   UNL     1      -9.094  36.724  -5.636  1.00  0.00     0.160 A 
ATOM      3  C   UNL     1      -9.236  36.819  -7.034  1.00  0.00     0.054 A 
ATOM      4  C   UNL     1     -10.509  36.855  -7.622  1.00  0.00    -0.040 A 
ATOM      5  C   UNL     1     -11.646  36.778  -6.806  1.00  0.00     0.008 A 
ATOM      6  C   UNL     1     -11.514  36.684  -5.420  1.00  0.00     0.051 A 
ENDROOT
BRANCH   1   7
ATOM      7  O   UNL     1     -10.067  36.565  -3.435  1.00  0.00    -0.493 OA
ATOM      8  C   UNL     1     -10.164  35.357  -2.689  1.00  0.00     0.278 C 
ENDBRANCH   1   7
BRANCH   2   9
ATOM      9  O   UNL     1      -7.836  36.689  -5.015  1.00  0.00    -0.493 OA
ATOM     10  C   UNL     1      -6.623  37.124  -5.623  1.00  0.00     0.278 C 
ENDBRANCH   2   9
BRANCH   4  11
ATOM     11  C   UNL     1     -10.656  36.924  -9.119  1.00  0.00     0.062 C 
BRANCH  11  12
ATOM     12  C   UNL     1     -10.335  35.598  -9.748  1.00  0.00    -0.030 C 
ATOM     13  C   UNL     1     -11.276  34.852 -10.335  1.00  0.00     0.004 C 
ENDBRANCH  11  12
ENDBRANCH   4  11
TORSDOF 4
ENDMDL
MODEL 4
REMARK VINA RESULT:    -3.383      2.126      4.300
REMARK INTER + INTRA:          -4.446
REMARK INTER:                  -4.128
REMARK INTRA:                  -0.318
REMARK UNBOUND:                -0.271
REMARK SMILES C=CCc1ccc(OC)c(OC)c1
REMARK SMILES IDX 7 1 10 2 13 3 4 4 5 5 6 6 8 7 9 8 11 9 12 10 3 11 2 12 1 13
REMARK H PARENT
REMARK Flexibility Score: inf
ROOT
ATOM      1  C   UNL     1     -10.151  32.870 -11.290  1.00  0.00     0.160 A 
ATOM      2  C   UNL     1      -9.180  33.880 -11.191  1.00  0.00     0.160 A 
ATOM      3  C   UNL     1      -9.566  35.182 -10.816  1.00  0.00     0.054 A 
ATOM      4  C   UNL     1     -10.909  35.476 -10.534  1.00  0.00    -0.040 A 
ATOM      5  C   UNL     1     -11.872  34.464 -10.646  1.00  0.00     0.008 A 
ATOM      6  C   UNL     1     -11.498  33.171 -11.016  1.00  0.00     0.051 A 
ENDROOT
BRANCH   1   7
ATOM      7  O   UNL     1      -9.737  31.582 -11.664  1.00  0.00    -0.493 OA
ATOM      8  C   UNL     1      -9.754  30.447 -10.805  1.00  0.00     0.278 C 
ENDBRANCH   1   7
BRANCH   2   9
ATOM      9  O   UNL     1      -7.846  33.551 -11.476  1.00  0.00    -0.493 OA
ATOM     10  C   UNL     1      -7.168  33.899 -12.679  1.00  0.00     0.278 C 
ENDBRANCH   2   9
BRANCH   4  11
ATOM     11  C   UNL     1     -11.322  36.876 -10.165  1.00  0.00     0.062 C 
BRANCH  11  12
ATOM     12  C   UNL     1     -11.638  36.970  -8.699  1.00  0.00    -0.030 C 
ATOM     13  C   UNL     1     -10.709  36.749  -7.764  1.00  0.00     0.004 C 
ENDBRANCH  11  12
ENDBRANCH   4  11
TORSDOF 4
ENDMDL
MODEL 5
REMARK VINA RESULT:    -3.163      2.453      4.502
REMARK INTER + INTRA:          -4.174
REMARK INTER:                  -3.929
REMARK INTRA:                  -0.246
REMARK UNBOUND:                -0.271
REMARK SMILES C=CCc1ccc(OC)c(OC)c1
REMARK SMILES IDX 7 1 10 2 13 3 4 4 5 5 6 6 8 7 9 8 11 9 12 10 3 11 2 12 1 13
REMARK H PARENT
REMARK Flexibility Score: inf
ROOT
ATOM      1  C   UNL     1      -8.154  35.252 -12.076  1.00  0.00     0.160 A 
ATOM      2  C   UNL     1      -8.993  34.325 -11.438  1.00  0.00     0.160 A 
ATOM      3  C   UNL     1      -9.825  34.750 -10.382  1.00  0.00     0.054 A 
ATOM      4  C   UNL     1      -9.826  36.091  -9.969  1.00  0.00    -0.040 A 
ATOM      5  C   UNL     1      -8.976  37.007 -10.604  1.00  0.00     0.008 A 
ATOM      6  C   UNL     1      -8.150  36.594 -11.651  1.00  0.00     0.051 A 
ENDROOT
BRANCH   1   7
ATOM      7  O   UNL     1      -7.337  34.801 -13.125  1.00  0.00    -0.493 OA
ATOM      8  C   UNL     1      -5.955  34.488 -12.994  1.00  0.00     0.278 C 
ENDBRANCH   1   7
BRANCH   2   9
ATOM      9  O   UNL     1      -8.971  32.993 -11.879  1.00  0.00    -0.493 OA
ATOM     10  C   UNL     1      -9.799  31.957 -11.359  1.00  0.00     0.278 C 
ENDBRANCH   2   9
BRANCH   4  11
ATOM     11  C   UNL     1     -10.691  36.534  -8.820  1.00  0.00     0.062 C 
BRANCH  11  12
ATOM     12  C   UNL     1      -9.853  36.864  -7.617  1.00  0.00    -0.030 C 
ATOM     13  C   UNL     1     -10.361  36.846  -6.381  1.00  0.00     0.004 C 
ENDBRANCH  11  12
ENDBRANCH   4  11
TORSDOF 4
ENDMDL
MODEL 6
REMARK VINA RESULT:    -3.156      6.016      6.941
REMARK INTER + INTRA:          -4.166
REMARK INTER:                  -4.086
REMARK INTRA:                  -0.079
REMARK UNBOUND:                -0.271
REMARK SMILES C=CCc1ccc(OC)c(OC)c1
REMARK SMILES IDX 7 1 10 2 13 3 4 4 5 5 6 6 8 7 9 8 11 9 12 10 3 11 2 12 1 13
REMARK H PARENT
REMARK Flexibility Score: inf
ROOT
ATOM      1  C   UNL     1     -10.489  36.989  -6.729  1.00  0.00     0.160 A 
ATOM      2  C   UNL     1     -10.319  36.847  -5.343  1.00  0.00     0.160 A 
ATOM      3  C   UNL     1      -9.019  36.844  -4.798  1.00  0.00     0.054 A 
ATOM      4  C   UNL     1      -7.897  36.989  -5.628  1.00  0.00    -0.040 A 
ATOM      5  C   UNL     1      -8.077  37.119  -7.011  1.00  0.00     0.008 A 
ATOM      6  C   UNL     1      -9.361  37.124  -7.559  1.00  0.00     0.051 A 
ENDROOT
BRANCH   1   7
ATOM      7  O   UNL     1     -11.796  36.990  -7.244  1.00  0.00    -0.493 OA
ATOM      8  C   UNL     1     -12.125  36.772  -8.611  1.00  0.00     0.278 C 
ENDBRANCH   1   7
BRANCH   2   9
ATOM      9  O   UNL     1     -11.463  36.709  -4.542  1.00  0.00    -0.493 OA
ATOM     10  C   UNL     1     -11.651  35.681  -3.574  1.00  0.00     0.278 C 
ENDBRANCH   2   9
BRANCH   4  11
ATOM     11  C   UNL     1      -6.509  36.953  -5.046  1.00  0.00     0.062 C 
BRANCH  11  12
ATOM     12  C   UNL     1      -6.035  35.536  -4.884  1.00  0.00    -0.030 C 
ATOM     13  C   UNL     1      -6.628  34.689  -4.037  1.00  0.00     0.004 C 
ENDBRANCH  11  12
ENDBRANCH   4  11
TORSDOF 4
ENDMDL
MODEL 7
REMARK VINA RESULT:    -3.146      1.802      3.321
REMARK INTER + INTRA:          -4.153
REMARK INTER:                  -3.905
REMARK INTRA:                  -0.248
REMARK UNBOUND:                -0.271
REMARK SMILES C=CCc1ccc(OC)c(OC)c1
REMARK SMILES IDX 7 1 10 2 13 3 4 4 5 5 6 6 8 7 9 8 11 9 12 10 3 11 2 12 1 13
REMARK H PARENT
REMARK Flexibility Score: inf
ROOT
ATOM      1  C   UNL     1     -10.486  36.306 -10.023  1.00  0.00     0.160 A 
ATOM      2  C   UNL     1     -10.643  35.305 -10.995  1.00  0.00     0.160 A 
ATOM      3  C   UNL     1      -9.651  35.131 -11.981  1.00  0.00     0.054 A 
ATOM      4  C   UNL     1      -8.507  35.943 -11.995  1.00  0.00    -0.040 A 
ATOM      5  C   UNL     1      -8.365  36.946 -11.027  1.00  0.00     0.008 A 
ATOM      6  C   UNL     1      -9.342  37.125 -10.046  1.00  0.00     0.051 A 
ENDROOT
BRANCH   1   7
ATOM      7  O   UNL     1     -11.490  36.455  -9.052  1.00  0.00    -0.493 OA
ATOM      8  C   UNL     1     -11.246  36.679  -7.668  1.00  0.00     0.278 C 
ENDBRANCH   1   7
BRANCH   2   9
ATOM      9  O   UNL     1     -11.797  34.508 -10.950  1.00  0.00    -0.493 OA
ATOM     10  C   UNL     1     -11.801  33.086 -11.045  1.00  0.00     0.278 C 
ENDBRANCH   2   9
BRANCH   4  11
ATOM     11  C   UNL     1      -7.466  35.775 -13.068  1.00  0.00     0.062 C 
BRANCH  11  12
ATOM     12  C   UNL     1      -6.636  34.548 -12.820  1.00  0.00    -0.030 C 
ATOM     13  C   UNL     1      -5.301  34.579 -12.877  1.00  0.00     0.004 C 
ENDBRANCH  11  12
ENDBRANCH   4  11
TORSDOF 4
ENDMDL
MODEL 8
REMARK VINA RESULT:    -3.097      1.792      4.736
REMARK INTER + INTRA:          -4.093
REMARK INTER:                  -3.840
REMARK INTRA:                  -0.252
REMARK UNBOUND:                -0.271
REMARK SMILES C=CCc1ccc(OC)c(OC)c1
REMARK SMILES IDX 7 1 10 2 13 3 4 4 5 5 6 6 8 7 9 8 11 9 12 10 3 11 2 12 1 13
REMARK H PARENT
REMARK Flexibility Score: inf
ROOT
ATOM      1  C   UNL     1      -8.008  35.747 -11.933  1.00  0.00     0.160 A 
ATOM      2  C   UNL     1      -9.109  35.756 -11.063  1.00  0.00     0.160 A 
ATOM      3  C   UNL     1      -9.845  34.572 -10.859  1.00  0.00     0.054 A 
ATOM      4  C   UNL     1      -9.482  33.384 -11.512  1.00  0.00    -0.040 A 
ATOM      5  C   UNL     1      -8.387  33.387 -12.387  1.00  0.00     0.008 A 
ATOM      6  C   UNL     1      -7.653  34.556 -12.594  1.00  0.00     0.051 A 
ENDROOT
BRANCH   1   7
ATOM      7  O   UNL     1      -7.292  36.941 -12.116  1.00  0.00    -0.493 OA
ATOM      8  C   UNL     1      -5.897  37.013 -12.390  1.00  0.00     0.278 C 
ENDBRANCH   1   7
BRANCH   2   9
ATOM      9  O   UNL     1      -9.443  36.960 -10.423  1.00  0.00    -0.493 OA
ATOM     10  C   UNL     1      -9.939  37.055  -9.092  1.00  0.00     0.278 C 
ENDBRANCH   2   9
BRANCH   4  11
ATOM     11  C   UNL     1     -10.290  32.129 -11.317  1.00  0.00     0.062 C 
BRANCH  11  12
ATOM     12  C   UNL     1      -9.392  30.952 -11.056  1.00  0.00    -0.030 C 
ATOM     13  C   UNL     1      -9.761  29.952 -10.251  1.00  0.00     0.004 C 
ENDBRANCH  11  12
ENDBRANCH   4  11
TORSDOF 4
ENDMDL
MODEL 9
REMARK VINA RESULT:    -3.040      7.767      8.576
REMARK INTER + INTRA:          -4.022
REMARK INTER:                  -4.687
REMARK INTRA:                   0.665
REMARK UNBOUND:                -0.271
REMARK SMILES C=CCc1ccc(OC)c(OC)c1
REMARK SMILES IDX 7 1 10 2 13 3 4 4 5 5 6 6 8 7 9 8 11 9 12 10 3 11 2 12 1 13
REMARK H PARENT
REMARK Flexibility Score: inf
ROOT
ATOM      1  C   UNL     1     -10.558  35.686  -2.759  1.00  0.00     0.160 A 
ATOM      2  C   UNL     1     -10.160  36.263  -3.975  1.00  0.00     0.160 A 
ATOM      3  C   UNL     1      -8.887  35.969  -4.502  1.00  0.00     0.054 A 
ATOM      4  C   UNL     1      -8.017  35.100  -3.826  1.00  0.00    -0.040 A 
ATOM      5  C   UNL     1      -8.419  34.537  -2.607  1.00  0.00     0.008 A 
ATOM      6  C   UNL     1      -9.679  34.823  -2.079  1.00  0.00     0.051 A 
ENDROOT
BRANCH   1   7
ATOM      7  O   UNL     1     -11.833  35.996  -2.258  1.00  0.00    -0.493 OA
ATOM      8  C   UNL     1     -12.125  37.120  -1.436  1.00  0.00     0.278 C 
ENDBRANCH   1   7
BRANCH   2   9
ATOM      9  O   UNL     1     -11.056  37.125  -4.628  1.00  0.00    -0.493 OA
ATOM     10  C   UNL     1     -11.792  36.787  -5.799  1.00  0.00     0.278 C 
ENDBRANCH   2   9
BRANCH   4  11
ATOM     11  C   UNL     1      -6.646  34.813  -4.376  1.00  0.00     0.062 C 
BRANCH  11  12
ATOM     12  C   UNL     1      -5.976  36.081  -4.827  1.00  0.00    -0.030 C 
ATOM     13  C   UNL     1      -6.580  36.938  -5.655  1.00  0.00     0.004 C 
ENDBRANCH  11  12
ENDBRANCH   4  11
TORSDOF 4
ENDMDL
