MODEL 1
REMARK VINA RESULT:    16.385      0.000      0.000
REMARK INTER + INTRA:          30.276
REMARK INTER:                  30.753
REMARK INTRA:                  -0.477
REMARK UNBOUND:                -0.477
REMARK SMILES O=C([O-])CCCCCCCCCCCCCCC(=O)[O-]
REMARK SMILES IDX 10 1 9 2 8 3 7 4 6 5 5 6 4 7 2 8 1 9 3 10 11 11 12 12 13 13
REMARK SMILES IDX 14 14 15 15 16 16 17 17 18 18 19 19 20 20
REMARK H PARENT
REMARK Flexibility Score: inf
ROOT
ATOM      1  C   UNL     1       5.482  19.235  49.822  1.00  0.00     0.000 C 
ENDROOT
BRANCH   1   2
ATOM      2  C   UNL     1       6.195  18.088  49.072  1.00  0.00     0.000 C 
BRANCH   2   3
ATOM      3  C   UNL     1       6.032  18.152  47.544  1.00  0.00     0.000 C 
BRANCH   3   4
ATOM      4  C   UNL     1       5.573  16.817  46.936  1.00  0.00     0.000 C 
BRANCH   4   5
ATOM      5  C   UNL     1       6.403  16.398  45.710  1.00  0.00     0.000 C 
BRANCH   5   6
ATOM      6  C   UNL     1       7.796  15.823  46.025  1.00  0.00     0.006 C 
BRANCH   6   7
ATOM      7  C   UNL     1       8.114  14.549  45.231  1.00  0.00     0.053 C 
BRANCH   7   8
ATOM      8  C   UNL     1       9.431  14.682  44.533  1.00  0.00     0.041 C 
ATOM      9  O   UNL     1       9.652  14.045  43.470  1.00  0.00    -0.550 OA
ATOM     10  O   UNL     1      10.431  15.476  45.079  1.00  0.00    -0.550 OA
ENDBRANCH   7   8
ENDBRANCH   6   7
ENDBRANCH   5   6
ENDBRANCH   4   5
ENDBRANCH   3   4
ENDBRANCH   2   3
ENDBRANCH   1   2
BRANCH   1  11
ATOM     11  C   UNL     1       6.323  19.777  50.987  1.00  0.00     0.000 C 
BRANCH  11  12
ATOM     12  C   UNL     1       5.433  20.171  52.174  1.00  0.00     0.000 C 
BRANCH  12  13
ATOM     13  C   UNL     1       6.241  20.636  53.397  1.00  0.00     0.000 C 
BRANCH  13  14
ATOM     14  C   UNL     1       5.344  21.066  54.571  1.00  0.00     0.000 C 
BRANCH  14  15
ATOM     15  C   UNL     1       6.156  21.487  55.806  1.00  0.00     0.000 C 
BRANCH  15  16
ATOM     16  C   UNL     1       7.544  20.830  55.854  1.00  0.00     0.006 C 
BRANCH  16  17
ATOM     17  C   UNL     1       8.648  21.889  55.931  1.00  0.00     0.053 C 
BRANCH  17  18
ATOM     18  C   UNL     1       9.995  21.240  55.987  1.00  0.00     0.041 C 
ATOM     19  O   UNL     1      11.033  21.942  56.110  1.00  0.00    -0.550 OA
ATOM     20  O   UNL     1      10.101  19.855  55.948  1.00  0.00    -0.550 OA
ENDBRANCH  17  18
ENDBRANCH  16  17
ENDBRANCH  15  16
ENDBRANCH  14  15
ENDBRANCH  13  14
ENDBRANCH  12  13
ENDBRANCH  11  12
ENDBRANCH   1  11
TORSDOF 15
ENDMDL
MODEL 2
REMARK VINA RESULT:    16.622      1.459      2.041
REMARK INTER + INTRA:          30.720
REMARK INTER:                  31.275
REMARK INTRA:                  -0.555
REMARK UNBOUND:                -0.477
REMARK SMILES O=C([O-])CCCCCCCCCCCCCCC(=O)[O-]
REMARK SMILES IDX 10 1 9 2 8 3 7 4 6 5 5 6 4 7 2 8 1 9 3 10 11 11 12 12 13 13
REMARK SMILES IDX 14 14 15 15 16 16 17 17 18 18 19 19 20 20
REMARK H PARENT
REMARK Flexibility Score: inf
ROOT
ATOM      1  C   UNL     1       5.343  18.621  49.000  1.00  0.00     0.000 C 
ENDROOT
BRANCH   1   2
ATOM      2  C   UNL     1       6.526  17.741  48.539  1.00  0.00     0.000 C 
BRANCH   2   3
ATOM      3  C   UNL     1       6.115  16.599  47.593  1.00  0.00     0.000 C 
BRANCH   3   4
ATOM      4  C   UNL     1       6.244  16.977  46.109  1.00  0.00     0.000 C 
BRANCH   4   5
ATOM      5  C   UNL     1       7.335  16.175  45.376  1.00  0.00     0.000 C 
BRANCH   5   6
ATOM      6  C   UNL     1       8.596  15.874  46.206  1.00  0.00     0.006 C 
BRANCH   6   7
ATOM      7  C   UNL     1       9.683  15.147  45.403  1.00  0.00     0.053 C 
BRANCH   7   8
ATOM      8  C   UNL     1       9.079  14.063  44.566  1.00  0.00     0.041 C 
ATOM      9  O   UNL     1       8.928  14.230  43.327  1.00  0.00    -0.550 OA
ATOM     10  O   UNL     1       8.644  12.886  45.160  1.00  0.00    -0.550 OA
ENDBRANCH   7   8
ENDBRANCH   6   7
ENDBRANCH   5   6
ENDBRANCH   4   5
ENDBRANCH   3   4
ENDBRANCH   2   3
ENDBRANCH   1   2
BRANCH   1  11
ATOM     11  C   UNL     1       5.751  19.604  50.108  1.00  0.00     0.000 C 
BRANCH  11  12
ATOM     12  C   UNL     1       4.523  20.102  50.884  1.00  0.00     0.000 C 
BRANCH  12  13
ATOM     13  C   UNL     1       4.866  20.565  52.309  1.00  0.00     0.000 C 
BRANCH  13  14
ATOM     14  C   UNL     1       3.727  20.296  53.309  1.00  0.00     0.000 C 
BRANCH  14  15
ATOM     15  C   UNL     1       4.022  20.874  54.702  1.00  0.00     0.000 C 
BRANCH  15  16
ATOM     16  C   UNL     1       5.158  21.907  54.686  1.00  0.00     0.006 C 
BRANCH  16  17
ATOM     17  C   UNL     1       6.030  21.781  55.940  1.00  0.00     0.053 C 
BRANCH  17  18
ATOM     18  C   UNL     1       7.434  21.421  55.570  1.00  0.00     0.041 C 
ATOM     19  O   UNL     1       7.655  20.510  54.729  1.00  0.00    -0.550 OA
ATOM     20  O   UNL     1       8.499  22.124  56.120  1.00  0.00    -0.550 OA
ENDBRANCH  17  18
ENDBRANCH  16  17
ENDBRANCH  15  16
ENDBRANCH  14  15
ENDBRANCH  13  14
ENDBRANCH  12  13
ENDBRANCH  11  12
ENDBRANCH   1  11
TORSDOF 15
ENDMDL
MODEL 3
REMARK VINA RESULT:    17.125      6.416     11.017
REMARK INTER + INTRA:          31.666
REMARK INTER:                  32.380
REMARK INTRA:                  -0.714
REMARK UNBOUND:                -0.477
REMARK SMILES O=C([O-])CCCCCCCCCCCCCCC(=O)[O-]
REMARK SMILES IDX 10 1 9 2 8 3 7 4 6 5 5 6 4 7 2 8 1 9 3 10 11 11 12 12 13 13
REMARK SMILES IDX 14 14 15 15 16 16 17 17 18 18 19 19 20 20
REMARK H PARENT
REMARK Flexibility Score: inf
ROOT
ATOM      1  C   UNL     1      11.332  13.445  43.363  1.00  0.00     0.000 C 
ENDROOT
BRANCH   1   2
ATOM      2  C   UNL     1       9.814  13.441  43.650  1.00  0.00     0.000 C 
BRANCH   2   3
ATOM      3  C   UNL     1       9.270  14.800  44.123  1.00  0.00     0.000 C 
BRANCH   3   4
ATOM      4  C   UNL     1       9.627  15.110  45.585  1.00  0.00     0.000 C 
BRANCH   4   5
ATOM      5  C   UNL     1       8.437  15.662  46.391  1.00  0.00     0.000 C 
BRANCH   5   6
ATOM      6  C   UNL     1       7.219  16.090  45.553  1.00  0.00     0.006 C 
BRANCH   6   7
ATOM      7  C   UNL     1       5.979  16.390  46.405  1.00  0.00     0.053 C 
BRANCH   7   8
ATOM      8  C   UNL     1       6.114  17.721  47.075  1.00  0.00     0.041 C 
ATOM      9  O   UNL     1       5.932  18.781  46.421  1.00  0.00    -0.550 OA
ATOM     10  O   UNL     1       6.482  17.793  48.412  1.00  0.00    -0.550 OA
ENDBRANCH   7   8
ENDBRANCH   6   7
ENDBRANCH   5   6
ENDBRANCH   4   5
ENDBRANCH   3   4
ENDBRANCH   2   3
ENDBRANCH   1   2
BRANCH   1  11
ATOM     11  C   UNL     1      11.713  12.463  42.246  1.00  0.00     0.000 C 
BRANCH  11  12
ATOM     12  C   UNL     1      12.593  11.327  42.787  1.00  0.00     0.000 C 
BRANCH  12  13
ATOM     13  C   UNL     1      13.732  11.833  43.687  1.00  0.00     0.000 C 
BRANCH  13  14
ATOM     14  C   UNL     1      14.300  10.732  44.600  1.00  0.00     0.000 C 
BRANCH  14  15
ATOM     15  C   UNL     1      15.732  11.038  45.067  1.00  0.00     0.000 C 
BRANCH  15  16
ATOM     16  C   UNL     1      15.792  12.202  46.068  1.00  0.00     0.006 C 
BRANCH  16  17
ATOM     17  C   UNL     1      15.109  11.825  47.386  1.00  0.00     0.053 C 
BRANCH  17  18
ATOM     18  C   UNL     1      15.136  12.977  48.340  1.00  0.00     0.041 C 
ATOM     19  O   UNL     1      14.060  13.478  48.761  1.00  0.00    -0.550 OA
ATOM     20  O   UNL     1      16.351  13.471  48.799  1.00  0.00    -0.550 OA
ENDBRANCH  17  18
ENDBRANCH  16  17
ENDBRANCH  15  16
ENDBRANCH  14  15
ENDBRANCH  13  14
ENDBRANCH  12  13
ENDBRANCH  11  12
ENDBRANCH   1  11
TORSDOF 15
ENDMDL
MODEL 4
REMARK VINA RESULT:    17.139      5.876      9.831
REMARK INTER + INTRA:          31.692
REMARK INTER:                  32.288
REMARK INTRA:                  -0.597
REMARK UNBOUND:                -0.477
REMARK SMILES O=C([O-])CCCCCCCCCCCCCCC(=O)[O-]
REMARK SMILES IDX 10 1 9 2 8 3 7 4 6 5 5 6 4 7 2 8 1 9 3 10 11 11 12 12 13 13
REMARK SMILES IDX 14 14 15 15 16 16 17 17 18 18 19 19 20 20
REMARK H PARENT
REMARK Flexibility Score: inf
ROOT
ATOM      1  C   UNL     1      11.564  13.388  43.154  1.00  0.00     0.000 C 
ENDROOT
BRANCH   1   2
ATOM      2  C   UNL     1      12.239  12.212  42.415  1.00  0.00     0.000 C 
BRANCH   2   3
ATOM      3  C   UNL     1      13.055  11.289  43.336  1.00  0.00     0.000 C 
BRANCH   3   4
ATOM      4  C   UNL     1      14.193  12.024  44.061  1.00  0.00     0.000 C 
BRANCH   4   5
ATOM      5  C   UNL     1      15.021  11.100  44.973  1.00  0.00     0.000 C 
BRANCH   5   6
ATOM      6  C   UNL     1      15.727  11.800  46.148  1.00  0.00     0.006 C 
BRANCH   6   7
ATOM      7  C   UNL     1      14.937  11.714  47.461  1.00  0.00     0.053 C 
BRANCH   7   8
ATOM      8  C   UNL     1      15.115  12.964  48.264  1.00  0.00     0.041 C 
ATOM      9  O   UNL     1      14.113  13.640  48.614  1.00  0.00    -0.550 OA
ATOM     10  O   UNL     1      16.391  13.406  48.588  1.00  0.00    -0.550 OA
ENDBRANCH   7   8
ENDBRANCH   6   7
ENDBRANCH   5   6
ENDBRANCH   4   5
ENDBRANCH   3   4
ENDBRANCH   2   3
ENDBRANCH   1   2
BRANCH   1  11
ATOM     11  C   UNL     1      10.054  13.169  43.332  1.00  0.00     0.000 C 
BRANCH  11  12
ATOM     12  C   UNL     1       9.366  14.449  43.829  1.00  0.00     0.000 C 
BRANCH  12  13
ATOM     13  C   UNL     1       9.040  14.404  45.331  1.00  0.00     0.000 C 
BRANCH  13  14
ATOM     14  C   UNL     1       8.349  15.688  45.825  1.00  0.00     0.000 C 
BRANCH  14  15
ATOM     15  C   UNL     1       7.001  15.933  45.130  1.00  0.00     0.000 C 
BRANCH  15  16
ATOM     16  C   UNL     1       5.890  16.328  46.115  1.00  0.00     0.006 C 
BRANCH  16  17
ATOM     17  C   UNL     1       5.988  17.811  46.484  1.00  0.00     0.053 C 
BRANCH  17  18
ATOM     18  C   UNL     1       6.183  17.975  47.958  1.00  0.00     0.041 C 
ATOM     19  O   UNL     1       5.479  18.795  48.604  1.00  0.00    -0.550 OA
ATOM     20  O   UNL     1       7.111  17.188  48.628  1.00  0.00    -0.550 OA
ENDBRANCH  17  18
ENDBRANCH  16  17
ENDBRANCH  15  16
ENDBRANCH  14  15
ENDBRANCH  13  14
ENDBRANCH  12  13
ENDBRANCH  11  12
ENDBRANCH   1  11
TORSDOF 15
ENDMDL
MODEL 5
REMARK VINA RESULT:    17.383      1.844     10.689
REMARK INTER + INTRA:          32.150
REMARK INTER:                  32.336
REMARK INTRA:                  -0.185
REMARK UNBOUND:                -0.477
REMARK SMILES O=C([O-])CCCCCCCCCCCCCCC(=O)[O-]
REMARK SMILES IDX 10 1 9 2 8 3 7 4 6 5 5 6 4 7 2 8 1 9 3 10 11 11 12 12 13 13
REMARK SMILES IDX 14 14 15 15 16 16 17 17 18 18 19 19 20 20
REMARK H PARENT
REMARK Flexibility Score: inf
ROOT
ATOM      1  C   UNL     1       5.795  18.699  49.662  1.00  0.00     0.000 C 
ENDROOT
BRANCH   1   2
ATOM      2  C   UNL     1       4.754  19.632  50.319  1.00  0.00     0.000 C 
BRANCH   2   3
ATOM      3  C   UNL     1       5.280  20.366  51.565  1.00  0.00     0.000 C 
BRANCH   3   4
ATOM      4  C   UNL     1       4.163  20.750  52.547  1.00  0.00     0.000 C 
BRANCH   4   5
ATOM      5  C   UNL     1       4.623  20.736  54.016  1.00  0.00     0.000 C 
BRANCH   5   6
ATOM      6  C   UNL     1       4.796  22.123  54.662  1.00  0.00     0.006 C 
BRANCH   6   7
ATOM      7  C   UNL     1       5.473  22.065  56.038  1.00  0.00     0.053 C 
BRANCH   7   8
ATOM      8  C   UNL     1       6.798  21.376  55.940  1.00  0.00     0.041 C 
ATOM      9  O   UNL     1       6.857  20.119  55.899  1.00  0.00    -0.550 OA
ATOM     10  O   UNL     1       7.971  22.120  55.939  1.00  0.00    -0.550 OA
ENDBRANCH   7   8
ENDBRANCH   6   7
ENDBRANCH   5   6
ENDBRANCH   4   5
ENDBRANCH   3   4
ENDBRANCH   2   3
ENDBRANCH   1   2
BRANCH   1  11
ATOM     11  C   UNL     1       5.859  18.884  48.139  1.00  0.00     0.000 C 
BRANCH  11  12
ATOM     12  C   UNL     1       5.951  17.529  47.422  1.00  0.00     0.000 C 
BRANCH  12  13
ATOM     13  C   UNL     1       7.324  16.858  47.591  1.00  0.00     0.000 C 
BRANCH  13  14
ATOM     14  C   UNL     1       7.706  15.978  46.387  1.00  0.00     0.000 C 
BRANCH  14  15
ATOM     15  C   UNL     1       9.126  15.405  46.507  1.00  0.00     0.000 C 
BRANCH  15  16
ATOM     16  C   UNL     1       9.694  14.942  45.157  1.00  0.00     0.006 C 
BRANCH  16  17
ATOM     17  C   UNL     1       8.687  14.058  44.415  1.00  0.00     0.053 C 
BRANCH  17  18
ATOM     18  C   UNL     1       8.655  12.686  45.010  1.00  0.00     0.041 C 
ATOM     19  O   UNL     1       7.638  12.289  45.637  1.00  0.00    -0.550 OA
ATOM     20  O   UNL     1       9.733  11.826  44.833  1.00  0.00    -0.550 OA
ENDBRANCH  17  18
ENDBRANCH  16  17
ENDBRANCH  15  16
ENDBRANCH  14  15
ENDBRANCH  13  14
ENDBRANCH  12  13
ENDBRANCH  11  12
ENDBRANCH   1  11
TORSDOF 15
ENDMDL
