MODEL 1
REMARK VINA RESULT:    -5.147      0.000      0.000
REMARK INTER + INTRA:          -9.938
REMARK INTER:                  -7.855
REMARK INTRA:                  -2.084
REMARK UNBOUND:                -2.084
REMARK SMILES CC(=O)CCC=C(C)CCC=C(C)CCC=C(C)C
REMARK SMILES IDX 10 1 11 2 12 3 13 4 14 5 15 6 16 7 18 8 17 9 19 10 9 11 7 12
REMARK SMILES IDX 6 13 8 14 5 15 4 16 2 17 3 18 1 19
REMARK H PARENT
REMARK Flexibility Score: inf
ROOT
ATOM      1  C   UNL     1       6.124   3.526 109.711  1.00  0.00     0.032 C 
ENDROOT
BRANCH   1   2
ATOM      2  C   UNL     1       4.985   4.367 109.186  1.00  0.00    -0.028 C 
ATOM      3  C   UNL     1       4.918   4.883 107.937  1.00  0.00    -0.077 C 
ATOM      4  C   UNL     1       6.045   4.723 106.944  1.00  0.00     0.039 C 
BRANCH   3   5
ATOM      5  C   UNL     1       3.681   5.653 107.532  1.00  0.00     0.034 C 
BRANCH   5   6
ATOM      6  C   UNL     1       2.524   4.700 107.214  1.00  0.00     0.032 C 
BRANCH   6   7
ATOM      7  C   UNL     1       2.793   3.948 105.934  1.00  0.00    -0.028 C 
ATOM      8  C   UNL     1       3.143   1.764 107.108  1.00  0.00     0.039 C 
ATOM      9  C   UNL     1       3.101   2.634 105.873  1.00  0.00    -0.080 C 
ATOM     10  C   UNL     1       3.396   2.027 104.526  1.00  0.00     0.039 C 
ENDBRANCH   6   7
ENDBRANCH   5   6
ENDBRANCH   3   5
ENDBRANCH   1   2
BRANCH   1  11
ATOM     11  C   UNL     1       5.922   2.035 109.403  1.00  0.00     0.034 C 
BRANCH  11  12
ATOM     12  C   UNL     1       7.040   1.477 108.547  1.00  0.00    -0.077 C 
ATOM     13  C   UNL     1       8.278   1.355 109.080  1.00  0.00    -0.028 C 
ATOM     14  C   UNL     1       6.738   1.070 107.124  1.00  0.00     0.039 C 
BRANCH  13  15
ATOM     15  C   UNL     1       9.497   0.863 108.335  1.00  0.00     0.035 C 
BRANCH  15  16
ATOM     16  C   UNL     1      10.305   2.036 107.768  1.00  0.00     0.079 C 
BRANCH  16  17
ATOM     17  C   UNL     1      10.446   1.943 106.271  1.00  0.00     0.130 C 
ATOM     18  O   UNL     1      11.129   1.057 105.780  1.00  0.00    -0.300 OA
ATOM     19  C   UNL     1       9.767   2.939 105.380  1.00  0.00     0.087 C 
ENDBRANCH  16  17
ENDBRANCH  15  16
ENDBRANCH  13  15
ENDBRANCH  11  12
ENDBRANCH   1  11
TORSDOF 9
ENDMDL
MODEL 2
REMARK VINA RESULT:    -4.933      1.491      4.505
REMARK INTER + INTRA:          -9.612
REMARK INTER:                  -7.140
REMARK INTRA:                  -2.472
REMARK UNBOUND:                -2.084
REMARK SMILES CC(=O)CCC=C(C)CCC=C(C)CCC=C(C)C
REMARK SMILES IDX 10 1 11 2 12 3 13 4 14 5 15 6 16 7 18 8 17 9 19 10 9 11 7 12
REMARK SMILES IDX 6 13 8 14 5 15 4 16 2 17 3 18 1 19
REMARK H PARENT
REMARK Flexibility Score: inf
ROOT
ATOM      1  C   UNL     1       2.760   3.851 107.016  1.00  0.00     0.032 C 
ENDROOT
BRANCH   1   2
ATOM      2  C   UNL     1       3.389   2.567 107.503  1.00  0.00    -0.028 C 
ATOM      3  C   UNL     1       3.609   1.476 106.734  1.00  0.00    -0.077 C 
ATOM      4  C   UNL     1       3.165   1.411 105.291  1.00  0.00     0.039 C 
BRANCH   3   5
ATOM      5  C   UNL     1       4.309   0.282 107.345  1.00  0.00     0.034 C 
BRANCH   5   6
ATOM      6  C   UNL     1       4.902   0.639 108.712  1.00  0.00     0.032 C 
BRANCH   6   7
ATOM      7  C   UNL     1       6.404   0.744 108.628  1.00  0.00    -0.028 C 
ATOM      8  C   UNL     1       6.456   3.041 109.624  1.00  0.00     0.039 C 
ATOM      9  C   UNL     1       7.114   1.829 109.007  1.00  0.00    -0.080 C 
ATOM     10  C   UNL     1       8.609   1.812 108.816  1.00  0.00     0.039 C 
ENDBRANCH   6   7
ENDBRANCH   5   6
ENDBRANCH   3   5
ENDBRANCH   1   2
BRANCH   1  11
ATOM     11  C   UNL     1       3.783   4.993 106.936  1.00  0.00     0.034 C 
BRANCH  11  12
ATOM     12  C   UNL     1       4.819   4.752 105.856  1.00  0.00    -0.077 C 
ATOM     13  C   UNL     1       6.078   4.414 106.218  1.00  0.00    -0.028 C 
ATOM     14  C   UNL     1       4.412   4.894 104.409  1.00  0.00     0.039 C 
BRANCH  13  15
ATOM     15  C   UNL     1       7.224   4.192 105.258  1.00  0.00     0.035 C 
BRANCH  15  16
ATOM     16  C   UNL     1       7.662   2.722 105.255  1.00  0.00     0.079 C 
BRANCH  16  17
ATOM     17  C   UNL     1       9.161   2.588 105.214  1.00  0.00     0.130 C 
ATOM     18  O   UNL     1       9.860   3.591 105.221  1.00  0.00    -0.300 OA
ATOM     19  C   UNL     1       9.803   1.235 105.150  1.00  0.00     0.087 C 
ENDBRANCH  16  17
ENDBRANCH  15  16
ENDBRANCH  13  15
ENDBRANCH  11  12
ENDBRANCH   1  11
TORSDOF 9
ENDMDL
MODEL 3
REMARK VINA RESULT:    -4.897      2.623      4.884
REMARK INTER + INTRA:          -9.558
REMARK INTER:                  -7.513
REMARK INTRA:                  -2.045
REMARK UNBOUND:                -2.084
REMARK SMILES CC(=O)CCC=C(C)CCC=C(C)CCC=C(C)C
REMARK SMILES IDX 10 1 11 2 12 3 13 4 14 5 15 6 16 7 18 8 17 9 19 10 9 11 7 12
REMARK SMILES IDX 6 13 8 14 5 15 4 16 2 17 3 18 1 19
REMARK H PARENT
REMARK Flexibility Score: inf
ROOT
ATOM      1  C   UNL     1       3.149   6.173 107.252  1.00  0.00     0.032 C 
ENDROOT
BRANCH   1   2
ATOM      2  C   UNL     1       3.579   5.464 108.514  1.00  0.00    -0.028 C 
ATOM      3  C   UNL     1       4.735   4.775 108.656  1.00  0.00    -0.077 C 
ATOM      4  C   UNL     1       5.698   4.582 107.508  1.00  0.00     0.039 C 
BRANCH   3   5
ATOM      5  C   UNL     1       5.062   4.170 110.003  1.00  0.00     0.034 C 
BRANCH   5   6
ATOM      6  C   UNL     1       5.938   2.923 109.843  1.00  0.00     0.032 C 
BRANCH   6   7
ATOM      7  C   UNL     1       5.213   1.697 110.340  1.00  0.00    -0.028 C 
ATOM      8  C   UNL     1       4.259   1.157 108.089  1.00  0.00     0.039 C 
ATOM      9  C   UNL     1       4.431   0.910 109.569  1.00  0.00    -0.080 C 
ATOM     10  C   UNL     1       3.725  -0.254 110.215  1.00  0.00     0.039 C 
ENDBRANCH   6   7
ENDBRANCH   5   6
ENDBRANCH   3   5
ENDBRANCH   1   2
BRANCH   1  11
ATOM     11  C   UNL     1       2.238   5.291 106.385  1.00  0.00     0.034 C 
BRANCH  11  12
ATOM     12  C   UNL     1       3.001   4.626 105.256  1.00  0.00    -0.077 C 
ATOM     13  C   UNL     1       3.097   3.276 105.234  1.00  0.00    -0.028 C 
ATOM     14  C   UNL     1       3.629   5.491 104.189  1.00  0.00     0.039 C 
BRANCH  13  15
ATOM     15  C   UNL     1       3.864   2.480 104.204  1.00  0.00     0.035 C 
BRANCH  15  16
ATOM     16  C   UNL     1       5.278   2.157 104.700  1.00  0.00     0.079 C 
BRANCH  16  17
ATOM     17  C   UNL     1       6.332   2.741 103.797  1.00  0.00     0.130 C 
ATOM     18  O   UNL     1       7.471   2.894 104.214  1.00  0.00    -0.300 OA
ATOM     19  C   UNL     1       5.992   3.150 102.395  1.00  0.00     0.087 C 
ENDBRANCH  16  17
ENDBRANCH  15  16
ENDBRANCH  13  15
ENDBRANCH  11  12
ENDBRANCH   1  11
TORSDOF 9
ENDMDL
MODEL 4
REMARK VINA RESULT:    -4.889      1.858      4.208
REMARK INTER + INTRA:          -9.545
REMARK INTER:                  -6.929
REMARK INTRA:                  -2.616
REMARK UNBOUND:                -2.084
REMARK SMILES CC(=O)CCC=C(C)CCC=C(C)CCC=C(C)C
REMARK SMILES IDX 10 1 11 2 12 3 13 4 14 5 15 6 16 7 18 8 17 9 19 10 9 11 7 12
REMARK SMILES IDX 6 13 8 14 5 15 4 16 2 17 3 18 1 19
REMARK H PARENT
REMARK Flexibility Score: inf
ROOT
ATOM      1  C   UNL     1       2.949   4.623 107.489  1.00  0.00     0.032 C 
ENDROOT
BRANCH   1   2
ATOM      2  C   UNL     1       3.090   3.932 106.154  1.00  0.00    -0.028 C 
ATOM      3  C   UNL     1       3.196   2.594 105.985  1.00  0.00    -0.077 C 
ATOM      4  C   UNL     1       3.259   1.642 107.157  1.00  0.00     0.039 C 
BRANCH   3   5
ATOM      5  C   UNL     1       3.266   2.040 104.580  1.00  0.00     0.034 C 
BRANCH   5   6
ATOM      6  C   UNL     1       4.472   2.613 103.827  1.00  0.00     0.032 C 
BRANCH   6   7
ATOM      7  C   UNL     1       5.762   2.126 104.441  1.00  0.00    -0.028 C 
ATOM      8  C   UNL     1       6.598   4.441 104.900  1.00  0.00     0.039 C 
ATOM      9  C   UNL     1       6.739   2.937 104.901  1.00  0.00    -0.080 C 
ATOM     10  C   UNL     1       7.998   2.309 105.441  1.00  0.00     0.039 C 
ENDBRANCH   6   7
ENDBRANCH   5   6
ENDBRANCH   3   5
ENDBRANCH   1   2
BRANCH   1  11
ATOM     11  C   UNL     1       4.263   5.284 107.931  1.00  0.00     0.034 C 
BRANCH  11  12
ATOM     12  C   UNL     1       5.044   4.407 108.889  1.00  0.00    -0.077 C 
ATOM     13  C   UNL     1       6.065   3.658 108.409  1.00  0.00    -0.028 C 
ATOM     14  C   UNL     1       4.660   4.396 110.349  1.00  0.00     0.039 C 
BRANCH  13  15
ATOM     15  C   UNL     1       6.898   2.703 109.232  1.00  0.00     0.035 C 
BRANCH  15  16
ATOM     16  C   UNL     1       6.541   1.247 108.913  1.00  0.00     0.079 C 
BRANCH  16  17
ATOM     17  C   UNL     1       7.676   0.311 109.236  1.00  0.00     0.130 C 
ATOM     18  O   UNL     1       7.503  -0.600 110.032  1.00  0.00    -0.300 OA
ATOM     19  C   UNL     1       9.020   0.498 108.600  1.00  0.00     0.087 C 
ENDBRANCH  16  17
ENDBRANCH  15  16
ENDBRANCH  13  15
ENDBRANCH  11  12
ENDBRANCH   1  11
TORSDOF 9
ENDMDL
MODEL 5
REMARK VINA RESULT:    -4.882      3.093      4.868
REMARK INTER + INTRA:          -9.534
REMARK INTER:                  -7.290
REMARK INTRA:                  -2.244
REMARK UNBOUND:                -2.084
REMARK SMILES CC(=O)CCC=C(C)CCC=C(C)CCC=C(C)C
REMARK SMILES IDX 10 1 11 2 12 3 13 4 14 5 15 6 16 7 18 8 17 9 19 10 9 11 7 12
REMARK SMILES IDX 6 13 8 14 5 15 4 16 2 17 3 18 1 19
REMARK H PARENT
REMARK Flexibility Score: inf
ROOT
ATOM      1  C   UNL     1       3.233   5.759 105.869  1.00  0.00     0.032 C 
ENDROOT
BRANCH   1   2
ATOM      2  C   UNL     1       3.114   5.449 104.396  1.00  0.00    -0.028 C 
ATOM      3  C   UNL     1       4.116   4.967 103.625  1.00  0.00    -0.077 C 
ATOM      4  C   UNL     1       5.512   4.759 104.166  1.00  0.00     0.039 C 
BRANCH   3   5
ATOM      5  C   UNL     1       3.830   4.642 102.176  1.00  0.00     0.034 C 
BRANCH   5   6
ATOM      6  C   UNL     1       4.085   3.158 101.889  1.00  0.00     0.032 C 
BRANCH   6   7
ATOM      7  C   UNL     1       3.035   2.300 102.550  1.00  0.00    -0.028 C 
ATOM      8  C   UNL     1       4.697   1.098 103.986  1.00  0.00     0.039 C 
ATOM      9  C   UNL     1       3.298   1.350 103.473  1.00  0.00    -0.080 C 
ATOM     10  C   UNL     1       2.151   0.533 104.010  1.00  0.00     0.039 C 
ENDBRANCH   6   7
ENDBRANCH   5   6
ENDBRANCH   3   5
ENDBRANCH   1   2
BRANCH   1  11
ATOM     11  C   UNL     1       2.614   4.655 106.737  1.00  0.00     0.034 C 
BRANCH  11  12
ATOM     12  C   UNL     1       3.658   3.684 107.251  1.00  0.00    -0.077 C 
ATOM     13  C   UNL     1       4.812   4.172 107.763  1.00  0.00    -0.028 C 
ATOM     14  C   UNL     1       3.378   2.202 107.178  1.00  0.00     0.039 C 
BRANCH  13  15
ATOM     15  C   UNL     1       5.961   3.328 108.265  1.00  0.00     0.035 C 
BRANCH  15  16
ATOM     16  C   UNL     1       5.951   3.243 109.796  1.00  0.00     0.079 C 
BRANCH  16  17
ATOM     17  C   UNL     1       5.575   1.866 110.275  1.00  0.00     0.130 C 
ATOM     18  O   UNL     1       4.909   1.738 111.292  1.00  0.00    -0.300 OA
ATOM     19  C   UNL     1       6.024   0.649 109.523  1.00  0.00     0.087 C 
ENDBRANCH  16  17
ENDBRANCH  15  16
ENDBRANCH  13  15
ENDBRANCH  11  12
ENDBRANCH   1  11
TORSDOF 9
ENDMDL
MODEL 6
REMARK VINA RESULT:    -4.871      2.606      5.739
REMARK INTER + INTRA:          -9.518
REMARK INTER:                  -6.767
REMARK INTRA:                  -2.751
REMARK UNBOUND:                -2.084
REMARK SMILES CC(=O)CCC=C(C)CCC=C(C)CCC=C(C)C
REMARK SMILES IDX 10 1 11 2 12 3 13 4 14 5 15 6 16 7 18 8 17 9 19 10 9 11 7 12
REMARK SMILES IDX 6 13 8 14 5 15 4 16 2 17 3 18 1 19
REMARK H PARENT
REMARK Flexibility Score: inf
ROOT
ATOM      1  C   UNL     1       5.518  -0.447 106.128  1.00  0.00     0.032 C 
ENDROOT
BRANCH   1   2
ATOM      2  C   UNL     1       6.677   0.094 106.930  1.00  0.00    -0.028 C 
ATOM      3  C   UNL     1       7.331   1.247 106.659  1.00  0.00    -0.077 C 
ATOM      4  C   UNL     1       7.002   2.088 105.449  1.00  0.00     0.039 C 
BRANCH   3   5
ATOM      5  C   UNL     1       8.435   1.695 107.591  1.00  0.00     0.034 C 
BRANCH   5   6
ATOM      6  C   UNL     1       7.945   1.723 109.043  1.00  0.00     0.032 C 
BRANCH   6   7
ATOM      7  C   UNL     1       7.076   2.932 109.288  1.00  0.00    -0.028 C 
ATOM      8  C   UNL     1       5.249   1.597 110.359  1.00  0.00     0.039 C 
ATOM      9  C   UNL     1       5.850   2.887 109.851  1.00  0.00    -0.080 C 
ATOM     10  C   UNL     1       5.073   4.172 109.985  1.00  0.00     0.039 C 
ENDBRANCH   6   7
ENDBRANCH   5   6
ENDBRANCH   3   5
ENDBRANCH   1   2
BRANCH   1  11
ATOM     11  C   UNL     1       4.173  -0.196 106.827  1.00  0.00     0.034 C 
BRANCH  11  12
ATOM     12  C   UNL     1       3.510   1.076 106.340  1.00  0.00    -0.077 C 
ATOM     13  C   UNL     1       3.621   2.201 107.083  1.00  0.00    -0.028 C 
ATOM     14  C   UNL     1       2.745   1.049 105.037  1.00  0.00     0.039 C 
BRANCH  13  15
ATOM     15  C   UNL     1       2.974   3.526 106.750  1.00  0.00     0.035 C 
BRANCH  15  16
ATOM     16  C   UNL     1       4.023   4.553 106.308  1.00  0.00     0.079 C 
BRANCH  16  17
ATOM     17  C   UNL     1       3.853   4.936 104.862  1.00  0.00     0.130 C 
ATOM     18  O   UNL     1       3.244   5.956 104.572  1.00  0.00    -0.300 OA
ATOM     19  C   UNL     1       4.410   4.068 103.775  1.00  0.00     0.087 C 
ENDBRANCH  16  17
ENDBRANCH  15  16
ENDBRANCH  13  15
ENDBRANCH  11  12
ENDBRANCH   1  11
TORSDOF 9
ENDMDL
MODEL 7
REMARK VINA RESULT:    -4.823      1.484      2.943
REMARK INTER + INTRA:          -9.444
REMARK INTER:                  -6.703
REMARK INTRA:                  -2.741
REMARK UNBOUND:                -2.084
REMARK SMILES CC(=O)CCC=C(C)CCC=C(C)CCC=C(C)C
REMARK SMILES IDX 10 1 11 2 12 3 13 4 14 5 15 6 16 7 18 8 17 9 19 10 9 11 7 12
REMARK SMILES IDX 6 13 8 14 5 15 4 16 2 17 3 18 1 19
REMARK H PARENT
REMARK Flexibility Score: inf
ROOT
ATOM      1  C   UNL     1       5.215   0.232 108.992  1.00  0.00     0.032 C 
ENDROOT
BRANCH   1   2
ATOM      2  C   UNL     1       5.110   1.676 109.421  1.00  0.00    -0.028 C 
ATOM      3  C   UNL     1       6.147   2.543 109.473  1.00  0.00    -0.077 C 
ATOM      4  C   UNL     1       7.563   2.115 109.167  1.00  0.00     0.039 C 
BRANCH   3   5
ATOM      5  C   UNL     1       5.878   3.979 109.862  1.00  0.00     0.034 C 
BRANCH   5   6
ATOM      6  C   UNL     1       4.623   4.509 109.158  1.00  0.00     0.032 C 
BRANCH   6   7
ATOM      7  C   UNL     1       4.924   4.846 107.719  1.00  0.00    -0.028 C 
ATOM      8  C   UNL     1       3.055   3.434 106.834  1.00  0.00     0.039 C 
ATOM      9  C   UNL     1       4.246   4.347 106.662  1.00  0.00    -0.080 C 
ATOM     10  C   UNL     1       4.693   4.732 105.275  1.00  0.00     0.039 C 
ENDBRANCH   6   7
ENDBRANCH   5   6
ENDBRANCH   3   5
ENDBRANCH   1   2
BRANCH   1  11
ATOM     11  C   UNL     1       4.864   0.050 107.508  1.00  0.00     0.034 C 
BRANCH  11  12
ATOM     12  C   UNL     1       6.059   0.293 106.609  1.00  0.00    -0.077 C 
ATOM     13  C   UNL     1       6.070   1.386 105.811  1.00  0.00    -0.028 C 
ATOM     14  C   UNL     1       7.204  -0.692 106.633  1.00  0.00     0.039 C 
BRANCH  13  15
ATOM     15  C   UNL     1       7.166   1.730 104.829  1.00  0.00     0.035 C 
BRANCH  15  16
ATOM     16  C   UNL     1       8.026   2.888 105.350  1.00  0.00     0.079 C 
BRANCH  16  17
ATOM     17  C   UNL     1       9.494   2.557 105.304  1.00  0.00     0.130 C 
ATOM     18  O   UNL     1      10.106   2.660 104.251  1.00  0.00    -0.300 OA
ATOM     19  C   UNL     1      10.207   2.087 106.536  1.00  0.00     0.087 C 
ENDBRANCH  16  17
ENDBRANCH  15  16
ENDBRANCH  13  15
ENDBRANCH  11  12
ENDBRANCH   1  11
TORSDOF 9
ENDMDL
MODEL 8
REMARK VINA RESULT:    -4.798      1.676      3.228
REMARK INTER + INTRA:          -9.406
REMARK INTER:                  -6.980
REMARK INTRA:                  -2.426
REMARK UNBOUND:                -2.084
REMARK SMILES CC(=O)CCC=C(C)CCC=C(C)CCC=C(C)C
REMARK SMILES IDX 10 1 11 2 12 3 13 4 14 5 15 6 16 7 18 8 17 9 19 10 9 11 7 12
REMARK SMILES IDX 6 13 8 14 5 15 4 16 2 17 3 18 1 19
REMARK H PARENT
REMARK Flexibility Score: inf
ROOT
ATOM      1  C   UNL     1       4.620   4.805 108.540  1.00  0.00     0.032 C 
ENDROOT
BRANCH   1   2
ATOM      2  C   UNL     1       3.777   3.786 107.811  1.00  0.00    -0.028 C 
ATOM      3  C   UNL     1       4.106   3.216 106.629  1.00  0.00    -0.077 C 
ATOM      4  C   UNL     1       5.350   3.611 105.869  1.00  0.00     0.039 C 
BRANCH   3   5
ATOM      5  C   UNL     1       3.191   2.160 106.049  1.00  0.00     0.034 C 
BRANCH   5   6
ATOM      6  C   UNL     1       3.893   0.799 105.995  1.00  0.00     0.032 C 
BRANCH   6   7
ATOM      7  C   UNL     1       4.182   0.294 107.387  1.00  0.00    -0.028 C 
ATOM      8  C   UNL     1       5.474  -1.688 106.569  1.00  0.00     0.039 C 
ATOM      9  C   UNL     1       4.867  -0.837 107.660  1.00  0.00    -0.080 C 
ATOM     10  C   UNL     1       5.034  -1.246 109.101  1.00  0.00     0.039 C 
ENDBRANCH   6   7
ENDBRANCH   5   6
ENDBRANCH   3   5
ENDBRANCH   1   2
BRANCH   1  11
ATOM     11  C   UNL     1       4.969   4.344 109.963  1.00  0.00     0.034 C 
BRANCH  11  12
ATOM     12  C   UNL     1       5.695   3.014 109.966  1.00  0.00    -0.077 C 
ATOM     13  C   UNL     1       6.777   2.854 109.169  1.00  0.00    -0.028 C 
ATOM     14  C   UNL     1       5.188   1.906 110.860  1.00  0.00     0.039 C 
BRANCH  13  15
ATOM     15  C   UNL     1       7.568   1.574 109.030  1.00  0.00     0.035 C 
BRANCH  15  16
ATOM     16  C   UNL     1       7.898   1.288 107.561  1.00  0.00     0.079 C 
BRANCH  16  17
ATOM     17  C   UNL     1       9.378   1.368 107.296  1.00  0.00     0.130 C 
ATOM     18  O   UNL     1       9.822   1.004 106.216  1.00  0.00    -0.300 OA
ATOM     19  C   UNL     1      10.314   1.874 108.352  1.00  0.00     0.087 C 
ENDBRANCH  16  17
ENDBRANCH  15  16
ENDBRANCH  13  15
ENDBRANCH  11  12
ENDBRANCH   1  11
TORSDOF 9
ENDMDL
MODEL 9
REMARK VINA RESULT:    -4.761      2.485      5.688
REMARK INTER + INTRA:          -9.350
REMARK INTER:                  -6.667
REMARK INTRA:                  -2.683
REMARK UNBOUND:                -2.084
REMARK SMILES CC(=O)CCC=C(C)CCC=C(C)CCC=C(C)C
REMARK SMILES IDX 10 1 11 2 12 3 13 4 14 5 15 6 16 7 18 8 17 9 19 10 9 11 7 12
REMARK SMILES IDX 6 13 8 14 5 15 4 16 2 17 3 18 1 19
REMARK H PARENT
REMARK Flexibility Score: inf
ROOT
ATOM      1  C   UNL     1       5.330   2.388 110.477  1.00  0.00     0.032 C 
ENDROOT
BRANCH   1   2
ATOM      2  C   UNL     1       5.887   1.026 110.138  1.00  0.00    -0.028 C 
ATOM      3  C   UNL     1       5.414   0.220 109.159  1.00  0.00    -0.077 C 
ATOM      4  C   UNL     1       4.201   0.587 108.337  1.00  0.00     0.039 C 
BRANCH   3   5
ATOM      5  C   UNL     1       6.117  -1.092 108.893  1.00  0.00     0.034 C 
BRANCH   5   6
ATOM      6  C   UNL     1       7.628  -0.882 108.743  1.00  0.00     0.032 C 
BRANCH   6   7
ATOM      7  C   UNL     1       7.937  -0.146 107.463  1.00  0.00    -0.028 C 
ATOM      8  C   UNL     1       9.256   1.637 108.625  1.00  0.00     0.039 C 
ATOM      9  C   UNL     1       8.643   1.003 107.398  1.00  0.00    -0.080 C 
ATOM     10  C   UNL     1       8.829   1.657 106.053  1.00  0.00     0.039 C 
ENDBRANCH   6   7
ENDBRANCH   5   6
ENDBRANCH   3   5
ENDBRANCH   1   2
BRANCH   1  11
ATOM     11  C   UNL     1       6.157   3.516 109.843  1.00  0.00     0.034 C 
BRANCH  11  12
ATOM     12  C   UNL     1       5.543   4.013 108.550  1.00  0.00    -0.077 C 
ATOM     13  C   UNL     1       6.090   3.629 107.373  1.00  0.00    -0.028 C 
ATOM     14  C   UNL     1       4.337   4.920 108.615  1.00  0.00     0.039 C 
BRANCH  13  15
ATOM     15  C   UNL     1       5.617   4.082 106.011  1.00  0.00     0.035 C 
BRANCH  15  16
ATOM     16  C   UNL     1       5.041   2.908 105.211  1.00  0.00     0.079 C 
BRANCH  16  17
ATOM     17  C   UNL     1       3.541   2.841 105.322  1.00  0.00     0.130 C 
ATOM     18  O   UNL     1       2.908   3.848 105.608  1.00  0.00    -0.300 OA
ATOM     19  C   UNL     1       2.818   1.547 105.101  1.00  0.00     0.087 C 
ENDBRANCH  16  17
ENDBRANCH  15  16
ENDBRANCH  13  15
ENDBRANCH  11  12
ENDBRANCH   1  11
TORSDOF 9
ENDMDL
