MODEL 1
REMARK VINA RESULT:    -3.772      0.000      0.000
REMARK INTER + INTRA:          -3.772
REMARK INTER:                  -3.772
REMARK INTRA:                   0.000
REMARK UNBOUND:                 0.000
REMARK SMILES CC1=CC[C@H]2C[C@@H]1C2(C)C
REMARK SMILES IDX 1 1 2 2 3 3 4 4 5 5 6 6 7 7 8 8 9 9 10 10
REMARK H PARENT
REMARK Flexibility Score: inf
ROOT
ATOM      1  C   UNL     1      43.964  17.123  -2.754  1.00  0.00     0.039 C 
ATOM      2  C   UNL     1      43.313  18.459  -2.950  1.00  0.00    -0.074 C 
ATOM      3  C   UNL     1      43.778  19.347  -3.875  1.00  0.00    -0.027 C 
ATOM      4  C   UNL     1      43.080  20.716  -4.006  1.00  0.00     0.031 C 
ATOM      5  C   UNL     1      41.871  20.800  -3.011  1.00  0.00    -0.000 C 
ATOM      6  C   UNL     1      41.104  19.472  -3.173  1.00  0.00     0.013 C 
ATOM      7  C   UNL     1      42.084  18.887  -2.136  1.00  0.00     0.021 C 
ATOM      8  C   UNL     1      42.303  20.325  -1.595  1.00  0.00    -0.026 C 
ATOM      9  C   UNL     1      41.266  20.708  -0.508  1.00  0.00     0.012 C 
ATOM     10  C   UNL     1      43.717  20.712  -1.079  1.00  0.00     0.012 C 
ENDROOT
TORSDOF 0
ENDMDL
MODEL 2
REMARK VINA RESULT:    -3.691      1.202      3.410
REMARK INTER + INTRA:          -3.691
REMARK INTER:                  -3.691
REMARK INTRA:                   0.000
REMARK UNBOUND:                 0.000
REMARK SMILES CC1=CC[C@H]2C[C@@H]1C2(C)C
REMARK SMILES IDX 1 1 2 2 3 3 4 4 5 5 6 6 7 7 8 8 9 9 10 10
REMARK H PARENT
REMARK Flexibility Score: inf
ROOT
ATOM      1  C   UNL     1      39.964  20.625  -0.125  1.00  0.00     0.039 C 
ATOM      2  C   UNL     1      41.097  20.082  -0.943  1.00  0.00    -0.074 C 
ATOM      3  C   UNL     1      42.346  20.628  -0.877  1.00  0.00    -0.027 C 
ATOM      4  C   UNL     1      43.460  20.040  -1.767  1.00  0.00     0.031 C 
ATOM      5  C   UNL     1      42.906  18.826  -2.590  1.00  0.00    -0.000 C 
ATOM      6  C   UNL     1      42.122  17.961  -1.582  1.00  0.00     0.013 C 
ATOM      7  C   UNL     1      40.917  18.877  -1.876  1.00  0.00     0.021 C 
ATOM      8  C   UNL     1      41.552  19.198  -3.255  1.00  0.00    -0.026 C 
ATOM      9  C   UNL     1      41.136  18.177  -4.346  1.00  0.00     0.012 C 
ATOM     10  C   UNL     1      41.375  20.630  -3.835  1.00  0.00     0.012 C 
ENDROOT
TORSDOF 0
ENDMDL
MODEL 3
REMARK VINA RESULT:    -3.623      1.176      2.874
REMARK INTER + INTRA:          -3.623
REMARK INTER:                  -3.623
REMARK INTRA:                   0.000
REMARK UNBOUND:                 0.000
REMARK SMILES CC1=CC[C@H]2C[C@@H]1C2(C)C
REMARK SMILES IDX 1 1 2 2 3 3 4 4 5 5 6 6 7 7 8 8 9 9 10 10
REMARK H PARENT
REMARK Flexibility Score: inf
ROOT
ATOM      1  C   UNL     1      43.049  21.019  -4.129  1.00  0.00     0.039 C 
ATOM      2  C   UNL     1      42.677  20.204  -2.927  1.00  0.00    -0.074 C 
ATOM      3  C   UNL     1      42.938  18.866  -2.866  1.00  0.00    -0.027 C 
ATOM      4  C   UNL     1      42.503  18.081  -1.611  1.00  0.00     0.031 C 
ATOM      5  C   UNL     1      41.842  19.053  -0.573  1.00  0.00    -0.000 C 
ATOM      6  C   UNL     1      42.779  20.275  -0.489  1.00  0.00     0.013 C 
ATOM      7  C   UNL     1      42.004  20.834  -1.699  1.00  0.00     0.021 C 
ATOM      8  C   UNL     1      40.794  19.961  -1.274  1.00  0.00    -0.026 C 
ATOM      9  C   UNL     1      39.875  20.686  -0.257  1.00  0.00     0.012 C 
ATOM     10  C   UNL     1      39.900  19.345  -2.387  1.00  0.00     0.012 C 
ENDROOT
TORSDOF 0
ENDMDL
MODEL 4
REMARK VINA RESULT:    -3.544      0.979      3.336
REMARK INTER + INTRA:          -3.544
REMARK INTER:                  -3.544
REMARK INTRA:                   0.000
REMARK UNBOUND:                 0.000
REMARK SMILES CC1=CC[C@H]2C[C@@H]1C2(C)C
REMARK SMILES IDX 1 1 2 2 3 3 4 4 5 5 6 6 7 7 8 8 9 9 10 10
REMARK H PARENT
REMARK Flexibility Score: inf
ROOT
ATOM      1  C   UNL     1      41.723  20.807  -0.518  1.00  0.00     0.039 C 
ATOM      2  C   UNL     1      41.881  20.041  -1.797  1.00  0.00    -0.074 C 
ATOM      3  C   UNL     1      40.815  19.795  -2.614  1.00  0.00    -0.027 C 
ATOM      4  C   UNL     1      41.041  18.976  -3.901  1.00  0.00     0.031 C 
ATOM      5  C   UNL     1      42.558  18.604  -4.041  1.00  0.00    -0.000 C 
ATOM      6  C   UNL     1      43.336  19.903  -3.752  1.00  0.00     0.013 C 
ATOM      7  C   UNL     1      43.245  19.514  -2.262  1.00  0.00     0.021 C 
ATOM      8  C   UNL     1      43.100  18.033  -2.702  1.00  0.00    -0.026 C 
ATOM      9  C   UNL     1      44.472  17.334  -2.876  1.00  0.00     0.012 C 
ATOM     10  C   UNL     1      42.181  17.101  -1.863  1.00  0.00     0.012 C 
ENDROOT
TORSDOF 0
ENDMDL
MODEL 5
REMARK VINA RESULT:    -3.541      1.077      2.947
REMARK INTER + INTRA:          -3.541
REMARK INTER:                  -3.541
REMARK INTRA:                   0.000
REMARK UNBOUND:                 0.000
REMARK SMILES CC1=CC[C@H]2C[C@@H]1C2(C)C
REMARK SMILES IDX 1 1 2 2 3 3 4 4 5 5 6 6 7 7 8 8 9 9 10 10
REMARK H PARENT
REMARK Flexibility Score: inf
ROOT
ATOM      1  C   UNL     1      42.130  16.933  -1.636  1.00  0.00     0.039 C 
ATOM      2  C   UNL     1      42.058  18.430  -1.677  1.00  0.00    -0.074 C 
ATOM      3  C   UNL     1      41.219  19.123  -0.854  1.00  0.00    -0.027 C 
ATOM      4  C   UNL     1      41.173  20.661  -0.968  1.00  0.00     0.031 C 
ATOM      5  C   UNL     1      42.198  21.151  -2.049  1.00  0.00    -0.000 C 
ATOM      6  C   UNL     1      43.508  20.391  -1.756  1.00  0.00     0.013 C 
ATOM      7  C   UNL     1      42.934  19.256  -2.628  1.00  0.00     0.021 C 
ATOM      8  C   UNL     1      42.055  20.312  -3.349  1.00  0.00    -0.026 C 
ATOM      9  C   UNL     1      42.786  20.965  -4.550  1.00  0.00     0.012 C 
ATOM     10  C   UNL     1      40.631  19.894  -3.812  1.00  0.00     0.012 C 
ENDROOT
TORSDOF 0
ENDMDL
MODEL 6
REMARK VINA RESULT:    -3.472      1.157      2.882
REMARK INTER + INTRA:          -3.472
REMARK INTER:                  -3.472
REMARK INTRA:                   0.000
REMARK UNBOUND:                 0.000
REMARK SMILES CC1=CC[C@H]2C[C@@H]1C2(C)C
REMARK SMILES IDX 1 1 2 2 3 3 4 4 5 5 6 6 7 7 8 8 9 9 10 10
REMARK H PARENT
REMARK Flexibility Score: inf
ROOT
ATOM      1  C   UNL     1      44.002  21.004  -5.093  1.00  0.00     0.039 C 
ATOM      2  C   UNL     1      43.284  20.454  -3.897  1.00  0.00    -0.074 C 
ATOM      3  C   UNL     1      43.570  20.887  -2.635  1.00  0.00    -0.027 C 
ATOM      4  C   UNL     1      42.814  20.258  -1.446  1.00  0.00     0.031 C 
ATOM      5  C   UNL     1      41.772  19.209  -1.968  1.00  0.00    -0.000 C 
ATOM      6  C   UNL     1      41.034  19.896  -3.134  1.00  0.00     0.013 C 
ATOM      7  C   UNL     1      42.183  19.394  -4.032  1.00  0.00     0.021 C 
ATOM      8  C   UNL     1      42.434  18.259  -3.004  1.00  0.00    -0.026 C 
ATOM      9  C   UNL     1      41.566  17.006  -3.288  1.00  0.00     0.012 C 
ATOM     10  C   UNL     1      43.897  17.794  -2.761  1.00  0.00     0.012 C 
ENDROOT
TORSDOF 0
ENDMDL
MODEL 7
REMARK VINA RESULT:    -3.471      1.094      3.182
REMARK INTER + INTRA:          -3.471
REMARK INTER:                  -3.471
REMARK INTRA:                   0.000
REMARK UNBOUND:                 0.000
REMARK SMILES CC1=CC[C@H]2C[C@@H]1C2(C)C
REMARK SMILES IDX 1 1 2 2 3 3 4 4 5 5 6 6 7 7 8 8 9 9 10 10
REMARK H PARENT
REMARK Flexibility Score: inf
ROOT
ATOM      1  C   UNL     1      41.652  20.491  -0.517  1.00  0.00     0.039 C 
ATOM      2  C   UNL     1      42.290  20.103  -1.817  1.00  0.00    -0.074 C 
ATOM      3  C   UNL     1      43.004  21.003  -2.554  1.00  0.00    -0.027 C 
ATOM      4  C   UNL     1      43.611  20.547  -3.897  1.00  0.00     0.031 C 
ATOM      5  C   UNL     1      43.299  19.030  -4.139  1.00  0.00    -0.000 C 
ATOM      6  C   UNL     1      43.626  18.319  -2.811  1.00  0.00     0.013 C 
ATOM      7  C   UNL     1      42.191  18.677  -2.374  1.00  0.00     0.021 C 
ATOM      8  C   UNL     1      41.796  18.738  -3.874  1.00  0.00    -0.026 C 
ATOM      9  C   UNL     1      41.363  17.355  -4.424  1.00  0.00     0.012 C 
ATOM     10  C   UNL     1      40.743  19.792  -4.317  1.00  0.00     0.012 C 
ENDROOT
TORSDOF 0
ENDMDL
MODEL 8
REMARK VINA RESULT:    -3.405      1.200      3.106
REMARK INTER + INTRA:          -3.405
REMARK INTER:                  -3.405
REMARK INTRA:                   0.000
REMARK UNBOUND:                 0.000
REMARK SMILES CC1=CC[C@H]2C[C@@H]1C2(C)C
REMARK SMILES IDX 1 1 2 2 3 3 4 4 5 5 6 6 7 7 8 8 9 9 10 10
REMARK H PARENT
REMARK Flexibility Score: inf
ROOT
ATOM      1  C   UNL     1      40.277  20.398  -0.151  1.00  0.00     0.039 C 
ATOM      2  C   UNL     1      41.047  19.680  -1.218  1.00  0.00    -0.074 C 
ATOM      3  C   UNL     1      41.706  18.514  -0.955  1.00  0.00    -0.027 C 
ATOM      4  C   UNL     1      42.503  17.841  -2.092  1.00  0.00     0.031 C 
ATOM      5  C   UNL     1      42.351  18.665  -3.416  1.00  0.00    -0.000 C 
ATOM      6  C   UNL     1      40.845  18.973  -3.546  1.00  0.00     0.013 C 
ATOM      7  C   UNL     1      41.117  20.205  -2.659  1.00  0.00     0.021 C 
ATOM      8  C   UNL     1      42.591  20.176  -3.143  1.00  0.00    -0.026 C 
ATOM      9  C   UNL     1      42.795  20.982  -4.452  1.00  0.00     0.012 C 
ATOM     10  C   UNL     1      43.706  20.584  -2.140  1.00  0.00     0.012 C 
ENDROOT
TORSDOF 0
ENDMDL
MODEL 9
REMARK VINA RESULT:    -3.251      1.132      2.293
REMARK INTER + INTRA:          -3.251
REMARK INTER:                  -3.251
REMARK INTRA:                   0.000
REMARK UNBOUND:                 0.000
REMARK SMILES CC1=CC[C@H]2C[C@@H]1C2(C)C
REMARK SMILES IDX 1 1 2 2 3 3 4 4 5 5 6 6 7 7 8 8 9 9 10 10
REMARK H PARENT
REMARK Flexibility Score: inf
ROOT
ATOM      1  C   UNL     1      40.253  18.534  -4.946  1.00  0.00     0.039 C 
ATOM      2  C   UNL     1      41.402  19.022  -4.116  1.00  0.00    -0.074 C 
ATOM      3  C   UNL     1      42.656  18.505  -4.266  1.00  0.00    -0.027 C 
ATOM      4  C   UNL     1      43.788  19.032  -3.360  1.00  0.00     0.031 C 
ATOM      5  C   UNL     1      43.240  20.158  -2.417  1.00  0.00    -0.000 C 
ATOM      6  C   UNL     1      42.414  21.095  -3.320  1.00  0.00     0.013 C 
ATOM      7  C   UNL     1      41.232  20.136  -3.074  1.00  0.00     0.021 C 
ATOM      8  C   UNL     1      41.913  19.705  -1.748  1.00  0.00    -0.026 C 
ATOM      9  C   UNL     1      41.515  20.618  -0.560  1.00  0.00     0.012 C 
ATOM     10  C   UNL     1      41.775  18.225  -1.294  1.00  0.00     0.012 C 
ENDROOT
TORSDOF 0
ENDMDL
