MODEL 1
REMARK VINA RESULT:    -4.719      0.000      0.000
REMARK INTER + INTRA:          -5.283
REMARK INTER:                  -4.995
REMARK INTRA:                  -0.287
REMARK UNBOUND:                -0.287
REMARK SMILES CC1=CC[C@H]2[C@@H]3[C@@H](C(C)C)CC[C@@]2(C)[C@H]13
REMARK SMILES IDX 1 1 2 2 3 3 4 4 5 5 6 6 15 7 13 8 12 9 11 10 7 11 14 12 8 13
REMARK SMILES IDX 9 14 10 15
REMARK H PARENT
REMARK Flexibility Score: inf
ROOT
ATOM      1  C   UNL     1      24.512  61.236  16.882  1.00  0.00     0.039 C 
ATOM      2  C   UNL     1      23.884  62.566  17.167  1.00  0.00    -0.073 C 
ATOM      3  C   UNL     1      24.608  63.592  17.692  1.00  0.00    -0.027 C 
ATOM      4  C   UNL     1      23.907  64.930  17.967  1.00  0.00     0.031 C 
ATOM      5  C   UNL     1      22.409  64.860  17.521  1.00  0.00     0.003 C 
ATOM      6  C   UNL     1      22.378  64.204  16.122  1.00  0.00     0.004 C 
ATOM      7  C   UNL     1      22.412  62.844  16.847  1.00  0.00     0.024 C 
ATOM      8  C   UNL     1      21.734  63.567  18.033  1.00  0.00    -0.022 C 
ATOM      9  C   UNL     1      20.204  63.657  17.803  1.00  0.00     0.008 C 
ATOM     10  C   UNL     1      19.813  64.162  16.384  1.00  0.00     0.005 C 
ATOM     11  C   UNL     1      21.014  64.443  15.415  1.00  0.00    -0.005 C 
ATOM     12  C   UNL     1      22.042  63.073  19.468  1.00  0.00     0.012 C 
ENDROOT
BRANCH  11  13
ATOM     13  C   UNL     1      20.868  63.643  14.075  1.00  0.00    -0.014 C 
ATOM     14  C   UNL     1      20.806  64.551  12.834  1.00  0.00     0.007 C 
ATOM     15  C   UNL     1      19.609  62.756  14.104  1.00  0.00     0.007 C 
ENDBRANCH  11  13
TORSDOF 1
ENDMDL
MODEL 2
REMARK VINA RESULT:    -4.679      1.412      4.501
REMARK INTER + INTRA:          -5.240
REMARK INTER:                  -4.999
REMARK INTRA:                  -0.240
REMARK UNBOUND:                -0.287
REMARK SMILES CC1=CC[C@H]2[C@@H]3[C@@H](C(C)C)CC[C@@]2(C)[C@H]13
REMARK SMILES IDX 1 1 2 2 3 3 4 4 5 5 6 6 15 7 13 8 12 9 11 10 7 11 14 12 8 13
REMARK SMILES IDX 9 14 10 15
REMARK H PARENT
REMARK Flexibility Score: inf
ROOT
ATOM      1  C   UNL     1      19.717  62.716  13.862  1.00  0.00     0.039 C 
ATOM      2  C   UNL     1      21.030  63.324  14.252  1.00  0.00    -0.073 C 
ATOM      3  C   UNL     1      21.507  64.437  13.630  1.00  0.00    -0.027 C 
ATOM      4  C   UNL     1      22.862  65.011  14.070  1.00  0.00     0.031 C 
ATOM      5  C   UNL     1      23.446  64.172  15.254  1.00  0.00     0.003 C 
ATOM      6  C   UNL     1      22.300  63.943  16.264  1.00  0.00     0.004 C 
ATOM      7  C   UNL     1      21.877  62.745  15.389  1.00  0.00     0.024 C 
ATOM      8  C   UNL     1      23.359  62.657  14.961  1.00  0.00    -0.022 C 
ATOM      9  C   UNL     1      24.179  61.877  16.021  1.00  0.00     0.008 C 
ATOM     10  C   UNL     1      23.919  62.346  17.482  1.00  0.00     0.005 C 
ATOM     11  C   UNL     1      22.845  63.479  17.644  1.00  0.00    -0.005 C 
ATOM     12  C   UNL     1      23.683  62.143  13.537  1.00  0.00     0.012 C 
ENDROOT
BRANCH  11  13
ATOM     13  C   UNL     1      21.714  63.057  18.642  1.00  0.00    -0.014 C 
ATOM     14  C   UNL     1      20.362  63.726  18.340  1.00  0.00     0.007 C 
ATOM     15  C   UNL     1      22.115  63.383  20.093  1.00  0.00     0.007 C 
ENDBRANCH  11  13
TORSDOF 1
ENDMDL
MODEL 3
REMARK VINA RESULT:    -4.665      2.479      4.813
REMARK INTER + INTRA:          -5.225
REMARK INTER:                  -4.955
REMARK INTRA:                  -0.271
REMARK UNBOUND:                -0.287
REMARK SMILES CC1=CC[C@H]2[C@@H]3[C@@H](C(C)C)CC[C@@]2(C)[C@H]13
REMARK SMILES IDX 1 1 2 2 3 3 4 4 5 5 6 6 15 7 13 8 12 9 11 10 7 11 14 12 8 13
REMARK SMILES IDX 9 14 10 15
REMARK H PARENT
REMARK Flexibility Score: inf
ROOT
ATOM      1  C   UNL     1      19.500  62.473  14.017  1.00  0.00     0.039 C 
ATOM      2  C   UNL     1      20.711  63.128  14.611  1.00  0.00    -0.073 C 
ATOM      3  C   UNL     1      20.672  63.697  15.847  1.00  0.00    -0.027 C 
ATOM      4  C   UNL     1      21.944  64.357  16.400  1.00  0.00     0.031 C 
ATOM      5  C   UNL     1      23.123  64.198  15.384  1.00  0.00     0.003 C 
ATOM      6  C   UNL     1      23.119  62.730  14.903  1.00  0.00     0.004 C 
ATOM      7  C   UNL     1      22.053  63.155  13.873  1.00  0.00     0.024 C 
ATOM      8  C   UNL     1      22.678  64.566  13.950  1.00  0.00    -0.022 C 
ATOM      9  C   UNL     1      23.922  64.653  13.029  1.00  0.00     0.008 C 
ATOM     10  C   UNL     1      24.908  63.462  13.195  1.00  0.00     0.005 C 
ATOM     11  C   UNL     1      24.462  62.356  14.215  1.00  0.00    -0.005 C 
ATOM     12  C   UNL     1      21.754  65.791  13.737  1.00  0.00     0.012 C 
ENDROOT
BRANCH  11  13
ATOM     13  C   UNL     1      24.438  60.939  13.548  1.00  0.00    -0.014 C 
ATOM     14  C   UNL     1      25.125  59.858  14.401  1.00  0.00     0.007 C 
ATOM     15  C   UNL     1      25.109  60.976  12.161  1.00  0.00     0.007 C 
ENDBRANCH  11  13
TORSDOF 1
ENDMDL
MODEL 4
REMARK VINA RESULT:    -4.597      2.764      4.727
REMARK INTER + INTRA:          -5.153
REMARK INTER:                  -4.887
REMARK INTRA:                  -0.266
REMARK UNBOUND:                -0.287
REMARK SMILES CC1=CC[C@H]2[C@@H]3[C@@H](C(C)C)CC[C@@]2(C)[C@H]13
REMARK SMILES IDX 1 1 2 2 3 3 4 4 5 5 6 6 15 7 13 8 12 9 11 10 7 11 14 12 8 13
REMARK SMILES IDX 9 14 10 15
REMARK H PARENT
REMARK Flexibility Score: inf
ROOT
ATOM      1  C   UNL     1      19.525  62.157  13.879  1.00  0.00     0.039 C 
ATOM      2  C   UNL     1      19.612  63.591  14.307  1.00  0.00    -0.073 C 
ATOM      3  C   UNL     1      20.334  64.498  13.594  1.00  0.00    -0.027 C 
ATOM      4  C   UNL     1      20.389  65.952  14.086  1.00  0.00     0.031 C 
ATOM      5  C   UNL     1      19.514  66.124  15.370  1.00  0.00     0.003 C 
ATOM      6  C   UNL     1      18.168  65.412  15.106  1.00  0.00     0.004 C 
ATOM      7  C   UNL     1      18.865  64.108  15.540  1.00  0.00     0.024 C 
ATOM      8  C   UNL     1      19.795  65.000  16.393  1.00  0.00    -0.022 C 
ATOM      9  C   UNL     1      19.116  65.348  17.743  1.00  0.00     0.008 C 
ATOM     10  C   UNL     1      17.647  65.838  17.596  1.00  0.00     0.005 C 
ATOM     11  C   UNL     1      17.084  65.851  16.131  1.00  0.00    -0.005 C 
ATOM     12  C   UNL     1      21.254  64.535  16.621  1.00  0.00     0.012 C 
ENDROOT
BRANCH  11  13
ATOM     13  C   UNL     1      15.760  65.021  16.020  1.00  0.00    -0.014 C 
ATOM     14  C   UNL     1      15.129  65.076  14.617  1.00  0.00     0.007 C 
ATOM     15  C   UNL     1      14.722  65.506  17.050  1.00  0.00     0.007 C 
ENDBRANCH  11  13
TORSDOF 1
ENDMDL
MODEL 5
REMARK VINA RESULT:    -4.462      1.779      4.287
REMARK INTER + INTRA:          -5.011
REMARK INTER:                  -4.694
REMARK INTRA:                  -0.316
REMARK UNBOUND:                -0.287
REMARK SMILES CC1=CC[C@H]2[C@@H]3[C@@H](C(C)C)CC[C@@]2(C)[C@H]13
REMARK SMILES IDX 1 1 2 2 3 3 4 4 5 5 6 6 15 7 13 8 12 9 11 10 7 11 14 12 8 13
REMARK SMILES IDX 9 14 10 15
REMARK H PARENT
REMARK Flexibility Score: inf
ROOT
ATOM      1  C   UNL     1      23.655  63.736  14.509  1.00  0.00     0.039 C 
ATOM      2  C   UNL     1      22.168  63.633  14.660  1.00  0.00    -0.073 C 
ATOM      3  C   UNL     1      21.431  62.814  13.859  1.00  0.00    -0.027 C 
ATOM      4  C   UNL     1      19.910  62.755  14.058  1.00  0.00     0.031 C 
ATOM      5  C   UNL     1      19.482  63.677  15.247  1.00  0.00     0.003 C 
ATOM      6  C   UNL     1      20.460  63.405  16.413  1.00  0.00     0.004 C 
ATOM      7  C   UNL     1      21.414  64.413  15.741  1.00  0.00     0.024 C 
ATOM      8  C   UNL     1      20.148  65.068  15.143  1.00  0.00    -0.022 C 
ATOM      9  C   UNL     1      19.503  66.029  16.175  1.00  0.00     0.008 C 
ATOM     10  C   UNL     1      19.344  65.409  17.593  1.00  0.00     0.005 C 
ATOM     11  C   UNL     1      19.903  63.952  17.757  1.00  0.00    -0.005 C 
ATOM     12  C   UNL     1      20.258  65.750  13.757  1.00  0.00     0.012 C 
ENDROOT
BRANCH  11  13
ATOM     13  C   UNL     1      20.938  63.866  18.931  1.00  0.00    -0.014 C 
ATOM     14  C   UNL     1      21.617  65.213  19.237  1.00  0.00     0.007 C 
ATOM     15  C   UNL     1      22.027  62.821  18.625  1.00  0.00     0.007 C 
ENDBRANCH  11  13
TORSDOF 1
ENDMDL
MODEL 6
REMARK VINA RESULT:    -4.420      1.229      2.884
REMARK INTER + INTRA:          -4.966
REMARK INTER:                  -4.699
REMARK INTRA:                  -0.267
REMARK UNBOUND:                -0.287
REMARK SMILES CC1=CC[C@H]2[C@@H]3[C@@H](C(C)C)CC[C@@]2(C)[C@H]13
REMARK SMILES IDX 1 1 2 2 3 3 4 4 5 5 6 6 15 7 13 8 12 9 11 10 7 11 14 12 8 13
REMARK SMILES IDX 9 14 10 15
REMARK H PARENT
REMARK Flexibility Score: inf
ROOT
ATOM      1  C   UNL     1      20.659  63.809  18.676  1.00  0.00     0.039 C 
ATOM      2  C   UNL     1      21.747  63.414  17.724  1.00  0.00    -0.073 C 
ATOM      3  C   UNL     1      22.598  62.390  18.010  1.00  0.00    -0.027 C 
ATOM      4  C   UNL     1      23.696  62.035  16.997  1.00  0.00     0.031 C 
ATOM      5  C   UNL     1      23.587  62.953  15.735  1.00  0.00     0.003 C 
ATOM      6  C   UNL     1      22.097  62.997  15.327  1.00  0.00     0.004 C 
ATOM      7  C   UNL     1      21.928  64.115  16.375  1.00  0.00     0.024 C 
ATOM      8  C   UNL     1      23.421  64.436  16.135  1.00  0.00    -0.022 C 
ATOM      9  C   UNL     1      23.582  65.332  14.880  1.00  0.00     0.008 C 
ATOM     10  C   UNL     1      22.787  64.825  13.643  1.00  0.00     0.005 C 
ATOM     11  C   UNL     1      21.922  63.537  13.880  1.00  0.00    -0.005 C 
ATOM     12  C   UNL     1      24.251  64.997  17.316  1.00  0.00     0.012 C 
ENDROOT
BRANCH  11  13
ATOM     13  C   UNL     1      20.423  63.775  13.490  1.00  0.00    -0.014 C 
ATOM     14  C   UNL     1      19.877  65.125  13.988  1.00  0.00     0.007 C 
ATOM     15  C   UNL     1      19.530  62.647  14.039  1.00  0.00     0.007 C 
ENDBRANCH  11  13
TORSDOF 1
ENDMDL
MODEL 7
REMARK VINA RESULT:    -4.386      1.598      2.103
REMARK INTER + INTRA:          -4.929
REMARK INTER:                  -4.626
REMARK INTRA:                  -0.303
REMARK UNBOUND:                -0.287
REMARK SMILES CC1=CC[C@H]2[C@@H]3[C@@H](C(C)C)CC[C@@]2(C)[C@H]13
REMARK SMILES IDX 1 1 2 2 3 3 4 4 5 5 6 6 15 7 13 8 12 9 11 10 7 11 14 12 8 13
REMARK SMILES IDX 9 14 10 15
REMARK H PARENT
REMARK Flexibility Score: inf
ROOT
ATOM      1  C   UNL     1      24.261  61.451  13.489  1.00  0.00     0.039 C 
ATOM      2  C   UNL     1      24.012  62.533  14.495  1.00  0.00    -0.073 C 
ATOM      3  C   UNL     1      25.000  63.395  14.864  1.00  0.00    -0.027 C 
ATOM      4  C   UNL     1      24.685  64.481  15.904  1.00  0.00     0.031 C 
ATOM      5  C   UNL     1      23.183  64.404  16.332  1.00  0.00     0.003 C 
ATOM      6  C   UNL     1      22.346  64.256  15.042  1.00  0.00     0.004 C 
ATOM      7  C   UNL     1      22.633  62.743  15.126  1.00  0.00     0.024 C 
ATOM      8  C   UNL     1      22.768  62.950  16.652  1.00  0.00    -0.022 C 
ATOM      9  C   UNL     1      21.369  62.947  17.319  1.00  0.00     0.008 C 
ATOM     10  C   UNL     1      20.329  63.853  16.598  1.00  0.00     0.005 C 
ATOM     11  C   UNL     1      20.845  64.569  15.301  1.00  0.00    -0.005 C 
ATOM     12  C   UNL     1      23.746  62.039  17.433  1.00  0.00     0.012 C 
ENDROOT
BRANCH  11  13
ATOM     13  C   UNL     1      19.929  64.253  14.070  1.00  0.00    -0.014 C 
ATOM     14  C   UNL     1      19.445  62.793  14.037  1.00  0.00     0.007 C 
ATOM     15  C   UNL     1      20.661  64.563  12.751  1.00  0.00     0.007 C 
ENDBRANCH  11  13
TORSDOF 1
ENDMDL
MODEL 8
REMARK VINA RESULT:    -4.180      1.318      4.470
REMARK INTER + INTRA:          -4.712
REMARK INTER:                  -4.385
REMARK INTRA:                  -0.327
REMARK UNBOUND:                -0.287
REMARK SMILES CC1=CC[C@H]2[C@@H]3[C@@H](C(C)C)CC[C@@]2(C)[C@H]13
REMARK SMILES IDX 1 1 2 2 3 3 4 4 5 5 6 6 15 7 13 8 12 9 11 10 7 11 14 12 8 13
REMARK SMILES IDX 9 14 10 15
REMARK H PARENT
REMARK Flexibility Score: inf
ROOT
ATOM      1  C   UNL     1      19.905  63.199  17.997  1.00  0.00     0.039 C 
ATOM      2  C   UNL     1      20.646  63.836  16.861  1.00  0.00    -0.073 C 
ATOM      3  C   UNL     1      20.347  65.096  16.441  1.00  0.00    -0.027 C 
ATOM      4  C   UNL     1      21.139  65.694  15.268  1.00  0.00     0.031 C 
ATOM      5  C   UNL     1      22.233  64.687  14.783  1.00  0.00     0.003 C 
ATOM      6  C   UNL     1      22.944  64.141  16.042  1.00  0.00     0.004 C 
ATOM      7  C   UNL     1      21.795  63.118  16.148  1.00  0.00     0.024 C 
ATOM      8  C   UNL     1      21.649  63.266  14.616  1.00  0.00    -0.022 C 
ATOM      9  C   UNL     1      22.681  62.365  13.889  1.00  0.00     0.008 C 
ATOM     10  C   UNL     1      24.126  62.490  14.452  1.00  0.00     0.005 C 
ATOM     11  C   UNL     1      24.290  63.454  15.679  1.00  0.00    -0.005 C 
ATOM     12  C   UNL     1      20.243  63.096  13.992  1.00  0.00     0.012 C 
ENDROOT
BRANCH  11  13
ATOM     13  C   UNL     1      24.956  62.723  16.895  1.00  0.00    -0.014 C 
ATOM     14  C   UNL     1      24.612  61.225  16.961  1.00  0.00     0.007 C 
ATOM     15  C   UNL     1      24.543  63.385  18.223  1.00  0.00     0.007 C 
ENDBRANCH  11  13
TORSDOF 1
ENDMDL
MODEL 9
REMARK VINA RESULT:    -4.077      1.820      3.785
REMARK INTER + INTRA:          -4.603
REMARK INTER:                  -4.311
REMARK INTRA:                  -0.292
REMARK UNBOUND:                -0.287
REMARK SMILES CC1=CC[C@H]2[C@@H]3[C@@H](C(C)C)CC[C@@]2(C)[C@H]13
REMARK SMILES IDX 1 1 2 2 3 3 4 4 5 5 6 6 15 7 13 8 12 9 11 10 7 11 14 12 8 13
REMARK SMILES IDX 9 14 10 15
REMARK H PARENT
REMARK Flexibility Score: inf
ROOT
ATOM      1  C   UNL     1      19.468  64.269  16.055  1.00  0.00     0.039 C 
ATOM      2  C   UNL     1      20.695  63.822  16.790  1.00  0.00    -0.073 C 
ATOM      3  C   UNL     1      20.608  63.203  18.000  1.00  0.00    -0.027 C 
ATOM      4  C   UNL     1      21.902  62.772  18.707  1.00  0.00     0.031 C 
ATOM      5  C   UNL     1      23.144  63.116  17.821  1.00  0.00     0.003 C 
ATOM      6  C   UNL     1      22.821  62.658  16.381  1.00  0.00     0.004 C 
ATOM      7  C   UNL     1      22.096  64.007  16.201  1.00  0.00     0.024 C 
ATOM      8  C   UNL     1      23.060  64.560  17.277  1.00  0.00    -0.022 C 
ATOM      9  C   UNL     1      24.415  64.950  16.633  1.00  0.00     0.008 C 
ATOM     10  C   UNL     1      24.999  63.857  15.692  1.00  0.00     0.005 C 
ATOM     11  C   UNL     1      24.107  62.579  15.510  1.00  0.00    -0.005 C 
ATOM     12  C   UNL     1      22.553  65.689  18.206  1.00  0.00     0.012 C 
ENDROOT
BRANCH  11  13
ATOM     13  C   UNL     1      23.809  62.300  13.998  1.00  0.00    -0.014 C 
ATOM     14  C   UNL     1      24.380  60.957  13.507  1.00  0.00     0.007 C 
ATOM     15  C   UNL     1      24.370  63.429  13.113  1.00  0.00     0.007 C 
ENDBRANCH  11  13
TORSDOF 1
ENDMDL
