MODEL 1
REMARK VINA RESULT:    -4.198      0.000      0.000
REMARK INTER + INTRA:          -7.103
REMARK INTER:                  -6.407
REMARK INTRA:                  -0.696
REMARK UNBOUND:                -0.696
REMARK SMILES CC1=CCC[C@@H](C)C(=O)C[C@@H](C(C)C)C(=O)C1
REMARK SMILES IDX 8 1 9 2 6 3 7 4 5 5 4 6 3 7 2 8 1 9 10 11 11 12 15 13 16 14
REMARK SMILES IDX 17 15 12 17 13 18 14 19
REMARK H PARENT
REMARK Flexibility Score: 70.00
ROOT
ATOM      1  C   UNL     1     -25.582 -53.414  24.409  1.00  0.00     0.136 C 
ATOM      2  O   UNL     1     -26.303 -53.085  23.479  1.00  0.00    -0.299 OA
ENDROOT
BRANCH   1   3
ATOM      3  C   UNL     1     -26.144 -54.269  25.520  1.00  0.00     0.053 C 
ATOM      4  C   UNL     1     -26.683 -55.593  24.968  1.00  0.00     0.016 C 
BRANCH   3   5
ATOM      5  C   UNL     1     -27.246 -53.480  26.271  1.00  0.00     0.015 C 
BRANCH   5   6
ATOM      6  C   UNL     1     -26.785 -52.212  27.017  1.00  0.00     0.028 C 
BRANCH   6   7
ATOM      7  C   UNL     1     -25.871 -52.397  28.211  1.00  0.00    -0.028 C 
ATOM      8  C   UNL     1     -24.579 -52.007  28.319  1.00  0.00    -0.070 CG0
ATOM      9  C   UNL     1     -23.917 -52.162  29.667  1.00  0.00     0.039 C 
ATOM     10  G   UNL     1     -23.748 -51.460  27.168  1.00  0.00     0.000 G0
ENDBRANCH   6   7
ENDBRANCH   5   6
ENDBRANCH   3   5
ENDBRANCH   1   3
BRANCH   1  11
ATOM     11  C   UNL     1     -24.146 -52.947  24.436  1.00  0.00     0.087 C 
BRANCH  11  12
ATOM     12  C   UNL     1     -23.275 -53.573  25.563  1.00  0.00     0.066 C 
BRANCH  12  13
ATOM     13  C   UNL     1     -22.826 -52.500  26.558  1.00  0.00     0.140 C 
ATOM     14  O   UNL     1     -21.639 -52.478  26.849  1.00  0.00    -0.299 OA
BRANCH  13  15
ATOM     15  C   UNL     1     -23.730 -51.441  27.176  1.00  0.00     0.106 CG0
ATOM     16  G   UNL     1     -24.575 -52.015  28.304  1.00  0.00     0.000 G0
ENDBRANCH  13  15
ENDBRANCH  12  13
BRANCH  12  17
ATOM     17  C   UNL     1     -22.164 -54.561  25.074  1.00  0.00    -0.006 C 
ATOM     18  C   UNL     1     -21.703 -54.240  23.640  1.00  0.00     0.008 C 
ATOM     19  C   UNL     1     -22.662 -56.020  25.098  1.00  0.00     0.008 C 
ENDBRANCH  12  17
ENDBRANCH  11  12
ENDBRANCH   1  11
TORSDOF 1
ENDMDL
MODEL 2
REMARK VINA RESULT:    -4.193      5.215      7.017
REMARK INTER + INTRA:          -7.095
REMARK INTER:                  -6.496
REMARK INTRA:                  -0.599
REMARK UNBOUND:                -0.696
REMARK SMILES CC1=CCC[C@@H](C)C(=O)C[C@@H](C(C)C)C(=O)C1
REMARK SMILES IDX 8 1 9 2 6 3 7 4 5 5 4 6 3 7 2 8 1 9 10 11 11 12 15 13 16 14
REMARK SMILES IDX 17 15 12 17 13 18 14 19
REMARK H PARENT
REMARK Flexibility Score: 70.00
ROOT
ATOM      1  C   UNL     1     -21.240 -50.907  29.983  1.00  0.00     0.136 C 
ATOM      2  O   UNL     1     -21.885 -50.426  30.902  1.00  0.00    -0.299 OA
ENDROOT
BRANCH   1   3
ATOM      3  C   UNL     1     -21.504 -52.331  29.554  1.00  0.00     0.053 C 
ATOM      4  C   UNL     1     -22.933 -52.484  29.021  1.00  0.00     0.016 C 
BRANCH   3   5
ATOM      5  C   UNL     1     -21.241 -53.286  30.745  1.00  0.00     0.015 C 
BRANCH   5   6
ATOM      6  C   UNL     1     -19.801 -53.820  30.883  1.00  0.00     0.028 C 
BRANCH   6   7
ATOM      7  C   UNL     1     -18.902 -53.150  31.902  1.00  0.00    -0.028 C 
ATOM      8  C   UNL     1     -17.840 -52.348  31.652  1.00  0.00    -0.070 CG0
ATOM      9  C   UNL     1     -17.190 -51.669  32.833  1.00  0.00     0.039 C 
ATOM     10  G   UNL     1     -17.243 -52.119  30.272  1.00  0.00     0.000 G0
ENDBRANCH   6   7
ENDBRANCH   5   6
ENDBRANCH   3   5
ENDBRANCH   1   3
BRANCH   1  11
ATOM     11  C   UNL     1     -20.182 -50.072  29.302  1.00  0.00     0.087 C 
BRANCH  11  12
ATOM     12  C   UNL     1     -19.018 -50.882  28.663  1.00  0.00     0.066 C 
BRANCH  12  13
ATOM     13  C   UNL     1     -17.791 -50.879  29.577  1.00  0.00     0.140 C 
ATOM     14  O   UNL     1     -17.262 -49.797  29.788  1.00  0.00    -0.299 OA
BRANCH  13  15
ATOM     15  C   UNL     1     -17.208 -52.103  30.271  1.00  0.00     0.106 CG0
ATOM     16  G   UNL     1     -17.844 -52.331  31.634  1.00  0.00     0.000 G0
ENDBRANCH  13  15
ENDBRANCH  12  13
BRANCH  12  17
ATOM     17  C   UNL     1     -18.748 -50.578  27.152  1.00  0.00    -0.006 C 
ATOM     18  C   UNL     1     -19.422 -49.269  26.701  1.00  0.00     0.008 C 
ATOM     19  C   UNL     1     -19.266 -51.716  26.250  1.00  0.00     0.008 C 
ENDBRANCH  12  17
ENDBRANCH  11  12
ENDBRANCH   1  11
TORSDOF 1
ENDMDL
MODEL 3
REMARK VINA RESULT:    -4.160      1.841      3.763
REMARK INTER + INTRA:          -7.045
REMARK INTER:                  -6.533
REMARK INTRA:                  -0.512
REMARK UNBOUND:                -0.696
REMARK SMILES CC1=CCC[C@@H](C)C(=O)C[C@@H](C(C)C)C(=O)C1
REMARK SMILES IDX 8 1 9 2 6 3 7 4 5 5 4 6 3 7 2 8 1 9 10 11 11 12 15 13 16 14
REMARK SMILES IDX 17 15 12 17 13 18 14 19
REMARK H PARENT
REMARK Flexibility Score: 70.00
ROOT
ATOM      1  C   UNL     1     -23.344 -55.187  24.901  1.00  0.00     0.136 C 
ATOM      2  O   UNL     1     -22.964 -56.310  24.605  1.00  0.00    -0.299 OA
ENDROOT
BRANCH   1   3
ATOM      3  C   UNL     1     -22.624 -53.985  24.339  1.00  0.00     0.053 C 
ATOM      4  C   UNL     1     -22.011 -54.307  22.972  1.00  0.00     0.016 C 
BRANCH   3   5
ATOM      5  C   UNL     1     -21.544 -53.514  25.345  1.00  0.00     0.015 C 
BRANCH   5   6
ATOM      6  C   UNL     1     -21.785 -52.143  26.009  1.00  0.00     0.028 C 
BRANCH   6   7
ATOM      7  C   UNL     1     -22.060 -52.128  27.498  1.00  0.00    -0.028 C 
ATOM      8  C   UNL     1     -23.267 -52.024  28.104  1.00  0.00    -0.070 CG0
ATOM      9  C   UNL     1     -23.307 -52.188  29.604  1.00  0.00     0.039 C 
ATOM     10  G   UNL     1     -24.569 -51.719  27.379  1.00  0.00     0.000 G0
ENDBRANCH   6   7
ENDBRANCH   5   6
ENDBRANCH   3   5
ENDBRANCH   1   3
BRANCH   1  11
ATOM     11  C   UNL     1     -24.521 -55.024  25.835  1.00  0.00     0.087 C 
BRANCH  11  12
ATOM     12  C   UNL     1     -25.294 -53.683  25.687  1.00  0.00     0.066 C 
BRANCH  12  13
ATOM     13  C   UNL     1     -25.370 -52.951  27.029  1.00  0.00     0.140 C 
ATOM     14  O   UNL     1     -26.100 -53.435  27.882  1.00  0.00    -0.299 OA
BRANCH  13  15
ATOM     15  C   UNL     1     -24.580 -51.700  27.395  1.00  0.00     0.106 CG0
ATOM     16  G   UNL     1     -23.271 -52.047  28.087  1.00  0.00     0.000 G0
ENDBRANCH  13  15
ENDBRANCH  12  13
BRANCH  12  17
ATOM     17  C   UNL     1     -26.631 -53.772  24.879  1.00  0.00    -0.006 C 
ATOM     18  C   UNL     1     -27.084 -55.230  24.681  1.00  0.00     0.008 C 
ATOM     19  C   UNL     1     -26.489 -53.125  23.487  1.00  0.00     0.008 C 
ENDBRANCH  12  17
ENDBRANCH  11  12
ENDBRANCH   1  11
TORSDOF 1
ENDMDL
MODEL 4
REMARK VINA RESULT:    -4.136      4.801      7.164
REMARK INTER + INTRA:          -7.009
REMARK INTER:                  -6.458
REMARK INTRA:                  -0.551
REMARK UNBOUND:                -0.696
REMARK SMILES CC1=CCC[C@@H](C)C(=O)C[C@@H](C(C)C)C(=O)C1
REMARK SMILES IDX 8 1 9 2 6 3 7 4 5 5 4 6 3 7 2 8 1 9 10 11 11 12 15 13 16 14
REMARK SMILES IDX 17 15 12 17 13 18 14 19
REMARK H PARENT
REMARK Flexibility Score: 70.00
ROOT
ATOM      1  C   UNL     1     -17.361 -51.567  28.582  1.00  0.00     0.136 C 
ATOM      2  O   UNL     1     -16.221 -52.000  28.496  1.00  0.00    -0.299 OA
ENDROOT
BRANCH   1   3
ATOM      3  C   UNL     1     -17.757 -50.751  29.790  1.00  0.00     0.053 C 
ATOM      4  C   UNL     1     -16.902 -49.483  29.896  1.00  0.00     0.016 C 
BRANCH   3   5
ATOM      5  C   UNL     1     -17.633 -51.623  31.065  1.00  0.00     0.015 C 
BRANCH   5   6
ATOM      6  C   UNL     1     -18.904 -52.385  31.492  1.00  0.00     0.028 C 
BRANCH   6   7
ATOM      7  C   UNL     1     -20.227 -51.658  31.375  1.00  0.00    -0.028 C 
ATOM      8  C   UNL     1     -21.155 -51.805  30.399  1.00  0.00    -0.070 CG0
ATOM      9  C   UNL     1     -22.469 -51.084  30.578  1.00  0.00     0.039 C 
ATOM     10  G   UNL     1     -20.944 -52.613  29.127  1.00  0.00     0.000 G0
ENDBRANCH   6   7
ENDBRANCH   5   6
ENDBRANCH   3   5
ENDBRANCH   1   3
BRANCH   1  11
ATOM     11  C   UNL     1     -18.353 -51.867  27.485  1.00  0.00     0.087 C 
BRANCH  11  12
ATOM     12  C   UNL     1     -19.603 -50.940  27.461  1.00  0.00     0.066 C 
BRANCH  12  13
ATOM     13  C   UNL     1     -20.855 -51.710  27.890  1.00  0.00     0.140 C 
ATOM     14  O   UNL     1     -21.835 -51.618  27.165  1.00  0.00    -0.299 OA
BRANCH  13  15
ATOM     15  C   UNL     1     -20.958 -52.607  29.117  1.00  0.00     0.106 CG0
ATOM     16  G   UNL     1     -21.133 -51.793  30.391  1.00  0.00     0.000 G0
ENDBRANCH  13  15
ENDBRANCH  12  13
BRANCH  12  17
ATOM     17  C   UNL     1     -19.749 -50.054  26.180  1.00  0.00    -0.006 C 
ATOM     18  C   UNL     1     -18.763 -50.477  25.075  1.00  0.00     0.008 C 
ATOM     19  C   UNL     1     -19.500 -48.566  26.496  1.00  0.00     0.008 C 
ENDBRANCH  12  17
ENDBRANCH  11  12
ENDBRANCH   1  11
TORSDOF 1
ENDMDL
MODEL 5
REMARK VINA RESULT:    -4.056      2.532      4.343
REMARK INTER + INTRA:          -6.886
REMARK INTER:                  -6.424
REMARK INTRA:                  -0.462
REMARK UNBOUND:                -0.696
REMARK SMILES CC1=CCC[C@@H](C)C(=O)C[C@@H](C(C)C)C(=O)C1
REMARK SMILES IDX 8 1 9 2 6 3 7 4 5 5 4 6 3 7 2 8 1 9 10 11 11 12 15 13 16 14
REMARK SMILES IDX 17 15 12 17 13 18 14 19
REMARK H PARENT
REMARK Flexibility Score: 70.00
ROOT
ATOM      1  C   UNL     1     -26.039 -53.387  29.041  1.00  0.00     0.136 C 
ATOM      2  O   UNL     1     -26.563 -53.852  30.043  1.00  0.00    -0.299 OA
ENDROOT
BRANCH   1   3
ATOM      3  C   UNL     1     -26.655 -52.182  28.370  1.00  0.00     0.053 C 
ATOM      4  C   UNL     1     -26.267 -50.893  29.102  1.00  0.00     0.016 C 
BRANCH   3   5
ATOM      5  C   UNL     1     -28.193 -52.355  28.310  1.00  0.00     0.015 C 
BRANCH   5   6
ATOM      6  C   UNL     1     -28.743 -53.120  27.089  1.00  0.00     0.028 C 
BRANCH   6   7
ATOM      7  C   UNL     1     -28.074 -52.876  25.753  1.00  0.00    -0.028 C 
ATOM      8  C   UNL     1     -27.158 -53.664  25.142  1.00  0.00    -0.070 CG0
ATOM      9  C   UNL     1     -26.748 -53.293  23.738  1.00  0.00     0.039 C 
ATOM     10  G   UNL     1     -26.493 -54.870  25.791  1.00  0.00     0.000 G0
ENDBRANCH   6   7
ENDBRANCH   5   6
ENDBRANCH   3   5
ENDBRANCH   1   3
BRANCH   1  11
ATOM     11  C   UNL     1     -24.793 -54.035  28.486  1.00  0.00     0.087 C 
BRANCH  11  12
ATOM     12  C   UNL     1     -24.426 -53.614  27.035  1.00  0.00     0.066 C 
BRANCH  12  13
ATOM     13  C   UNL     1     -24.997 -54.609  26.022  1.00  0.00     0.140 C 
ATOM     14  O   UNL     1     -24.191 -55.261  25.373  1.00  0.00    -0.299 OA
BRANCH  13  15
ATOM     15  C   UNL     1     -26.479 -54.877  25.791  1.00  0.00     0.106 CG0
ATOM     16  G   UNL     1     -27.171 -53.682  25.153  1.00  0.00     0.000 G0
ENDBRANCH  13  15
ENDBRANCH  12  13
BRANCH  12  17
ATOM     17  C   UNL     1     -22.932 -53.199  26.821  1.00  0.00    -0.006 C 
ATOM     18  C   UNL     1     -22.194 -53.007  28.158  1.00  0.00     0.008 C 
ATOM     19  C   UNL     1     -22.824 -51.884  26.024  1.00  0.00     0.008 C 
ENDBRANCH  12  17
ENDBRANCH  11  12
ENDBRANCH   1  11
TORSDOF 1
ENDMDL
MODEL 6
REMARK VINA RESULT:    -3.952      1.524      3.936
REMARK INTER + INTRA:          -6.728
REMARK INTER:                  -6.288
REMARK INTRA:                  -0.440
REMARK UNBOUND:                -0.696
REMARK SMILES CC1=CCC[C@@H](C)C(=O)C[C@@H](C(C)C)C(=O)C1
REMARK SMILES IDX 8 1 9 2 6 3 7 4 5 5 4 6 3 7 2 8 1 9 10 11 11 12 15 13 16 14
REMARK SMILES IDX 17 15 12 17 13 18 14 19
REMARK H PARENT
REMARK Flexibility Score: 70.00
ROOT
ATOM      1  C   UNL     1     -22.498 -53.436  27.551  1.00  0.00     0.136 C 
ATOM      2  O   UNL     1     -21.360 -53.603  27.966  1.00  0.00    -0.299 OA
ENDROOT
BRANCH   1   3
ATOM      3  C   UNL     1     -23.131 -52.068  27.645  1.00  0.00     0.053 C 
ATOM      4  C   UNL     1     -22.120 -50.974  27.282  1.00  0.00     0.016 C 
BRANCH   3   5
ATOM      5  C   UNL     1     -23.701 -51.861  29.070  1.00  0.00     0.015 C 
BRANCH   5   6
ATOM      6  C   UNL     1     -25.150 -52.337  29.298  1.00  0.00     0.028 C 
BRANCH   6   7
ATOM      7  C   UNL     1     -26.174 -51.990  28.238  1.00  0.00    -0.028 C 
ATOM      8  C   UNL     1     -26.719 -52.828  27.323  1.00  0.00    -0.070 CG0
ATOM      9  C   UNL     1     -27.838 -52.287  26.466  1.00  0.00     0.039 C 
ATOM     10  G   UNL     1     -26.253 -54.255  27.081  1.00  0.00     0.000 G0
ENDBRANCH   6   7
ENDBRANCH   5   6
ENDBRANCH   3   5
ENDBRANCH   1   3
BRANCH   1  11
ATOM     11  C   UNL     1     -23.252 -54.606  26.964  1.00  0.00     0.087 C 
BRANCH  11  12
ATOM     12  C   UNL     1     -23.974 -54.310  25.618  1.00  0.00     0.066 C 
BRANCH  12  13
ATOM     13  C   UNL     1     -25.492 -54.426  25.783  1.00  0.00     0.140 C 
ATOM     14  O   UNL     1     -26.137 -54.698  24.781  1.00  0.00    -0.299 OA
BRANCH  13  15
ATOM     15  C   UNL     1     -26.248 -54.270  27.096  1.00  0.00     0.106 CG0
ATOM     16  G   UNL     1     -26.709 -52.835  27.310  1.00  0.00     0.000 G0
ENDBRANCH  13  15
ENDBRANCH  12  13
BRANCH  12  17
ATOM     17  C   UNL     1     -23.364 -55.023  24.366  1.00  0.00    -0.006 C 
ATOM     18  C   UNL     1     -22.919 -56.462  24.687  1.00  0.00     0.008 C 
ATOM     19  C   UNL     1     -22.142 -54.256  23.824  1.00  0.00     0.008 C 
ENDBRANCH  12  17
ENDBRANCH  11  12
ENDBRANCH   1  11
TORSDOF 1
ENDMDL
MODEL 7
REMARK VINA RESULT:    -3.951      1.423      2.030
REMARK INTER + INTRA:          -6.725
REMARK INTER:                  -6.207
REMARK INTRA:                  -0.518
REMARK UNBOUND:                -0.696
REMARK SMILES CC1=CCC[C@@H](C)C(=O)C[C@@H](C(C)C)C(=O)C1
REMARK SMILES IDX 8 1 9 2 6 3 7 4 5 5 4 6 3 7 2 8 1 9 10 11 11 12 15 13 16 14
REMARK SMILES IDX 17 15 12 17 13 18 14 19
REMARK H PARENT
REMARK Flexibility Score: 70.00
ROOT
ATOM      1  C   UNL     1     -24.147 -53.431  24.610  1.00  0.00     0.136 C 
ATOM      2  O   UNL     1     -24.842 -53.304  23.612  1.00  0.00    -0.299 OA
ENDROOT
BRANCH   1   3
ATOM      3  C   UNL     1     -24.226 -54.707  25.415  1.00  0.00     0.053 C 
ATOM      4  C   UNL     1     -23.526 -55.857  24.683  1.00  0.00     0.016 C 
BRANCH   3   5
ATOM      5  C   UNL     1     -25.711 -55.043  25.704  1.00  0.00     0.015 C 
BRANCH   5   6
ATOM      6  C   UNL     1     -26.468 -54.051  26.610  1.00  0.00     0.028 C 
BRANCH   6   7
ATOM      7  C   UNL     1     -25.960 -53.872  28.026  1.00  0.00    -0.028 C 
ATOM      8  C   UNL     1     -25.299 -52.801  28.527  1.00  0.00    -0.070 CG0
ATOM      9  C   UNL     1     -25.030 -52.785  30.012  1.00  0.00     0.039 C 
ATOM     10  G   UNL     1     -24.781 -51.642  27.689  1.00  0.00     0.000 G0
ENDBRANCH   6   7
ENDBRANCH   5   6
ENDBRANCH   3   5
ENDBRANCH   1   3
BRANCH   1  11
ATOM     11  C   UNL     1     -23.233 -52.303  25.025  1.00  0.00     0.087 C 
BRANCH  11  12
ATOM     12  C   UNL     1     -22.541 -52.495  26.405  1.00  0.00     0.066 C 
BRANCH  12  13
ATOM     13  C   UNL     1     -23.263 -51.692  27.489  1.00  0.00     0.140 C 
ATOM     14  O   UNL     1     -22.567 -51.018  28.235  1.00  0.00    -0.299 OA
BRANCH  13  15
ATOM     15  C   UNL     1     -24.774 -51.635  27.682  1.00  0.00     0.106 CG0
ATOM     16  G   UNL     1     -25.275 -52.799  28.524  1.00  0.00     0.000 G0
ENDBRANCH  13  15
ENDBRANCH  12  13
BRANCH  12  17
ATOM     17  C   UNL     1     -20.981 -52.375  26.389  1.00  0.00    -0.006 C 
ATOM     18  C   UNL     1     -20.401 -52.638  24.987  1.00  0.00     0.008 C 
ATOM     19  C   UNL     1     -20.332 -53.374  27.367  1.00  0.00     0.008 C 
ENDBRANCH  12  17
ENDBRANCH  11  12
ENDBRANCH   1  11
TORSDOF 1
ENDMDL
MODEL 8
REMARK VINA RESULT:    -3.875      4.742      6.753
REMARK INTER + INTRA:          -6.611
REMARK INTER:                  -6.165
REMARK INTRA:                  -0.446
REMARK UNBOUND:                -0.696
REMARK SMILES CC1=CCC[C@@H](C)C(=O)C[C@@H](C(C)C)C(=O)C1
REMARK SMILES IDX 8 1 9 2 6 3 7 4 5 5 4 6 3 7 2 8 1 9 10 11 11 12 15 13 16 14
REMARK SMILES IDX 17 15 12 17 13 18 14 19
REMARK H PARENT
REMARK Flexibility Score: 70.00
ROOT
ATOM      1  C   UNL     1     -19.934 -50.391  28.270  1.00  0.00     0.136 C 
ATOM      2  O   UNL     1     -20.388 -49.464  27.615  1.00  0.00    -0.299 OA
ENDROOT
BRANCH   1   3
ATOM      3  C   UNL     1     -19.783 -51.751  27.630  1.00  0.00     0.053 C 
ATOM      4  C   UNL     1     -19.260 -51.623  26.195  1.00  0.00     0.016 C 
BRANCH   3   5
ATOM      5  C   UNL     1     -21.142 -52.494  27.672  1.00  0.00     0.015 C 
BRANCH   5   6
ATOM      6  C   UNL     1     -21.982 -52.302  28.951  1.00  0.00     0.028 C 
BRANCH   6   7
ATOM      7  C   UNL     1     -21.874 -53.366  30.023  1.00  0.00    -0.028 C 
ATOM      8  C   UNL     1     -21.460 -53.197  31.302  1.00  0.00    -0.070 CG0
ATOM      9  C   UNL     1     -21.586 -54.379  32.233  1.00  0.00     0.039 C 
ATOM     10  G   UNL     1     -20.848 -51.915  31.845  1.00  0.00     0.000 G0
ENDBRANCH   6   7
ENDBRANCH   5   6
ENDBRANCH   3   5
ENDBRANCH   1   3
BRANCH   1  11
ATOM     11  C   UNL     1     -19.543 -50.159  29.710  1.00  0.00     0.087 C 
BRANCH  11  12
ATOM     12  C   UNL     1     -18.686 -51.291  30.346  1.00  0.00     0.066 C 
BRANCH  12  13
ATOM     13  C   UNL     1     -19.353 -51.827  31.616  1.00  0.00     0.140 C 
ATOM     14  O   UNL     1     -18.612 -52.191  32.518  1.00  0.00    -0.299 OA
BRANCH  13  15
ATOM     15  C   UNL     1     -20.856 -51.902  31.854  1.00  0.00     0.106 CG0
ATOM     16  G   UNL     1     -21.447 -53.188  31.297  1.00  0.00     0.000 G0
ENDBRANCH  13  15
ENDBRANCH  12  13
BRANCH  12  17
ATOM     17  C   UNL     1     -17.155 -50.984  30.454  1.00  0.00    -0.006 C 
ATOM     18  C   UNL     1     -16.838 -49.521  30.095  1.00  0.00     0.008 C 
ATOM     19  C   UNL     1     -16.334 -51.893  29.518  1.00  0.00     0.008 C 
ENDBRANCH  12  17
ENDBRANCH  11  12
ENDBRANCH   1  11
TORSDOF 1
ENDMDL
MODEL 9
REMARK VINA RESULT:    -3.827      3.818      7.079
REMARK INTER + INTRA:          -6.537
REMARK INTER:                  -5.908
REMARK INTRA:                  -0.630
REMARK UNBOUND:                -0.696
REMARK SMILES CC1=CCC[C@@H](C)C(=O)C[C@@H](C(C)C)C(=O)C1
REMARK SMILES IDX 8 1 9 2 6 3 7 4 5 5 4 6 3 7 2 8 1 9 10 11 11 12 15 13 16 14
REMARK SMILES IDX 17 15 12 17 13 18 14 19
REMARK H PARENT
REMARK Flexibility Score: 70.00
ROOT
ATOM      1  C   UNL     1     -19.340 -50.802  30.057  1.00  0.00     0.136 C 
ATOM      2  O   UNL     1     -18.851 -49.703  30.277  1.00  0.00    -0.299 OA
ENDROOT
BRANCH   1   3
ATOM      3  C   UNL     1     -18.462 -51.918  29.543  1.00  0.00     0.053 C 
ATOM      4  C   UNL     1     -17.337 -52.228  30.537  1.00  0.00     0.016 C 
BRANCH   3   5
ATOM      5  C   UNL     1     -17.897 -51.531  28.153  1.00  0.00     0.015 C 
BRANCH   5   6
ATOM      6  C   UNL     1     -18.883 -51.616  26.971  1.00  0.00     0.028 C 
BRANCH   6   7
ATOM      7  C   UNL     1     -19.566 -52.946  26.726  1.00  0.00    -0.028 C 
ATOM      8  C   UNL     1     -20.869 -53.246  26.941  1.00  0.00    -0.070 CG0
ATOM      9  C   UNL     1     -21.355 -54.597  26.474  1.00  0.00     0.039 C 
ATOM     10  G   UNL     1     -21.856 -52.332  27.650  1.00  0.00     0.000 G0
ENDBRANCH   6   7
ENDBRANCH   5   6
ENDBRANCH   3   5
ENDBRANCH   1   3
BRANCH   1  11
ATOM     11  C   UNL     1     -20.817 -51.017  30.291  1.00  0.00     0.087 C 
BRANCH  11  12
ATOM     12  C   UNL     1     -21.268 -52.506  30.297  1.00  0.00     0.066 C 
BRANCH  12  13
ATOM     13  C   UNL     1     -22.141 -52.811  29.078  1.00  0.00     0.140 C 
ATOM     14  O   UNL     1     -23.158 -53.461  29.274  1.00  0.00    -0.299 OA
BRANCH  13  15
ATOM     15  C   UNL     1     -21.863 -52.336  27.656  1.00  0.00     0.106 CG0
ATOM     16  G   UNL     1     -20.878 -53.250  26.943  1.00  0.00     0.000 G0
ENDBRANCH  13  15
ENDBRANCH  12  13
BRANCH  12  17
ATOM     17  C   UNL     1     -21.802 -53.033  31.671  1.00  0.00    -0.006 C 
ATOM     18  C   UNL     1     -22.011 -51.889  32.680  1.00  0.00     0.008 C 
ATOM     19  C   UNL     1     -20.827 -54.049  32.298  1.00  0.00     0.008 C 
ENDBRANCH  12  17
ENDBRANCH  11  12
ENDBRANCH   1  11
TORSDOF 1
ENDMDL
