MODEL 1
REMARK VINA RESULT:    51.982      0.000      0.000
REMARK INTER + INTRA:          57.273
REMARK INTER:                  56.540
REMARK INTRA:                   0.733
REMARK UNBOUND:                 0.733
REMARK SMILES C[C@H]1[C@H]2C3=CC[C@@H]4[C@@]5(C)CC[C@@H](O)C(C)(C)[C@@H]5CC[C@]4(C)[C@]3(C)CC[C@@]2(C(=O)[O-])CC[C@@H]1C
REMARK SMILES IDX 26 1 30 2 25 3 3 4 31 5 24 6 4 7 2 8 32 9 22 10 5 11 1 12
REMARK SMILES IDX 33 13 23 14 20 15 6 16 7 17 19 18 21 19 8 20 18 21 17 22
REMARK SMILES IDX 10 23 9 24 14 25 11 26 12 27 15 28 16 29 27 30 28 31 29 32
REMARK SMILES IDX 13 33
REMARK H PARENT 13 34
REMARK Flexibility Score: inf
ROOT
ATOM      1  C   UNL     1      28.238  34.656  26.814  1.00  0.00     0.017 C 
ATOM      2  C   UNL     1      27.230  33.526  26.439  1.00  0.00     0.014 C 
ATOM      3  C   UNL     1      27.963  35.079  28.269  1.00  0.00     0.014 C 
ATOM      4  C   UNL     1      28.088  35.896  25.852  1.00  0.00     0.030 C 
ATOM      5  C   UNL     1      27.031  33.437  24.929  1.00  0.00     0.004 C 
ATOM      6  C   UNL     1      28.907  36.187  28.736  1.00  0.00     0.013 C 
ATOM      7  C   UNL     1      28.594  37.239  26.429  1.00  0.00    -0.063 C 
ATOM      8  C   UNL     1      26.697  36.008  25.124  1.00  0.00    -0.003 C 
ATOM      9  C   UNL     1      26.270  34.673  24.413  1.00  0.00    -0.011 C 
ATOM     10  C   UNL     1      28.802  37.529  27.926  1.00  0.00    -0.006 C 
ATOM     11  C   UNL     1      28.849  38.210  25.540  1.00  0.00    -0.027 C 
ATOM     12  C   UNL     1      25.564  36.554  26.007  1.00  0.00     0.008 C 
ATOM     13  C   UNL     1      26.423  34.773  22.889  1.00  0.00     0.008 C 
ATOM     14  C   UNL     1      27.523  38.276  28.416  1.00  0.00     0.017 C 
ATOM     15  C   UNL     1      30.113  38.454  28.155  1.00  0.00    -0.020 C 
ATOM     16  C   UNL     1      29.590  39.472  25.829  1.00  0.00     0.032 C 
ATOM     17  C   UNL     1      30.010  39.799  27.306  1.00  0.00     0.006 C 
ATOM     18  C   UNL     1      31.425  37.695  27.699  1.00  0.00     0.008 C 
ATOM     19  C   UNL     1      30.193  38.794  29.696  1.00  0.00     0.012 C 
ATOM     20  C   UNL     1      31.308  40.786  27.371  1.00  0.00    -0.025 C 
ATOM     21  C   UNL     1      32.590  38.582  27.163  1.00  0.00     0.005 C 
ATOM     22  C   UNL     1      32.575  39.975  27.819  1.00  0.00     0.003 C 
ATOM     23  C   UNL     1      31.122  41.920  28.428  1.00  0.00     0.010 C 
ATOM     24  C   UNL     1      31.513  41.508  25.991  1.00  0.00     0.012 C 
ATOM     25  C   UNL     1      33.927  40.772  27.970  1.00  0.00    -0.006 C 
ATOM     26  C   UNL     1      32.388  42.792  28.636  1.00  0.00     0.033 C 
ATOM     27  C   UNL     1      33.671  41.980  28.950  1.00  0.00     0.120 C 
ATOM     28  C   UNL     1      35.012  39.856  28.614  1.00  0.00     0.014 C 
ATOM     29  C   UNL     1      34.523  41.265  26.625  1.00  0.00     0.014 C 
ENDROOT
BRANCH   1  30
ATOM     30  C   UNL     1      29.650  34.061  26.744  1.00  0.00     0.048 C 
ATOM     31  O   UNL     1      30.545  34.467  27.534  1.00  0.00    -0.550 OA
ATOM     32  O   UNL     1      29.991  33.095  25.804  1.00  0.00    -0.550 OA
ENDBRANCH   1  30
BRANCH  27  33
ATOM     33  O   UNL     1      33.586  41.515  30.278  1.00  0.00    -0.393 OA
ATOM     34  H   UNL     1      34.511  41.315  30.580  1.00  0.00     0.210 HD
ENDBRANCH  27  33
TORSDOF 2
ENDMDL
MODEL 2
REMARK VINA RESULT:    52.603      3.201      5.732
REMARK INTER + INTRA:          57.949
REMARK INTER:                  57.961
REMARK INTRA:                  -0.013
REMARK UNBOUND:                 0.733
REMARK SMILES C[C@H]1[C@H]2C3=CC[C@@H]4[C@@]5(C)CC[C@@H](O)C(C)(C)[C@@H]5CC[C@]4(C)[C@]3(C)CC[C@@]2(C(=O)[O-])CC[C@@H]1C
REMARK SMILES IDX 26 1 30 2 25 3 3 4 31 5 24 6 4 7 2 8 32 9 22 10 5 11 1 12
REMARK SMILES IDX 33 13 23 14 20 15 6 16 7 17 19 18 21 19 8 20 18 21 17 22
REMARK SMILES IDX 10 23 9 24 14 25 11 26 12 27 15 28 16 29 27 30 28 31 29 32
REMARK SMILES IDX 13 33
REMARK H PARENT 13 34
REMARK Flexibility Score: inf
ROOT
ATOM      1  C   UNL     1      28.361  39.667  24.214  1.00  0.00     0.017 C 
ATOM      2  C   UNL     1      27.374  40.601  23.449  1.00  0.00     0.014 C 
ATOM      3  C   UNL     1      28.156  38.230  23.700  1.00  0.00     0.014 C 
ATOM      4  C   UNL     1      28.110  39.726  25.770  1.00  0.00     0.030 C 
ATOM      5  C   UNL     1      27.090  41.876  24.237  1.00  0.00     0.004 C 
ATOM      6  C   UNL     1      29.085  37.232  24.391  1.00  0.00     0.013 C 
ATOM      7  C   UNL     1      28.601  38.490  26.560  1.00  0.00    -0.063 C 
ATOM      8  C   UNL     1      26.676  40.216  26.195  1.00  0.00    -0.003 C 
ATOM      9  C   UNL     1      26.256  41.558  25.492  1.00  0.00    -0.011 C 
ATOM     10  C   UNL     1      28.886  37.109  25.944  1.00  0.00    -0.006 C 
ATOM     11  C   UNL     1      28.768  38.657  27.880  1.00  0.00    -0.027 C 
ATOM     12  C   UNL     1      25.578  39.150  26.056  1.00  0.00     0.008 C 
ATOM     13  C   UNL     1      26.316  42.744  26.464  1.00  0.00     0.008 C 
ATOM     14  C   UNL     1      27.611  36.242  26.188  1.00  0.00     0.017 C 
ATOM     15  C   UNL     1      30.174  36.421  26.647  1.00  0.00    -0.020 C 
ATOM     16  C   UNL     1      29.480  37.708  28.787  1.00  0.00     0.032 C 
ATOM     17  C   UNL     1      29.973  36.328  28.225  1.00  0.00     0.006 C 
ATOM     18  C   UNL     1      31.483  37.268  26.375  1.00  0.00     0.008 C 
ATOM     19  C   UNL     1      30.332  34.971  26.037  1.00  0.00     0.012 C 
ATOM     20  C   UNL     1      31.237  35.737  29.071  1.00  0.00    -0.025 C 
ATOM     21  C   UNL     1      32.583  37.220  27.480  1.00  0.00     0.005 C 
ATOM     22  C   UNL     1      32.555  35.877  28.233  1.00  0.00     0.003 C 
ATOM     23  C   UNL     1      31.072  34.213  29.371  1.00  0.00     0.010 C 
ATOM     24  C   UNL     1      31.334  36.446  30.470  1.00  0.00     0.012 C 
ATOM     25  C   UNL     1      33.885  35.328  28.880  1.00  0.00    -0.006 C 
ATOM     26  C   UNL     1      32.316  33.571  30.040  1.00  0.00     0.033 C 
ATOM     27  C   UNL     1      33.644  33.822  29.278  1.00  0.00     0.120 C 
ATOM     28  C   UNL     1      35.037  35.364  27.830  1.00  0.00     0.014 C 
ATOM     29  C   UNL     1      34.383  36.152  30.095  1.00  0.00     0.014 C 
ENDROOT
BRANCH   1  30
ATOM     30  C   UNL     1      29.787  40.107  23.860  1.00  0.00     0.048 C 
ATOM     31  O   UNL     1      30.705  40.021  24.720  1.00  0.00    -0.550 OA
ATOM     32  O   UNL     1      30.101  40.633  22.612  1.00  0.00    -0.550 OA
ENDBRANCH   1  30
BRANCH  27  33
ATOM     33  O   UNL     1      33.653  33.009  28.127  1.00  0.00    -0.393 OA
ATOM     34  H   UNL     1      33.051  33.435  27.461  1.00  0.00     0.210 HD
ENDBRANCH  27  33
TORSDOF 2
ENDMDL
MODEL 3
REMARK VINA RESULT:    54.363      3.188      5.760
REMARK INTER + INTRA:          59.863
REMARK INTER:                  59.159
REMARK INTRA:                   0.704
REMARK UNBOUND:                 0.733
REMARK SMILES C[C@H]1[C@H]2C3=CC[C@@H]4[C@@]5(C)CC[C@@H](O)C(C)(C)[C@@H]5CC[C@]4(C)[C@]3(C)CC[C@@]2(C(=O)[O-])CC[C@@H]1C
REMARK SMILES IDX 26 1 30 2 25 3 3 4 31 5 24 6 4 7 2 8 32 9 22 10 5 11 1 12
REMARK SMILES IDX 33 13 23 14 20 15 6 16 7 17 19 18 21 19 8 20 18 21 17 22
REMARK SMILES IDX 10 23 9 24 14 25 11 26 12 27 15 28 16 29 27 30 28 31 29 32
REMARK SMILES IDX 13 33
REMARK H PARENT 13 34
REMARK Flexibility Score: inf
ROOT
ATOM      1  C   UNL     1      28.453  39.131  29.546  1.00  0.00     0.017 C 
ATOM      2  C   UNL     1      27.519  39.408  30.764  1.00  0.00     0.014 C 
ATOM      3  C   UNL     1      28.151  40.182  28.462  1.00  0.00     0.014 C 
ATOM      4  C   UNL     1      28.223  37.679  28.971  1.00  0.00     0.030 C 
ATOM      5  C   UNL     1      27.326  38.156  31.614  1.00  0.00     0.004 C 
ATOM      6  C   UNL     1      29.022  39.996  27.220  1.00  0.00     0.013 C 
ATOM      7  C   UNL     1      28.643  37.485  27.495  1.00  0.00    -0.063 C 
ATOM      8  C   UNL     1      26.828  37.040  29.319  1.00  0.00    -0.003 C 
ATOM      9  C   UNL     1      26.487  37.113  30.851  1.00  0.00    -0.011 C 
ATOM     10  C   UNL     1      28.832  38.624  26.479  1.00  0.00    -0.006 C 
ATOM     11  C   UNL     1      28.835  36.220  27.094  1.00  0.00    -0.027 C 
ATOM     12  C   UNL     1      25.663  37.564  28.466  1.00  0.00     0.008 C 
ATOM     13  C   UNL     1      26.633  35.742  31.527  1.00  0.00     0.008 C 
ATOM     14  C   UNL     1      27.507  38.712  25.658  1.00  0.00     0.017 C 
ATOM     15  C   UNL     1      30.081  38.313  25.493  1.00  0.00    -0.020 C 
ATOM     16  C   UNL     1      29.494  35.810  25.820  1.00  0.00     0.032 C 
ATOM     17  C   UNL     1      29.892  36.906  24.769  1.00  0.00     0.006 C 
ATOM     18  C   UNL     1      31.438  38.260  26.305  1.00  0.00     0.008 C 
ATOM     19  C   UNL     1      30.139  39.470  24.418  1.00  0.00     0.012 C 
ATOM     20  C   UNL     1      31.124  36.424  23.814  1.00  0.00    -0.025 C 
ATOM     21  C   UNL     1      32.545  37.313  25.747  1.00  0.00     0.005 C 
ATOM     22  C   UNL     1      32.440  37.178  24.217  1.00  0.00     0.003 C 
ATOM     23  C   UNL     1      30.866  36.771  22.315  1.00  0.00     0.010 C 
ATOM     24  C   UNL     1      31.282  34.862  23.878  1.00  0.00     0.012 C 
ATOM     25  C   UNL     1      33.739  36.862  23.379  1.00  0.00    -0.006 C 
ATOM     26  C   UNL     1      32.074  36.471  21.388  1.00  0.00     0.033 C 
ATOM     27  C   UNL     1      33.406  37.109  21.858  1.00  0.00     0.120 C 
ATOM     28  C   UNL     1      34.880  37.846  23.783  1.00  0.00     0.014 C 
ATOM     29  C   UNL     1      34.302  35.435  23.601  1.00  0.00     0.014 C 
ENDROOT
BRANCH   1  30
ATOM     30  C   UNL     1      29.900  39.324  30.015  1.00  0.00     0.048 C 
ATOM     31  O   UNL     1      30.231  39.000  31.188  1.00  0.00    -0.550 OA
ATOM     32  O   UNL     1      30.869  39.879  29.187  1.00  0.00    -0.550 OA
ENDBRANCH   1  30
BRANCH  27  33
ATOM     33  O   UNL     1      33.351  38.492  21.593  1.00  0.00    -0.393 OA
ATOM     34  H   UNL     1      32.449  38.685  21.225  1.00  0.00     0.210 HD
ENDBRANCH  27  33
TORSDOF 2
ENDMDL
