MODEL 1
REMARK VINA RESULT:    -3.535      0.000      0.000
REMARK INTER + INTRA:          -3.984
REMARK INTER:                  -3.948
REMARK INTRA:                  -0.036
REMARK UNBOUND:                -0.036
REMARK SMILES CCCC(=O)[O-]
REMARK SMILES IDX 3 1 4 2 5 3 6 4 2 5 1 6
REMARK H PARENT
REMARK Flexibility Score: inf
ROOT
ATOM      1  C   UNL     1      13.417  33.683  13.629  1.00  0.00     0.052 C 
ENDROOT
BRANCH   1   2
ATOM      2  C   UNL     1      14.355  34.805  13.316  1.00  0.00     0.041 C 
ATOM      3  O   UNL     1      15.534  34.788  13.758  1.00  0.00    -0.550 OA
ATOM      4  O   UNL     1      13.914  35.894  12.574  1.00  0.00    -0.550 OA
ENDBRANCH   1   2
BRANCH   1   5
ATOM      5  C   UNL     1      13.437  32.641  12.507  1.00  0.00     0.003 C 
ATOM      6  C   UNL     1      14.483  31.563  12.775  1.00  0.00     0.004 C 
ENDBRANCH   1   5
TORSDOF 2
ENDMDL
MODEL 2
REMARK VINA RESULT:    -3.514      2.383      3.357
REMARK INTER + INTRA:          -3.961
REMARK INTER:                  -3.926
REMARK INTRA:                  -0.035
REMARK UNBOUND:                -0.036
REMARK SMILES CCCC(=O)[O-]
REMARK SMILES IDX 3 1 4 2 5 3 6 4 2 5 1 6
REMARK H PARENT
REMARK Flexibility Score: inf
ROOT
ATOM      1  C   UNL     1      13.325  34.040  13.945  1.00  0.00     0.052 C 
ENDROOT
BRANCH   1   2
ATOM      2  C   UNL     1      13.206  32.694  13.304  1.00  0.00     0.041 C 
ATOM      3  O   UNL     1      13.719  32.483  12.174  1.00  0.00    -0.550 OA
ATOM      4  O   UNL     1      12.487  31.685  13.933  1.00  0.00    -0.550 OA
ENDBRANCH   1   2
BRANCH   1   5
ATOM      5  C   UNL     1      14.258  34.940  13.129  1.00  0.00     0.003 C 
ATOM      6  C   UNL     1      13.546  36.215  12.688  1.00  0.00     0.004 C 
ENDBRANCH   1   5
TORSDOF 2
ENDMDL
MODEL 3
REMARK VINA RESULT:    -3.250     15.527     16.428
REMARK INTER + INTRA:          -3.667
REMARK INTER:                  -3.646
REMARK INTRA:                  -0.021
REMARK UNBOUND:                -0.036
REMARK SMILES CCCC(=O)[O-]
REMARK SMILES IDX 3 1 4 2 5 3 6 4 2 5 1 6
REMARK H PARENT
REMARK Flexibility Score: inf
ROOT
ATOM      1  C   UNL     1       5.065  47.545   9.051  1.00  0.00     0.052 C 
ENDROOT
BRANCH   1   2
ATOM      2  C   UNL     1       6.395  48.219   9.171  1.00  0.00     0.041 C 
ATOM      3  O   UNL     1       6.523  49.431   8.855  1.00  0.00    -0.550 OA
ATOM      4  O   UNL     1       7.507  47.495   9.587  1.00  0.00    -0.550 OA
ENDBRANCH   1   2
BRANCH   1   5
ATOM      5  C   UNL     1       4.936  46.430  10.092  1.00  0.00     0.003 C 
ATOM      6  C   UNL     1       4.182  45.231   9.523  1.00  0.00     0.004 C 
ENDBRANCH   1   5
TORSDOF 2
ENDMDL
MODEL 4
REMARK VINA RESULT:    -3.195     16.555     17.257
REMARK INTER + INTRA:          -3.605
REMARK INTER:                  -3.591
REMARK INTRA:                  -0.014
REMARK UNBOUND:                -0.036
REMARK SMILES CCCC(=O)[O-]
REMARK SMILES IDX 3 1 4 2 5 3 6 4 2 5 1 6
REMARK H PARENT
REMARK Flexibility Score: inf
ROOT
ATOM      1  C   UNL     1       4.956  47.000   9.483  1.00  0.00     0.052 C 
ENDROOT
BRANCH   1   2
ATOM      2  C   UNL     1       3.705  47.293   8.716  1.00  0.00     0.041 C 
ATOM      3  O   UNL     1       2.616  46.760   9.054  1.00  0.00    -0.550 OA
ATOM      4  O   UNL     1       3.751  48.118   7.599  1.00  0.00    -0.550 OA
ENDBRANCH   1   2
BRANCH   1   5
ATOM      5  C   UNL     1       6.013  48.074   9.210  1.00  0.00     0.003 C 
ATOM      6  C   UNL     1       7.419  47.539   9.466  1.00  0.00     0.004 C 
ENDBRANCH   1   5
TORSDOF 2
ENDMDL
MODEL 5
REMARK VINA RESULT:    -3.176     14.542     15.329
REMARK INTER + INTRA:          -3.584
REMARK INTER:                  -3.566
REMARK INTRA:                  -0.018
REMARK UNBOUND:                -0.036
REMARK SMILES CCCC(=O)[O-]
REMARK SMILES IDX 3 1 4 2 5 3 6 4 2 5 1 6
REMARK H PARENT
REMARK Flexibility Score: inf
ROOT
ATOM      1  C   UNL     1       3.991  45.850  10.888  1.00  0.00     0.052 C 
ENDROOT
BRANCH   1   2
ATOM      2  C   UNL     1       4.246  44.447  11.341  1.00  0.00     0.041 C 
ATOM      3  O   UNL     1       4.550  44.213  12.539  1.00  0.00    -0.550 OA
ATOM      4  O   UNL     1       4.194  43.401  10.427  1.00  0.00    -0.550 OA
ENDBRANCH   1   2
BRANCH   1   5
ATOM      5  C   UNL     1       4.573  46.074   9.489  1.00  0.00     0.003 C 
ATOM      6  C   UNL     1       5.650  47.155   9.508  1.00  0.00     0.004 C 
ENDBRANCH   1   5
TORSDOF 2
ENDMDL
MODEL 6
REMARK VINA RESULT:    -3.156     15.698     16.324
REMARK INTER + INTRA:          -3.561
REMARK INTER:                  -3.550
REMARK INTRA:                  -0.011
REMARK UNBOUND:                -0.036
REMARK SMILES CCCC(=O)[O-]
REMARK SMILES IDX 3 1 4 2 5 3 6 4 2 5 1 6
REMARK H PARENT
REMARK Flexibility Score: inf
ROOT
ATOM      1  C   UNL     1       4.771  47.012   9.134  1.00  0.00     0.052 C 
ENDROOT
BRANCH   1   2
ATOM      2  C   UNL     1       4.356  45.797   9.901  1.00  0.00     0.041 C 
ATOM      3  O   UNL     1       4.221  45.852  11.151  1.00  0.00    -0.550 OA
ATOM      4  O   UNL     1       4.164  44.590   9.240  1.00  0.00    -0.550 OA
ENDBRANCH   1   2
BRANCH   1   5
ATOM      5  C   UNL     1       6.221  47.382   9.462  1.00  0.00     0.003 C 
ATOM      6  C   UNL     1       6.483  48.863   9.206  1.00  0.00     0.004 C 
ENDBRANCH   1   5
TORSDOF 2
ENDMDL
MODEL 7
REMARK VINA RESULT:    -3.120     14.884     15.822
REMARK INTER + INTRA:          -3.521
REMARK INTER:                  -3.492
REMARK INTRA:                  -0.029
REMARK UNBOUND:                -0.036
REMARK SMILES CCCC(=O)[O-]
REMARK SMILES IDX 3 1 4 2 5 3 6 4 2 5 1 6
REMARK H PARENT
REMARK Flexibility Score: inf
ROOT
ATOM      1  C   UNL     1       4.109  45.150   9.858  1.00  0.00     0.052 C 
ENDROOT
BRANCH   1   2
ATOM      2  C   UNL     1       4.623  46.466   9.366  1.00  0.00     0.041 C 
ATOM      3  O   UNL     1       5.754  46.881   9.731  1.00  0.00    -0.550 OA
ATOM      4  O   UNL     1       3.833  47.257   8.540  1.00  0.00    -0.550 OA
ENDBRANCH   1   2
BRANCH   1   5
ATOM      5  C   UNL     1       3.679  45.259  11.324  1.00  0.00     0.003 C 
ATOM      6  C   UNL     1       4.378  44.208  12.181  1.00  0.00     0.004 C 
ENDBRANCH   1   5
TORSDOF 2
ENDMDL
MODEL 8
REMARK VINA RESULT:    -3.095     14.032     14.705
REMARK INTER + INTRA:          -3.494
REMARK INTER:                  -3.452
REMARK INTRA:                  -0.042
REMARK UNBOUND:                -0.036
REMARK SMILES CCCC(=O)[O-]
REMARK SMILES IDX 3 1 4 2 5 3 6 4 2 5 1 6
REMARK H PARENT
REMARK Flexibility Score: inf
ROOT
ATOM      1  C   UNL     1       2.749  43.610  11.937  1.00  0.00     0.052 C 
ENDROOT
BRANCH   1   2
ATOM      2  C   UNL     1       2.910  42.305  11.223  1.00  0.00     0.041 C 
ATOM      3  O   UNL     1       3.203  41.264  11.865  1.00  0.00    -0.550 OA
ATOM      4  O   UNL     1       2.783  42.249   9.840  1.00  0.00    -0.550 OA
ENDBRANCH   1   2
BRANCH   1   5
ATOM      5  C   UNL     1       4.100  44.317  12.070  1.00  0.00     0.003 C 
ATOM      6  C   UNL     1       4.287  45.359  10.971  1.00  0.00     0.004 C 
ENDBRANCH   1   5
TORSDOF 2
ENDMDL
MODEL 9
REMARK VINA RESULT:    -2.997     14.456     14.977
REMARK INTER + INTRA:          -3.384
REMARK INTER:                  -3.329
REMARK INTRA:                  -0.054
REMARK UNBOUND:                -0.036
REMARK SMILES CCCC(=O)[O-]
REMARK SMILES IDX 3 1 4 2 5 3 6 4 2 5 1 6
REMARK H PARENT
REMARK Flexibility Score: inf
ROOT
ATOM      1  C   UNL     1       2.385  43.797  11.652  1.00  0.00     0.052 C 
ENDROOT
BRANCH   1   2
ATOM      2  C   UNL     1       3.625  44.623  11.786  1.00  0.00     0.041 C 
ATOM      3  O   UNL     1       4.548  44.257  12.559  1.00  0.00    -0.550 OA
ATOM      4  O   UNL     1       3.742  45.822  11.093  1.00  0.00    -0.550 OA
ENDBRANCH   1   2
BRANCH   1   5
ATOM      5  C   UNL     1       2.670  42.533  10.835  1.00  0.00     0.003 C 
ATOM      6  C   UNL     1       3.000  42.877   9.386  1.00  0.00     0.004 C 
ENDBRANCH   1   5
TORSDOF 2
ENDMDL
