MODEL 1
REMARK VINA RESULT:    -3.717      0.000      0.000
REMARK INTER + INTRA:          -3.717
REMARK INTER:                  -3.717
REMARK INTRA:                   0.000
REMARK UNBOUND:                 0.000
REMARK SMILES CC1=CC[C@@H]2C[C@H]1C2(C)C
REMARK SMILES IDX 1 1 2 2 3 3 4 4 5 5 6 6 7 7 8 8 9 9 10 10
REMARK H PARENT
REMARK Flexibility Score: inf
ROOT
ATOM      1  C   UNL     1     139.824 134.467 135.528  1.00  0.00     0.039 C 
ATOM      2  C   UNL     1     139.893 135.954 135.355  1.00  0.00    -0.074 C 
ATOM      3  C   UNL     1     140.000 136.522 134.117  1.00  0.00    -0.027 C 
ATOM      4  C   UNL     1     140.038 138.059 134.009  1.00  0.00     0.031 C 
ATOM      5  C   UNL     1     139.982 138.701 135.439  1.00  0.00    -0.000 C 
ATOM      6  C   UNL     1     141.003 137.917 136.287  1.00  0.00     0.013 C 
ATOM      7  C   UNL     1     139.866 136.911 136.555  1.00  0.00     0.021 C 
ATOM      8  C   UNL     1     138.850 138.051 136.279  1.00  0.00    -0.026 C 
ATOM      9  C   UNL     1     137.511 137.692 135.576  1.00  0.00     0.012 C 
ATOM     10  C   UNL     1     138.524 138.868 137.556  1.00  0.00     0.012 C 
ENDROOT
TORSDOF 0
ENDMDL
MODEL 2
REMARK VINA RESULT:    -3.709      5.462      7.548
REMARK INTER + INTRA:          -3.709
REMARK INTER:                  -3.709
REMARK INTRA:                   0.000
REMARK UNBOUND:                 0.000
REMARK SMILES CC1=CC[C@@H]2C[C@H]1C2(C)C
REMARK SMILES IDX 1 1 2 2 3 3 4 4 5 5 6 6 7 7 8 8 9 9 10 10
REMARK H PARENT
REMARK Flexibility Score: inf
ROOT
ATOM      1  C   UNL     1     132.649 138.065 135.469  1.00  0.00     0.039 C 
ATOM      2  C   UNL     1     132.653 136.570 135.358  1.00  0.00    -0.074 C 
ATOM      3  C   UNL     1     132.686 135.948 134.143  1.00  0.00    -0.027 C 
ATOM      4  C   UNL     1     132.718 134.408 134.100  1.00  0.00     0.031 C 
ATOM      5  C   UNL     1     132.661 133.828 135.556  1.00  0.00    -0.000 C 
ATOM      6  C   UNL     1     131.535 134.603 136.270  1.00  0.00     0.013 C 
ATOM      7  C   UNL     1     132.602 135.665 136.597  1.00  0.00     0.021 C 
ATOM      8  C   UNL     1     133.683 134.559 136.469  1.00  0.00    -0.026 C 
ATOM      9  C   UNL     1     135.068 134.944 135.878  1.00  0.00     0.012 C 
ATOM     10  C   UNL     1     133.916 133.809 137.806  1.00  0.00     0.012 C 
ENDROOT
TORSDOF 0
ENDMDL
MODEL 3
REMARK VINA RESULT:    -3.708      3.997      5.898
REMARK INTER + INTRA:          -3.708
REMARK INTER:                  -3.708
REMARK INTRA:                   0.000
REMARK UNBOUND:                 0.000
REMARK SMILES CC1=CC[C@@H]2C[C@H]1C2(C)C
REMARK SMILES IDX 1 1 2 2 3 3 4 4 5 5 6 6 7 7 8 8 9 9 10 10
REMARK H PARENT
REMARK Flexibility Score: inf
ROOT
ATOM      1  C   UNL     1     134.897 140.090 132.929  1.00  0.00     0.039 C 
ATOM      2  C   UNL     1     134.558 139.864 134.371  1.00  0.00    -0.074 C 
ATOM      3  C   UNL     1     133.321 139.427 134.751  1.00  0.00    -0.027 C 
ATOM      4  C   UNL     1     133.047 139.187 136.248  1.00  0.00     0.031 C 
ATOM      5  C   UNL     1     134.316 139.557 137.093  1.00  0.00    -0.000 C 
ATOM      6  C   UNL     1     134.790 140.923 136.557  1.00  0.00     0.013 C 
ATOM      7  C   UNL     1     135.572 140.128 135.493  1.00  0.00     0.021 C 
ATOM      8  C   UNL     1     135.586 138.920 136.467  1.00  0.00    -0.026 C 
ATOM      9  C   UNL     1     135.485 137.489 135.869  1.00  0.00     0.012 C 
ATOM     10  C   UNL     1     136.798 138.959 137.433  1.00  0.00     0.012 C 
ENDROOT
TORSDOF 0
ENDMDL
MODEL 4
REMARK VINA RESULT:    -3.704      3.512      5.319
REMARK INTER + INTRA:          -3.704
REMARK INTER:                  -3.704
REMARK INTRA:                   0.000
REMARK UNBOUND:                 0.000
REMARK SMILES CC1=CC[C@@H]2C[C@H]1C2(C)C
REMARK SMILES IDX 1 1 2 2 3 3 4 4 5 5 6 6 7 7 8 8 9 9 10 10
REMARK H PARENT
REMARK Flexibility Score: inf
ROOT
ATOM      1  C   UNL     1     134.493 132.637 135.241  1.00  0.00     0.039 C 
ATOM      2  C   UNL     1     135.991 132.636 135.187  1.00  0.00    -0.074 C 
ATOM      3  C   UNL     1     136.660 132.615 133.996  1.00  0.00    -0.027 C 
ATOM      4  C   UNL     1     138.200 132.644 134.011  1.00  0.00     0.031 C 
ATOM      5  C   UNL     1     138.724 132.652 135.489  1.00  0.00    -0.000 C 
ATOM      6  C   UNL     1     137.920 131.559 136.222  1.00  0.00     0.013 C 
ATOM      7  C   UNL     1     136.848 132.639 136.460  1.00  0.00     0.021 C 
ATOM      8  C   UNL     1     137.961 133.713 136.328  1.00  0.00    -0.026 C 
ATOM      9  C   UNL     1     137.601 135.070 135.662  1.00  0.00     0.012 C 
ATOM     10  C   UNL     1     138.659 134.005 137.680  1.00  0.00     0.012 C 
ENDROOT
TORSDOF 0
ENDMDL
MODEL 5
REMARK VINA RESULT:    -3.700      3.601      4.915
REMARK INTER + INTRA:          -3.700
REMARK INTER:                  -3.700
REMARK INTRA:                   0.000
REMARK UNBOUND:                 0.000
REMARK SMILES CC1=CC[C@@H]2C[C@H]1C2(C)C
REMARK SMILES IDX 1 1 2 2 3 3 4 4 5 5 6 6 7 7 8 8 9 9 10 10
REMARK H PARENT
REMARK Flexibility Score: inf
ROOT
ATOM      1  C   UNL     1     137.760 132.631 132.917  1.00  0.00     0.039 C 
ATOM      2  C   UNL     1     138.092 132.838 134.363  1.00  0.00    -0.074 C 
ATOM      3  C   UNL     1     139.322 133.285 134.754  1.00  0.00    -0.027 C 
ATOM      4  C   UNL     1     139.588 133.504 136.256  1.00  0.00     0.031 C 
ATOM      5  C   UNL     1     138.322 133.104 137.091  1.00  0.00    -0.000 C 
ATOM      6  C   UNL     1     137.868 131.740 136.531  1.00  0.00     0.013 C 
ATOM      7  C   UNL     1     137.079 132.541 135.478  1.00  0.00     0.021 C 
ATOM      8  C   UNL     1     137.045 133.733 136.471  1.00  0.00    -0.026 C 
ATOM      9  C   UNL     1     137.128 135.175 135.897  1.00  0.00     0.012 C 
ATOM     10  C   UNL     1     135.831 133.662 137.432  1.00  0.00     0.012 C 
ENDROOT
TORSDOF 0
ENDMDL
MODEL 6
REMARK VINA RESULT:    -3.668      5.654      7.401
REMARK INTER + INTRA:          -3.668
REMARK INTER:                  -3.668
REMARK INTRA:                   0.000
REMARK UNBOUND:                 0.000
REMARK SMILES CC1=CC[C@@H]2C[C@H]1C2(C)C
REMARK SMILES IDX 1 1 2 2 3 3 4 4 5 5 6 6 7 7 8 8 9 9 10 10
REMARK H PARENT
REMARK Flexibility Score: inf
ROOT
ATOM      1  C   UNL     1     134.773 134.211 138.771  1.00  0.00     0.039 C 
ATOM      2  C   UNL     1     133.882 134.219 137.566  1.00  0.00    -0.074 C 
ATOM      3  C   UNL     1     132.680 134.867 137.574  1.00  0.00    -0.027 C 
ATOM      4  C   UNL     1     131.826 134.859 136.291  1.00  0.00     0.031 C 
ATOM      5  C   UNL     1     132.539 134.020 135.174  1.00  0.00    -0.000 C 
ATOM      6  C   UNL     1     132.994 132.716 135.860  1.00  0.00     0.013 C 
ATOM      7  C   UNL     1     134.264 133.487 136.272  1.00  0.00     0.021 C 
ATOM      8  C   UNL     1     134.033 134.430 135.061  1.00  0.00    -0.026 C 
ATOM      9  C   UNL     1     134.407 135.931 135.212  1.00  0.00     0.012 C 
ATOM     10  C   UNL     1     134.691 133.893 133.764  1.00  0.00     0.012 C 
ENDROOT
TORSDOF 0
ENDMDL
MODEL 7
REMARK VINA RESULT:    -3.654      1.163      3.377
REMARK INTER + INTRA:          -3.654
REMARK INTER:                  -3.654
REMARK INTRA:                   0.000
REMARK UNBOUND:                 0.000
REMARK SMILES CC1=CC[C@@H]2C[C@H]1C2(C)C
REMARK SMILES IDX 1 1 2 2 3 3 4 4 5 5 6 6 7 7 8 8 9 9 10 10
REMARK H PARENT
REMARK Flexibility Score: inf
ROOT
ATOM      1  C   UNL     1     138.200 140.201 134.773  1.00  0.00     0.039 C 
ATOM      2  C   UNL     1     138.831 139.161 135.647  1.00  0.00    -0.074 C 
ATOM      3  C   UNL     1     138.498 139.043 136.967  1.00  0.00    -0.027 C 
ATOM      4  C   UNL     1     139.164 137.933 137.802  1.00  0.00     0.031 C 
ATOM      5  C   UNL     1     140.187 137.135 136.921  1.00  0.00    -0.000 C 
ATOM      6  C   UNL     1     141.013 138.202 136.173  1.00  0.00     0.013 C 
ATOM      7  C   UNL     1     139.893 138.190 135.114  1.00  0.00     0.021 C 
ATOM      8  C   UNL     1     139.542 136.747 135.563  1.00  0.00    -0.026 C 
ATOM      9  C   UNL     1     138.050 136.311 135.544  1.00  0.00     0.012 C 
ATOM     10  C   UNL     1     140.370 135.677 134.805  1.00  0.00     0.012 C 
ENDROOT
TORSDOF 0
ENDMDL
MODEL 8
REMARK VINA RESULT:    -3.649      4.191      6.366
REMARK INTER + INTRA:          -3.649
REMARK INTER:                  -3.649
REMARK INTRA:                   0.000
REMARK UNBOUND:                 0.000
REMARK SMILES CC1=CC[C@@H]2C[C@H]1C2(C)C
REMARK SMILES IDX 1 1 2 2 3 3 4 4 5 5 6 6 7 7 8 8 9 9 10 10
REMARK H PARENT
REMARK Flexibility Score: inf
ROOT
ATOM      1  C   UNL     1     134.197 138.074 138.910  1.00  0.00     0.039 C 
ATOM      2  C   UNL     1     134.209 138.885 137.650  1.00  0.00    -0.074 C 
ATOM      3  C   UNL     1     134.852 140.088 137.585  1.00  0.00    -0.027 C 
ATOM      4  C   UNL     1     134.849 140.858 136.249  1.00  0.00     0.031 C 
ATOM      5  C   UNL     1     134.019 140.071 135.176  1.00  0.00    -0.000 C 
ATOM      6  C   UNL     1     132.713 139.656 135.883  1.00  0.00     0.013 C 
ATOM      7  C   UNL     1     133.486 138.418 136.379  1.00  0.00     0.021 C 
ATOM      8  C   UNL     1     134.435 138.575 135.162  1.00  0.00    -0.026 C 
ATOM      9  C   UNL     1     135.936 138.217 135.345  1.00  0.00     0.012 C 
ATOM     10  C   UNL     1     133.908 137.833 133.907  1.00  0.00     0.012 C 
ENDROOT
TORSDOF 0
ENDMDL
MODEL 9
REMARK VINA RESULT:    -3.624      1.374      3.092
REMARK INTER + INTRA:          -3.624
REMARK INTER:                  -3.624
REMARK INTRA:                   0.000
REMARK UNBOUND:                 0.000
REMARK SMILES CC1=CC[C@@H]2C[C@H]1C2(C)C
REMARK SMILES IDX 1 1 2 2 3 3 4 4 5 5 6 6 7 7 8 8 9 9 10 10
REMARK H PARENT
REMARK Flexibility Score: inf
ROOT
ATOM      1  C   UNL     1     137.944 138.621 138.713  1.00  0.00     0.039 C 
ATOM      2  C   UNL     1     138.803 138.482 137.493  1.00  0.00    -0.074 C 
ATOM      3  C   UNL     1     140.054 137.937 137.562  1.00  0.00    -0.027 C 
ATOM      4  C   UNL     1     140.873 137.797 136.264  1.00  0.00     0.031 C 
ATOM      5  C   UNL     1     140.069 138.386 135.053  1.00  0.00    -0.000 C 
ATOM      6  C   UNL     1     139.527 139.747 135.536  1.00  0.00     0.013 C 
ATOM      7  C   UNL     1     138.334 138.961 136.112  1.00  0.00     0.021 C 
ATOM      8  C   UNL     1     138.610 137.852 135.063  1.00  0.00    -0.026 C 
ATOM      9  C   UNL     1     138.361 136.373 135.468  1.00  0.00     0.012 C 
ATOM     10  C   UNL     1     137.880 138.118 133.721  1.00  0.00     0.012 C 
ENDROOT
TORSDOF 0
ENDMDL
