MODEL 1
REMARK VINA RESULT:    -5.642      0.000      0.000
REMARK INTER + INTRA:         -11.740
REMARK INTER:                 -10.259
REMARK INTRA:                  -1.481
REMARK UNBOUND:                -1.481
REMARK SMILES CCCCCCCCCCCCCCCC(=O)[O-]
REMARK SMILES IDX 9 1 10 2 11 3 12 4 13 5 14 6 15 7 16 8 17 9 18 10 8 11 7 12
REMARK SMILES IDX 6 13 5 14 4 15 3 16 2 17 1 18
REMARK H PARENT
REMARK Flexibility Score: inf
ROOT
ATOM      1  C   UNL     1      -4.090  -3.340  11.818  1.00  0.00     0.000 C 
ENDROOT
BRANCH   1   2
ATOM      2  C   UNL     1      -2.669  -3.634  11.314  1.00  0.00     0.000 C 
BRANCH   2   3
ATOM      3  C   UNL     1      -1.626  -3.640  12.443  1.00  0.00     0.000 C 
BRANCH   3   4
ATOM      4  C   UNL     1      -0.348  -2.869  12.070  1.00  0.00     0.000 C 
BRANCH   4   5
ATOM      5  C   UNL     1      -0.319  -1.441  12.645  1.00  0.00     0.000 C 
BRANCH   5   6
ATOM      6  C   UNL     1      -1.444  -1.116  13.645  1.00  0.00     0.006 C 
BRANCH   6   7
ATOM      7  C   UNL     1      -2.392  -0.019  13.143  1.00  0.00     0.053 C 
BRANCH   7   8
ATOM      8  C   UNL     1      -3.759  -0.205  13.720  1.00  0.00     0.041 C 
ATOM      9  O   UNL     1      -4.779  -0.026  13.004  1.00  0.00    -0.550 OA
ATOM     10  O   UNL     1      -3.909  -0.529  15.062  1.00  0.00    -0.550 OA
ENDBRANCH   7   8
ENDBRANCH   6   7
ENDBRANCH   5   6
ENDBRANCH   4   5
ENDBRANCH   3   4
ENDBRANCH   2   3
ENDBRANCH   1   2
BRANCH   1  11
ATOM     11  C   UNL     1      -4.296  -3.897  13.232  1.00  0.00     0.000 C 
BRANCH  11  12
ATOM     12  C   UNL     1      -5.668  -3.497  13.788  1.00  0.00    -0.000 C 
BRANCH  12  13
ATOM     13  C   UNL     1      -5.998  -4.285  15.061  1.00  0.00    -0.000 C 
BRANCH  13  14
ATOM     14  C   UNL     1      -7.145  -5.276  14.814  1.00  0.00    -0.000 C 
BRANCH  14  15
ATOM     15  C   UNL     1      -6.871  -6.661  15.420  1.00  0.00    -0.000 C 
BRANCH  15  16
ATOM     16  C   UNL     1      -5.784  -6.625  16.508  1.00  0.00    -0.000 C 
BRANCH  16  17
ATOM     17  C   UNL     1      -6.291  -7.143  17.863  1.00  0.00    -0.003 C 
ATOM     18  C   UNL     1      -7.803  -7.372  17.879  1.00  0.00     0.004 C 
ENDBRANCH  16  17
ENDBRANCH  15  16
ENDBRANCH  14  15
ENDBRANCH  13  14
ENDBRANCH  12  13
ENDBRANCH  11  12
ENDBRANCH   1  11
TORSDOF 14
ENDMDL
MODEL 2
REMARK VINA RESULT:    -5.558      2.116      3.428
REMARK INTER + INTRA:         -11.588
REMARK INTER:                 -10.218
REMARK INTRA:                  -1.369
REMARK UNBOUND:                -1.481
REMARK SMILES CCCCCCCCCCCCCCCC(=O)[O-]
REMARK SMILES IDX 9 1 10 2 11 3 12 4 13 5 14 6 15 7 16 8 17 9 18 10 8 11 7 12
REMARK SMILES IDX 6 13 5 14 4 15 3 16 2 17 1 18
REMARK H PARENT
REMARK Flexibility Score: inf
ROOT
ATOM      1  C   UNL     1      -3.862  -2.353  12.944  1.00  0.00     0.000 C 
ENDROOT
BRANCH   1   2
ATOM      2  C   UNL     1      -2.853  -2.598  11.813  1.00  0.00     0.000 C 
BRANCH   2   3
ATOM      3  C   UNL     1      -3.141  -3.887  11.027  1.00  0.00     0.000 C 
BRANCH   3   4
ATOM      4  C   UNL     1      -3.468  -3.616   9.548  1.00  0.00     0.000 C 
BRANCH   4   5
ATOM      5  C   UNL     1      -4.793  -4.259   9.098  1.00  0.00     0.000 C 
BRANCH   5   6
ATOM      6  C   UNL     1      -6.061  -3.460   9.450  1.00  0.00     0.006 C 
BRANCH   6   7
ATOM      7  C   UNL     1      -5.898  -1.951   9.226  1.00  0.00     0.053 C 
BRANCH   7   8
ATOM      8  C   UNL     1      -6.225  -1.199  10.477  1.00  0.00     0.041 C 
ATOM      9  O   UNL     1      -5.549  -0.187  10.804  1.00  0.00    -0.550 OA
ATOM     10  O   UNL     1      -7.243  -1.644  11.310  1.00  0.00    -0.550 OA
ENDBRANCH   7   8
ENDBRANCH   6   7
ENDBRANCH   5   6
ENDBRANCH   4   5
ENDBRANCH   3   4
ENDBRANCH   2   3
ENDBRANCH   1   2
BRANCH   1  11
ATOM     11  C   UNL     1      -4.786  -3.564  13.128  1.00  0.00     0.000 C 
BRANCH  11  12
ATOM     12  C   UNL     1      -5.696  -3.384  14.348  1.00  0.00    -0.000 C 
BRANCH  12  13
ATOM     13  C   UNL     1      -6.049  -4.737  14.978  1.00  0.00    -0.000 C 
BRANCH  13  14
ATOM     14  C   UNL     1      -6.880  -4.549  16.256  1.00  0.00    -0.000 C 
BRANCH  14  15
ATOM     15  C   UNL     1      -8.273  -5.189  16.153  1.00  0.00    -0.000 C 
BRANCH  15  16
ATOM     16  C   UNL     1      -8.710  -5.867  17.464  1.00  0.00    -0.000 C 
BRANCH  16  17
ATOM     17  C   UNL     1      -7.534  -6.512  18.212  1.00  0.00    -0.003 C 
ATOM     18  C   UNL     1      -7.138  -7.870  17.633  1.00  0.00     0.004 C 
ENDBRANCH  16  17
ENDBRANCH  15  16
ENDBRANCH  14  15
ENDBRANCH  13  14
ENDBRANCH  12  13
ENDBRANCH  11  12
ENDBRANCH   1  11
TORSDOF 14
ENDMDL
MODEL 3
REMARK VINA RESULT:    -5.417      2.611      3.618
REMARK INTER + INTRA:         -11.331
REMARK INTER:                 -10.082
REMARK INTRA:                  -1.249
REMARK UNBOUND:                -1.481
REMARK SMILES CCCCCCCCCCCCCCCC(=O)[O-]
REMARK SMILES IDX 9 1 10 2 11 3 12 4 13 5 14 6 15 7 16 8 17 9 18 10 8 11 7 12
REMARK SMILES IDX 6 13 5 14 4 15 3 16 2 17 1 18
REMARK H PARENT
REMARK Flexibility Score: inf
ROOT
ATOM      1  C   UNL     1      -4.898  -2.712  12.155  1.00  0.00     0.000 C 
ENDROOT
BRANCH   1   2
ATOM      2  C   UNL     1      -5.304  -1.741  11.036  1.00  0.00     0.000 C 
BRANCH   2   3
ATOM      3  C   UNL     1      -6.734  -1.204  11.205  1.00  0.00     0.000 C 
BRANCH   3   4
ATOM      4  C   UNL     1      -6.791   0.334  11.198  1.00  0.00     0.000 C 
BRANCH   4   5
ATOM      5  C   UNL     1      -6.793   0.940  12.614  1.00  0.00     0.000 C 
BRANCH   5   6
ATOM      6  C   UNL     1      -5.651   1.931  12.903  1.00  0.00     0.006 C 
BRANCH   6   7
ATOM      7  C   UNL     1      -4.283   1.248  13.025  1.00  0.00     0.053 C 
BRANCH   7   8
ATOM      8  C   UNL     1      -3.348   1.760  11.974  1.00  0.00     0.041 C 
ATOM      9  O   UNL     1      -3.399   1.301  10.803  1.00  0.00    -0.550 OA
ATOM     10  O   UNL     1      -2.387   2.708  12.301  1.00  0.00    -0.550 OA
ENDBRANCH   7   8
ENDBRANCH   6   7
ENDBRANCH   5   6
ENDBRANCH   4   5
ENDBRANCH   3   4
ENDBRANCH   2   3
ENDBRANCH   1   2
BRANCH   1  11
ATOM     11  C   UNL     1      -6.097  -3.054  13.047  1.00  0.00     0.000 C 
BRANCH  11  12
ATOM     12  C   UNL     1      -5.637  -3.575  14.414  1.00  0.00    -0.000 C 
BRANCH  12  13
ATOM     13  C   UNL     1      -6.505  -4.752  14.876  1.00  0.00    -0.000 C 
BRANCH  13  14
ATOM     14  C   UNL     1      -5.644  -5.852  15.515  1.00  0.00    -0.000 C 
BRANCH  14  15
ATOM     15  C   UNL     1      -6.421  -7.160  15.729  1.00  0.00    -0.000 C 
BRANCH  15  16
ATOM     16  C   UNL     1      -7.937  -6.934  15.854  1.00  0.00    -0.000 C 
BRANCH  16  17
ATOM     17  C   UNL     1      -8.432  -7.054  17.303  1.00  0.00    -0.003 C 
ATOM     18  C   UNL     1      -8.287  -5.749  18.087  1.00  0.00     0.004 C 
ENDBRANCH  16  17
ENDBRANCH  15  16
ENDBRANCH  14  15
ENDBRANCH  13  14
ENDBRANCH  12  13
ENDBRANCH  11  12
ENDBRANCH   1  11
TORSDOF 14
ENDMDL
MODEL 4
REMARK VINA RESULT:    -5.405      4.087      6.111
REMARK INTER + INTRA:         -11.309
REMARK INTER:                  -8.846
REMARK INTRA:                  -2.463
REMARK UNBOUND:                -1.481
REMARK SMILES CCCCCCCCCCCCCCCC(=O)[O-]
REMARK SMILES IDX 9 1 10 2 11 3 12 4 13 5 14 6 15 7 16 8 17 9 18 10 8 11 7 12
REMARK SMILES IDX 6 13 5 14 4 15 3 16 2 17 1 18
REMARK H PARENT
REMARK Flexibility Score: inf
ROOT
ATOM      1  C   UNL     1      -1.215  -0.685  13.166  1.00  0.00     0.000 C 
ENDROOT
BRANCH   1   2
ATOM      2  C   UNL     1      -1.722   0.364  12.164  1.00  0.00     0.000 C 
BRANCH   2   3
ATOM      3  C   UNL     1      -3.192   0.747  12.398  1.00  0.00     0.000 C 
BRANCH   3   4
ATOM      4  C   UNL     1      -3.828  -0.034  13.562  1.00  0.00     0.000 C 
BRANCH   4   5
ATOM      5  C   UNL     1      -5.097   0.641  14.114  1.00  0.00     0.000 C 
BRANCH   5   6
ATOM      6  C   UNL     1      -5.765   1.653  13.166  1.00  0.00     0.006 C 
BRANCH   6   7
ATOM      7  C   UNL     1      -7.066   1.126  12.547  1.00  0.00     0.053 C 
BRANCH   7   8
ATOM      8  C   UNL     1      -6.768   0.092  11.507  1.00  0.00     0.041 C 
ATOM      9  O   UNL     1      -6.256   0.429  10.407  1.00  0.00    -0.550 OA
ATOM     10  O   UNL     1      -7.102  -1.237  11.733  1.00  0.00    -0.550 OA
ENDBRANCH   7   8
ENDBRANCH   6   7
ENDBRANCH   5   6
ENDBRANCH   4   5
ENDBRANCH   3   4
ENDBRANCH   2   3
ENDBRANCH   1   2
BRANCH   1  11
ATOM     11  C   UNL     1       0.005  -1.429  12.611  1.00  0.00     0.000 C 
BRANCH  11  12
ATOM     12  C   UNL     1      -0.406  -2.753  11.955  1.00  0.00    -0.000 C 
BRANCH  12  13
ATOM     13  C   UNL     1      -1.601  -3.381  12.683  1.00  0.00    -0.000 C 
BRANCH  13  14
ATOM     14  C   UNL     1      -2.597  -3.987  11.683  1.00  0.00    -0.000 C 
BRANCH  14  15
ATOM     15  C   UNL     1      -3.878  -3.149  11.544  1.00  0.00    -0.000 C 
BRANCH  15  16
ATOM     16  C   UNL     1      -3.829  -2.187  10.345  1.00  0.00    -0.000 C 
BRANCH  16  17
ATOM     17  C   UNL     1      -2.914  -2.696   9.220  1.00  0.00    -0.003 C 
ATOM     18  C   UNL     1      -1.915  -1.639   8.748  1.00  0.00     0.004 C 
ENDBRANCH  16  17
ENDBRANCH  15  16
ENDBRANCH  14  15
ENDBRANCH  13  14
ENDBRANCH  12  13
ENDBRANCH  11  12
ENDBRANCH   1  11
TORSDOF 14
ENDMDL
MODEL 5
REMARK VINA RESULT:    -5.357      1.737      2.708
REMARK INTER + INTRA:         -11.223
REMARK INTER:                  -9.883
REMARK INTRA:                  -1.340
REMARK UNBOUND:                -1.481
REMARK SMILES CCCCCCCCCCCCCCCC(=O)[O-]
REMARK SMILES IDX 9 1 10 2 11 3 12 4 13 5 14 6 15 7 16 8 17 9 18 10 8 11 7 12
REMARK SMILES IDX 6 13 5 14 4 15 3 16 2 17 1 18
REMARK H PARENT
REMARK Flexibility Score: inf
ROOT
ATOM      1  C   UNL     1      -4.950  -2.526  11.694  1.00  0.00     0.000 C 
ENDROOT
BRANCH   1   2
ATOM      2  C   UNL     1      -5.894  -1.381  12.090  1.00  0.00     0.000 C 
BRANCH   2   3
ATOM      3  C   UNL     1      -5.300   0.007  11.797  1.00  0.00     0.000 C 
BRANCH   3   4
ATOM      4  C   UNL     1      -4.004  -0.069  10.971  1.00  0.00     0.000 C 
BRANCH   4   5
ATOM      5  C   UNL     1      -3.060   1.121  11.226  1.00  0.00     0.000 C 
BRANCH   5   6
ATOM      6  C   UNL     1      -1.817   0.799  12.075  1.00  0.00     0.006 C 
BRANCH   6   7
ATOM      7  C   UNL     1      -1.625  -0.704  12.310  1.00  0.00     0.053 C 
BRANCH   7   8
ATOM      8  C   UNL     1      -1.825  -1.036  13.755  1.00  0.00     0.041 C 
ATOM      9  O   UNL     1      -2.863  -0.651  14.357  1.00  0.00    -0.550 OA
ATOM     10  O   UNL     1      -0.843  -1.728  14.452  1.00  0.00    -0.550 OA
ENDBRANCH   7   8
ENDBRANCH   6   7
ENDBRANCH   5   6
ENDBRANCH   4   5
ENDBRANCH   3   4
ENDBRANCH   2   3
ENDBRANCH   1   2
BRANCH   1  11
ATOM     11  C   UNL     1      -4.594  -3.389  12.911  1.00  0.00     0.000 C 
BRANCH  11  12
ATOM     12  C   UNL     1      -5.613  -3.198  14.041  1.00  0.00    -0.000 C 
BRANCH  12  13
ATOM     13  C   UNL     1      -5.949  -4.535  14.712  1.00  0.00    -0.000 C 
BRANCH  13  14
ATOM     14  C   UNL     1      -6.646  -4.313  16.062  1.00  0.00    -0.000 C 
BRANCH  14  15
ATOM     15  C   UNL     1      -7.919  -5.161  16.216  1.00  0.00    -0.000 C 
BRANCH  15  16
ATOM     16  C   UNL     1      -8.211  -5.529  17.681  1.00  0.00    -0.000 C 
BRANCH  16  17
ATOM     17  C   UNL     1      -7.639  -6.901  18.067  1.00  0.00    -0.003 C 
ATOM     18  C   UNL     1      -7.503  -7.842  16.870  1.00  0.00     0.004 C 
ENDBRANCH  16  17
ENDBRANCH  15  16
ENDBRANCH  14  15
ENDBRANCH  13  14
ENDBRANCH  12  13
ENDBRANCH  11  12
ENDBRANCH   1  11
TORSDOF 14
ENDMDL
MODEL 6
REMARK VINA RESULT:    -5.339      4.612      6.908
REMARK INTER + INTRA:         -11.189
REMARK INTER:                  -8.726
REMARK INTRA:                  -2.463
REMARK UNBOUND:                -1.481
REMARK SMILES CCCCCCCCCCCCCCCC(=O)[O-]
REMARK SMILES IDX 9 1 10 2 11 3 12 4 13 5 14 6 15 7 16 8 17 9 18 10 8 11 7 12
REMARK SMILES IDX 6 13 5 14 4 15 3 16 2 17 1 18
REMARK H PARENT
REMARK Flexibility Score: inf
ROOT
ATOM      1  C   UNL     1      -6.545   0.926  11.900  1.00  0.00     0.000 C 
ENDROOT
BRANCH   1   2
ATOM      2  C   UNL     1      -6.156   0.760  10.424  1.00  0.00     0.000 C 
BRANCH   2   3
ATOM      3  C   UNL     1      -5.680  -0.664  10.091  1.00  0.00     0.000 C 
BRANCH   3   4
ATOM      4  C   UNL     1      -6.561  -1.746  10.737  1.00  0.00     0.000 C 
BRANCH   4   5
ATOM      5  C   UNL     1      -6.797  -2.957   9.815  1.00  0.00     0.000 C 
BRANCH   5   6
ATOM      6  C   UNL     1      -5.706  -3.194   8.755  1.00  0.00     0.006 C 
BRANCH   6   7
ATOM      7  C   UNL     1      -4.746  -4.330   9.128  1.00  0.00     0.053 C 
BRANCH   7   8
ATOM      8  C   UNL     1      -3.543  -3.788   9.833  1.00  0.00     0.041 C 
ATOM      9  O   UNL     1      -3.157  -4.305  10.915  1.00  0.00    -0.550 OA
ATOM     10  O   UNL     1      -2.879  -2.680   9.324  1.00  0.00    -0.550 OA
ENDBRANCH   7   8
ENDBRANCH   6   7
ENDBRANCH   5   6
ENDBRANCH   4   5
ENDBRANCH   3   4
ENDBRANCH   2   3
ENDBRANCH   1   2
BRANCH   1  11
ATOM     11  C   UNL     1      -5.842   2.140  12.520  1.00  0.00     0.000 C 
BRANCH  11  12
ATOM     12  C   UNL     1      -4.999   1.729  13.733  1.00  0.00    -0.000 C 
BRANCH  12  13
ATOM     13  C   UNL     1      -5.260   0.267  14.117  1.00  0.00    -0.000 C 
BRANCH  13  14
ATOM     14  C   UNL     1      -3.941  -0.506  14.267  1.00  0.00    -0.000 C 
BRANCH  14  15
ATOM     15  C   UNL     1      -3.561  -1.278  12.994  1.00  0.00    -0.000 C 
BRANCH  15  16
ATOM     16  C   UNL     1      -2.235  -0.793  12.382  1.00  0.00    -0.000 C 
BRANCH  16  17
ATOM     17  C   UNL     1      -2.443   0.296  11.318  1.00  0.00    -0.003 C 
ATOM     18  C   UNL     1      -1.886   1.654  11.745  1.00  0.00     0.004 C 
ENDBRANCH  16  17
ENDBRANCH  15  16
ENDBRANCH  14  15
ENDBRANCH  13  14
ENDBRANCH  12  13
ENDBRANCH  11  12
ENDBRANCH   1  11
TORSDOF 14
ENDMDL
MODEL 7
REMARK VINA RESULT:    -5.331      5.340      7.163
REMARK INTER + INTRA:         -11.175
REMARK INTER:                  -8.965
REMARK INTRA:                  -2.210
REMARK UNBOUND:                -1.481
REMARK SMILES CCCCCCCCCCCCCCCC(=O)[O-]
REMARK SMILES IDX 9 1 10 2 11 3 12 4 13 5 14 6 15 7 16 8 17 9 18 10 8 11 7 12
REMARK SMILES IDX 6 13 5 14 4 15 3 16 2 17 1 18
REMARK H PARENT
REMARK Flexibility Score: inf
ROOT
ATOM      1  C   UNL     1      -7.006  -1.959  10.824  1.00  0.00     0.000 C 
ENDROOT
BRANCH   1   2
ATOM      2  C   UNL     1      -5.732  -1.105  10.913  1.00  0.00     0.000 C 
BRANCH   2   3
ATOM      3  C   UNL     1      -6.024   0.404  10.869  1.00  0.00     0.000 C 
BRANCH   3   4
ATOM      4  C   UNL     1      -5.687   1.030   9.504  1.00  0.00     0.000 C 
BRANCH   4   5
ATOM      5  C   UNL     1      -4.364   0.508   8.915  1.00  0.00     0.000 C 
BRANCH   5   6
ATOM      6  C   UNL     1      -3.447   1.586   8.309  1.00  0.00     0.006 C 
BRANCH   6   7
ATOM      7  C   UNL     1      -1.996   1.116   8.146  1.00  0.00     0.053 C 
BRANCH   7   8
ATOM      8  C   UNL     1      -1.230   2.072   7.288  1.00  0.00     0.041 C 
ATOM      9  O   UNL     1      -0.333   2.798   7.793  1.00  0.00    -0.550 OA
ATOM     10  O   UNL     1      -1.539   2.198   5.940  1.00  0.00    -0.550 OA
ENDBRANCH   7   8
ENDBRANCH   6   7
ENDBRANCH   5   6
ENDBRANCH   4   5
ENDBRANCH   3   4
ENDBRANCH   2   3
ENDBRANCH   1   2
BRANCH   1  11
ATOM     11  C   UNL     1      -6.846  -3.076   9.785  1.00  0.00     0.000 C 
BRANCH  11  12
ATOM     12  C   UNL     1      -6.338  -2.520   8.450  1.00  0.00    -0.000 C 
BRANCH  12  13
ATOM     13  C   UNL     1      -4.996  -3.154   8.064  1.00  0.00    -0.000 C 
BRANCH  13  14
ATOM     14  C   UNL     1      -4.549  -4.179   9.116  1.00  0.00    -0.000 C 
BRANCH  14  15
ATOM     15  C   UNL     1      -3.226  -3.790   9.795  1.00  0.00    -0.000 C 
BRANCH  15  16
ATOM     16  C   UNL     1      -2.516  -2.625   9.083  1.00  0.00    -0.000 C 
BRANCH  16  17
ATOM     17  C   UNL     1      -1.454  -1.956   9.969  1.00  0.00    -0.003 C 
ATOM     18  C   UNL     1      -2.058  -1.253  11.185  1.00  0.00     0.004 C 
ENDBRANCH  16  17
ENDBRANCH  15  16
ENDBRANCH  14  15
ENDBRANCH  13  14
ENDBRANCH  12  13
ENDBRANCH  11  12
ENDBRANCH   1  11
TORSDOF 14
ENDMDL
MODEL 8
REMARK VINA RESULT:    -5.311      4.440      6.376
REMARK INTER + INTRA:         -11.139
REMARK INTER:                  -8.722
REMARK INTRA:                  -2.417
REMARK UNBOUND:                -1.481
REMARK SMILES CCCCCCCCCCCCCCCC(=O)[O-]
REMARK SMILES IDX 9 1 10 2 11 3 12 4 13 5 14 6 15 7 16 8 17 9 18 10 8 11 7 12
REMARK SMILES IDX 6 13 5 14 4 15 3 16 2 17 1 18
REMARK H PARENT
REMARK Flexibility Score: inf
ROOT
ATOM      1  C   UNL     1      -4.308  -3.485   9.903  1.00  0.00     0.000 C 
ENDROOT
BRANCH   1   2
ATOM      2  C   UNL     1      -3.806  -2.765   8.643  1.00  0.00     0.000 C 
BRANCH   2   3
ATOM      3  C   UNL     1      -2.311  -2.415   8.714  1.00  0.00     0.000 C 
BRANCH   3   4
ATOM      4  C   UNL     1      -2.058  -0.897   8.689  1.00  0.00     0.000 C 
BRANCH   4   5
ATOM      5  C   UNL     1      -3.330  -0.073   8.965  1.00  0.00     0.000 C 
BRANCH   5   6
ATOM      6  C   UNL     1      -3.241   1.415   8.582  1.00  0.00     0.006 C 
BRANCH   6   7
ATOM      7  C   UNL     1      -1.946   2.081   9.065  1.00  0.00     0.053 C 
BRANCH   7   8
ATOM      8  C   UNL     1      -1.373   2.949   7.990  1.00  0.00     0.041 C 
ATOM      9  O   UNL     1      -2.113   3.752   7.362  1.00  0.00    -0.550 OA
ATOM     10  O   UNL     1      -0.032   2.837   7.646  1.00  0.00    -0.550 OA
ENDBRANCH   7   8
ENDBRANCH   6   7
ENDBRANCH   5   6
ENDBRANCH   4   5
ENDBRANCH   3   4
ENDBRANCH   2   3
ENDBRANCH   1   2
BRANCH   1  11
ATOM     11  C   UNL     1      -3.146  -3.811  10.849  1.00  0.00     0.000 C 
BRANCH  11  12
ATOM     12  C   UNL     1      -3.595  -3.754  12.314  1.00  0.00    -0.000 C 
BRANCH  12  13
ATOM     13  C   UNL     1      -4.217  -2.392  12.648  1.00  0.00    -0.000 C 
BRANCH  13  14
ATOM     14  C   UNL     1      -3.206  -1.487  13.367  1.00  0.00    -0.000 C 
BRANCH  14  15
ATOM     15  C   UNL     1      -2.767  -0.291  12.508  1.00  0.00    -0.000 C 
BRANCH  15  16
ATOM     16  C   UNL     1      -1.255  -0.288  12.227  1.00  0.00    -0.000 C 
BRANCH  16  17
ATOM     17  C   UNL     1      -0.562  -1.565  12.727  1.00  0.00    -0.003 C 
ATOM     18  C   UNL     1       0.120  -2.345  11.603  1.00  0.00     0.004 C 
ENDBRANCH  16  17
ENDBRANCH  15  16
ENDBRANCH  14  15
ENDBRANCH  13  14
ENDBRANCH  12  13
ENDBRANCH  11  12
ENDBRANCH   1  11
TORSDOF 14
ENDMDL
MODEL 9
REMARK VINA RESULT:    -5.305      3.859      5.911
REMARK INTER + INTRA:         -11.127
REMARK INTER:                  -8.881
REMARK INTRA:                  -2.246
REMARK UNBOUND:                -1.481
REMARK SMILES CCCCCCCCCCCCCCCC(=O)[O-]
REMARK SMILES IDX 9 1 10 2 11 3 12 4 13 5 14 6 15 7 16 8 17 9 18 10 8 11 7 12
REMARK SMILES IDX 6 13 5 14 4 15 3 16 2 17 1 18
REMARK H PARENT
REMARK Flexibility Score: inf
ROOT
ATOM      1  C   UNL     1      -1.297  -0.471  12.524  1.00  0.00     0.000 C 
ENDROOT
BRANCH   1   2
ATOM      2  C   UNL     1      -2.042  -0.520  13.866  1.00  0.00     0.000 C 
BRANCH   2   3
ATOM      3  C   UNL     1      -3.524  -0.130  13.739  1.00  0.00     0.000 C 
BRANCH   3   4
ATOM      4  C   UNL     1      -4.463  -1.344  13.837  1.00  0.00     0.000 C 
BRANCH   4   5
ATOM      5  C   UNL     1      -5.317  -1.546  12.571  1.00  0.00     0.000 C 
BRANCH   5   6
ATOM      6  C   UNL     1      -5.092  -0.506  11.458  1.00  0.00     0.006 C 
BRANCH   6   7
ATOM      7  C   UNL     1      -6.362   0.279  11.106  1.00  0.00     0.053 C 
BRANCH   7   8
ATOM      8  C   UNL     1      -6.648   1.307  12.155  1.00  0.00     0.041 C 
ATOM      9  O   UNL     1      -7.529   1.093  13.029  1.00  0.00    -0.550 OA
ATOM     10  O   UNL     1      -5.976   2.523  12.138  1.00  0.00    -0.550 OA
ENDBRANCH   7   8
ENDBRANCH   6   7
ENDBRANCH   5   6
ENDBRANCH   4   5
ENDBRANCH   3   4
ENDBRANCH   2   3
ENDBRANCH   1   2
BRANCH   1  11
ATOM     11  C   UNL     1      -0.219  -1.559  12.455  1.00  0.00     0.000 C 
BRANCH  11  12
ATOM     12  C   UNL     1      -0.658  -2.714  11.547  1.00  0.00    -0.000 C 
BRANCH  12  13
ATOM     13  C   UNL     1      -1.477  -3.749  12.327  1.00  0.00    -0.000 C 
BRANCH  13  14
ATOM     14  C   UNL     1      -2.854  -3.960  11.681  1.00  0.00    -0.000 C 
BRANCH  14  15
ATOM     15  C   UNL     1      -2.947  -3.352  10.273  1.00  0.00    -0.000 C 
BRANCH  15  16
ATOM     16  C   UNL     1      -4.109  -3.936   9.452  1.00  0.00    -0.000 C 
BRANCH  16  17
ATOM     17  C   UNL     1      -4.595  -2.975   8.356  1.00  0.00    -0.003 C 
ATOM     18  C   UNL     1      -6.063  -2.582   8.522  1.00  0.00     0.004 C 
ENDBRANCH  16  17
ENDBRANCH  15  16
ENDBRANCH  14  15
ENDBRANCH  13  14
ENDBRANCH  12  13
ENDBRANCH  11  12
ENDBRANCH   1  11
TORSDOF 14
ENDMDL
