MODEL 1
REMARK VINA RESULT:    -2.032      0.000      0.000
REMARK INTER + INTRA:          -4.051
REMARK INTER:                  -2.507
REMARK INTRA:                  -1.543
REMARK UNBOUND:                -1.543
REMARK SMILES CC(C)=CCC[C@@H](C)c1ccc(C)cc1
REMARK SMILES IDX 6 1 7 2 8 3 9 4 13 5 12 6 11 7 14 8 10 9 15 10 5 11 4 12
REMARK SMILES IDX 2 13 1 14 3 15
REMARK H PARENT
REMARK Flexibility Score: inf
ROOT
ATOM      1  C   UNL     1      51.652  34.712  28.420  1.00  0.00     0.012 C 
ENDROOT
BRANCH   1   2
ATOM      2  C   UNL     1      52.972  33.968  28.129  1.00  0.00     0.016 C 
ATOM      3  C   UNL     1      54.103  34.495  29.021  1.00  0.00     0.013 C 
BRANCH   2   4
ATOM      4  C   UNL     1      52.823  32.465  28.294  1.00  0.00    -0.045 A 
ATOM      5  C   UNL     1      52.456  28.184  28.741  1.00  0.00     0.044 C 
ATOM      6  C   UNL     1      52.595  29.666  28.560  1.00  0.00    -0.051 A 
ATOM      7  C   UNL     1      51.542  30.412  28.011  1.00  0.00     0.004 A 
ATOM      8  C   UNL     1      53.751  30.328  28.999  1.00  0.00     0.004 A 
ATOM      9  C   UNL     1      51.656  31.799  27.875  1.00  0.00     0.004 A 
ATOM     10  C   UNL     1      53.867  31.714  28.861  1.00  0.00     0.004 A 
ENDBRANCH   2   4
ENDBRANCH   1   2
BRANCH   1  11
ATOM     11  C   UNL     1      51.463  34.988  29.920  1.00  0.00     0.028 C 
BRANCH  11  12
ATOM     12  C   UNL     1      50.449  34.043  30.512  1.00  0.00    -0.028 C 
ATOM     13  C   UNL     1      50.746  33.071  31.404  1.00  0.00    -0.080 C 
ATOM     14  C   UNL     1      49.624  32.221  31.941  1.00  0.00     0.039 C 
ATOM     15  C   UNL     1      52.163  32.806  31.858  1.00  0.00     0.039 C 
ENDBRANCH  11  12
ENDBRANCH   1  11
TORSDOF 4
ENDMDL
MODEL 2
REMARK VINA RESULT:    -1.750      1.237      4.176
REMARK INTER + INTRA:          -3.702
REMARK INTER:                  -2.130
REMARK INTRA:                  -1.573
REMARK UNBOUND:                -1.543
REMARK SMILES CC(C)=CCC[C@@H](C)c1ccc(C)cc1
REMARK SMILES IDX 6 1 7 2 8 3 9 4 13 5 12 6 11 7 14 8 10 9 15 10 5 11 4 12
REMARK SMILES IDX 2 13 1 14 3 15
REMARK H PARENT
REMARK Flexibility Score: inf
ROOT
ATOM      1  C   UNL     1      53.160  30.065  29.336  1.00  0.00     0.012 C 
ENDROOT
BRANCH   1   2
ATOM      2  C   UNL     1      52.131  30.380  28.230  1.00  0.00     0.016 C 
ATOM      3  C   UNL     1      50.839  29.582  28.446  1.00  0.00     0.013 C 
BRANCH   2   4
ATOM      4  C   UNL     1      51.830  31.866  28.144  1.00  0.00    -0.045 A 
ATOM      5  C   UNL     1      51.015  36.104  27.944  1.00  0.00     0.044 C 
ATOM      6  C   UNL     1      51.298  34.635  28.042  1.00  0.00    -0.051 A 
ATOM      7  C   UNL     1      50.242  33.712  28.054  1.00  0.00     0.004 A 
ATOM      8  C   UNL     1      52.620  34.167  28.055  1.00  0.00     0.004 A 
ATOM      9  C   UNL     1      50.504  32.340  28.109  1.00  0.00     0.004 A 
ATOM     10  C   UNL     1      52.883  32.796  28.112  1.00  0.00     0.004 A 
ENDBRANCH   2   4
ENDBRANCH   1   2
BRANCH   1  11
ATOM     11  C   UNL     1      52.578  30.270  30.743  1.00  0.00     0.028 C 
BRANCH  11  12
ATOM     12  C   UNL     1      53.235  31.443  31.427  1.00  0.00    -0.028 C 
ATOM     13  C   UNL     1      52.572  32.538  31.862  1.00  0.00    -0.080 C 
ATOM     14  C   UNL     1      53.355  33.619  32.562  1.00  0.00     0.039 C 
ATOM     15  C   UNL     1      51.086  32.712  31.651  1.00  0.00     0.039 C 
ENDBRANCH  11  12
ENDBRANCH   1  11
TORSDOF 4
ENDMDL
MODEL 3
REMARK VINA RESULT:    -1.703      0.810      1.554
REMARK INTER + INTRA:          -3.645
REMARK INTER:                  -2.085
REMARK INTRA:                  -1.560
REMARK UNBOUND:                -1.543
REMARK SMILES CC(C)=CCC[C@@H](C)c1ccc(C)cc1
REMARK SMILES IDX 6 1 7 2 8 3 9 4 13 5 12 6 11 7 14 8 10 9 15 10 5 11 4 12
REMARK SMILES IDX 2 13 1 14 3 15
REMARK H PARENT
REMARK Flexibility Score: inf
ROOT
ATOM      1  C   UNL     1      51.395  34.217  29.314  1.00  0.00     0.012 C 
ENDROOT
BRANCH   1   2
ATOM      2  C   UNL     1      52.562  33.696  28.448  1.00  0.00     0.016 C 
ATOM      3  C   UNL     1      53.887  34.338  28.876  1.00  0.00     0.013 C 
BRANCH   2   4
ATOM      4  C   UNL     1      52.667  32.181  28.492  1.00  0.00    -0.045 A 
ATOM      5  C   UNL     1      52.910  27.871  28.645  1.00  0.00     0.044 C 
ATOM      6  C   UNL     1      52.817  29.367  28.619  1.00  0.00    -0.051 A 
ATOM      7  C   UNL     1      53.921  30.150  28.981  1.00  0.00     0.004 A 
ATOM      8  C   UNL     1      51.646  29.995  28.169  1.00  0.00     0.004 A 
ATOM      9  C   UNL     1      53.847  31.545  28.923  1.00  0.00     0.004 A 
ATOM     10  C   UNL     1      51.570  31.389  28.113  1.00  0.00     0.004 A 
ENDBRANCH   2   4
ENDBRANCH   1   2
BRANCH   1  11
ATOM     11  C   UNL     1      51.573  33.859  30.798  1.00  0.00     0.028 C 
BRANCH  11  12
ATOM     12  C   UNL     1      50.469  32.943  31.262  1.00  0.00    -0.028 C 
ATOM     13  C   UNL     1      50.673  31.744  31.854  1.00  0.00    -0.080 C 
ATOM     14  C   UNL     1      49.473  30.949  32.299  1.00  0.00     0.039 C 
ATOM     15  C   UNL     1      52.059  31.179  32.061  1.00  0.00     0.039 C 
ENDBRANCH  11  12
ENDBRANCH   1  11
TORSDOF 4
ENDMDL
MODEL 4
REMARK VINA RESULT:    -1.665      1.741      4.129
REMARK INTER + INTRA:          -3.598
REMARK INTER:                  -2.051
REMARK INTRA:                  -1.546
REMARK UNBOUND:                -1.543
REMARK SMILES CC(C)=CCC[C@@H](C)c1ccc(C)cc1
REMARK SMILES IDX 6 1 7 2 8 3 9 4 13 5 12 6 11 7 14 8 10 9 15 10 5 11 4 12
REMARK SMILES IDX 2 13 1 14 3 15
REMARK H PARENT
REMARK Flexibility Score: inf
ROOT
ATOM      1  C   UNL     1      53.739  32.393  28.067  1.00  0.00     0.012 C 
ENDROOT
BRANCH   1   2
ATOM      2  C   UNL     1      52.544  31.421  28.161  1.00  0.00     0.016 C 
ATOM      3  C   UNL     1      52.857  30.265  29.120  1.00  0.00     0.013 C 
BRANCH   2   4
ATOM      4  C   UNL     1      51.269  32.131  28.583  1.00  0.00    -0.045 A 
ATOM      5  C   UNL     1      47.614  34.092  29.791  1.00  0.00     0.044 C 
ATOM      6  C   UNL     1      48.868  33.394  29.355  1.00  0.00    -0.051 A 
ATOM      7  C   UNL     1      49.600  33.876  28.261  1.00  0.00     0.004 A 
ATOM      8  C   UNL     1      49.354  32.294  30.077  1.00  0.00     0.004 A 
ATOM      9  C   UNL     1      50.788  33.248  27.875  1.00  0.00     0.004 A 
ATOM     10  C   UNL     1      50.540  31.664  29.691  1.00  0.00     0.004 A 
ENDBRANCH   2   4
ENDBRANCH   1   2
BRANCH   1  11
ATOM     11  C   UNL     1      54.096  33.004  29.431  1.00  0.00     0.028 C 
BRANCH  11  12
ATOM     12  C   UNL     1      53.924  34.502  29.407  1.00  0.00    -0.028 C 
ATOM     13  C   UNL     1      53.115  35.189  30.244  1.00  0.00    -0.080 C 
ATOM     14  C   UNL     1      53.070  36.691  30.128  1.00  0.00     0.039 C 
ATOM     15  C   UNL     1      52.249  34.495  31.269  1.00  0.00     0.039 C 
ENDBRANCH  11  12
ENDBRANCH   1  11
TORSDOF 4
ENDMDL
MODEL 5
REMARK VINA RESULT:    -1.661      1.252      1.984
REMARK INTER + INTRA:          -3.592
REMARK INTER:                  -2.032
REMARK INTRA:                  -1.560
REMARK UNBOUND:                -1.543
REMARK SMILES CC(C)=CCC[C@@H](C)c1ccc(C)cc1
REMARK SMILES IDX 6 1 7 2 8 3 9 4 13 5 12 6 11 7 14 8 10 9 15 10 5 11 4 12
REMARK SMILES IDX 2 13 1 14 3 15
REMARK H PARENT
REMARK Flexibility Score: inf
ROOT
ATOM      1  C   UNL     1      51.451  35.052  28.982  1.00  0.00     0.012 C 
ENDROOT
BRANCH   1   2
ATOM      2  C   UNL     1      52.092  34.085  27.964  1.00  0.00     0.016 C 
ATOM      3  C   UNL     1      53.610  34.007  28.168  1.00  0.00     0.013 C 
BRANCH   2   4
ATOM      4  C   UNL     1      51.475  32.698  28.033  1.00  0.00    -0.045 A 
ATOM      5  C   UNL     1      49.683  28.775  28.278  1.00  0.00     0.044 C 
ATOM      6  C   UNL     1      50.306  30.138  28.221  1.00  0.00    -0.051 A 
ATOM      7  C   UNL     1      51.698  30.274  28.119  1.00  0.00     0.004 A 
ATOM      8  C   UNL     1      49.500  31.286  28.204  1.00  0.00     0.004 A 
ATOM      9  C   UNL     1      52.279  31.543  28.030  1.00  0.00     0.004 A 
ATOM     10  C   UNL     1      50.079  32.554  28.117  1.00  0.00     0.004 A 
ENDBRANCH   2   4
ENDBRANCH   1   2
BRANCH   1  11
ATOM     11  C   UNL     1      52.044  34.885  30.390  1.00  0.00     0.028 C 
BRANCH  11  12
ATOM     12  C   UNL     1      51.173  33.989  31.233  1.00  0.00    -0.028 C 
ATOM     13  C   UNL     1      51.581  32.817  31.770  1.00  0.00    -0.080 C 
ATOM     14  C   UNL     1      50.611  32.042  32.623  1.00  0.00     0.039 C 
ATOM     15  C   UNL     1      52.965  32.262  31.523  1.00  0.00     0.039 C 
ENDBRANCH  11  12
ENDBRANCH   1  11
TORSDOF 4
ENDMDL
MODEL 6
REMARK VINA RESULT:    -1.623      1.888      4.554
REMARK INTER + INTRA:          -3.545
REMARK INTER:                  -2.048
REMARK INTRA:                  -1.498
REMARK UNBOUND:                -1.543
REMARK SMILES CC(C)=CCC[C@@H](C)c1ccc(C)cc1
REMARK SMILES IDX 6 1 7 2 8 3 9 4 13 5 12 6 11 7 14 8 10 9 15 10 5 11 4 12
REMARK SMILES IDX 2 13 1 14 3 15
REMARK H PARENT
REMARK Flexibility Score: inf
ROOT
ATOM      1  C   UNL     1      53.831  32.656  30.438  1.00  0.00     0.012 C 
ENDROOT
BRANCH   1   2
ATOM      2  C   UNL     1      53.896  33.389  29.081  1.00  0.00     0.016 C 
ATOM      3  C   UNL     1      53.583  32.427  27.928  1.00  0.00     0.013 C 
BRANCH   2   4
ATOM      4  C   UNL     1      52.963  34.588  29.040  1.00  0.00    -0.045 A 
ATOM      5  C   UNL     1      50.305  37.992  28.986  1.00  0.00     0.044 C 
ATOM      6  C   UNL     1      51.209  36.796  29.021  1.00  0.00    -0.051 A 
ATOM      7  C   UNL     1      51.104  35.802  28.039  1.00  0.00     0.004 A 
ATOM      8  C   UNL     1      52.211  36.695  29.998  1.00  0.00     0.004 A 
ATOM      9  C   UNL     1      51.970  34.705  28.050  1.00  0.00     0.004 A 
ATOM     10  C   UNL     1      53.076  35.598  30.011  1.00  0.00     0.004 A 
ENDBRANCH   2   4
ENDBRANCH   1   2
BRANCH   1  11
ATOM     11  C   UNL     1      52.630  31.701  30.523  1.00  0.00     0.028 C 
BRANCH  11  12
ATOM     12  C   UNL     1      51.438  32.396  31.130  1.00  0.00    -0.028 C 
ATOM     13  C   UNL     1      50.225  32.483  30.538  1.00  0.00    -0.080 C 
ATOM     14  C   UNL     1      49.113  33.179  31.279  1.00  0.00     0.039 C 
ATOM     15  C   UNL     1      49.966  31.924  29.159  1.00  0.00     0.039 C 
ENDBRANCH  11  12
ENDBRANCH   1  11
TORSDOF 4
ENDMDL
MODEL 7
REMARK VINA RESULT:    -1.532      1.529      2.675
REMARK INTER + INTRA:          -3.433
REMARK INTER:                  -1.951
REMARK INTRA:                  -1.482
REMARK UNBOUND:                -1.543
REMARK SMILES CC(C)=CCC[C@@H](C)c1ccc(C)cc1
REMARK SMILES IDX 6 1 7 2 8 3 9 4 13 5 12 6 11 7 14 8 10 9 15 10 5 11 4 12
REMARK SMILES IDX 2 13 1 14 3 15
REMARK H PARENT
REMARK Flexibility Score: inf
ROOT
ATOM      1  C   UNL     1      49.881  35.883  28.085  1.00  0.00     0.012 C 
ENDROOT
BRANCH   1   2
ATOM      2  C   UNL     1      51.417  35.926  28.225  1.00  0.00     0.016 C 
ATOM      3  C   UNL     1      51.831  36.807  29.411  1.00  0.00     0.013 C 
BRANCH   2   4
ATOM      4  C   UNL     1      52.013  34.535  28.364  1.00  0.00    -0.045 A 
ATOM      5  C   UNL     1      53.650  30.559  28.777  1.00  0.00     0.044 C 
ATOM      6  C   UNL     1      53.069  31.936  28.659  1.00  0.00    -0.051 A 
ATOM      7  C   UNL     1      53.783  33.047  29.128  1.00  0.00     0.004 A 
ATOM      8  C   UNL     1      51.836  32.132  28.018  1.00  0.00     0.004 A 
ATOM      9  C   UNL     1      53.259  34.335  28.987  1.00  0.00     0.004 A 
ATOM     10  C   UNL     1      51.310  33.419  27.878  1.00  0.00     0.004 A 
ENDBRANCH   2   4
ENDBRANCH   1   2
BRANCH   1  11
ATOM     11  C   UNL     1      49.171  36.067  29.435  1.00  0.00     0.028 C 
BRANCH  11  12
ATOM     12  C   UNL     1      48.400  34.826  29.806  1.00  0.00    -0.028 C 
ATOM     13  C   UNL     1      48.817  33.913  30.711  1.00  0.00    -0.080 C 
ATOM     14  C   UNL     1      47.924  32.737  31.009  1.00  0.00     0.039 C 
ATOM     15  C   UNL     1      50.152  34.030  31.410  1.00  0.00     0.039 C 
ENDBRANCH  11  12
ENDBRANCH   1  11
TORSDOF 4
ENDMDL
MODEL 8
REMARK VINA RESULT:    -1.527      1.698      2.911
REMARK INTER + INTRA:          -3.428
REMARK INTER:                  -1.884
REMARK INTRA:                  -1.544
REMARK UNBOUND:                -1.543
REMARK SMILES CC(C)=CCC[C@@H](C)c1ccc(C)cc1
REMARK SMILES IDX 6 1 7 2 8 3 9 4 13 5 12 6 11 7 14 8 10 9 15 10 5 11 4 12
REMARK SMILES IDX 2 13 1 14 3 15
REMARK H PARENT
REMARK Flexibility Score: inf
ROOT
ATOM      1  C   UNL     1      53.745  32.883  28.386  1.00  0.00     0.012 C 
ENDROOT
BRANCH   1   2
ATOM      2  C   UNL     1      53.394  31.380  28.423  1.00  0.00     0.016 C 
ATOM      3  C   UNL     1      54.121  30.680  29.578  1.00  0.00     0.013 C 
BRANCH   2   4
ATOM      4  C   UNL     1      51.895  31.151  28.523  1.00  0.00    -0.045 A 
ATOM      5  C   UNL     1      47.643  30.439  28.796  1.00  0.00     0.044 C 
ATOM      6  C   UNL     1      49.120  30.670  28.678  1.00  0.00    -0.051 A 
ATOM      7  C   UNL     1      49.608  31.770  27.958  1.00  0.00     0.004 A 
ATOM      8  C   UNL     1      50.024  29.827  29.341  1.00  0.00     0.004 A 
ATOM      9  C   UNL     1      50.983  32.007  27.877  1.00  0.00     0.004 A 
ATOM     10  C   UNL     1      51.399  30.062  29.259  1.00  0.00     0.004 A 
ENDBRANCH   2   4
ENDBRANCH   1   2
BRANCH   1  11
ATOM     11  C   UNL     1      53.874  33.482  29.795  1.00  0.00     0.028 C 
BRANCH  11  12
ATOM     12  C   UNL     1      52.671  34.328  30.128  1.00  0.00    -0.028 C 
ATOM     13  C   UNL     1      51.737  33.994  31.047  1.00  0.00    -0.080 C 
ATOM     14  C   UNL     1      50.605  34.955  31.301  1.00  0.00     0.039 C 
ATOM     15  C   UNL     1      51.789  32.687  31.803  1.00  0.00     0.039 C 
ENDBRANCH  11  12
ENDBRANCH   1  11
TORSDOF 4
ENDMDL
MODEL 9
REMARK VINA RESULT:    -1.522      1.814      4.485
REMARK INTER + INTRA:          -3.421
REMARK INTER:                  -1.892
REMARK INTRA:                  -1.529
REMARK UNBOUND:                -1.543
REMARK SMILES CC(C)=CCC[C@@H](C)c1ccc(C)cc1
REMARK SMILES IDX 6 1 7 2 8 3 9 4 13 5 12 6 11 7 14 8 10 9 15 10 5 11 4 12
REMARK SMILES IDX 2 13 1 14 3 15
REMARK H PARENT
REMARK Flexibility Score: inf
ROOT
ATOM      1  C   UNL     1      51.603  28.748  31.009  1.00  0.00     0.012 C 
ENDROOT
BRANCH   1   2
ATOM      2  C   UNL     1      52.804  28.933  30.059  1.00  0.00     0.016 C 
ATOM      3  C   UNL     1      52.551  28.231  28.718  1.00  0.00     0.013 C 
BRANCH   2   4
ATOM      4  C   UNL     1      53.131  30.400  29.837  1.00  0.00    -0.045 A 
ATOM      5  C   UNL     1      54.106  34.554  29.167  1.00  0.00     0.044 C 
ATOM      6  C   UNL     1      53.795  33.106  29.402  1.00  0.00    -0.051 A 
ATOM      7  C   UNL     1      53.539  32.641  30.700  1.00  0.00     0.004 A 
ATOM      8  C   UNL     1      53.692  32.219  28.320  1.00  0.00     0.004 A 
ATOM      9  C   UNL     1      53.214  31.299  30.917  1.00  0.00     0.004 A 
ATOM     10  C   UNL     1      53.370  30.877  28.537  1.00  0.00     0.004 A 
ENDBRANCH   2   4
ENDBRANCH   1   2
BRANCH   1  11
ATOM     11  C   UNL     1      50.259  28.902  30.279  1.00  0.00     0.028 C 
BRANCH  11  12
ATOM     12  C   UNL     1      49.707  30.293  30.465  1.00  0.00    -0.028 C 
ATOM     13  C   UNL     1      49.501  31.171  29.458  1.00  0.00    -0.080 C 
ATOM     14  C   UNL     1      48.909  32.517  29.788  1.00  0.00     0.039 C 
ATOM     15  C   UNL     1      49.865  30.848  28.027  1.00  0.00     0.039 C 
ENDBRANCH  11  12
ENDBRANCH   1  11
TORSDOF 4
ENDMDL
