MODEL 1
REMARK VINA RESULT:    -3.764      0.000      0.000
REMARK INTER + INTRA:          -5.244
REMARK INTER:                  -4.865
REMARK INTRA:                  -0.379
REMARK UNBOUND:                -0.379
REMARK SMILES CCCCCCC(=O)[O-]
REMARK SMILES IDX 5 1 6 2 7 3 8 4 9 5 4 6 3 7 2 8 1 9
REMARK H PARENT
REMARK Flexibility Score: inf
ROOT
ATOM      1  C   UNL     1      20.109  20.551  47.135  1.00  0.00     0.006 C 
ENDROOT
BRANCH   1   2
ATOM      2  C   UNL     1      19.173  20.262  48.312  1.00  0.00     0.053 C 
BRANCH   2   3
ATOM      3  C   UNL     1      19.807  20.680  49.601  1.00  0.00     0.041 C 
ATOM      4  O   UNL     1      20.660  19.939  50.156  1.00  0.00    -0.550 OA
ATOM      5  O   UNL     1      19.418  21.864  50.215  1.00  0.00    -0.550 OA
ENDBRANCH   2   3
ENDBRANCH   1   2
BRANCH   1   6
ATOM      6  C   UNL     1      20.652  19.247  46.532  1.00  0.00     0.000 C 
BRANCH   6   7
ATOM      7  C   UNL     1      19.744  18.040  46.815  1.00  0.00    -0.000 C 
BRANCH   7   8
ATOM      8  C   UNL     1      20.531  16.799  47.260  1.00  0.00    -0.003 C 
ATOM      9  C   UNL     1      21.729  17.187  48.122  1.00  0.00     0.004 C 
ENDBRANCH   7   8
ENDBRANCH   6   7
ENDBRANCH   1   6
TORSDOF 5
ENDMDL
MODEL 2
REMARK VINA RESULT:    -3.715      2.509      2.910
REMARK INTER + INTRA:          -5.181
REMARK INTER:                  -4.860
REMARK INTRA:                  -0.320
REMARK UNBOUND:                -0.379
REMARK SMILES CCCCCCC(=O)[O-]
REMARK SMILES IDX 5 1 6 2 7 3 8 4 9 5 4 6 3 7 2 8 1 9
REMARK H PARENT
REMARK Flexibility Score: inf
ROOT
ATOM      1  C   UNL     1      19.900  20.373  48.282  1.00  0.00     0.006 C 
ENDROOT
BRANCH   1   2
ATOM      2  C   UNL     1      18.638  20.242  47.423  1.00  0.00     0.053 C 
BRANCH   2   3
ATOM      3  C   UNL     1      18.808  20.973  46.129  1.00  0.00     0.041 C 
ATOM      4  O   UNL     1      19.605  20.539  45.257  1.00  0.00    -0.550 OA
ATOM      5  O   UNL     1      18.122  22.161  45.906  1.00  0.00    -0.550 OA
ENDBRANCH   2   3
ENDBRANCH   1   2
BRANCH   1   6
ATOM      6  C   UNL     1      20.408  18.993  48.724  1.00  0.00     0.000 C 
BRANCH   6   7
ATOM      7  C   UNL     1      21.238  18.291  47.637  1.00  0.00    -0.000 C 
BRANCH   7   8
ATOM      8  C   UNL     1      20.922  16.793  47.526  1.00  0.00    -0.003 C 
ATOM      9  C   UNL     1      19.599  16.563  46.799  1.00  0.00     0.004 C 
ENDBRANCH   7   8
ENDBRANCH   6   7
ENDBRANCH   1   6
TORSDOF 5
ENDMDL
MODEL 3
REMARK VINA RESULT:    -3.703      2.580      3.207
REMARK INTER + INTRA:          -5.164
REMARK INTER:                  -4.777
REMARK INTRA:                  -0.387
REMARK UNBOUND:                -0.379
REMARK SMILES CCCCCCC(=O)[O-]
REMARK SMILES IDX 5 1 6 2 7 3 8 4 9 5 4 6 3 7 2 8 1 9
REMARK H PARENT
REMARK Flexibility Score: inf
ROOT
ATOM      1  C   UNL     1      21.116  19.019  46.868  1.00  0.00     0.006 C 
ENDROOT
BRANCH   1   2
ATOM      2  C   UNL     1      20.260  20.271  47.080  1.00  0.00     0.053 C 
BRANCH   2   3
ATOM      3  C   UNL     1      19.350  20.488  45.913  1.00  0.00     0.041 C 
ATOM      4  O   UNL     1      19.566  19.896  44.823  1.00  0.00    -0.550 OA
ATOM      5  O   UNL     1      18.293  21.384  46.013  1.00  0.00    -0.550 OA
ENDBRANCH   2   3
ENDBRANCH   1   2
BRANCH   1   6
ATOM      6  C   UNL     1      20.750  17.925  47.881  1.00  0.00     0.000 C 
BRANCH   6   7
ATOM      7  C   UNL     1      20.411  16.585  47.210  1.00  0.00    -0.000 C 
BRANCH   7   8
ATOM      8  C   UNL     1      19.047  16.604  46.506  1.00  0.00    -0.003 C 
ATOM      9  C   UNL     1      17.964  17.167  47.421  1.00  0.00     0.004 C 
ENDBRANCH   7   8
ENDBRANCH   6   7
ENDBRANCH   1   6
TORSDOF 5
ENDMDL
MODEL 4
REMARK VINA RESULT:    -3.670      2.786      3.412
REMARK INTER + INTRA:          -5.122
REMARK INTER:                  -4.938
REMARK INTRA:                  -0.184
REMARK UNBOUND:                -0.379
REMARK SMILES CCCCCCC(=O)[O-]
REMARK SMILES IDX 5 1 6 2 7 3 8 4 9 5 4 6 3 7 2 8 1 9
REMARK H PARENT
REMARK Flexibility Score: inf
ROOT
ATOM      1  C   UNL     1      19.979  20.198  46.789  1.00  0.00     0.006 C 
ENDROOT
BRANCH   1   2
ATOM      2  C   UNL     1      19.458  20.479  45.376  1.00  0.00     0.053 C 
BRANCH   2   3
ATOM      3  C   UNL     1      18.129  21.162  45.433  1.00  0.00     0.041 C 
ATOM      4  O   UNL     1      17.986  22.215  46.109  1.00  0.00    -0.550 OA
ATOM      5  O   UNL     1      17.034  20.609  44.781  1.00  0.00    -0.550 OA
ENDBRANCH   2   3
ENDBRANCH   1   2
BRANCH   1   6
ATOM      6  C   UNL     1      21.085  19.134  46.764  1.00  0.00     0.000 C 
BRANCH   6   7
ATOM      7  C   UNL     1      21.105  18.270  48.036  1.00  0.00    -0.000 C 
BRANCH   7   8
ATOM      8  C   UNL     1      21.066  16.766  47.730  1.00  0.00    -0.003 C 
ATOM      9  C   UNL     1      19.869  16.415  46.851  1.00  0.00     0.004 C 
ENDBRANCH   7   8
ENDBRANCH   6   7
ENDBRANCH   1   6
TORSDOF 5
ENDMDL
MODEL 5
REMARK VINA RESULT:    -3.652      3.035      3.537
REMARK INTER + INTRA:          -5.099
REMARK INTER:                  -4.741
REMARK INTRA:                  -0.358
REMARK UNBOUND:                -0.379
REMARK SMILES CCCCCCC(=O)[O-]
REMARK SMILES IDX 5 1 6 2 7 3 8 4 9 5 4 6 3 7 2 8 1 9
REMARK H PARENT
REMARK Flexibility Score: inf
ROOT
ATOM      1  C   UNL     1      19.592  19.809  47.533  1.00  0.00     0.006 C 
ENDROOT
BRANCH   1   2
ATOM      2  C   UNL     1      20.228  19.853  46.140  1.00  0.00     0.053 C 
BRANCH   2   3
ATOM      3  C   UNL     1      19.172  19.828  45.081  1.00  0.00     0.041 C 
ATOM      4  O   UNL     1      18.511  18.778  44.871  1.00  0.00    -0.550 OA
ATOM      5  O   UNL     1      18.953  20.949  44.291  1.00  0.00    -0.550 OA
ENDBRANCH   2   3
ENDBRANCH   1   2
BRANCH   1   6
ATOM      6  C   UNL     1      20.305  18.787  48.430  1.00  0.00     0.000 C 
BRANCH   6   7
ATOM      7  C   UNL     1      21.411  18.019  47.689  1.00  0.00    -0.000 C 
BRANCH   7   8
ATOM      8  C   UNL     1      21.173  16.502  47.678  1.00  0.00    -0.003 C 
ATOM      9  C   UNL     1      19.930  16.147  46.868  1.00  0.00     0.004 C 
ENDBRANCH   7   8
ENDBRANCH   6   7
ENDBRANCH   1   6
TORSDOF 5
ENDMDL
MODEL 6
REMARK VINA RESULT:    -3.625      2.982      4.527
REMARK INTER + INTRA:          -5.063
REMARK INTER:                  -4.857
REMARK INTRA:                  -0.206
REMARK UNBOUND:                -0.379
REMARK SMILES CCCCCCC(=O)[O-]
REMARK SMILES IDX 5 1 6 2 7 3 8 4 9 5 4 6 3 7 2 8 1 9
REMARK H PARENT
REMARK Flexibility Score: inf
ROOT
ATOM      1  C   UNL     1      21.279  18.048  47.988  1.00  0.00     0.006 C 
ENDROOT
BRANCH   1   2
ATOM      2  C   UNL     1      20.878  16.631  47.567  1.00  0.00     0.053 C 
BRANCH   2   3
ATOM      3  C   UNL     1      21.926  15.645  47.975  1.00  0.00     0.041 C 
ATOM      4  O   UNL     1      21.656  14.417  48.019  1.00  0.00    -0.550 OA
ATOM      5  O   UNL     1      23.186  16.088  48.356  1.00  0.00    -0.550 OA
ENDBRANCH   2   3
ENDBRANCH   1   2
BRANCH   1   6
ATOM      6  C   UNL     1      21.027  19.051  46.853  1.00  0.00     0.000 C 
BRANCH   6   7
ATOM      7  C   UNL     1      20.264  20.299  47.324  1.00  0.00    -0.000 C 
BRANCH   7   8
ATOM      8  C   UNL     1      19.414  20.036  48.576  1.00  0.00    -0.003 C 
ATOM      9  C   UNL     1      19.811  20.971  49.715  1.00  0.00     0.004 C 
ENDBRANCH   7   8
ENDBRANCH   6   7
ENDBRANCH   1   6
TORSDOF 5
ENDMDL
MODEL 7
REMARK VINA RESULT:    -3.586      2.276      2.931
REMARK INTER + INTRA:          -5.013
REMARK INTER:                  -4.913
REMARK INTRA:                  -0.101
REMARK UNBOUND:                -0.379
REMARK SMILES CCCCCCC(=O)[O-]
REMARK SMILES IDX 5 1 6 2 7 3 8 4 9 5 4 6 3 7 2 8 1 9
REMARK H PARENT
REMARK Flexibility Score: inf
ROOT
ATOM      1  C   UNL     1      20.614  19.635  46.783  1.00  0.00     0.006 C 
ENDROOT
BRANCH   1   2
ATOM      2  C   UNL     1      19.620  20.013  45.680  1.00  0.00     0.053 C 
BRANCH   2   3
ATOM      3  C   UNL     1      18.604  20.980  46.198  1.00  0.00     0.041 C 
ATOM      4  O   UNL     1      18.082  21.825  45.424  1.00  0.00    -0.550 OA
ATOM      5  O   UNL     1      18.270  20.982  47.547  1.00  0.00    -0.550 OA
ENDBRANCH   2   3
ENDBRANCH   1   2
BRANCH   1   6
ATOM      6  C   UNL     1      20.480  18.152  47.158  1.00  0.00     0.000 C 
BRANCH   6   7
ATOM      7  C   UNL     1      21.708  17.619  47.914  1.00  0.00    -0.000 C 
BRANCH   7   8
ATOM      8  C   UNL     1      21.736  16.086  47.990  1.00  0.00    -0.003 C 
ATOM      9  C   UNL     1      23.141  15.577  48.301  1.00  0.00     0.004 C 
ENDBRANCH   7   8
ENDBRANCH   6   7
ENDBRANCH   1   6
TORSDOF 5
ENDMDL
MODEL 8
REMARK VINA RESULT:    -3.567      3.213      4.235
REMARK INTER + INTRA:          -4.989
REMARK INTER:                  -4.674
REMARK INTRA:                  -0.315
REMARK UNBOUND:                -0.379
REMARK SMILES CCCCCCC(=O)[O-]
REMARK SMILES IDX 5 1 6 2 7 3 8 4 9 5 4 6 3 7 2 8 1 9
REMARK H PARENT
REMARK Flexibility Score: inf
ROOT
ATOM      1  C   UNL     1      19.900  20.389  45.861  1.00  0.00     0.006 C 
ENDROOT
BRANCH   1   2
ATOM      2  C   UNL     1      19.105  19.803  44.690  1.00  0.00     0.053 C 
BRANCH   2   3
ATOM      3  C   UNL     1      17.650  19.731  45.028  1.00  0.00     0.041 C 
ATOM      4  O   UNL     1      16.832  20.509  44.472  1.00  0.00    -0.550 OA
ATOM      5  O   UNL     1      17.204  18.839  45.996  1.00  0.00    -0.550 OA
ENDBRANCH   2   3
ENDBRANCH   1   2
BRANCH   1   6
ATOM      6  C   UNL     1      20.668  19.290  46.609  1.00  0.00     0.000 C 
BRANCH   6   7
ATOM      7  C   UNL     1      20.360  19.272  48.115  1.00  0.00    -0.000 C 
BRANCH   7   8
ATOM      8  C   UNL     1      19.347  20.350  48.525  1.00  0.00    -0.003 C 
ATOM      9  C   UNL     1      19.773  21.042  49.816  1.00  0.00     0.004 C 
ENDBRANCH   7   8
ENDBRANCH   6   7
ENDBRANCH   1   6
TORSDOF 5
ENDMDL
MODEL 9
REMARK VINA RESULT:    -3.555      2.083      2.934
REMARK INTER + INTRA:          -4.974
REMARK INTER:                  -4.779
REMARK INTRA:                  -0.195
REMARK UNBOUND:                -0.379
REMARK SMILES CCCCCCC(=O)[O-]
REMARK SMILES IDX 5 1 6 2 7 3 8 4 9 5 4 6 3 7 2 8 1 9
REMARK H PARENT
REMARK Flexibility Score: inf
ROOT
ATOM      1  C   UNL     1      21.052  18.199  47.835  1.00  0.00     0.006 C 
ENDROOT
BRANCH   1   2
ATOM      2  C   UNL     1      21.013  19.265  46.735  1.00  0.00     0.053 C 
BRANCH   2   3
ATOM      3  C   UNL     1      19.900  20.233  46.983  1.00  0.00     0.041 C 
ATOM      4  O   UNL     1      19.572  21.062  46.093  1.00  0.00    -0.550 OA
ATOM      5  O   UNL     1      19.259  20.255  48.215  1.00  0.00    -0.550 OA
ENDBRANCH   2   3
ENDBRANCH   1   2
BRANCH   1   6
ATOM      6  C   UNL     1      20.496  16.863  47.324  1.00  0.00     0.000 C 
BRANCH   6   7
ATOM      7  C   UNL     1      21.337  15.659  47.777  1.00  0.00    -0.000 C 
BRANCH   7   8
ATOM      8  C   UNL     1      22.722  16.068  48.302  1.00  0.00    -0.003 C 
ATOM      9  C   UNL     1      23.668  14.871  48.347  1.00  0.00     0.004 C 
ENDBRANCH   7   8
ENDBRANCH   6   7
ENDBRANCH   1   6
TORSDOF 5
ENDMDL
