MODEL 1
REMARK VINA RESULT:    -3.472      0.000      0.000
REMARK INTER + INTRA:          -8.076
REMARK INTER:                  -6.110
REMARK INTRA:                  -1.965
REMARK UNBOUND:                -1.965
REMARK SMILES CCCCCCC=CCCCCCCCC(=O)[O-]
REMARK SMILES IDX 10 1 11 2 12 3 13 4 14 5 15 6 16 7 17 8 18 9 9 10 8 11 7 12
REMARK SMILES IDX 6 13 5 14 4 15 3 16 2 17 1 18
REMARK H PARENT
REMARK Flexibility Score: inf
ROOT
ATOM      1  C   UNL     1      59.806  19.890  48.935  1.00  0.00     0.004 C 
ENDROOT
BRANCH   1   2
ATOM      2  C   UNL     1      60.920  20.772  48.345  1.00  0.00     0.000 C 
BRANCH   2   3
ATOM      3  C   UNL     1      60.893  22.211  48.891  1.00  0.00     0.000 C 
BRANCH   3   4
ATOM      4  C   UNL     1      61.682  22.362  50.201  1.00  0.00     0.000 C 
BRANCH   4   5
ATOM      5  C   UNL     1      61.229  23.579  51.026  1.00  0.00     0.006 C 
BRANCH   5   6
ATOM      6  C   UNL     1      60.020  24.286  50.396  1.00  0.00     0.053 C 
BRANCH   6   7
ATOM      7  C   UNL     1      60.334  25.703  50.027  1.00  0.00     0.041 C 
ATOM      8  O   UNL     1      61.489  26.167  50.220  1.00  0.00    -0.550 OA
ATOM      9  O   UNL     1      59.343  26.520  49.498  1.00  0.00    -0.550 OA
ENDBRANCH   6   7
ENDBRANCH   5   6
ENDBRANCH   4   5
ENDBRANCH   3   4
ENDBRANCH   2   3
ENDBRANCH   1   2
BRANCH   1  10
ATOM     10  C   UNL     1      60.198  18.413  49.112  1.00  0.00     0.027 C 
BRANCH  10  11
ATOM     11  C   UNL     1      59.244  17.479  48.407  1.00  0.00    -0.031 C 
ATOM     12  C   UNL     1      58.168  16.908  48.980  1.00  0.00    -0.031 C 
BRANCH  12  13
ATOM     13  C   UNL     1      57.805  17.035  50.437  1.00  0.00     0.027 C 
BRANCH  13  14
ATOM     14  C   UNL     1      56.736  18.119  50.637  1.00  0.00     0.004 C 
BRANCH  14  15
ATOM     15  C   UNL     1      57.196  19.244  51.580  1.00  0.00     0.000 C 
BRANCH  15  16
ATOM     16  C   UNL     1      58.450  18.919  52.418  1.00  0.00    -0.000 C 
BRANCH  16  17
ATOM     17  C   UNL     1      59.448  20.080  52.570  1.00  0.00    -0.003 C 
ATOM     18  C   UNL     1      60.905  19.620  52.551  1.00  0.00     0.004 C 
ENDBRANCH  16  17
ENDBRANCH  15  16
ENDBRANCH  14  15
ENDBRANCH  13  14
ENDBRANCH  12  13
ENDBRANCH  10  11
ENDBRANCH   1  10
TORSDOF 13
ENDMDL
MODEL 2
REMARK VINA RESULT:    -3.405      6.477      8.747
REMARK INTER + INTRA:          -7.958
REMARK INTER:                  -5.659
REMARK INTRA:                  -2.299
REMARK UNBOUND:                -1.965
REMARK SMILES CCCCCCC=CCCCCCCCC(=O)[O-]
REMARK SMILES IDX 10 1 11 2 12 3 13 4 14 5 15 6 16 7 17 8 18 9 9 10 8 11 7 12
REMARK SMILES IDX 6 13 5 14 4 15 3 16 2 17 1 18
REMARK H PARENT
REMARK Flexibility Score: inf
ROOT
ATOM      1  C   UNL     1      56.694  28.404  51.962  1.00  0.00     0.004 C 
ENDROOT
BRANCH   1   2
ATOM      2  C   UNL     1      56.886  29.352  50.765  1.00  0.00     0.000 C 
BRANCH   2   3
ATOM      3  C   UNL     1      58.362  29.720  50.528  1.00  0.00     0.000 C 
BRANCH   3   4
ATOM      4  C   UNL     1      58.853  29.326  49.126  1.00  0.00     0.000 C 
BRANCH   4   5
ATOM      5  C   UNL     1      59.776  28.095  49.150  1.00  0.00     0.006 C 
BRANCH   5   6
ATOM      6  C   UNL     1      60.335  27.819  50.553  1.00  0.00     0.053 C 
BRANCH   6   7
ATOM      7  C   UNL     1      60.257  26.366  50.907  1.00  0.00     0.041 C 
ATOM      8  O   UNL     1      60.623  25.971  52.046  1.00  0.00    -0.550 OA
ATOM      9  O   UNL     1      59.808  25.444  49.970  1.00  0.00    -0.550 OA
ENDBRANCH   6   7
ENDBRANCH   5   6
ENDBRANCH   4   5
ENDBRANCH   3   4
ENDBRANCH   2   3
ENDBRANCH   1   2
BRANCH   1  10
ATOM     10  C   UNL     1      56.706  26.910  51.591  1.00  0.00     0.027 C 
BRANCH  10  11
ATOM     11  C   UNL     1      56.341  26.678  50.145  1.00  0.00    -0.031 C 
ATOM     12  C   UNL     1      55.152  26.212  49.720  1.00  0.00    -0.031 C 
BRANCH  12  13
ATOM     13  C   UNL     1      54.035  25.762  50.627  1.00  0.00     0.027 C 
BRANCH  13  14
ATOM     14  C   UNL     1      52.976  26.863  50.771  1.00  0.00     0.004 C 
BRANCH  14  15
ATOM     15  C   UNL     1      53.024  27.892  49.629  1.00  0.00     0.000 C 
BRANCH  15  16
ATOM     16  C   UNL     1      53.323  29.340  50.070  1.00  0.00    -0.000 C 
BRANCH  16  17
ATOM     17  C   UNL     1      53.241  29.587  51.587  1.00  0.00    -0.003 C 
ATOM     18  C   UNL     1      53.164  31.070  51.946  1.00  0.00     0.004 C 
ENDBRANCH  16  17
ENDBRANCH  15  16
ENDBRANCH  14  15
ENDBRANCH  13  14
ENDBRANCH  12  13
ENDBRANCH  10  11
ENDBRANCH   1  10
TORSDOF 13
ENDMDL
MODEL 3
REMARK VINA RESULT:    -3.381      6.526      8.498
REMARK INTER + INTRA:          -7.916
REMARK INTER:                  -5.705
REMARK INTRA:                  -2.211
REMARK UNBOUND:                -1.965
REMARK SMILES CCCCCCC=CCCCCCCCC(=O)[O-]
REMARK SMILES IDX 10 1 11 2 12 3 13 4 14 5 15 6 16 7 17 8 18 9 9 10 8 11 7 12
REMARK SMILES IDX 6 13 5 14 4 15 3 16 2 17 1 18
REMARK H PARENT
REMARK Flexibility Score: inf
ROOT
ATOM      1  C   UNL     1      58.917  28.465  53.364  1.00  0.00     0.004 C 
ENDROOT
BRANCH   1   2
ATOM      2  C   UNL     1      57.976  29.319  52.496  1.00  0.00     0.000 C 
BRANCH   2   3
ATOM      3  C   UNL     1      58.686  29.941  51.281  1.00  0.00     0.000 C 
BRANCH   3   4
ATOM      4  C   UNL     1      58.082  29.483  49.944  1.00  0.00     0.000 C 
BRANCH   4   5
ATOM      5  C   UNL     1      59.150  28.988  48.953  1.00  0.00     0.006 C 
BRANCH   5   6
ATOM      6  C   UNL     1      59.855  27.719  49.450  1.00  0.00     0.053 C 
BRANCH   6   7
ATOM      7  C   UNL     1      61.324  27.936  49.642  1.00  0.00     0.041 C 
ATOM      8  O   UNL     1      61.801  29.102  49.618  1.00  0.00    -0.550 OA
ATOM      9  O   UNL     1      62.172  26.850  49.818  1.00  0.00    -0.550 OA
ENDBRANCH   6   7
ENDBRANCH   5   6
ENDBRANCH   4   5
ENDBRANCH   3   4
ENDBRANCH   2   3
ENDBRANCH   1   2
BRANCH   1  10
ATOM     10  C   UNL     1      58.914  26.968  53.011  1.00  0.00     0.027 C 
BRANCH  10  11
ATOM     11  C   UNL     1      57.555  26.339  53.199  1.00  0.00    -0.031 C 
ATOM     12  C   UNL     1      56.799  25.838  52.204  1.00  0.00    -0.031 C 
BRANCH  12  13
ATOM     13  C   UNL     1      57.150  25.912  50.741  1.00  0.00     0.027 C 
BRANCH  13  14
ATOM     14  C   UNL     1      55.932  26.340  49.911  1.00  0.00     0.004 C 
BRANCH  14  15
ATOM     15  C   UNL     1      55.070  27.399  50.618  1.00  0.00     0.000 C 
BRANCH  15  16
ATOM     16  C   UNL     1      53.836  27.872  49.822  1.00  0.00    -0.000 C 
BRANCH  16  17
ATOM     17  C   UNL     1      53.323  29.275  50.192  1.00  0.00    -0.003 C 
ATOM     18  C   UNL     1      54.410  30.167  50.790  1.00  0.00     0.004 C 
ENDBRANCH  16  17
ENDBRANCH  15  16
ENDBRANCH  14  15
ENDBRANCH  13  14
ENDBRANCH  12  13
ENDBRANCH  10  11
ENDBRANCH   1  10
TORSDOF 13
ENDMDL
MODEL 4
REMARK VINA RESULT:    -3.338     14.073     17.010
REMARK INTER + INTRA:          -7.841
REMARK INTER:                  -6.568
REMARK INTRA:                  -1.273
REMARK UNBOUND:                -1.965
REMARK SMILES CCCCCCC=CCCCCCCCC(=O)[O-]
REMARK SMILES IDX 10 1 11 2 12 3 13 4 14 5 15 6 16 7 17 8 18 9 9 10 8 11 7 12
REMARK SMILES IDX 6 13 5 14 4 15 3 16 2 17 1 18
REMARK H PARENT
REMARK Flexibility Score: inf
ROOT
ATOM      1  C   UNL     1      65.558  27.887  60.095  1.00  0.00     0.004 C 
ENDROOT
BRANCH   1   2
ATOM      2  C   UNL     1      66.816  28.464  59.422  1.00  0.00     0.000 C 
BRANCH   2   3
ATOM      3  C   UNL     1      67.718  29.231  60.405  1.00  0.00     0.000 C 
BRANCH   3   4
ATOM      4  C   UNL     1      67.601  28.710  61.846  1.00  0.00     0.000 C 
BRANCH   4   5
ATOM      5  C   UNL     1      68.942  28.751  62.599  1.00  0.00     0.006 C 
BRANCH   5   6
ATOM      6  C   UNL     1      70.143  28.674  61.645  1.00  0.00     0.053 C 
BRANCH   6   7
ATOM      7  C   UNL     1      71.097  29.809  61.858  1.00  0.00     0.041 C 
ATOM      8  O   UNL     1      70.930  30.900  61.251  1.00  0.00    -0.550 OA
ATOM      9  O   UNL     1      72.187  29.652  62.704  1.00  0.00    -0.550 OA
ENDBRANCH   6   7
ENDBRANCH   5   6
ENDBRANCH   4   5
ENDBRANCH   3   4
ENDBRANCH   2   3
ENDBRANCH   1   2
BRANCH   1  10
ATOM     10  C   UNL     1      64.248  28.586  59.689  1.00  0.00     0.027 C 
BRANCH  10  11
ATOM     11  C   UNL     1      63.479  29.096  60.883  1.00  0.00    -0.031 C 
ATOM     12  C   UNL     1      63.599  30.333  61.401  1.00  0.00    -0.031 C 
BRANCH  12  13
ATOM     13  C   UNL     1      64.589  31.367  60.928  1.00  0.00     0.027 C 
BRANCH  13  14
ATOM     14  C   UNL     1      63.902  32.404  60.029  1.00  0.00     0.004 C 
BRANCH  14  15
ATOM     15  C   UNL     1      64.353  33.844  60.327  1.00  0.00     0.000 C 
BRANCH  15  16
ATOM     16  C   UNL     1      63.228  34.899  60.289  1.00  0.00    -0.000 C 
BRANCH  16  17
ATOM     17  C   UNL     1      63.357  36.023  61.333  1.00  0.00    -0.003 C 
ATOM     18  C   UNL     1      64.515  35.802  62.305  1.00  0.00     0.004 C 
ENDBRANCH  16  17
ENDBRANCH  15  16
ENDBRANCH  14  15
ENDBRANCH  13  14
ENDBRANCH  12  13
ENDBRANCH  10  11
ENDBRANCH   1  10
TORSDOF 13
ENDMDL
MODEL 5
REMARK VINA RESULT:    -3.313      6.738      9.477
REMARK INTER + INTRA:          -7.796
REMARK INTER:                  -5.626
REMARK INTRA:                  -2.170
REMARK UNBOUND:                -1.965
REMARK SMILES CCCCCCC=CCCCCCCCC(=O)[O-]
REMARK SMILES IDX 10 1 11 2 12 3 13 4 14 5 15 6 16 7 17 8 18 9 9 10 8 11 7 12
REMARK SMILES IDX 6 13 5 14 4 15 3 16 2 17 1 18
REMARK H PARENT
REMARK Flexibility Score: inf
ROOT
ATOM      1  C   UNL     1      56.570  26.283  50.821  1.00  0.00     0.004 C 
ENDROOT
BRANCH   1   2
ATOM      2  C   UNL     1      55.520  26.196  49.700  1.00  0.00     0.000 C 
BRANCH   2   3
ATOM      3  C   UNL     1      54.293  27.087  49.962  1.00  0.00     0.000 C 
BRANCH   3   4
ATOM      4  C   UNL     1      54.675  28.534  50.311  1.00  0.00     0.000 C 
BRANCH   4   5
ATOM      5  C   UNL     1      53.459  29.382  50.724  1.00  0.00     0.006 C 
BRANCH   5   6
ATOM      6  C   UNL     1      53.844  30.839  51.016  1.00  0.00     0.053 C 
BRANCH   6   7
ATOM      7  C   UNL     1      53.670  31.182  52.464  1.00  0.00     0.041 C 
ATOM      8  O   UNL     1      53.125  32.268  52.797  1.00  0.00    -0.550 OA
ATOM      9  O   UNL     1      54.135  30.316  53.445  1.00  0.00    -0.550 OA
ENDBRANCH   6   7
ENDBRANCH   5   6
ENDBRANCH   4   5
ENDBRANCH   3   4
ENDBRANCH   2   3
ENDBRANCH   1   2
BRANCH   1  10
ATOM     10  C   UNL     1      57.975  25.810  50.408  1.00  0.00     0.027 C 
BRANCH  10  11
ATOM     11  C   UNL     1      59.002  26.061  51.485  1.00  0.00    -0.031 C 
ATOM     12  C   UNL     1      60.190  26.661  51.285  1.00  0.00    -0.031 C 
BRANCH  12  13
ATOM     13  C   UNL     1      60.718  27.089  49.940  1.00  0.00     0.027 C 
BRANCH  13  14
ATOM     14  C   UNL     1      60.493  28.591  49.721  1.00  0.00     0.004 C 
BRANCH  14  15
ATOM     15  C   UNL     1      59.168  28.898  49.004  1.00  0.00     0.000 C 
BRANCH  15  16
ATOM     16  C   UNL     1      58.132  29.666  49.850  1.00  0.00    -0.000 C 
BRANCH  16  17
ATOM     17  C   UNL     1      58.589  30.013  51.278  1.00  0.00    -0.003 C 
ATOM     18  C   UNL     1      57.632  29.496  52.352  1.00  0.00     0.004 C 
ENDBRANCH  16  17
ENDBRANCH  15  16
ENDBRANCH  14  15
ENDBRANCH  13  14
ENDBRANCH  12  13
ENDBRANCH  10  11
ENDBRANCH   1  10
TORSDOF 13
ENDMDL
MODEL 6
REMARK VINA RESULT:    -3.252      6.042      8.410
REMARK INTER + INTRA:          -7.690
REMARK INTER:                  -5.624
REMARK INTRA:                  -2.066
REMARK UNBOUND:                -1.965
REMARK SMILES CCCCCCC=CCCCCCCCC(=O)[O-]
REMARK SMILES IDX 10 1 11 2 12 3 13 4 14 5 15 6 16 7 17 8 18 9 9 10 8 11 7 12
REMARK SMILES IDX 6 13 5 14 4 15 3 16 2 17 1 18
REMARK H PARENT
REMARK Flexibility Score: inf
ROOT
ATOM      1  C   UNL     1      59.917  25.915  50.288  1.00  0.00     0.004 C 
ENDROOT
BRANCH   1   2
ATOM      2  C   UNL     1      60.419  27.285  49.798  1.00  0.00     0.000 C 
BRANCH   2   3
ATOM      3  C   UNL     1      59.312  28.121  49.130  1.00  0.00     0.000 C 
BRANCH   3   4
ATOM      4  C   UNL     1      59.450  29.624  49.419  1.00  0.00     0.000 C 
BRANCH   4   5
ATOM      5  C   UNL     1      60.356  29.911  50.630  1.00  0.00     0.006 C 
BRANCH   5   6
ATOM      6  C   UNL     1      61.427  30.964  50.313  1.00  0.00     0.053 C 
BRANCH   6   7
ATOM      7  C   UNL     1      62.745  30.335  49.979  1.00  0.00     0.041 C 
ATOM      8  O   UNL     1      63.164  29.350  50.643  1.00  0.00    -0.550 OA
ATOM      9  O   UNL     1      63.523  30.855  48.952  1.00  0.00    -0.550 OA
ENDBRANCH   6   7
ENDBRANCH   5   6
ENDBRANCH   4   5
ENDBRANCH   3   4
ENDBRANCH   2   3
ENDBRANCH   1   2
BRANCH   1  10
ATOM     10  C   UNL     1      58.385  25.799  50.374  1.00  0.00     0.027 C 
BRANCH  10  11
ATOM     11  C   UNL     1      57.909  25.552  51.786  1.00  0.00    -0.031 C 
ATOM     12  C   UNL     1      57.584  26.518  52.665  1.00  0.00    -0.031 C 
BRANCH  12  13
ATOM     13  C   UNL     1      57.736  27.996  52.408  1.00  0.00     0.027 C 
BRANCH  13  14
ATOM     14  C   UNL     1      56.367  28.650  52.177  1.00  0.00     0.004 C 
BRANCH  14  15
ATOM     15  C   UNL     1      56.003  28.762  50.687  1.00  0.00     0.000 C 
BRANCH  15  16
ATOM     16  C   UNL     1      55.113  27.623  50.147  1.00  0.00    -0.000 C 
BRANCH  16  17
ATOM     17  C   UNL     1      53.661  28.027  49.833  1.00  0.00    -0.003 C 
ATOM     18  C   UNL     1      53.337  29.459  50.258  1.00  0.00     0.004 C 
ENDBRANCH  16  17
ENDBRANCH  15  16
ENDBRANCH  14  15
ENDBRANCH  13  14
ENDBRANCH  12  13
ENDBRANCH  10  11
ENDBRANCH   1  10
TORSDOF 13
ENDMDL
MODEL 7
REMARK VINA RESULT:    -3.251      6.142      8.860
REMARK INTER + INTRA:          -7.687
REMARK INTER:                  -5.644
REMARK INTRA:                  -2.043
REMARK UNBOUND:                -1.965
REMARK SMILES CCCCCCC=CCCCCCCCC(=O)[O-]
REMARK SMILES IDX 10 1 11 2 12 3 13 4 14 5 15 6 16 7 17 8 18 9 9 10 8 11 7 12
REMARK SMILES IDX 6 13 5 14 4 15 3 16 2 17 1 18
REMARK H PARENT
REMARK Flexibility Score: inf
ROOT
ATOM      1  C   UNL     1      60.122  25.657  51.574  1.00  0.00     0.004 C 
ENDROOT
BRANCH   1   2
ATOM      2  C   UNL     1      58.657  25.271  51.303  1.00  0.00     0.000 C 
BRANCH   2   3
ATOM      3  C   UNL     1      57.656  26.224  51.979  1.00  0.00     0.000 C 
BRANCH   3   4
ATOM      4  C   UNL     1      56.205  25.965  51.542  1.00  0.00     0.000 C 
BRANCH   4   5
ATOM      5  C   UNL     1      55.974  26.277  50.053  1.00  0.00     0.006 C 
BRANCH   5   6
ATOM      6  C   UNL     1      54.563  26.821  49.789  1.00  0.00     0.053 C 
BRANCH   6   7
ATOM      7  C   UNL     1      53.638  25.753  49.292  1.00  0.00     0.041 C 
ATOM      8  O   UNL     1      53.083  25.867  48.167  1.00  0.00    -0.550 OA
ATOM      9  O   UNL     1      53.365  24.645  50.085  1.00  0.00    -0.550 OA
ENDBRANCH   6   7
ENDBRANCH   5   6
ENDBRANCH   4   5
ENDBRANCH   3   4
ENDBRANCH   2   3
ENDBRANCH   1   2
BRANCH   1  10
ATOM     10  C   UNL     1      60.993  25.751  50.308  1.00  0.00     0.027 C 
BRANCH  10  11
ATOM     11  C   UNL     1      61.577  27.130  50.118  1.00  0.00    -0.031 C 
ATOM     12  C   UNL     1      60.909  28.181  49.609  1.00  0.00    -0.031 C 
BRANCH  12  13
ATOM     13  C   UNL     1      59.506  28.121  49.062  1.00  0.00     0.027 C 
BRANCH  13  14
ATOM     14  C   UNL     1      58.792  29.466  49.250  1.00  0.00     0.004 C 
BRANCH  14  15
ATOM     15  C   UNL     1      58.296  29.683  50.690  1.00  0.00     0.000 C 
BRANCH  15  16
ATOM     16  C   UNL     1      56.764  29.648  50.864  1.00  0.00    -0.000 C 
BRANCH  16  17
ATOM     17  C   UNL     1      56.274  29.711  52.321  1.00  0.00    -0.003 C 
ATOM     18  C   UNL     1      54.762  29.531  52.450  1.00  0.00     0.004 C 
ENDBRANCH  16  17
ENDBRANCH  15  16
ENDBRANCH  14  15
ENDBRANCH  13  14
ENDBRANCH  12  13
ENDBRANCH  10  11
ENDBRANCH   1  10
TORSDOF 13
ENDMDL
MODEL 8
REMARK VINA RESULT:    -3.231      4.093      7.882
REMARK INTER + INTRA:          -7.652
REMARK INTER:                  -6.477
REMARK INTRA:                  -1.175
REMARK UNBOUND:                -1.965
REMARK SMILES CCCCCCC=CCCCCCCCC(=O)[O-]
REMARK SMILES IDX 10 1 11 2 12 3 13 4 14 5 15 6 16 7 17 8 18 9 9 10 8 11 7 12
REMARK SMILES IDX 6 13 5 14 4 15 3 16 2 17 1 18
REMARK H PARENT
REMARK Flexibility Score: inf
ROOT
ATOM      1  C   UNL     1      59.878  24.468  51.556  1.00  0.00     0.004 C 
ENDROOT
BRANCH   1   2
ATOM      2  C   UNL     1      61.122  24.042  50.755  1.00  0.00     0.000 C 
BRANCH   2   3
ATOM      3  C   UNL     1      61.098  22.553  50.367  1.00  0.00     0.000 C 
BRANCH   3   4
ATOM      4  C   UNL     1      60.935  22.338  48.854  1.00  0.00     0.000 C 
BRANCH   4   5
ATOM      5  C   UNL     1      60.693  20.863  48.491  1.00  0.00     0.006 C 
BRANCH   5   6
ATOM      6  C   UNL     1      60.885  19.932  49.696  1.00  0.00     0.053 C 
BRANCH   6   7
ATOM      7  C   UNL     1      60.373  18.551  49.421  1.00  0.00     0.041 C 
ATOM      8  O   UNL     1      61.144  17.559  49.516  1.00  0.00    -0.550 OA
ATOM      9  O   UNL     1      59.054  18.362  49.032  1.00  0.00    -0.550 OA
ENDBRANCH   6   7
ENDBRANCH   5   6
ENDBRANCH   4   5
ENDBRANCH   3   4
ENDBRANCH   2   3
ENDBRANCH   1   2
BRANCH   1  10
ATOM     10  C   UNL     1      58.816  25.208  50.723  1.00  0.00     0.027 C 
BRANCH  10  11
ATOM     11  C   UNL     1      59.431  26.070  49.648  1.00  0.00    -0.031 C 
ATOM     12  C   UNL     1      59.438  27.416  49.656  1.00  0.00    -0.031 C 
BRANCH  12  13
ATOM     13  C   UNL     1      58.751  28.270  50.690  1.00  0.00     0.027 C 
BRANCH  13  14
ATOM     14  C   UNL     1      57.581  29.043  50.065  1.00  0.00     0.004 C 
BRANCH  14  15
ATOM     15  C   UNL     1      56.313  29.011  50.935  1.00  0.00     0.000 C 
BRANCH  15  16
ATOM     16  C   UNL     1      55.159  28.156  50.371  1.00  0.00    -0.000 C 
BRANCH  16  17
ATOM     17  C   UNL     1      55.538  26.709  50.014  1.00  0.00    -0.003 C 
ATOM     18  C   UNL     1      54.434  25.973  49.257  1.00  0.00     0.004 C 
ENDBRANCH  16  17
ENDBRANCH  15  16
ENDBRANCH  14  15
ENDBRANCH  13  14
ENDBRANCH  12  13
ENDBRANCH  10  11
ENDBRANCH   1  10
TORSDOF 13
ENDMDL
MODEL 9
REMARK VINA RESULT:    -3.186      6.979      9.576
REMARK INTER + INTRA:          -7.573
REMARK INTER:                  -5.576
REMARK INTRA:                  -1.997
REMARK UNBOUND:                -1.965
REMARK SMILES CCCCCCC=CCCCCCCCC(=O)[O-]
REMARK SMILES IDX 10 1 11 2 12 3 13 4 14 5 15 6 16 7 17 8 18 9 9 10 8 11 7 12
REMARK SMILES IDX 6 13 5 14 4 15 3 16 2 17 1 18
REMARK H PARENT
REMARK Flexibility Score: inf
ROOT
ATOM      1  C   UNL     1      58.136  30.446  52.068  1.00  0.00     0.004 C 
ENDROOT
BRANCH   1   2
ATOM      2  C   UNL     1      57.245  29.338  52.658  1.00  0.00     0.000 C 
BRANCH   2   3
ATOM      3  C   UNL     1      55.771  29.473  52.238  1.00  0.00     0.000 C 
BRANCH   3   4
ATOM      4  C   UNL     1      55.573  29.338  50.719  1.00  0.00     0.000 C 
BRANCH   4   5
ATOM      5  C   UNL     1      54.135  28.942  50.345  1.00  0.00     0.006 C 
BRANCH   5   6
ATOM      6  C   UNL     1      54.053  27.506  49.806  1.00  0.00     0.053 C 
BRANCH   6   7
ATOM      7  C   UNL     1      53.587  26.543  50.854  1.00  0.00     0.041 C 
ATOM      8  O   UNL     1      53.146  26.969  51.955  1.00  0.00    -0.550 OA
ATOM      9  O   UNL     1      53.666  25.175  50.627  1.00  0.00    -0.550 OA
ENDBRANCH   6   7
ENDBRANCH   5   6
ENDBRANCH   4   5
ENDBRANCH   3   4
ENDBRANCH   2   3
ENDBRANCH   1   2
BRANCH   1  10
ATOM     10  C   UNL     1      59.403  29.928  51.365  1.00  0.00     0.027 C 
BRANCH  10  11
ATOM     11  C   UNL     1      59.227  29.828  49.869  1.00  0.00    -0.031 C 
ATOM     12  C   UNL     1      58.856  28.712  49.214  1.00  0.00    -0.031 C 
BRANCH  12  13
ATOM     13  C   UNL     1      58.654  27.366  49.861  1.00  0.00     0.027 C 
BRANCH  13  14
ATOM     14  C   UNL     1      59.861  26.454  49.606  1.00  0.00     0.004 C 
BRANCH  14  15
ATOM     15  C   UNL     1      60.964  26.613  50.667  1.00  0.00     0.000 C 
BRANCH  15  16
ATOM     16  C   UNL     1      62.383  26.832  50.102  1.00  0.00    -0.000 C 
BRANCH  16  17
ATOM     17  C   UNL     1      62.553  28.101  49.249  1.00  0.00    -0.003 C 
ATOM     18  C   UNL     1      62.866  29.342  50.083  1.00  0.00     0.004 C 
ENDBRANCH  16  17
ENDBRANCH  15  16
ENDBRANCH  14  15
ENDBRANCH  13  14
ENDBRANCH  12  13
ENDBRANCH  10  11
ENDBRANCH   1  10
TORSDOF 13
ENDMDL
