MODEL 1
REMARK VINA RESULT:    -6.021      0.000      0.000
REMARK INTER + INTRA:          -7.390
REMARK INTER:                  -7.076
REMARK INTRA:                  -0.314
REMARK UNBOUND:                -0.314
REMARK SMILES O=c1cc(-c2ccc(O)c(O)c2)oc2cc(O)cc(O)c12
REMARK SMILES IDX 4 1 3 2 2 3 1 4 21 5 19 6 18 7 16 8 15 9 14 10 13 11 5 12
REMARK SMILES IDX 6 13 7 14 8 15 12 16 10 17 9 18 11 20 20 22 17 24
REMARK H PARENT 9 19 11 21 20 23 17 25
REMARK Flexibility Score: inf
ROOT
ATOM      1  C   UNL     1      40.235  -1.129 -14.723  1.00  0.00     0.138 A 
ATOM      2  C   UNL     1      39.804  -1.245 -16.052  1.00  0.00     0.100 A 
ATOM      3  C   UNL     1      40.724  -1.575 -17.049  1.00  0.00     0.197 A 
ATOM      4  O   UNL     1      40.320  -1.611 -18.240  1.00  0.00    -0.289 OA
ATOM      5  C   UNL     1      42.075  -1.820 -16.707  1.00  0.00     0.107 A 
ATOM      6  C   UNL     1      43.091  -2.203 -17.633  1.00  0.00     0.134 A 
ATOM      7  C   UNL     1      44.418  -2.304 -17.198  1.00  0.00     0.093 A 
ATOM      8  C   UNL     1      44.757  -2.097 -15.862  1.00  0.00     0.123 A 
ATOM      9  C   UNL     1      43.762  -1.774 -14.936  1.00  0.00     0.094 A 
ATOM     10  C   UNL     1      42.435  -1.633 -15.346  1.00  0.00     0.146 A 
ATOM     11  O   UNL     1      41.520  -1.311 -14.437  1.00  0.00    -0.456 OA
ENDROOT
BRANCH   1  12
ATOM     12  C   UNL     1      39.300  -0.782 -13.623  1.00  0.00     0.021 A 
ATOM     13  C   UNL     1      38.026  -0.240 -13.879  1.00  0.00     0.016 A 
ATOM     14  C   UNL     1      37.161   0.068 -12.825  1.00  0.00     0.051 A 
ATOM     15  C   UNL     1      37.551  -0.167 -11.501  1.00  0.00     0.157 A 
ATOM     16  C   UNL     1      39.676  -1.028 -12.290  1.00  0.00     0.062 A 
ATOM     17  C   UNL     1      38.809  -0.717 -11.233  1.00  0.00     0.158 A 
BRANCH  15  18
ATOM     18  O   UNL     1      36.691   0.140 -10.448  1.00  0.00    -0.504 OA
ATOM     19  H   UNL     1      36.034  -0.540 -10.085  1.00  0.00     0.293 HD
ENDBRANCH  15  18
BRANCH  17  20
ATOM     20  O   UNL     1      39.192  -0.955  -9.914  1.00  0.00    -0.504 OA
ATOM     21  H   UNL     1      39.356  -0.194  -9.265  1.00  0.00     0.293 HD
ENDBRANCH  17  20
ENDBRANCH   1  12
BRANCH   6  22
ATOM     22  O   UNL     1      42.849  -2.515 -18.974  1.00  0.00    -0.507 OA
ATOM     23  H   UNL     1      43.564  -2.641 -19.674  1.00  0.00     0.293 HD
ENDBRANCH   6  22
BRANCH   8  24
ATOM     24  O   UNL     1      46.085  -2.221 -15.461  1.00  0.00    -0.508 OA
ATOM     25  H   UNL     1      46.479  -3.116 -15.198  1.00  0.00     0.293 HD
ENDBRANCH   8  24
TORSDOF 5
ENDMDL
MODEL 2
REMARK VINA RESULT:    -5.801      2.502      3.582
REMARK INTER + INTRA:          -7.132
REMARK INTER:                  -6.821
REMARK INTRA:                  -0.311
REMARK UNBOUND:                -0.314
REMARK SMILES O=c1cc(-c2ccc(O)c(O)c2)oc2cc(O)cc(O)c12
REMARK SMILES IDX 4 1 3 2 2 3 1 4 21 5 19 6 18 7 16 8 15 9 14 10 13 11 5 12
REMARK SMILES IDX 6 13 7 14 8 15 12 16 10 17 9 18 11 20 20 22 17 24
REMARK H PARENT 9 19 11 21 20 23 17 25
REMARK Flexibility Score: inf
ROOT
ATOM      1  C   UNL     1      39.559  -0.559 -13.205  1.00  0.00     0.138 A 
ATOM      2  C   UNL     1      40.380   0.570 -13.072  1.00  0.00     0.100 A 
ATOM      3  C   UNL     1      41.125   1.013 -14.165  1.00  0.00     0.197 A 
ATOM      4  O   UNL     1      41.899   1.991 -13.999  1.00  0.00    -0.289 OA
ATOM      5  C   UNL     1      41.023   0.340 -15.407  1.00  0.00     0.107 A 
ATOM      6  C   UNL     1      41.705   0.727 -16.599  1.00  0.00     0.134 A 
ATOM      7  C   UNL     1      41.618  -0.084 -17.737  1.00  0.00     0.093 A 
ATOM      8  C   UNL     1      40.828  -1.233 -17.746  1.00  0.00     0.123 A 
ATOM      9  C   UNL     1      40.114  -1.592 -16.600  1.00  0.00     0.094 A 
ATOM     10  C   UNL     1      40.207  -0.822 -15.439  1.00  0.00     0.146 A 
ATOM     11  O   UNL     1      39.523  -1.205 -14.366  1.00  0.00    -0.456 OA
ENDROOT
BRANCH   1  12
ATOM     12  C   UNL     1      38.744  -1.073 -12.075  1.00  0.00     0.021 A 
ATOM     13  C   UNL     1      38.334  -0.238 -11.019  1.00  0.00     0.016 A 
ATOM     14  C   UNL     1      37.558  -0.745  -9.973  1.00  0.00     0.051 A 
ATOM     15  C   UNL     1      37.174  -2.092  -9.969  1.00  0.00     0.157 A 
ATOM     16  C   UNL     1      38.341  -2.421 -12.069  1.00  0.00     0.062 A 
ATOM     17  C   UNL     1      37.564  -2.931 -11.019  1.00  0.00     0.158 A 
BRANCH  15  18
ATOM     18  O   UNL     1      36.401  -2.601  -8.927  1.00  0.00    -0.504 OA
ATOM     19  H   UNL     1      36.479  -2.241  -7.983  1.00  0.00     0.293 HD
ENDBRANCH  15  18
BRANCH  17  20
ATOM     20  O   UNL     1      37.176  -4.270 -11.013  1.00  0.00    -0.504 OA
ATOM     21  H   UNL     1      37.143  -4.808 -10.156  1.00  0.00     0.293 HD
ENDBRANCH  17  20
ENDBRANCH   1  12
BRANCH   6  22
ATOM     22  O   UNL     1      42.453   1.900 -16.726  1.00  0.00    -0.507 OA
ATOM     23  H   UNL     1      42.958   2.346 -15.974  1.00  0.00     0.293 HD
ENDBRANCH   6  22
BRANCH   8  24
ATOM     24  O   UNL     1      40.753  -2.008 -18.900  1.00  0.00    -0.508 OA
ATOM     25  H   UNL     1      41.434  -2.732 -19.099  1.00  0.00     0.293 HD
ENDBRANCH   8  24
TORSDOF 5
ENDMDL
MODEL 3
REMARK VINA RESULT:    -5.747      1.705      7.201
REMARK INTER + INTRA:          -7.068
REMARK INTER:                  -6.807
REMARK INTRA:                  -0.261
REMARK UNBOUND:                -0.314
REMARK SMILES O=c1cc(-c2ccc(O)c(O)c2)oc2cc(O)cc(O)c12
REMARK SMILES IDX 4 1 3 2 2 3 1 4 21 5 19 6 18 7 16 8 15 9 14 10 13 11 5 12
REMARK SMILES IDX 6 13 7 14 8 15 12 16 10 17 9 18 11 20 20 22 17 24
REMARK H PARENT 9 19 11 21 20 23 17 25
REMARK Flexibility Score: inf
ROOT
ATOM      1  C   UNL     1      40.435  -0.875 -13.882  1.00  0.00     0.138 A 
ATOM      2  C   UNL     1      40.867   0.292 -13.238  1.00  0.00     0.100 A 
ATOM      3  C   UNL     1      40.348   0.621 -11.985  1.00  0.00     0.197 A 
ATOM      4  O   UNL     1      40.709   1.706 -11.459  1.00  0.00    -0.289 OA
ATOM      5  C   UNL     1      39.416  -0.241 -11.360  1.00  0.00     0.107 A 
ATOM      6  C   UNL     1      38.852  -0.028 -10.067  1.00  0.00     0.134 A 
ATOM      7  C   UNL     1      37.850  -0.889  -9.602  1.00  0.00     0.093 A 
ATOM      8  C   UNL     1      37.436  -1.988 -10.354  1.00  0.00     0.123 A 
ATOM      9  C   UNL     1      38.020  -2.236 -11.598  1.00  0.00     0.094 A 
ATOM     10  C   UNL     1      38.997  -1.377 -12.104  1.00  0.00     0.146 A 
ATOM     11  O   UNL     1      39.518  -1.640 -13.298  1.00  0.00    -0.456 OA
ENDROOT
BRANCH   1  12
ATOM     12  C   UNL     1      40.955  -1.274 -15.215  1.00  0.00     0.021 A 
ATOM     13  C   UNL     1      40.135  -1.267 -16.360  1.00  0.00     0.016 A 
ATOM     14  C   UNL     1      40.653  -1.636 -17.605  1.00  0.00     0.051 A 
ATOM     15  C   UNL     1      41.996  -2.011 -17.727  1.00  0.00     0.157 A 
ATOM     16  C   UNL     1      42.307  -1.638 -15.351  1.00  0.00     0.062 A 
ATOM     17  C   UNL     1      42.825  -2.010 -16.600  1.00  0.00     0.158 A 
BRANCH  15  18
ATOM     18  O   UNL     1      42.515  -2.381 -18.967  1.00  0.00    -0.504 OA
ATOM     19  H   UNL     1      42.709  -1.695 -19.687  1.00  0.00     0.293 HD
ENDBRANCH  15  18
BRANCH  17  20
ATOM     20  O   UNL     1      44.163  -2.379 -16.726  1.00  0.00    -0.504 OA
ATOM     21  H   UNL     1      44.911  -1.784 -16.389  1.00  0.00     0.293 HD
ENDBRANCH  17  20
ENDBRANCH   1  12
BRANCH   6  22
ATOM     22  O   UNL     1      39.252   0.989  -9.198  1.00  0.00    -0.507 OA
ATOM     23  H   UNL     1      38.820   1.899  -9.136  1.00  0.00     0.293 HD
ENDBRANCH   6  22
BRANCH   8  24
ATOM     24  O   UNL     1      36.448  -2.832  -9.853  1.00  0.00    -0.508 OA
ATOM     25  H   UNL     1      35.519  -2.491  -9.635  1.00  0.00     0.293 HD
ENDBRANCH   8  24
TORSDOF 5
ENDMDL
MODEL 4
REMARK VINA RESULT:    -5.694     15.669     17.911
REMARK INTER + INTRA:          -7.007
REMARK INTER:                  -6.737
REMARK INTRA:                  -0.269
REMARK UNBOUND:                -0.314
REMARK SMILES O=c1cc(-c2ccc(O)c(O)c2)oc2cc(O)cc(O)c12
REMARK SMILES IDX 4 1 3 2 2 3 1 4 21 5 19 6 18 7 16 8 15 9 14 10 13 11 5 12
REMARK SMILES IDX 6 13 7 14 8 15 12 16 10 17 9 18 11 20 20 22 17 24
REMARK H PARENT 9 19 11 21 20 23 17 25
REMARK Flexibility Score: inf
ROOT
ATOM      1  C   UNL     1      30.539 -11.238  -7.214  1.00  0.00     0.138 A 
ATOM      2  C   UNL     1      30.454  -9.841  -7.294  1.00  0.00     0.100 A 
ATOM      3  C   UNL     1      30.160  -9.101  -6.148  1.00  0.00     0.197 A 
ATOM      4  O   UNL     1      30.030  -7.855  -6.264  1.00  0.00    -0.289 OA
ATOM      5  C   UNL     1      29.982  -9.762  -4.909  1.00  0.00     0.107 A 
ATOM      6  C   UNL     1      29.720  -9.107  -3.669  1.00  0.00     0.134 A 
ATOM      7  C   UNL     1      29.446  -9.873  -2.529  1.00  0.00     0.093 A 
ATOM      8  C   UNL     1      29.485 -11.266  -2.570  1.00  0.00     0.123 A 
ATOM      9  C   UNL     1      29.793 -11.916  -3.766  1.00  0.00     0.094 A 
ATOM     10  C   UNL     1      30.038 -11.181  -4.928  1.00  0.00     0.146 A 
ATOM     11  O   UNL     1      30.314 -11.838  -6.049  1.00  0.00    -0.456 OA
ENDROOT
BRANCH   1  12
ATOM     12  C   UNL     1      30.850 -12.074  -8.401  1.00  0.00     0.021 A 
ATOM     13  C   UNL     1      31.879 -13.036  -8.380  1.00  0.00     0.016 A 
ATOM     14  C   UNL     1      32.143 -13.817  -9.508  1.00  0.00     0.051 A 
ATOM     15  C   UNL     1      31.381 -13.656 -10.672  1.00  0.00     0.157 A 
ATOM     16  C   UNL     1      30.081 -11.931  -9.570  1.00  0.00     0.062 A 
ATOM     17  C   UNL     1      30.347 -12.713 -10.703  1.00  0.00     0.158 A 
BRANCH  15  18
ATOM     18  O   UNL     1      31.643 -14.433 -11.799  1.00  0.00    -0.504 OA
ATOM     19  H   UNL     1      31.667 -15.444 -11.752  1.00  0.00     0.293 HD
ENDBRANCH  15  18
BRANCH  17  20
ATOM     20  O   UNL     1      29.588 -12.559 -11.861  1.00  0.00    -0.504 OA
ATOM     21  H   UNL     1      29.356 -11.642 -12.224  1.00  0.00     0.293 HD
ENDBRANCH  17  20
ENDBRANCH   1  12
BRANCH   6  22
ATOM     22  O   UNL     1      29.740  -7.720  -3.498  1.00  0.00    -0.507 OA
ATOM     23  H   UNL     1      29.677  -7.248  -2.609  1.00  0.00     0.293 HD
ENDBRANCH   6  22
BRANCH   8  24
ATOM     24  O   UNL     1      29.221 -11.996  -1.413  1.00  0.00    -0.508 OA
ATOM     25  H   UNL     1      29.842 -12.731  -1.096  1.00  0.00     0.293 HD
ENDBRANCH   8  24
TORSDOF 5
ENDMDL
MODEL 5
REMARK VINA RESULT:    -5.666      1.817      7.480
REMARK INTER + INTRA:          -6.973
REMARK INTER:                  -6.710
REMARK INTRA:                  -0.263
REMARK UNBOUND:                -0.314
REMARK SMILES O=c1cc(-c2ccc(O)c(O)c2)oc2cc(O)cc(O)c12
REMARK SMILES IDX 4 1 3 2 2 3 1 4 21 5 19 6 18 7 16 8 15 9 14 10 13 11 5 12
REMARK SMILES IDX 6 13 7 14 8 15 12 16 10 17 9 18 11 20 20 22 17 24
REMARK H PARENT 9 19 11 21 20 23 17 25
REMARK Flexibility Score: inf
ROOT
ATOM      1  C   UNL     1      40.114  -0.784 -13.208  1.00  0.00     0.138 A 
ATOM      2  C   UNL     1      40.143   0.494 -12.632  1.00  0.00     0.100 A 
ATOM      3  C   UNL     1      39.389   0.751 -11.486  1.00  0.00     0.197 A 
ATOM      4  O   UNL     1      39.387   1.923 -11.028  1.00  0.00    -0.289 OA
ATOM      5  C   UNL     1      38.628  -0.287 -10.897  1.00  0.00     0.107 A 
ATOM      6  C   UNL     1      37.854  -0.151  -9.706  1.00  0.00     0.134 A 
ATOM      7  C   UNL     1      37.048  -1.215  -9.282  1.00  0.00     0.093 A 
ATOM      8  C   UNL     1      37.035  -2.428  -9.969  1.00  0.00     0.123 A 
ATOM      9  C   UNL     1      37.829  -2.590 -11.106  1.00  0.00     0.094 A 
ATOM     10  C   UNL     1      38.618  -1.536 -11.573  1.00  0.00     0.146 A 
ATOM     11  O   UNL     1      39.349  -1.726 -12.666  1.00  0.00    -0.456 OA
ENDROOT
BRANCH   1  12
ATOM     12  C   UNL     1      40.898  -1.113 -14.426  1.00  0.00     0.021 A 
ATOM     13  C   UNL     1      42.221  -1.589 -14.349  1.00  0.00     0.016 A 
ATOM     14  C   UNL     1      42.932  -1.901 -15.511  1.00  0.00     0.051 A 
ATOM     15  C   UNL     1      42.332  -1.749 -16.767  1.00  0.00     0.157 A 
ATOM     16  C   UNL     1      40.299  -0.977 -15.692  1.00  0.00     0.062 A 
ATOM     17  C   UNL     1      41.014  -1.289 -16.858  1.00  0.00     0.158 A 
BRANCH  15  18
ATOM     18  O   UNL     1      43.038  -2.058 -17.927  1.00  0.00    -0.504 OA
ATOM     19  H   UNL     1      43.977  -1.712 -18.085  1.00  0.00     0.293 HD
ENDBRANCH  15  18
BRANCH  17  20
ATOM     20  O   UNL     1      40.418  -1.144 -18.110  1.00  0.00    -0.504 OA
ATOM     21  H   UNL     1      40.749  -1.659 -18.917  1.00  0.00     0.293 HD
ENDBRANCH  17  20
ENDBRANCH   1  12
BRANCH   6  22
ATOM     22  O   UNL     1      37.859   0.988  -8.896  1.00  0.00    -0.507 OA
ATOM     23  H   UNL     1      38.642   1.615  -8.788  1.00  0.00     0.293 HD
ENDBRANCH   6  22
BRANCH   8  24
ATOM     24  O   UNL     1      36.232  -3.470  -9.510  1.00  0.00    -0.508 OA
ATOM     25  H   UNL     1      36.626  -4.359  -9.228  1.00  0.00     0.293 HD
ENDBRANCH   8  24
TORSDOF 5
ENDMDL
MODEL 6
REMARK VINA RESULT:    -5.616     15.592     16.797
REMARK INTER + INTRA:          -6.915
REMARK INTER:                  -6.633
REMARK INTRA:                  -0.283
REMARK UNBOUND:                -0.314
REMARK SMILES O=c1cc(-c2ccc(O)c(O)c2)oc2cc(O)cc(O)c12
REMARK SMILES IDX 4 1 3 2 2 3 1 4 21 5 19 6 18 7 16 8 15 9 14 10 13 11 5 12
REMARK SMILES IDX 6 13 7 14 8 15 12 16 10 17 9 18 11 20 20 22 17 24
REMARK H PARENT 9 19 11 21 20 23 17 25
REMARK Flexibility Score: inf
ROOT
ATOM      1  C   UNL     1      30.250 -12.115  -9.082  1.00  0.00     0.138 A 
ATOM      2  C   UNL     1      30.690 -12.042 -10.411  1.00  0.00     0.100 A 
ATOM      3  C   UNL     1      31.267 -13.163 -11.009  1.00  0.00     0.197 A 
ATOM      4  O   UNL     1      31.709 -13.049 -12.182  1.00  0.00    -0.289 OA
ATOM      5  C   UNL     1      31.375 -14.372 -10.282  1.00  0.00     0.107 A 
ATOM      6  C   UNL     1      31.908 -15.589 -10.802  1.00  0.00     0.134 A 
ATOM      7  C   UNL     1      32.072 -16.689  -9.952  1.00  0.00     0.093 A 
ATOM      8  C   UNL     1      31.666 -16.638  -8.619  1.00  0.00     0.123 A 
ATOM      9  C   UNL     1      31.094 -15.469  -8.113  1.00  0.00     0.094 A 
ATOM     10  C   UNL     1      30.948 -14.343  -8.927  1.00  0.00     0.146 A 
ATOM     11  O   UNL     1      30.412 -13.246  -8.404  1.00  0.00    -0.456 OA
ENDROOT
BRANCH   1  12
ATOM     12  C   UNL     1      29.627 -10.954  -8.397  1.00  0.00     0.021 A 
ATOM     13  C   UNL     1      29.842 -10.699  -7.029  1.00  0.00     0.016 A 
ATOM     14  C   UNL     1      29.253  -9.593  -6.412  1.00  0.00     0.051 A 
ATOM     15  C   UNL     1      28.446  -8.719  -7.151  1.00  0.00     0.157 A 
ATOM     16  C   UNL     1      28.827 -10.062  -9.135  1.00  0.00     0.062 A 
ATOM     17  C   UNL     1      28.235  -8.952  -8.515  1.00  0.00     0.158 A 
BRANCH  15  18
ATOM     18  O   UNL     1      27.856  -7.615  -6.538  1.00  0.00    -0.504 OA
ATOM     19  H   UNL     1      27.080  -7.717  -5.896  1.00  0.00     0.293 HD
ENDBRANCH  15  18
BRANCH  17  20
ATOM     20  O   UNL     1      27.435  -8.077  -9.249  1.00  0.00    -0.504 OA
ATOM     21  H   UNL     1      27.194  -8.265 -10.215  1.00  0.00     0.293 HD
ENDBRANCH  17  20
ENDBRANCH   1  12
BRANCH   6  22
ATOM     22  O   UNL     1      32.267 -15.776 -12.139  1.00  0.00    -0.507 OA
ATOM     23  H   UNL     1      33.196 -15.646 -12.511  1.00  0.00     0.293 HD
ENDBRANCH   6  22
BRANCH   8  24
ATOM     24  O   UNL     1      31.831 -17.757  -7.805  1.00  0.00    -0.508 OA
ATOM     25  H   UNL     1      31.093 -18.080  -7.191  1.00  0.00     0.293 HD
ENDBRANCH   8  24
TORSDOF 5
ENDMDL
MODEL 7
REMARK VINA RESULT:    -5.490     15.585     17.561
REMARK INTER + INTRA:          -6.766
REMARK INTER:                  -6.482
REMARK INTRA:                  -0.285
REMARK UNBOUND:                -0.314
REMARK SMILES O=c1cc(-c2ccc(O)c(O)c2)oc2cc(O)cc(O)c12
REMARK SMILES IDX 4 1 3 2 2 3 1 4 21 5 19 6 18 7 16 8 15 9 14 10 13 11 5 12
REMARK SMILES IDX 6 13 7 14 8 15 12 16 10 17 9 18 11 20 20 22 17 24
REMARK H PARENT 9 19 11 21 20 23 17 25
REMARK Flexibility Score: inf
ROOT
ATOM      1  C   UNL     1      30.270 -11.977  -8.701  1.00  0.00     0.138 A 
ATOM      2  C   UNL     1      29.476 -10.954  -9.239  1.00  0.00     0.100 A 
ATOM      3  C   UNL     1      28.955  -9.971  -8.397  1.00  0.00     0.197 A 
ATOM      4  O   UNL     1      28.196  -9.101  -8.899  1.00  0.00    -0.289 OA
ATOM      5  C   UNL     1      29.257  -9.995  -7.014  1.00  0.00     0.107 A 
ATOM      6  C   UNL     1      28.814  -9.022  -6.069  1.00  0.00     0.134 A 
ATOM      7  C   UNL     1      29.079  -9.214  -4.707  1.00  0.00     0.093 A 
ATOM      8  C   UNL     1      29.820 -10.308  -4.263  1.00  0.00     0.123 A 
ATOM      9  C   UNL     1      30.303 -11.238  -5.186  1.00  0.00     0.094 A 
ATOM     10  C   UNL     1      30.027 -11.093  -6.547  1.00  0.00     0.146 A 
ATOM     11  O   UNL     1      30.494 -12.007  -7.391  1.00  0.00    -0.456 OA
ENDROOT
BRANCH   1  12
ATOM     12  C   UNL     1      30.851 -13.047  -9.550  1.00  0.00     0.021 A 
ATOM     13  C   UNL     1      31.041 -14.356  -9.065  1.00  0.00     0.016 A 
ATOM     14  C   UNL     1      31.580 -15.347  -9.889  1.00  0.00     0.051 A 
ATOM     15  C   UNL     1      31.931 -15.051 -11.212  1.00  0.00     0.157 A 
ATOM     16  C   UNL     1      31.193 -12.764 -10.885  1.00  0.00     0.062 A 
ATOM     17  C   UNL     1      31.735 -13.758 -11.712  1.00  0.00     0.158 A 
BRANCH  15  18
ATOM     18  O   UNL     1      32.470 -16.037 -12.036  1.00  0.00    -0.504 OA
ATOM     19  H   UNL     1      33.078 -15.805 -12.812  1.00  0.00     0.293 HD
ENDBRANCH  15  18
BRANCH  17  20
ATOM     20  O   UNL     1      32.081 -13.468 -13.031  1.00  0.00    -0.504 OA
ATOM     21  H   UNL     1      32.972 -13.046 -13.264  1.00  0.00     0.293 HD
ENDBRANCH  17  20
ENDBRANCH   1  12
BRANCH   6  22
ATOM     22  O   UNL     1      28.139  -7.848  -6.414  1.00  0.00    -0.507 OA
ATOM     23  H   UNL     1      27.275  -7.537  -5.997  1.00  0.00     0.293 HD
ENDBRANCH   6  22
BRANCH   8  24
ATOM     24  O   UNL     1      30.076 -10.460  -2.903  1.00  0.00    -0.508 OA
ATOM     25  H   UNL     1      30.139 -11.375  -2.473  1.00  0.00     0.293 HD
ENDBRANCH   8  24
TORSDOF 5
ENDMDL
MODEL 8
REMARK VINA RESULT:    -4.879      2.301      3.186
REMARK INTER + INTRA:          -6.049
REMARK INTER:                  -5.731
REMARK INTRA:                  -0.318
REMARK UNBOUND:                -0.314
REMARK SMILES O=c1cc(-c2ccc(O)c(O)c2)oc2cc(O)cc(O)c12
REMARK SMILES IDX 4 1 3 2 2 3 1 4 21 5 19 6 18 7 16 8 15 9 14 10 13 11 5 12
REMARK SMILES IDX 6 13 7 14 8 15 12 16 10 17 9 18 11 20 20 22 17 24
REMARK H PARENT 9 19 11 21 20 23 17 25
REMARK Flexibility Score: inf
ROOT
ATOM      1  C   UNL     1      41.125  -0.284 -16.333  1.00  0.00     0.138 A 
ATOM      2  C   UNL     1      41.973   0.775 -16.689  1.00  0.00     0.100 A 
ATOM      3  C   UNL     1      42.901   0.600 -17.716  1.00  0.00     0.197 A 
ATOM      4  O   UNL     1      43.689   1.547 -17.971  1.00  0.00    -0.289 OA
ATOM      5  C   UNL     1      42.959  -0.631 -18.411  1.00  0.00     0.107 A 
ATOM      6  C   UNL     1      43.836  -0.909 -19.501  1.00  0.00     0.134 A 
ATOM      7  C   UNL     1      43.885  -2.202 -20.035  1.00  0.00     0.093 A 
ATOM      8  C   UNL     1      43.048  -3.211 -19.561  1.00  0.00     0.123 A 
ATOM      9  C   UNL     1      42.147  -2.936 -18.530  1.00  0.00     0.094 A 
ATOM     10  C   UNL     1      42.098  -1.665 -17.954  1.00  0.00     0.146 A 
ATOM     11  O   UNL     1      41.237  -1.448 -16.965  1.00  0.00    -0.456 OA
ENDROOT
BRANCH   1  12
ATOM     12  C   UNL     1      40.119  -0.153 -15.249  1.00  0.00     0.021 A 
ATOM     13  C   UNL     1      39.954   1.050 -14.535  1.00  0.00     0.016 A 
ATOM     14  C   UNL     1      38.991   1.149 -13.526  1.00  0.00     0.051 A 
ATOM     15  C   UNL     1      38.175   0.054 -13.220  1.00  0.00     0.157 A 
ATOM     16  C   UNL     1      39.284  -1.243 -14.943  1.00  0.00     0.062 A 
ATOM     17  C   UNL     1      38.319  -1.143 -13.930  1.00  0.00     0.158 A 
BRANCH  15  18
ATOM     18  O   UNL     1      37.215   0.149 -12.214  1.00  0.00    -0.504 OA
ATOM     19  H   UNL     1      36.691   1.002 -12.060  1.00  0.00     0.293 HD
ENDBRANCH  15  18
BRANCH  17  20
ATOM     20  O   UNL     1      37.502  -2.230 -13.625  1.00  0.00    -0.504 OA
ATOM     21  H   UNL     1      37.498  -2.648 -12.702  1.00  0.00     0.293 HD
ENDBRANCH  17  20
ENDBRANCH   1  12
BRANCH   6  22
ATOM     22  O   UNL     1      44.655   0.047 -20.108  1.00  0.00    -0.507 OA
ATOM     23  H   UNL     1      44.611   1.040 -19.932  1.00  0.00     0.293 HD
ENDBRANCH   6  22
BRANCH   8  24
ATOM     24  O   UNL     1      43.113  -4.483 -20.125  1.00  0.00    -0.508 OA
ATOM     25  H   UNL     1      42.296  -4.930 -20.523  1.00  0.00     0.293 HD
ENDBRANCH   8  24
TORSDOF 5
ENDMDL
