MODEL 1
REMARK VINA RESULT:    -7.955      0.000      0.000
REMARK INTER + INTRA:         -11.038
REMARK INTER:                 -10.048
REMARK INTRA:                  -0.989
REMARK UNBOUND:                -0.989
REMARK SMILES CC(C)[C@@H](C)C=C[C@H](C)[C@H]1CC[C@H]2C3=CC=C4C[C@@H](O)CC[C@]4(C)[C@H]3CC[C@]12C
REMARK SMILES IDX 8 1 9 2 7 3 6 4 4 5 5 6 2 7 1 8 3 9 10 10 11 11 28 12 12 13
REMARK SMILES IDX 13 14 27 15 29 16 14 17 26 18 25 19 15 20 23 21 16 22 17 23
REMARK SMILES IDX 22 24 24 25 18 26 21 27 19 28 20 29
REMARK H PARENT 20 30
REMARK Flexibility Score: inf
ROOT
ATOM      1  C   UNL     1      15.507 -33.416  21.205  1.00  0.00     0.012 C 
ATOM      2  C   UNL     1      15.033 -34.353  20.071  1.00  0.00     0.012 C 
ENDROOT
BRANCH   1   3
ATOM      3  C   UNL     1      14.298 -32.860  21.938  1.00  0.00    -0.028 C 
ATOM      4  C   UNL     1      13.961 -31.558  21.893  1.00  0.00    -0.028 C 
BRANCH   4   5
ATOM      5  C   UNL     1      12.734 -31.025  22.604  1.00  0.00     0.011 C 
ATOM      6  C   UNL     1      11.630 -30.725  21.575  1.00  0.00     0.012 C 
BRANCH   5   7
ATOM      7  C   UNL     1      13.088 -29.805  23.509  1.00  0.00    -0.011 C 
ATOM      8  C   UNL     1      11.922 -28.811  23.623  1.00  0.00     0.008 C 
ATOM      9  C   UNL     1      14.374 -29.077  23.081  1.00  0.00     0.008 C 
ENDBRANCH   5   7
ENDBRANCH   4   5
ENDBRANCH   1   3
BRANCH   1  10
ATOM     10  C   UNL     1      16.551 -33.986  22.229  1.00  0.00     0.002 C 
ATOM     11  C   UNL     1      17.461 -35.146  21.748  1.00  0.00     0.005 C 
ATOM     12  C   UNL     1      17.527 -32.997  22.921  1.00  0.00    -0.023 C 
ATOM     13  C   UNL     1      18.743 -35.068  22.600  1.00  0.00     0.009 C 
ATOM     14  C   UNL     1      18.444 -33.990  23.642  1.00  0.00     0.021 C 
ATOM     15  C   UNL     1      16.890 -32.094  24.002  1.00  0.00     0.008 C 
ATOM     16  C   UNL     1      18.303 -32.132  21.881  1.00  0.00     0.012 C 
ATOM     17  C   UNL     1      19.566 -33.303  24.380  1.00  0.00    -0.063 C 
ATOM     18  C   UNL     1      17.972 -31.282  24.754  1.00  0.00     0.009 C 
ATOM     19  C   UNL     1      19.185 -32.129  25.282  1.00  0.00     0.025 C 
ATOM     20  C   UNL     1      20.734 -33.931  24.590  1.00  0.00    -0.000 C 
ATOM     21  C   UNL     1      20.454 -31.269  25.669  1.00  0.00    -0.005 C 
ATOM     22  C   UNL     1      21.718 -33.411  25.554  1.00  0.00    -0.000 C 
ATOM     23  C   UNL     1      21.566 -32.212  26.144  1.00  0.00    -0.061 C 
ATOM     24  C   UNL     1      20.066 -30.275  26.805  1.00  0.00     0.014 C 
ATOM     25  C   UNL     1      21.010 -30.486  24.447  1.00  0.00     0.017 C 
ATOM     26  C   UNL     1      22.681 -31.689  27.021  1.00  0.00     0.063 C 
ATOM     27  C   UNL     1      21.272 -29.669  27.533  1.00  0.00     0.033 C 
ATOM     28  C   UNL     1      22.154 -30.769  28.129  1.00  0.00     0.118 C 
BRANCH  28  29
ATOM     29  O   UNL     1      23.228 -30.174  28.809  1.00  0.00    -0.393 OA
ATOM     30  H   UNL     1      23.212 -29.207  28.585  1.00  0.00     0.210 HD
ENDBRANCH  28  29
ENDBRANCH   1  10
TORSDOF 5
ENDMDL
MODEL 2
REMARK VINA RESULT:    -7.936      3.088      7.765
REMARK INTER + INTRA:         -11.013
REMARK INTER:                  -9.853
REMARK INTRA:                  -1.161
REMARK UNBOUND:                -0.989
REMARK SMILES CC(C)[C@@H](C)C=C[C@H](C)[C@H]1CC[C@H]2C3=CC=C4C[C@@H](O)CC[C@]4(C)[C@H]3CC[C@]12C
REMARK SMILES IDX 8 1 9 2 7 3 6 4 4 5 5 6 2 7 1 8 3 9 10 10 11 11 28 12 12 13
REMARK SMILES IDX 13 14 27 15 29 16 14 17 26 18 25 19 15 20 23 21 16 22 17 23
REMARK SMILES IDX 22 24 24 25 18 26 21 27 19 28 20 29
REMARK H PARENT 20 30
REMARK Flexibility Score: inf
ROOT
ATOM      1  C   UNL     1      20.042 -35.274  23.136  1.00  0.00     0.012 C 
ATOM      2  C   UNL     1      20.352 -36.771  22.912  1.00  0.00     0.012 C 
ENDROOT
BRANCH   1   3
ATOM      3  C   UNL     1      21.342 -34.491  23.177  1.00  0.00    -0.028 C 
ATOM      4  C   UNL     1      21.517 -33.341  22.500  1.00  0.00    -0.028 C 
BRANCH   4   5
ATOM      5  C   UNL     1      22.809 -32.556  22.578  1.00  0.00     0.011 C 
ATOM      6  C   UNL     1      23.994 -33.471  22.222  1.00  0.00     0.012 C 
BRANCH   5   7
ATOM      7  C   UNL     1      22.963 -31.849  23.960  1.00  0.00    -0.011 C 
ATOM      8  C   UNL     1      21.646 -31.216  24.436  1.00  0.00     0.008 C 
ATOM      9  C   UNL     1      24.100 -30.813  23.996  1.00  0.00     0.008 C 
ENDBRANCH   5   7
ENDBRANCH   4   5
ENDBRANCH   1   3
BRANCH   1  10
ATOM     10  C   UNL     1      19.023 -34.590  22.158  1.00  0.00     0.002 C 
ATOM     11  C   UNL     1      18.459 -35.451  20.998  1.00  0.00     0.005 C 
ATOM     12  C   UNL     1      17.773 -33.893  22.758  1.00  0.00    -0.023 C 
ATOM     13  C   UNL     1      17.091 -34.841  20.635  1.00  0.00     0.009 C 
ATOM     14  C   UNL     1      17.009 -33.564  21.472  1.00  0.00     0.021 C 
ATOM     15  C   UNL     1      18.051 -32.554  23.480  1.00  0.00     0.008 C 
ATOM     16  C   UNL     1      16.969 -34.852  23.687  1.00  0.00     0.012 C 
ATOM     17  C   UNL     1      15.678 -32.910  21.746  1.00  0.00    -0.063 C 
ATOM     18  C   UNL     1      16.729 -31.854  23.878  1.00  0.00     0.009 C 
ATOM     19  C   UNL     1      15.672 -31.733  22.722  1.00  0.00     0.025 C 
ATOM     20  C   UNL     1      14.658 -33.042  20.882  1.00  0.00    -0.000 C 
ATOM     21  C   UNL     1      14.207 -31.408  23.218  1.00  0.00    -0.005 C 
ATOM     22  C   UNL     1      13.467 -32.181  20.969  1.00  0.00    -0.000 C 
ATOM     23  C   UNL     1      13.276 -31.340  22.001  1.00  0.00    -0.061 C 
ATOM     24  C   UNL     1      14.216 -30.042  23.968  1.00  0.00     0.014 C 
ATOM     25  C   UNL     1      13.657 -32.521  24.153  1.00  0.00     0.017 C 
ATOM     26  C   UNL     1      11.969 -30.585  22.087  1.00  0.00     0.063 C 
ATOM     27  C   UNL     1      12.822 -29.428  24.153  1.00  0.00     0.033 C 
ATOM     28  C   UNL     1      12.132 -29.237  22.800  1.00  0.00     0.118 C 
BRANCH  28  29
ATOM     29  O   UNL     1      10.875 -28.649  23.010  1.00  0.00    -0.393 OA
ATOM     30  H   UNL     1      10.275 -29.362  23.349  1.00  0.00     0.210 HD
ENDBRANCH  28  29
ENDBRANCH   1  10
TORSDOF 5
ENDMDL
MODEL 3
REMARK VINA RESULT:    -7.640      1.817      2.058
REMARK INTER + INTRA:         -10.639
REMARK INTER:                  -9.518
REMARK INTRA:                  -1.121
REMARK UNBOUND:                -0.989
REMARK SMILES CC(C)[C@@H](C)C=C[C@H](C)[C@H]1CC[C@H]2C3=CC=C4C[C@@H](O)CC[C@]4(C)[C@H]3CC[C@]12C
REMARK SMILES IDX 8 1 9 2 7 3 6 4 4 5 5 6 2 7 1 8 3 9 10 10 11 11 28 12 12 13
REMARK SMILES IDX 13 14 27 15 29 16 14 17 26 18 25 19 15 20 23 21 16 22 17 23
REMARK SMILES IDX 22 24 24 25 18 26 21 27 19 28 20 29
REMARK H PARENT 20 30
REMARK Flexibility Score: inf
ROOT
ATOM      1  C   UNL     1      15.155 -32.751  21.065  1.00  0.00     0.012 C 
ATOM      2  C   UNL     1      14.776 -34.006  20.247  1.00  0.00     0.012 C 
ENDROOT
BRANCH   1   3
ATOM      3  C   UNL     1      13.895 -31.985  21.427  1.00  0.00    -0.028 C 
ATOM      4  C   UNL     1      13.653 -31.534  22.671  1.00  0.00    -0.028 C 
BRANCH   4   5
ATOM      5  C   UNL     1      12.406 -30.744  23.008  1.00  0.00     0.011 C 
ATOM      6  C   UNL     1      11.553 -30.558  21.741  1.00  0.00     0.012 C 
BRANCH   5   7
ATOM      7  C   UNL     1      12.759 -29.403  23.722  1.00  0.00    -0.011 C 
ATOM      8  C   UNL     1      11.610 -28.386  23.644  1.00  0.00     0.008 C 
ATOM      9  C   UNL     1      14.071 -28.771  23.225  1.00  0.00     0.008 C 
ENDBRANCH   5   7
ENDBRANCH   4   5
ENDBRANCH   1   3
BRANCH   1  10
ATOM     10  C   UNL     1      16.052 -32.957  22.336  1.00  0.00     0.002 C 
ATOM     11  C   UNL     1      16.101 -34.379  22.952  1.00  0.00     0.005 C 
ATOM     12  C   UNL     1      17.540 -32.518  22.273  1.00  0.00    -0.023 C 
ATOM     13  C   UNL     1      17.453 -34.485  23.685  1.00  0.00     0.009 C 
ATOM     14  C   UNL     1      18.038 -33.074  23.610  1.00  0.00     0.021 C 
ATOM     15  C   UNL     1      17.775 -30.990  22.297  1.00  0.00     0.008 C 
ATOM     16  C   UNL     1      18.279 -33.160  21.060  1.00  0.00     0.012 C 
ATOM     17  C   UNL     1      19.515 -32.844  23.814  1.00  0.00    -0.063 C 
ATOM     18  C   UNL     1      19.283 -30.662  22.416  1.00  0.00     0.009 C 
ATOM     19  C   UNL     1      20.037 -31.429  23.562  1.00  0.00     0.025 C 
ATOM     20  C   UNL     1      20.240 -33.677  24.577  1.00  0.00    -0.000 C 
ATOM     21  C   UNL     1      21.611 -31.416  23.421  1.00  0.00    -0.005 C 
ATOM     22  C   UNL     1      21.591 -33.312  25.034  1.00  0.00    -0.000 C 
ATOM     23  C   UNL     1      22.219 -32.212  24.582  1.00  0.00    -0.061 C 
ATOM     24  C   UNL     1      22.112 -29.940  23.457  1.00  0.00     0.014 C 
ATOM     25  C   UNL     1      22.075 -32.100  22.105  1.00  0.00     0.017 C 
ATOM     26  C   UNL     1      23.653 -31.975  24.995  1.00  0.00     0.063 C 
ATOM     27  C   UNL     1      23.616 -29.805  23.723  1.00  0.00     0.033 C 
ATOM     28  C   UNL     1      23.996 -30.481  25.042  1.00  0.00     0.118 C 
BRANCH  28  29
ATOM     29  O   UNL     1      25.372 -30.310  25.262  1.00  0.00    -0.393 OA
ATOM     30  H   UNL     1      25.551 -30.586  26.197  1.00  0.00     0.210 HD
ENDBRANCH  28  29
ENDBRANCH   1  10
TORSDOF 5
ENDMDL
MODEL 4
REMARK VINA RESULT:    -7.593      4.242      8.131
REMARK INTER + INTRA:         -10.580
REMARK INTER:                  -9.723
REMARK INTRA:                  -0.858
REMARK UNBOUND:                -0.989
REMARK SMILES CC(C)[C@@H](C)C=C[C@H](C)[C@H]1CC[C@H]2C3=CC=C4C[C@@H](O)CC[C@]4(C)[C@H]3CC[C@]12C
REMARK SMILES IDX 8 1 9 2 7 3 6 4 4 5 5 6 2 7 1 8 3 9 10 10 11 11 28 12 12 13
REMARK SMILES IDX 13 14 27 15 29 16 14 17 26 18 25 19 15 20 23 21 16 22 17 23
REMARK SMILES IDX 22 24 24 25 18 26 21 27 19 28 20 29
REMARK H PARENT 20 30
REMARK Flexibility Score: inf
ROOT
ATOM      1  C   UNL     1      22.895 -28.445  23.831  1.00  0.00     0.012 C 
ATOM      2  C   UNL     1      23.958 -28.067  24.886  1.00  0.00     0.012 C 
ENDROOT
BRANCH   1   3
ATOM      3  C   UNL     1      22.948 -27.451  22.683  1.00  0.00    -0.028 C 
ATOM      4  C   UNL     1      21.876 -26.738  22.292  1.00  0.00    -0.028 C 
BRANCH   4   5
ATOM      5  C   UNL     1      21.954 -25.728  21.166  1.00  0.00     0.011 C 
ATOM      6  C   UNL     1      20.768 -25.931  20.206  1.00  0.00     0.012 C 
BRANCH   5   7
ATOM      7  C   UNL     1      23.343 -25.773  20.457  1.00  0.00    -0.011 C 
ATOM      8  C   UNL     1      23.710 -24.426  19.817  1.00  0.00     0.008 C 
ATOM      9  C   UNL     1      23.469 -26.909  19.427  1.00  0.00     0.008 C 
ENDBRANCH   5   7
ENDBRANCH   4   5
ENDBRANCH   1   3
BRANCH   1  10
ATOM     10  C   UNL     1      22.907 -29.914  23.281  1.00  0.00     0.002 C 
ATOM     11  C   UNL     1      23.747 -30.959  24.060  1.00  0.00     0.005 C 
ATOM     12  C   UNL     1      21.549 -30.625  23.034  1.00  0.00    -0.023 C 
ATOM     13  C   UNL     1      23.105 -32.330  23.770  1.00  0.00     0.009 C 
ATOM     14  C   UNL     1      22.044 -32.037  22.709  1.00  0.00     0.021 C 
ATOM     15  C   UNL     1      20.759 -30.121  21.804  1.00  0.00     0.008 C 
ATOM     16  C   UNL     1      20.646 -30.599  24.305  1.00  0.00     0.012 C 
ATOM     17  C   UNL     1      20.909 -33.002  22.470  1.00  0.00    -0.063 C 
ATOM     18  C   UNL     1      19.519 -31.010  21.540  1.00  0.00     0.009 C 
ATOM     19  C   UNL     1      19.809 -32.554  21.508  1.00  0.00     0.025 C 
ATOM     20  C   UNL     1      21.061 -34.313  22.718  1.00  0.00    -0.000 C 
ATOM     21  C   UNL     1      18.519 -33.456  21.653  1.00  0.00    -0.005 C 
ATOM     22  C   UNL     1      20.092 -35.302  22.216  1.00  0.00    -0.000 C 
ATOM     23  C   UNL     1      18.940 -34.930  21.630  1.00  0.00    -0.061 C 
ATOM     24  C   UNL     1      17.551 -33.152  20.470  1.00  0.00     0.014 C 
ATOM     25  C   UNL     1      17.795 -33.208  23.006  1.00  0.00     0.017 C 
ATOM     26  C   UNL     1      17.938 -36.000  21.259  1.00  0.00     0.063 C 
ATOM     27  C   UNL     1      16.464 -34.216  20.272  1.00  0.00     0.033 C 
ATOM     28  C   UNL     1      17.090 -35.594  20.048  1.00  0.00     0.118 C 
BRANCH  28  29
ATOM     29  O   UNL     1      16.065 -36.531  19.843  1.00  0.00    -0.393 OA
ATOM     30  H   UNL     1      16.359 -37.125  19.105  1.00  0.00     0.210 HD
ENDBRANCH  28  29
ENDBRANCH   1  10
TORSDOF 5
ENDMDL
MODEL 5
REMARK VINA RESULT:    -7.427      3.546      4.885
REMARK INTER + INTRA:         -10.370
REMARK INTER:                  -9.306
REMARK INTRA:                  -1.064
REMARK UNBOUND:                -0.989
REMARK SMILES CC(C)[C@@H](C)C=C[C@H](C)[C@H]1CC[C@H]2C3=CC=C4C[C@@H](O)CC[C@]4(C)[C@H]3CC[C@]12C
REMARK SMILES IDX 8 1 9 2 7 3 6 4 4 5 5 6 2 7 1 8 3 9 10 10 11 11 28 12 12 13
REMARK SMILES IDX 13 14 27 15 29 16 14 17 26 18 25 19 15 20 23 21 16 22 17 23
REMARK SMILES IDX 22 24 24 25 18 26 21 27 19 28 20 29
REMARK H PARENT 20 30
REMARK Flexibility Score: inf
ROOT
ATOM      1  C   UNL     1      17.775 -33.964  21.765  1.00  0.00     0.012 C 
ATOM      2  C   UNL     1      18.114 -35.464  21.907  1.00  0.00     0.012 C 
ENDROOT
BRANCH   1   3
ATOM      3  C   UNL     1      16.288 -33.759  22.002  1.00  0.00    -0.028 C 
ATOM      4  C   UNL     1      15.623 -32.685  21.540  1.00  0.00    -0.028 C 
BRANCH   4   5
ATOM      5  C   UNL     1      14.134 -32.511  21.758  1.00  0.00     0.011 C 
ATOM      6  C   UNL     1      13.490 -31.931  20.486  1.00  0.00     0.012 C 
BRANCH   5   7
ATOM      7  C   UNL     1      13.842 -31.673  23.041  1.00  0.00    -0.011 C 
ATOM      8  C   UNL     1      14.808 -30.488  23.191  1.00  0.00     0.008 C 
ATOM      9  C   UNL     1      13.818 -32.513  24.329  1.00  0.00     0.008 C 
ENDBRANCH   5   7
ENDBRANCH   4   5
ENDBRANCH   1   3
BRANCH   1  10
ATOM     10  C   UNL     1      18.609 -32.946  22.620  1.00  0.00     0.002 C 
ATOM     11  C   UNL     1      19.765 -33.518  23.481  1.00  0.00     0.005 C 
ATOM     12  C   UNL     1      19.236 -31.718  21.907  1.00  0.00    -0.023 C 
ATOM     13  C   UNL     1      20.777 -32.369  23.660  1.00  0.00     0.009 C 
ATOM     14  C   UNL     1      20.082 -31.151  23.051  1.00  0.00     0.021 C 
ATOM     15  C   UNL     1      18.233 -30.617  21.491  1.00  0.00     0.008 C 
ATOM     16  C   UNL     1      20.109 -32.143  20.688  1.00  0.00     0.012 C 
ATOM     17  C   UNL     1      20.881 -29.942  22.630  1.00  0.00    -0.063 C 
ATOM     18  C   UNL     1      18.972 -29.365  20.960  1.00  0.00     0.009 C 
ATOM     19  C   UNL     1      20.129 -28.840  21.884  1.00  0.00     0.025 C 
ATOM     20  C   UNL     1      22.041 -29.642  23.236  1.00  0.00    -0.000 C 
ATOM     21  C   UNL     1      21.129 -27.849  21.167  1.00  0.00    -0.005 C 
ATOM     22  C   UNL     1      22.676 -28.325  23.059  1.00  0.00    -0.000 C 
ATOM     23  C   UNL     1      22.215 -27.431  22.166  1.00  0.00    -0.061 C 
ATOM     24  C   UNL     1      20.338 -26.598  20.675  1.00  0.00     0.014 C 
ATOM     25  C   UNL     1      21.847 -28.526  19.967  1.00  0.00     0.017 C 
ATOM     26  C   UNL     1      22.997 -26.156  21.948  1.00  0.00     0.063 C 
ATOM     27  C   UNL     1      21.232 -25.403  20.321  1.00  0.00     0.033 C 
ATOM     28  C   UNL     1      22.091 -24.995  21.520  1.00  0.00     0.118 C 
BRANCH  28  29
ATOM     29  O   UNL     1      22.871 -23.883  21.165  1.00  0.00    -0.393 OA
ATOM     30  H   UNL     1      22.243 -23.152  20.931  1.00  0.00     0.210 HD
ENDBRANCH  28  29
ENDBRANCH   1  10
TORSDOF 5
ENDMDL
MODEL 6
REMARK VINA RESULT:    -7.274      3.486      8.342
REMARK INTER + INTRA:         -10.177
REMARK INTER:                  -9.370
REMARK INTRA:                  -0.807
REMARK UNBOUND:                -0.989
REMARK SMILES CC(C)[C@@H](C)C=C[C@H](C)[C@H]1CC[C@H]2C3=CC=C4C[C@@H](O)CC[C@]4(C)[C@H]3CC[C@]12C
REMARK SMILES IDX 8 1 9 2 7 3 6 4 4 5 5 6 2 7 1 8 3 9 10 10 11 11 28 12 12 13
REMARK SMILES IDX 13 14 27 15 29 16 14 17 26 18 25 19 15 20 23 21 16 22 17 23
REMARK SMILES IDX 22 24 24 25 18 26 21 27 19 28 20 29
REMARK H PARENT 20 30
REMARK Flexibility Score: inf
ROOT
ATOM      1  C   UNL     1      20.272 -35.712  23.557  1.00  0.00     0.012 C 
ATOM      2  C   UNL     1      20.292 -37.256  23.627  1.00  0.00     0.012 C 
ENDROOT
BRANCH   1   3
ATOM      3  C   UNL     1      21.691 -35.196  23.388  1.00  0.00    -0.028 C 
ATOM      4  C   UNL     1      22.750 -36.017  23.272  1.00  0.00    -0.028 C 
BRANCH   4   5
ATOM      5  C   UNL     1      24.155 -35.487  23.072  1.00  0.00     0.011 C 
ATOM      6  C   UNL     1      25.056 -35.961  24.226  1.00  0.00     0.012 C 
BRANCH   5   7
ATOM      7  C   UNL     1      24.156 -33.939  22.878  1.00  0.00    -0.011 C 
ATOM      8  C   UNL     1      25.121 -33.495  21.769  1.00  0.00     0.008 C 
ATOM      9  C   UNL     1      24.433 -33.159  24.175  1.00  0.00     0.008 C 
ENDBRANCH   5   7
ENDBRANCH   4   5
ENDBRANCH   1   3
BRANCH   1  10
ATOM     10  C   UNL     1      19.320 -35.046  22.503  1.00  0.00     0.002 C 
ATOM     11  C   UNL     1      18.814 -35.934  21.336  1.00  0.00     0.005 C 
ATOM     12  C   UNL     1      18.044 -34.320  23.009  1.00  0.00    -0.023 C 
ATOM     13  C   UNL     1      17.477 -35.322  20.877  1.00  0.00     0.009 C 
ATOM     14  C   UNL     1      17.361 -34.020  21.672  1.00  0.00     0.021 C 
ATOM     15  C   UNL     1      18.295 -32.964  23.709  1.00  0.00     0.008 C 
ATOM     16  C   UNL     1      17.177 -35.245  23.916  1.00  0.00     0.012 C 
ATOM     17  C   UNL     1      16.023 -33.346  21.849  1.00  0.00    -0.063 C 
ATOM     18  C   UNL     1      16.960 -32.240  24.009  1.00  0.00     0.009 C 
ATOM     19  C   UNL     1      15.974 -32.142  22.790  1.00  0.00     0.025 C 
ATOM     20  C   UNL     1      15.054 -33.493  20.931  1.00  0.00    -0.000 C 
ATOM     21  C   UNL     1      14.487 -31.788  23.190  1.00  0.00    -0.005 C 
ATOM     22  C   UNL     1      13.870 -32.617  20.924  1.00  0.00    -0.000 C 
ATOM     23  C   UNL     1      13.629 -31.746  21.920  1.00  0.00    -0.061 C 
ATOM     24  C   UNL     1      14.468 -30.401  23.901  1.00  0.00     0.014 C 
ATOM     25  C   UNL     1      13.870 -32.869  24.122  1.00  0.00     0.017 C 
ATOM     26  C   UNL     1      12.327 -30.976  21.908  1.00  0.00     0.063 C 
ATOM     27  C   UNL     1      13.073 -29.770  23.987  1.00  0.00     0.033 C 
ATOM     28  C   UNL     1      12.465 -29.610  22.591  1.00  0.00     0.118 C 
BRANCH  28  29
ATOM     29  O   UNL     1      11.204 -29.004  22.711  1.00  0.00    -0.393 OA
ATOM     30  H   UNL     1      11.353 -28.023  22.714  1.00  0.00     0.210 HD
ENDBRANCH  28  29
ENDBRANCH   1  10
TORSDOF 5
ENDMDL
MODEL 7
REMARK VINA RESULT:    -7.043      1.561      2.655
REMARK INTER + INTRA:          -9.885
REMARK INTER:                  -9.241
REMARK INTRA:                  -0.644
REMARK UNBOUND:                -0.989
REMARK SMILES CC(C)[C@@H](C)C=C[C@H](C)[C@H]1CC[C@H]2C3=CC=C4C[C@@H](O)CC[C@]4(C)[C@H]3CC[C@]12C
REMARK SMILES IDX 8 1 9 2 7 3 6 4 4 5 5 6 2 7 1 8 3 9 10 10 11 11 28 12 12 13
REMARK SMILES IDX 13 14 27 15 29 16 14 17 26 18 25 19 15 20 23 21 16 22 17 23
REMARK SMILES IDX 22 24 24 25 18 26 21 27 19 28 20 29
REMARK H PARENT 20 30
REMARK Flexibility Score: inf
ROOT
ATOM      1  C   UNL     1      15.923 -33.808  22.549  1.00  0.00     0.012 C 
ATOM      2  C   UNL     1      15.873 -34.359  23.992  1.00  0.00     0.012 C 
ENDROOT
BRANCH   1   3
ATOM      3  C   UNL     1      14.771 -32.841  22.338  1.00  0.00    -0.028 C 
ATOM      4  C   UNL     1      14.175 -32.192  23.355  1.00  0.00    -0.028 C 
BRANCH   4   5
ATOM      5  C   UNL     1      13.047 -31.207  23.124  1.00  0.00     0.011 C 
ATOM      6  C   UNL     1      12.664 -31.200  21.634  1.00  0.00     0.012 C 
BRANCH   5   7
ATOM      7  C   UNL     1      13.404 -29.795  23.682  1.00  0.00    -0.011 C 
ATOM      8  C   UNL     1      12.160 -28.910  23.855  1.00  0.00     0.008 C 
ATOM      9  C   UNL     1      14.474 -29.061  22.855  1.00  0.00     0.008 C 
ENDBRANCH   5   7
ENDBRANCH   4   5
ENDBRANCH   1   3
BRANCH   1  10
ATOM     10  C   UNL     1      17.270 -33.166  22.063  1.00  0.00     0.002 C 
ATOM     11  C   UNL     1      17.176 -31.998  21.047  1.00  0.00     0.005 C 
ATOM     12  C   UNL     1      18.280 -32.663  23.130  1.00  0.00    -0.023 C 
ATOM     13  C   UNL     1      18.454 -31.157  21.240  1.00  0.00     0.009 C 
ATOM     14  C   UNL     1      19.299 -31.967  22.223  1.00  0.00     0.021 C 
ATOM     15  C   UNL     1      19.032 -33.775  23.896  1.00  0.00     0.008 C 
ATOM     16  C   UNL     1      17.614 -31.671  24.131  1.00  0.00     0.012 C 
ATOM     17  C   UNL     1      20.409 -31.309  23.005  1.00  0.00    -0.063 C 
ATOM     18  C   UNL     1      20.139 -33.175  24.797  1.00  0.00     0.009 C 
ATOM     19  C   UNL     1      21.093 -32.154  24.080  1.00  0.00     0.025 C 
ATOM     20  C   UNL     1      21.051 -30.237  22.514  1.00  0.00    -0.000 C 
ATOM     21  C   UNL     1      21.933 -31.251  25.068  1.00  0.00    -0.005 C 
ATOM     22  C   UNL     1      22.317 -29.770  23.104  1.00  0.00    -0.000 C 
ATOM     23  C   UNL     1      22.800 -30.290  24.246  1.00  0.00    -0.061 C 
ATOM     24  C   UNL     1      22.832 -32.167  25.953  1.00  0.00     0.014 C 
ATOM     25  C   UNL     1      21.016 -30.381  25.971  1.00  0.00     0.017 C 
ATOM     26  C   UNL     1      24.035 -29.670  24.859  1.00  0.00     0.063 C 
ATOM     27  C   UNL     1      23.965 -31.418  26.666  1.00  0.00     0.033 C 
ATOM     28  C   UNL     1      24.855 -30.693  25.655  1.00  0.00     0.118 C 
BRANCH  28  29
ATOM     29  O   UNL     1      25.892 -30.045  26.343  1.00  0.00    -0.393 OA
ATOM     30  H   UNL     1      26.360 -30.736  26.879  1.00  0.00     0.210 HD
ENDBRANCH  28  29
ENDBRANCH   1  10
TORSDOF 5
ENDMDL
MODEL 8
REMARK VINA RESULT:    -7.024      3.647      5.721
REMARK INTER + INTRA:          -9.861
REMARK INTER:                  -9.109
REMARK INTRA:                  -0.752
REMARK UNBOUND:                -0.989
REMARK SMILES CC(C)[C@@H](C)C=C[C@H](C)[C@H]1CC[C@H]2C3=CC=C4C[C@@H](O)CC[C@]4(C)[C@H]3CC[C@]12C
REMARK SMILES IDX 8 1 9 2 7 3 6 4 4 5 5 6 2 7 1 8 3 9 10 10 11 11 28 12 12 13
REMARK SMILES IDX 13 14 27 15 29 16 14 17 26 18 25 19 15 20 23 21 16 22 17 23
REMARK SMILES IDX 22 24 24 25 18 26 21 27 19 28 20 29
REMARK H PARENT 20 30
REMARK Flexibility Score: inf
ROOT
ATOM      1  C   UNL     1      19.144 -36.080  24.017  1.00  0.00     0.012 C 
ATOM      2  C   UNL     1      18.503 -36.967  25.108  1.00  0.00     0.012 C 
ENDROOT
BRANCH   1   3
ATOM      3  C   UNL     1      18.142 -35.853  22.898  1.00  0.00    -0.028 C 
ATOM      4  C   UNL     1      18.195 -36.522  21.732  1.00  0.00    -0.028 C 
BRANCH   4   5
ATOM      5  C   UNL     1      17.169 -36.307  20.639  1.00  0.00     0.011 C 
ATOM      6  C   UNL     1      17.573 -37.105  19.387  1.00  0.00     0.012 C 
BRANCH   5   7
ATOM      7  C   UNL     1      16.944 -34.788  20.362  1.00  0.00    -0.011 C 
ATOM      8  C   UNL     1      15.454 -34.441  20.220  1.00  0.00     0.008 C 
ATOM      9  C   UNL     1      17.736 -34.261  19.153  1.00  0.00     0.008 C 
ENDBRANCH   5   7
ENDBRANCH   4   5
ENDBRANCH   1   3
BRANCH   1  10
ATOM     10  C   UNL     1      19.776 -34.717  24.468  1.00  0.00     0.002 C 
ATOM     11  C   UNL     1      21.165 -34.769  25.156  1.00  0.00     0.005 C 
ATOM     12  C   UNL     1      19.912 -33.579  23.421  1.00  0.00    -0.023 C 
ATOM     13  C   UNL     1      21.825 -33.400  24.897  1.00  0.00     0.009 C 
ATOM     14  C   UNL     1      20.728 -32.568  24.231  1.00  0.00     0.021 C 
ATOM     15  C   UNL     1      18.586 -32.888  23.028  1.00  0.00     0.008 C 
ATOM     16  C   UNL     1      20.671 -34.057  22.146  1.00  0.00     0.012 C 
ATOM     17  C   UNL     1      21.076 -31.338  23.431  1.00  0.00    -0.063 C 
ATOM     18  C   UNL     1      18.848 -31.657  22.126  1.00  0.00     0.009 C 
ATOM     19  C   UNL     1      19.936 -30.662  22.668  1.00  0.00     0.025 C 
ATOM     20  C   UNL     1      22.182 -30.628  23.710  1.00  0.00    -0.000 C 
ATOM     21  C   UNL     1      20.491 -29.657  21.582  1.00  0.00    -0.005 C 
ATOM     22  C   UNL     1      22.382 -29.278  23.157  1.00  0.00    -0.000 C 
ATOM     23  C   UNL     1      21.554 -28.763  22.231  1.00  0.00    -0.061 C 
ATOM     24  C   UNL     1      19.313 -28.791  21.042  1.00  0.00     0.014 C 
ATOM     25  C   UNL     1      21.179 -30.405  20.406  1.00  0.00     0.017 C 
ATOM     26  C   UNL     1      21.899 -27.425  21.616  1.00  0.00     0.063 C 
ATOM     27  C   UNL     1      19.764 -27.534  20.288  1.00  0.00     0.033 C 
ATOM     28  C   UNL     1      20.646 -26.656  21.180  1.00  0.00     0.118 C 
BRANCH  28  29
ATOM     29  O   UNL     1      21.014 -25.506  20.464  1.00  0.00    -0.393 OA
ATOM     30  H   UNL     1      20.562 -25.556  19.583  1.00  0.00     0.210 HD
ENDBRANCH  28  29
ENDBRANCH   1  10
TORSDOF 5
ENDMDL
MODEL 9
REMARK VINA RESULT:    -6.957      3.083      7.856
REMARK INTER + INTRA:          -9.777
REMARK INTER:                  -8.553
REMARK INTRA:                  -1.224
REMARK UNBOUND:                -0.989
REMARK SMILES CC(C)[C@@H](C)C=C[C@H](C)[C@H]1CC[C@H]2C3=CC=C4C[C@@H](O)CC[C@]4(C)[C@H]3CC[C@]12C
REMARK SMILES IDX 8 1 9 2 7 3 6 4 4 5 5 6 2 7 1 8 3 9 10 10 11 11 28 12 12 13
REMARK SMILES IDX 13 14 27 15 29 16 14 17 26 18 25 19 15 20 23 21 16 22 17 23
REMARK SMILES IDX 22 24 24 25 18 26 21 27 19 28 20 29
REMARK H PARENT 20 30
REMARK Flexibility Score: inf
ROOT
ATOM      1  C   UNL     1      22.380 -32.858  25.734  1.00  0.00     0.012 C 
ATOM      2  C   UNL     1      23.338 -34.033  26.032  1.00  0.00     0.012 C 
ENDROOT
BRANCH   1   3
ATOM      3  C   UNL     1      23.116 -31.544  25.933  1.00  0.00    -0.028 C 
ATOM      4  C   UNL     1      23.066 -30.543  25.035  1.00  0.00    -0.028 C 
BRANCH   4   5
ATOM      5  C   UNL     1      23.780 -29.227  25.263  1.00  0.00     0.011 C 
ATOM      6  C   UNL     1      23.493 -28.722  26.688  1.00  0.00     0.012 C 
BRANCH   5   7
ATOM      7  C   UNL     1      23.427 -28.190  24.153  1.00  0.00    -0.011 C 
ATOM      8  C   UNL     1      22.853 -26.890  24.736  1.00  0.00     0.008 C 
ATOM      9  C   UNL     1      22.492 -28.749  23.066  1.00  0.00     0.008 C 
ENDBRANCH   5   7
ENDBRANCH   4   5
ENDBRANCH   1   3
BRANCH   1  10
ATOM     10  C   UNL     1      21.632 -32.861  24.355  1.00  0.00     0.002 C 
ATOM     11  C   UNL     1      21.945 -34.024  23.378  1.00  0.00     0.005 C 
ATOM     12  C   UNL     1      20.083 -32.767  24.351  1.00  0.00    -0.023 C 
ATOM     13  C   UNL     1      20.700 -34.181  22.483  1.00  0.00     0.009 C 
ATOM     14  C   UNL     1      19.807 -33.000  22.863  1.00  0.00     0.021 C 
ATOM     15  C   UNL     1      19.510 -31.376  24.711  1.00  0.00     0.008 C 
ATOM     16  C   UNL     1      19.436 -33.867  25.246  1.00  0.00     0.012 C 
ATOM     17  C   UNL     1      18.331 -33.021  22.548  1.00  0.00    -0.063 C 
ATOM     18  C   UNL     1      17.977 -31.338  24.500  1.00  0.00     0.009 C 
ATOM     19  C   UNL     1      17.488 -31.874  23.106  1.00  0.00     0.025 C 
ATOM     20  C   UNL     1      17.862 -33.725  21.506  1.00  0.00    -0.000 C 
ATOM     21  C   UNL     1      15.947 -32.218  23.051  1.00  0.00    -0.005 C 
ATOM     22  C   UNL     1      16.494 -33.522  21.002  1.00  0.00    -0.000 C 
ATOM     23  C   UNL     1      15.607 -32.749  21.653  1.00  0.00    -0.061 C 
ATOM     24  C   UNL     1      15.127 -30.927  23.352  1.00  0.00     0.014 C 
ATOM     25  C   UNL     1      15.570 -33.332  24.067  1.00  0.00     0.017 C 
ATOM     26  C   UNL     1      14.184 -32.694  21.145  1.00  0.00     0.063 C 
ATOM     27  C   UNL     1      13.650 -31.024  22.950  1.00  0.00     0.033 C 
ATOM     28  C   UNL     1      13.515 -31.351  21.461  1.00  0.00     0.118 C 
BRANCH  28  29
ATOM     29  O   UNL     1      12.152 -31.403  21.128  1.00  0.00    -0.393 OA
ATOM     30  H   UNL     1      11.833 -32.313  21.360  1.00  0.00     0.210 HD
ENDBRANCH  28  29
ENDBRANCH   1  10
TORSDOF 5
ENDMDL
