MODEL 1
REMARK VINA RESULT:    -4.653      0.000      0.000
REMARK INTER + INTRA:          -5.914
REMARK INTER:                  -5.741
REMARK INTRA:                  -0.172
REMARK UNBOUND:                -0.172
REMARK SMILES C=CC[C@@H](C)C(=O)CC
REMARK SMILES IDX 4 1 5 2 6 3 7 4 8 5 9 6 3 7 2 8 1 9
REMARK H PARENT
REMARK Flexibility Score: inf
ROOT
ATOM      1  C   UNL     1      -6.008  -0.466  -0.410  1.00  0.00     0.057 C 
ATOM      2  C   UNL     1      -4.588  -0.156  -0.908  1.00  0.00     0.016 C 
ENDROOT
BRANCH   1   3
ATOM      3  C   UNL     1      -6.218  -1.965  -0.373  1.00  0.00     0.135 C 
ATOM      4  O   UNL     1      -6.093  -2.569   0.683  1.00  0.00    -0.299 OA
BRANCH   3   5
ATOM      5  C   UNL     1      -6.591  -2.731  -1.616  1.00  0.00     0.072 C 
ATOM      6  C   UNL     1      -5.364  -3.401  -2.227  1.00  0.00     0.012 C 
ENDBRANCH   3   5
ENDBRANCH   1   3
BRANCH   1   7
ATOM      7  C   UNL     1      -6.269   0.137   0.985  1.00  0.00     0.038 C 
BRANCH   7   8
ATOM      8  C   UNL     1      -5.003   0.609   1.653  1.00  0.00    -0.034 C 
ATOM      9  C   UNL     1      -5.045   1.492   2.653  1.00  0.00     0.004 C 
ENDBRANCH   7   8
ENDBRANCH   1   7
TORSDOF 4
ENDMDL
MODEL 2
REMARK VINA RESULT:    -4.590      1.292      2.073
REMARK INTER + INTRA:          -5.835
REMARK INTER:                  -5.516
REMARK INTRA:                  -0.320
REMARK UNBOUND:                -0.172
REMARK SMILES C=CC[C@@H](C)C(=O)CC
REMARK SMILES IDX 4 1 5 2 6 3 7 4 8 5 9 6 3 7 2 8 1 9
REMARK H PARENT
REMARK Flexibility Score: inf
ROOT
ATOM      1  C   UNL     1      -6.208  -1.883  -0.234  1.00  0.00     0.057 C 
ATOM      2  C   UNL     1      -7.040  -2.512  -1.360  1.00  0.00     0.016 C 
ENDROOT
BRANCH   1   3
ATOM      3  C   UNL     1      -4.763  -2.317  -0.363  1.00  0.00     0.135 C 
ATOM      4  O   UNL     1      -4.038  -2.311   0.621  1.00  0.00    -0.299 OA
BRANCH   3   5
ATOM      5  C   UNL     1      -4.201  -2.770  -1.686  1.00  0.00     0.072 C 
ATOM      6  C   UNL     1      -3.418  -1.644  -2.354  1.00  0.00     0.012 C 
ENDBRANCH   3   5
ENDBRANCH   1   3
BRANCH   1   7
ATOM      7  C   UNL     1      -6.298  -0.343  -0.248  1.00  0.00     0.038 C 
BRANCH   7   8
ATOM      8  C   UNL     1      -6.460   0.236   1.134  1.00  0.00    -0.034 C 
ATOM      9  C   UNL     1      -5.426   0.796   1.766  1.00  0.00     0.004 C 
ENDBRANCH   7   8
ENDBRANCH   1   7
TORSDOF 4
ENDMDL
MODEL 3
REMARK VINA RESULT:    -4.585      1.370      4.363
REMARK INTER + INTRA:          -5.829
REMARK INTER:                  -5.590
REMARK INTRA:                  -0.239
REMARK UNBOUND:                -0.172
REMARK SMILES C=CC[C@@H](C)C(=O)CC
REMARK SMILES IDX 4 1 5 2 6 3 7 4 8 5 9 6 3 7 2 8 1 9
REMARK H PARENT
REMARK Flexibility Score: inf
ROOT
ATOM      1  C   UNL     1      -5.857  -1.890   0.604  1.00  0.00     0.057 C 
ATOM      2  C   UNL     1      -4.426  -2.330   0.948  1.00  0.00     0.016 C 
ENDROOT
BRANCH   1   3
ATOM      3  C   UNL     1      -6.000  -0.400   0.831  1.00  0.00     0.135 C 
ATOM      4  O   UNL     1      -7.114   0.104   0.864  1.00  0.00    -0.299 OA
BRANCH   3   5
ATOM      5  C   UNL     1      -4.792   0.478   1.029  1.00  0.00     0.072 C 
ATOM      6  C   UNL     1      -4.892   1.248   2.343  1.00  0.00     0.012 C 
ENDBRANCH   3   5
ENDBRANCH   1   3
BRANCH   1   7
ATOM      7  C   UNL     1      -6.227  -2.239  -0.852  1.00  0.00     0.038 C 
BRANCH   7   8
ATOM      8  C   UNL     1      -5.034  -2.687  -1.658  1.00  0.00    -0.034 C 
ATOM      9  C   UNL     1      -5.165  -3.596  -2.626  1.00  0.00     0.004 C 
ENDBRANCH   7   8
ENDBRANCH   1   7
TORSDOF 4
ENDMDL
MODEL 4
REMARK VINA RESULT:    -4.561      1.653      3.827
REMARK INTER + INTRA:          -5.799
REMARK INTER:                  -5.402
REMARK INTRA:                  -0.397
REMARK UNBOUND:                -0.172
REMARK SMILES C=CC[C@@H](C)C(=O)CC
REMARK SMILES IDX 4 1 5 2 6 3 7 4 8 5 9 6 3 7 2 8 1 9
REMARK H PARENT
REMARK Flexibility Score: inf
ROOT
ATOM      1  C   UNL     1      -6.021  -0.609  -0.311  1.00  0.00     0.057 C 
ATOM      2  C   UNL     1      -6.771   0.093   0.830  1.00  0.00     0.016 C 
ENDROOT
BRANCH   1   3
ATOM      3  C   UNL     1      -4.568  -0.185  -0.303  1.00  0.00     0.135 C 
ATOM      4  O   UNL     1      -4.030   0.116   0.753  1.00  0.00    -0.299 OA
BRANCH   3   5
ATOM      5  C   UNL     1      -3.763  -0.135  -1.576  1.00  0.00     0.072 C 
ATOM      6  C   UNL     1      -2.562  -1.072  -1.494  1.00  0.00     0.012 C 
ENDBRANCH   3   5
ENDBRANCH   1   3
BRANCH   1   7
ATOM      7  C   UNL     1      -6.122  -2.145  -0.202  1.00  0.00     0.038 C 
BRANCH   7   8
ATOM      8  C   UNL     1      -6.413  -2.798  -1.528  1.00  0.00    -0.034 C 
ATOM      9  C   UNL     1      -5.436  -3.357  -2.245  1.00  0.00     0.004 C 
ENDBRANCH   7   8
ENDBRANCH   1   7
TORSDOF 4
ENDMDL
MODEL 5
REMARK VINA RESULT:    -4.559      1.580      4.120
REMARK INTER + INTRA:          -5.797
REMARK INTER:                  -5.477
REMARK INTRA:                  -0.320
REMARK UNBOUND:                -0.172
REMARK SMILES C=CC[C@@H](C)C(=O)CC
REMARK SMILES IDX 4 1 5 2 6 3 7 4 8 5 9 6 3 7 2 8 1 9
REMARK H PARENT
REMARK Flexibility Score: inf
ROOT
ATOM      1  C   UNL     1      -6.103  -0.558  -0.161  1.00  0.00     0.057 C 
ATOM      2  C   UNL     1      -6.875   0.097   0.994  1.00  0.00     0.016 C 
ENDROOT
BRANCH   1   3
ATOM      3  C   UNL     1      -4.652  -0.129  -0.112  1.00  0.00     0.135 C 
ATOM      4  O   UNL     1      -4.010  -0.040  -1.150  1.00  0.00    -0.299 OA
BRANCH   3   5
ATOM      5  C   UNL     1      -3.980   0.202   1.195  1.00  0.00     0.072 C 
ATOM      6  C   UNL     1      -3.259  -1.020   1.757  1.00  0.00     0.012 C 
ENDBRANCH   3   5
ENDBRANCH   1   3
BRANCH   1   7
ATOM      7  C   UNL     1      -6.200  -2.096  -0.113  1.00  0.00     0.038 C 
BRANCH   7   8
ATOM      8  C   UNL     1      -6.398  -2.702  -1.480  1.00  0.00    -0.034 C 
ATOM      9  C   UNL     1      -5.376  -3.255  -2.137  1.00  0.00     0.004 C 
ENDBRANCH   7   8
ENDBRANCH   1   7
TORSDOF 4
ENDMDL
MODEL 6
REMARK VINA RESULT:    -4.504      1.950      4.210
REMARK INTER + INTRA:          -5.729
REMARK INTER:                  -5.477
REMARK INTRA:                  -0.252
REMARK UNBOUND:                -0.172
REMARK SMILES C=CC[C@@H](C)C(=O)CC
REMARK SMILES IDX 4 1 5 2 6 3 7 4 8 5 9 6 3 7 2 8 1 9
REMARK H PARENT
REMARK Flexibility Score: inf
ROOT
ATOM      1  C   UNL     1      -5.600   0.415   0.561  1.00  0.00     0.057 C 
ATOM      2  C   UNL     1      -6.994   0.207   1.171  1.00  0.00     0.016 C 
ENDROOT
BRANCH   1   3
ATOM      3  C   UNL     1      -4.589   0.635   1.666  1.00  0.00     0.135 C 
ATOM      4  O   UNL     1      -4.888   1.317   2.636  1.00  0.00    -0.299 OA
BRANCH   3   5
ATOM      5  C   UNL     1      -3.216   0.018   1.600  1.00  0.00     0.072 C 
ATOM      6  C   UNL     1      -3.006  -0.958   2.754  1.00  0.00     0.012 C 
ENDBRANCH   3   5
ENDBRANCH   1   3
BRANCH   1   7
ATOM      7  C   UNL     1      -5.174  -0.782  -0.313  1.00  0.00     0.038 C 
BRANCH   7   8
ATOM      8  C   UNL     1      -6.071  -1.979  -0.124  1.00  0.00    -0.034 C 
ATOM      9  C   UNL     1      -6.787  -2.465  -1.140  1.00  0.00     0.004 C 
ENDBRANCH   7   8
ENDBRANCH   1   7
TORSDOF 4
ENDMDL
MODEL 7
REMARK VINA RESULT:    -4.496      1.783      2.721
REMARK INTER + INTRA:          -5.719
REMARK INTER:                  -5.276
REMARK INTRA:                  -0.443
REMARK UNBOUND:                -0.172
REMARK SMILES C=CC[C@@H](C)C(=O)CC
REMARK SMILES IDX 4 1 5 2 6 3 7 4 8 5 9 6 3 7 2 8 1 9
REMARK H PARENT
REMARK Flexibility Score: inf
ROOT
ATOM      1  C   UNL     1      -5.895  -1.779  -0.186  1.00  0.00     0.057 C 
ATOM      2  C   UNL     1      -6.841  -2.526  -1.138  1.00  0.00     0.016 C 
ENDROOT
BRANCH   1   3
ATOM      3  C   UNL     1      -4.458  -2.096  -0.542  1.00  0.00     0.135 C 
ATOM      4  O   UNL     1      -4.208  -2.691  -1.581  1.00  0.00    -0.299 OA
BRANCH   3   5
ATOM      5  C   UNL     1      -3.323  -1.682   0.357  1.00  0.00     0.072 C 
ATOM      6  C   UNL     1      -3.549  -2.186   1.780  1.00  0.00     0.012 C 
ENDBRANCH   3   5
ENDBRANCH   1   3
BRANCH   1   7
ATOM      7  C   UNL     1      -6.125  -0.254  -0.233  1.00  0.00     0.038 C 
BRANCH   7   8
ATOM      8  C   UNL     1      -6.551   0.303   1.102  1.00  0.00    -0.034 C 
ATOM      9  C   UNL     1      -5.663   0.867   1.922  1.00  0.00     0.004 C 
ENDBRANCH   7   8
ENDBRANCH   1   7
TORSDOF 4
ENDMDL
MODEL 8
REMARK VINA RESULT:    -4.471      1.708      2.069
REMARK INTER + INTRA:          -5.689
REMARK INTER:                  -5.432
REMARK INTRA:                  -0.257
REMARK UNBOUND:                -0.172
REMARK SMILES C=CC[C@@H](C)C(=O)CC
REMARK SMILES IDX 4 1 5 2 6 3 7 4 8 5 9 6 3 7 2 8 1 9
REMARK H PARENT
REMARK Flexibility Score: inf
ROOT
ATOM      1  C   UNL     1      -5.925  -1.919   0.511  1.00  0.00     0.057 C 
ATOM      2  C   UNL     1      -6.389  -0.460   0.628  1.00  0.00     0.016 C 
ENDROOT
BRANCH   1   3
ATOM      3  C   UNL     1      -6.045  -2.379  -0.926  1.00  0.00     0.135 C 
ATOM      4  O   UNL     1      -7.152  -2.577  -1.409  1.00  0.00    -0.299 OA
BRANCH   3   5
ATOM      5  C   UNL     1      -4.824  -2.588  -1.783  1.00  0.00     0.072 C 
ATOM      6  C   UNL     1      -4.921  -3.903  -2.552  1.00  0.00     0.012 C 
ENDBRANCH   3   5
ENDBRANCH   1   3
BRANCH   1   7
ATOM      7  C   UNL     1      -4.473  -2.098   1.002  1.00  0.00     0.038 C 
BRANCH   7   8
ATOM      8  C   UNL     1      -3.861  -0.803   1.469  1.00  0.00    -0.034 C 
ATOM      9  C   UNL     1      -3.158  -0.747   2.603  1.00  0.00     0.004 C 
ENDBRANCH   7   8
ENDBRANCH   1   7
TORSDOF 4
ENDMDL
MODEL 9
REMARK VINA RESULT:    -4.414      1.854      3.927
REMARK INTER + INTRA:          -5.619
REMARK INTER:                  -5.331
REMARK INTRA:                  -0.287
REMARK UNBOUND:                -0.172
REMARK SMILES C=CC[C@@H](C)C(=O)CC
REMARK SMILES IDX 4 1 5 2 6 3 7 4 8 5 9 6 3 7 2 8 1 9
REMARK H PARENT
REMARK Flexibility Score: inf
ROOT
ATOM      1  C   UNL     1      -4.918  -2.671  -0.471  1.00  0.00     0.057 C 
ATOM      2  C   UNL     1      -3.955  -2.060   0.557  1.00  0.00     0.016 C 
ENDROOT
BRANCH   1   3
ATOM      3  C   UNL     1      -6.108  -1.755  -0.661  1.00  0.00     0.135 C 
ATOM      4  O   UNL     1      -7.162  -2.210  -1.083  1.00  0.00    -0.299 OA
BRANCH   3   5
ATOM      5  C   UNL     1      -6.024  -0.288  -0.331  1.00  0.00     0.072 C 
ATOM      6  C   UNL     1      -6.869   0.040   0.896  1.00  0.00     0.012 C 
ENDBRANCH   3   5
ENDBRANCH   1   3
BRANCH   1   7
ATOM      7  C   UNL     1      -4.224  -2.921  -1.826  1.00  0.00     0.038 C 
BRANCH   7   8
ATOM      8  C   UNL     1      -2.934  -2.152  -1.962  1.00  0.00    -0.034 C 
ATOM      9  C   UNL     1      -2.777  -1.246  -2.929  1.00  0.00     0.004 C 
ENDBRANCH   7   8
ENDBRANCH   1   7
TORSDOF 4
ENDMDL
