MODEL 1
REMARK VINA RESULT:    -3.335      0.000      0.000
REMARK INTER + INTRA:          -4.381
REMARK INTER:                  -4.115
REMARK INTRA:                  -0.266
REMARK UNBOUND:                -0.266
REMARK SMILES CCCCCC(=O)[O-]
REMARK SMILES IDX 4 1 5 2 6 3 7 4 8 5 3 6 2 7 1 8
REMARK H PARENT
REMARK Flexibility Score: inf
ROOT
ATOM      1  C   UNL     1      93.179  83.829  80.184  1.00  0.00     0.006 C 
ENDROOT
BRANCH   1   2
ATOM      2  C   UNL     1      94.371  83.988  79.231  1.00  0.00     0.053 C 
BRANCH   2   3
ATOM      3  C   UNL     1      95.277  85.102  79.657  1.00  0.00     0.041 C 
ATOM      4  O   UNL     1      95.871  85.048  80.767  1.00  0.00    -0.550 OA
ATOM      5  O   UNL     1      95.495  86.185  78.814  1.00  0.00    -0.550 OA
ENDBRANCH   2   3
ENDBRANCH   1   2
BRANCH   1   6
ATOM      6  C   UNL     1      92.235  85.043  80.141  1.00  0.00     0.000 C 
BRANCH   6   7
ATOM      7  C   UNL     1      91.656  85.290  78.740  1.00  0.00    -0.003 C 
ATOM      8  C   UNL     1      92.011  86.670  78.189  1.00  0.00     0.004 C 
ENDBRANCH   6   7
ENDBRANCH   1   6
TORSDOF 4
ENDMDL
MODEL 2
REMARK VINA RESULT:    -3.335     11.063     11.799
REMARK INTER + INTRA:          -4.381
REMARK INTER:                  -4.239
REMARK INTRA:                  -0.142
REMARK UNBOUND:                -0.266
REMARK SMILES CCCCCC(=O)[O-]
REMARK SMILES IDX 4 1 5 2 6 3 7 4 8 5 3 6 2 7 1 8
REMARK H PARENT
REMARK Flexibility Score: inf
ROOT
ATOM      1  C   UNL     1      88.407  76.199  72.630  1.00  0.00     0.006 C 
ENDROOT
BRANCH   1   2
ATOM      2  C   UNL     1      87.935  77.594  72.200  1.00  0.00     0.053 C 
BRANCH   2   3
ATOM      3  C   UNL     1      89.031  78.372  71.539  1.00  0.00     0.041 C 
ATOM      4  O   UNL     1      88.899  78.770  70.351  1.00  0.00    -0.550 OA
ATOM      5  O   UNL     1      90.184  78.690  72.246  1.00  0.00    -0.550 OA
ENDBRANCH   2   3
ENDBRANCH   1   2
BRANCH   1   6
ATOM      6  C   UNL     1      87.793  75.767  73.973  1.00  0.00     0.000 C 
BRANCH   6   7
ATOM      7  C   UNL     1      87.970  76.827  75.070  1.00  0.00    -0.003 C 
ATOM      8  C   UNL     1      86.755  76.934  75.991  1.00  0.00     0.004 C 
ENDBRANCH   6   7
ENDBRANCH   1   6
TORSDOF 4
ENDMDL
MODEL 3
REMARK VINA RESULT:    -3.321      1.410      1.995
REMARK INTER + INTRA:          -4.363
REMARK INTER:                  -4.233
REMARK INTRA:                  -0.130
REMARK UNBOUND:                -0.266
REMARK SMILES CCCCCC(=O)[O-]
REMARK SMILES IDX 4 1 5 2 6 3 7 4 8 5 3 6 2 7 1 8
REMARK H PARENT
REMARK Flexibility Score: inf
ROOT
ATOM      1  C   UNL     1      94.300  83.951  79.235  1.00  0.00     0.006 C 
ENDROOT
BRANCH   1   2
ATOM      2  C   UNL     1      95.143  84.703  80.274  1.00  0.00     0.053 C 
BRANCH   2   3
ATOM      3  C   UNL     1      96.000  85.754  79.638  1.00  0.00     0.041 C 
ATOM      4  O   UNL     1      97.191  85.912  80.013  1.00  0.00    -0.550 OA
ATOM      5  O   UNL     1      95.494  86.535  78.606  1.00  0.00    -0.550 OA
ENDBRANCH   2   3
ENDBRANCH   1   2
BRANCH   1   6
ATOM      6  C   UNL     1      92.805  84.297  79.339  1.00  0.00     0.000 C 
BRANCH   6   7
ATOM      7  C   UNL     1      92.335  84.449  80.793  1.00  0.00    -0.003 C 
ATOM      8  C   UNL     1      90.896  83.978  81.002  1.00  0.00     0.004 C 
ENDBRANCH   6   7
ENDBRANCH   1   6
TORSDOF 4
ENDMDL
MODEL 4
REMARK VINA RESULT:    -3.321     11.991     12.659
REMARK INTER + INTRA:          -4.363
REMARK INTER:                  -4.157
REMARK INTRA:                  -0.206
REMARK UNBOUND:                -0.266
REMARK SMILES CCCCCC(=O)[O-]
REMARK SMILES IDX 4 1 5 2 6 3 7 4 8 5 3 6 2 7 1 8
REMARK H PARENT
REMARK Flexibility Score: inf
ROOT
ATOM      1  C   UNL     1      88.606  76.146  72.806  1.00  0.00     0.006 C 
ENDROOT
BRANCH   1   2
ATOM      2  C   UNL     1      88.954  77.580  72.386  1.00  0.00     0.053 C 
BRANCH   2   3
ATOM      3  C   UNL     1      87.986  78.113  71.375  1.00  0.00     0.041 C 
ATOM      4  O   UNL     1      86.791  78.343  71.701  1.00  0.00    -0.550 OA
ATOM      5  O   UNL     1      88.410  78.390  70.082  1.00  0.00    -0.550 OA
ENDBRANCH   2   3
ENDBRANCH   1   2
BRANCH   1   6
ATOM      6  C   UNL     1      88.196  76.058  74.286  1.00  0.00     0.000 C 
BRANCH   6   7
ATOM      7  C   UNL     1      86.864  75.319  74.485  1.00  0.00    -0.003 C 
ATOM      8  C   UNL     1      86.034  75.243  73.204  1.00  0.00     0.004 C 
ENDBRANCH   6   7
ENDBRANCH   1   6
TORSDOF 4
ENDMDL
MODEL 5
REMARK VINA RESULT:    -3.317      0.904      1.189
REMARK INTER + INTRA:          -4.358
REMARK INTER:                  -4.190
REMARK INTRA:                  -0.169
REMARK UNBOUND:                -0.266
REMARK SMILES CCCCCC(=O)[O-]
REMARK SMILES IDX 4 1 5 2 6 3 7 4 8 5 3 6 2 7 1 8
REMARK H PARENT
REMARK Flexibility Score: inf
ROOT
ATOM      1  C   UNL     1      94.296  84.176  79.338  1.00  0.00     0.006 C 
ENDROOT
BRANCH   1   2
ATOM      2  C   UNL     1      95.301  84.764  80.336  1.00  0.00     0.053 C 
BRANCH   2   3
ATOM      3  C   UNL     1      96.195  85.778  79.692  1.00  0.00     0.041 C 
ATOM      4  O   UNL     1      97.361  85.965  80.130  1.00  0.00    -0.550 OA
ATOM      5  O   UNL     1      95.754  86.493  78.585  1.00  0.00    -0.550 OA
ENDBRANCH   2   3
ENDBRANCH   1   2
BRANCH   1   6
ATOM      6  C   UNL     1      92.847  84.275  79.847  1.00  0.00     0.000 C 
BRANCH   6   7
ATOM      7  C   UNL     1      91.894  84.867  78.798  1.00  0.00    -0.003 C 
ATOM      8  C   UNL     1      92.286  86.283  78.376  1.00  0.00     0.004 C 
ENDBRANCH   6   7
ENDBRANCH   1   6
TORSDOF 4
ENDMDL
MODEL 6
REMARK VINA RESULT:    -3.317     11.859     12.430
REMARK INTER + INTRA:          -4.358
REMARK INTER:                  -4.210
REMARK INTRA:                  -0.148
REMARK UNBOUND:                -0.266
REMARK SMILES CCCCCC(=O)[O-]
REMARK SMILES IDX 4 1 5 2 6 3 7 4 8 5 3 6 2 7 1 8
REMARK H PARENT
REMARK Flexibility Score: inf
ROOT
ATOM      1  C   UNL     1      87.457  75.836  72.986  1.00  0.00     0.006 C 
ENDROOT
BRANCH   1   2
ATOM      2  C   UNL     1      87.181  75.465  74.448  1.00  0.00     0.053 C 
BRANCH   2   3
ATOM      3  C   UNL     1      86.249  76.438  75.102  1.00  0.00     0.041 C 
ATOM      4  O   UNL     1      86.587  77.023  76.165  1.00  0.00    -0.550 OA
ATOM      5  O   UNL     1      85.021  76.726  74.520  1.00  0.00    -0.550 OA
ENDBRANCH   2   3
ENDBRANCH   1   2
BRANCH   1   6
ATOM      6  C   UNL     1      88.095  77.229  72.850  1.00  0.00     0.000 C 
BRANCH   6   7
ATOM      7  C   UNL     1      87.464  78.059  71.722  1.00  0.00    -0.003 C 
ATOM      8  C   UNL     1      88.473  78.966  71.020  1.00  0.00     0.004 C 
ENDBRANCH   6   7
ENDBRANCH   1   6
TORSDOF 4
ENDMDL
MODEL 7
REMARK VINA RESULT:    -3.245     11.551     12.051
REMARK INTER + INTRA:          -4.269
REMARK INTER:                  -4.163
REMARK INTRA:                  -0.106
REMARK UNBOUND:                -0.266
REMARK SMILES CCCCCC(=O)[O-]
REMARK SMILES IDX 4 1 5 2 6 3 7 4 8 5 3 6 2 7 1 8
REMARK H PARENT
REMARK Flexibility Score: inf
ROOT
ATOM      1  C   UNL     1      88.316  76.847  72.258  1.00  0.00     0.006 C 
ENDROOT
BRANCH   1   2
ATOM      2  C   UNL     1      88.979  77.051  73.627  1.00  0.00     0.053 C 
BRANCH   2   3
ATOM      3  C   UNL     1      88.852  75.836  74.492  1.00  0.00     0.041 C 
ATOM      4  O   UNL     1      89.881  75.286  74.968  1.00  0.00    -0.550 OA
ATOM      5  O   UNL     1      87.597  75.330  74.804  1.00  0.00    -0.550 OA
ENDBRANCH   2   3
ENDBRANCH   1   2
BRANCH   1   6
ATOM      6  C   UNL     1      87.660  78.135  71.732  1.00  0.00     0.000 C 
BRANCH   6   7
ATOM      7  C   UNL     1      88.567  78.902  70.758  1.00  0.00    -0.003 C 
ATOM      8  C   UNL     1      89.485  77.981  69.955  1.00  0.00     0.004 C 
ENDBRANCH   6   7
ENDBRANCH   1   6
TORSDOF 4
ENDMDL
MODEL 8
REMARK VINA RESULT:    -3.222      2.352      3.654
REMARK INTER + INTRA:          -4.241
REMARK INTER:                  -4.066
REMARK INTRA:                  -0.175
REMARK UNBOUND:                -0.266
REMARK SMILES CCCCCC(=O)[O-]
REMARK SMILES IDX 4 1 5 2 6 3 7 4 8 5 3 6 2 7 1 8
REMARK H PARENT
REMARK Flexibility Score: inf
ROOT
ATOM      1  C   UNL     1      94.502  84.187  79.368  1.00  0.00     0.006 C 
ENDROOT
BRANCH   1   2
ATOM      2  C   UNL     1      93.144  83.867  80.007  1.00  0.00     0.053 C 
BRANCH   2   3
ATOM      3  C   UNL     1      92.037  84.665  79.389  1.00  0.00     0.041 C 
ATOM      4  O   UNL     1      92.290  85.509  78.489  1.00  0.00    -0.550 OA
ATOM      5  O   UNL     1      90.721  84.452  79.781  1.00  0.00    -0.550 OA
ENDBRANCH   2   3
ENDBRANCH   1   2
BRANCH   1   6
ATOM      6  C   UNL     1      95.501  84.764  80.386  1.00  0.00     0.000 C 
BRANCH   6   7
ATOM      7  C   UNL     1      96.217  86.018  79.861  1.00  0.00    -0.003 C 
ATOM      8  C   UNL     1      95.603  86.553  78.569  1.00  0.00     0.004 C 
ENDBRANCH   6   7
ENDBRANCH   1   6
TORSDOF 4
ENDMDL
MODEL 9
REMARK VINA RESULT:    -3.208      2.185      3.399
REMARK INTER + INTRA:          -4.224
REMARK INTER:                  -3.989
REMARK INTRA:                  -0.234
REMARK UNBOUND:                -0.266
REMARK SMILES CCCCCC(=O)[O-]
REMARK SMILES IDX 4 1 5 2 6 3 7 4 8 5 3 6 2 7 1 8
REMARK H PARENT
REMARK Flexibility Score: inf
ROOT
ATOM      1  C   UNL     1      92.476  84.127  80.139  1.00  0.00     0.006 C 
ENDROOT
BRANCH   1   2
ATOM      2  C   UNL     1      91.517  84.794  79.144  1.00  0.00     0.053 C 
BRANCH   2   3
ATOM      3  C   UNL     1      91.700  86.280  79.107  1.00  0.00     0.041 C 
ATOM      4  O   UNL     1      91.297  86.992  80.064  1.00  0.00    -0.550 OA
ATOM      5  O   UNL     1      92.348  86.876  78.032  1.00  0.00    -0.550 OA
ENDBRANCH   2   3
ENDBRANCH   1   2
BRANCH   1   6
ATOM      6  C   UNL     1      93.818  83.751  79.488  1.00  0.00     0.000 C 
BRANCH   6   7
ATOM      7  C   UNL     1      95.004  84.508  80.104  1.00  0.00    -0.003 C 
ATOM      8  C   UNL     1      95.476  85.674  79.236  1.00  0.00     0.004 C 
ENDBRANCH   6   7
ENDBRANCH   1   6
TORSDOF 4
ENDMDL
