MODEL 1
REMARK VINA RESULT:    -5.196      0.000      0.000
REMARK INTER + INTRA:         -11.364
REMARK INTER:                  -9.753
REMARK INTRA:                  -1.611
REMARK UNBOUND:                -1.611
REMARK SMILES O=C([O-])CCCCCCCCCCCCCCC(=O)[O-]
REMARK SMILES IDX 10 1 9 2 8 3 7 4 6 5 5 6 4 7 2 8 1 9 3 10 11 11 12 12 13 13
REMARK SMILES IDX 14 14 15 15 16 16 17 17 18 18 19 19 20 20
REMARK H PARENT
REMARK Flexibility Score: inf
ROOT
ATOM      1  C   UNL     1      31.864  55.176  27.690  1.00  0.00     0.000 C 
ENDROOT
BRANCH   1   2
ATOM      2  C   UNL     1      32.266  56.208  26.622  1.00  0.00     0.000 C 
BRANCH   2   3
ATOM      3  C   UNL     1      33.759  56.137  26.266  1.00  0.00     0.000 C 
BRANCH   3   4
ATOM      4  C   UNL     1      34.625  57.045  27.157  1.00  0.00     0.000 C 
BRANCH   4   5
ATOM      5  C   UNL     1      36.026  56.463  27.410  1.00  0.00     0.000 C 
BRANCH   5   6
ATOM      6  C   UNL     1      36.646  56.969  28.724  1.00  0.00     0.006 C 
BRANCH   6   7
ATOM      7  C   UNL     1      36.052  58.314  29.165  1.00  0.00     0.053 C 
BRANCH   7   8
ATOM      8  C   UNL     1      35.635  58.295  30.604  1.00  0.00     0.041 C 
ATOM      9  O   UNL     1      34.575  57.708  30.947  1.00  0.00    -0.550 OA
ATOM     10  O   UNL     1      36.401  58.949  31.561  1.00  0.00    -0.550 OA
ENDBRANCH   7   8
ENDBRANCH   6   7
ENDBRANCH   5   6
ENDBRANCH   4   5
ENDBRANCH   3   4
ENDBRANCH   2   3
ENDBRANCH   1   2
BRANCH   1  11
ATOM     11  C   UNL     1      32.750  53.919  27.663  1.00  0.00     0.000 C 
BRANCH  11  12
ATOM     12  C   UNL     1      33.241  53.509  29.062  1.00  0.00     0.000 C 
BRANCH  12  13
ATOM     13  C   UNL     1      33.109  54.646  30.088  1.00  0.00     0.000 C 
BRANCH  13  14
ATOM     14  C   UNL     1      33.498  54.206  31.509  1.00  0.00     0.000 C 
BRANCH  14  15
ATOM     15  C   UNL     1      32.282  54.056  32.440  1.00  0.00     0.000 C 
BRANCH  15  16
ATOM     16  C   UNL     1      32.423  54.822  33.772  1.00  0.00     0.006 C 
BRANCH  16  17
ATOM     17  C   UNL     1      32.693  56.316  33.555  1.00  0.00     0.053 C 
BRANCH  17  18
ATOM     18  C   UNL     1      33.737  56.805  34.508  1.00  0.00     0.041 C 
ATOM     19  O   UNL     1      34.078  56.098  35.492  1.00  0.00    -0.550 OA
ATOM     20  O   UNL     1      34.299  58.065  34.337  1.00  0.00    -0.550 OA
ENDBRANCH  17  18
ENDBRANCH  16  17
ENDBRANCH  15  16
ENDBRANCH  14  15
ENDBRANCH  13  14
ENDBRANCH  12  13
ENDBRANCH  11  12
ENDBRANCH   1  11
TORSDOF 15
ENDMDL
MODEL 2
REMARK VINA RESULT:    -5.174      3.011      3.727
REMARK INTER + INTRA:         -11.321
REMARK INTER:                  -9.721
REMARK INTRA:                  -1.600
REMARK UNBOUND:                -1.611
REMARK SMILES O=C([O-])CCCCCCCCCCCCCCC(=O)[O-]
REMARK SMILES IDX 10 1 9 2 8 3 7 4 6 5 5 6 4 7 2 8 1 9 3 10 11 11 12 12 13 13
REMARK SMILES IDX 14 14 15 15 16 16 17 17 18 18 19 19 20 20
REMARK H PARENT
REMARK Flexibility Score: inf
ROOT
ATOM      1  C   UNL     1      31.773  55.168  27.796  1.00  0.00     0.000 C 
ENDROOT
BRANCH   1   2
ATOM      2  C   UNL     1      32.095  56.069  26.591  1.00  0.00     0.000 C 
BRANCH   2   3
ATOM      3  C   UNL     1      33.473  55.767  25.982  1.00  0.00     0.000 C 
BRANCH   3   4
ATOM      4  C   UNL     1      34.458  56.940  26.130  1.00  0.00     0.000 C 
BRANCH   4   5
ATOM      5  C   UNL     1      35.472  56.721  27.263  1.00  0.00     0.000 C 
BRANCH   5   6
ATOM      6  C   UNL     1      34.968  57.252  28.617  1.00  0.00     0.006 C 
BRANCH   6   7
ATOM      7  C   UNL     1      36.078  57.947  29.417  1.00  0.00     0.053 C 
BRANCH   7   8
ATOM      8  C   UNL     1      35.627  58.311  30.798  1.00  0.00     0.041 C 
ATOM      9  O   UNL     1      34.494  57.948  31.210  1.00  0.00    -0.550 OA
ATOM     10  O   UNL     1      36.446  59.075  31.621  1.00  0.00    -0.550 OA
ENDBRANCH   7   8
ENDBRANCH   6   7
ENDBRANCH   5   6
ENDBRANCH   4   5
ENDBRANCH   3   4
ENDBRANCH   2   3
ENDBRANCH   1   2
BRANCH   1  11
ATOM     11  C   UNL     1      32.618  53.883  27.818  1.00  0.00     0.000 C 
BRANCH  11  12
ATOM     12  C   UNL     1      33.497  53.773  29.076  1.00  0.00     0.000 C 
BRANCH  12  13
ATOM     13  C   UNL     1      32.976  54.638  30.235  1.00  0.00     0.000 C 
BRANCH  13  14
ATOM     14  C   UNL     1      32.786  53.834  31.532  1.00  0.00     0.000 C 
BRANCH  14  15
ATOM     15  C   UNL     1      32.899  52.315  31.313  1.00  0.00     0.000 C 
BRANCH  15  16
ATOM     16  C   UNL     1      31.836  51.498  32.076  1.00  0.00     0.006 C 
BRANCH  16  17
ATOM     17  C   UNL     1      30.736  50.968  31.146  1.00  0.00     0.053 C 
BRANCH  17  18
ATOM     18  C   UNL     1      29.405  51.017  31.827  1.00  0.00     0.041 C 
ATOM     19  O   UNL     1      29.231  51.760  32.828  1.00  0.00    -0.550 OA
ATOM     20  O   UNL     1      28.369  50.201  31.387  1.00  0.00    -0.550 OA
ENDBRANCH  17  18
ENDBRANCH  16  17
ENDBRANCH  15  16
ENDBRANCH  14  15
ENDBRANCH  13  14
ENDBRANCH  12  13
ENDBRANCH  11  12
ENDBRANCH   1  11
TORSDOF 15
ENDMDL
MODEL 3
REMARK VINA RESULT:    -5.151      3.186      6.778
REMARK INTER + INTRA:         -11.278
REMARK INTER:                  -9.772
REMARK INTRA:                  -1.506
REMARK UNBOUND:                -1.611
REMARK SMILES O=C([O-])CCCCCCCCCCCCCCC(=O)[O-]
REMARK SMILES IDX 10 1 9 2 8 3 7 4 6 5 5 6 4 7 2 8 1 9 3 10 11 11 12 12 13 13
REMARK SMILES IDX 14 14 15 15 16 16 17 17 18 18 19 19 20 20
REMARK H PARENT
REMARK Flexibility Score: inf
ROOT
ATOM      1  C   UNL     1      35.252  57.759  32.472  1.00  0.00     0.000 C 
ENDROOT
BRANCH   1   2
ATOM      2  C   UNL     1      34.281  57.009  33.399  1.00  0.00     0.000 C 
BRANCH   2   3
ATOM      3  C   UNL     1      32.931  56.715  32.725  1.00  0.00     0.000 C 
BRANCH   3   4
ATOM      4  C   UNL     1      32.199  55.519  33.359  1.00  0.00     0.000 C 
BRANCH   4   5
ATOM      5  C   UNL     1      32.566  54.182  32.696  1.00  0.00     0.000 C 
BRANCH   5   6
ATOM      6  C   UNL     1      33.568  54.352  31.541  1.00  0.00     0.006 C 
BRANCH   6   7
ATOM      7  C   UNL     1      32.955  53.984  30.183  1.00  0.00     0.053 C 
BRANCH   7   8
ATOM      8  C   UNL     1      33.360  52.611  29.741  1.00  0.00     0.041 C 
ATOM      9  O   UNL     1      33.039  52.195  28.596  1.00  0.00    -0.550 OA
ATOM     10  O   UNL     1      34.066  51.781  30.602  1.00  0.00    -0.550 OA
ENDBRANCH   7   8
ENDBRANCH   6   7
ENDBRANCH   5   6
ENDBRANCH   4   5
ENDBRANCH   3   4
ENDBRANCH   2   3
ENDBRANCH   1   2
BRANCH   1  11
ATOM     11  C   UNL     1      34.693  57.942  31.050  1.00  0.00     0.000 C 
BRANCH  11  12
ATOM     12  C   UNL     1      35.747  57.682  29.960  1.00  0.00     0.000 C 
BRANCH  12  13
ATOM     13  C   UNL     1      35.192  56.853  28.791  1.00  0.00     0.000 C 
BRANCH  13  14
ATOM     14  C   UNL     1      35.254  57.608  27.453  1.00  0.00     0.000 C 
BRANCH  14  15
ATOM     15  C   UNL     1      34.677  56.794  26.282  1.00  0.00     0.000 C 
BRANCH  15  16
ATOM     16  C   UNL     1      33.167  56.502  26.414  1.00  0.00     0.006 C 
BRANCH  16  17
ATOM     17  C   UNL     1      32.873  54.998  26.491  1.00  0.00     0.053 C 
BRANCH  17  18
ATOM     18  C   UNL     1      31.411  54.759  26.695  1.00  0.00     0.041 C 
ATOM     19  O   UNL     1      30.733  55.544  27.407  1.00  0.00    -0.550 OA
ATOM     20  O   UNL     1      30.807  53.638  26.137  1.00  0.00    -0.550 OA
ENDBRANCH  17  18
ENDBRANCH  16  17
ENDBRANCH  15  16
ENDBRANCH  14  15
ENDBRANCH  13  14
ENDBRANCH  12  13
ENDBRANCH  11  12
ENDBRANCH   1  11
TORSDOF 15
ENDMDL
MODEL 4
REMARK VINA RESULT:    -5.150      1.175      4.655
REMARK INTER + INTRA:         -11.276
REMARK INTER:                  -9.500
REMARK INTRA:                  -1.776
REMARK UNBOUND:                -1.611
REMARK SMILES O=C([O-])CCCCCCCCCCCCCCC(=O)[O-]
REMARK SMILES IDX 10 1 9 2 8 3 7 4 6 5 5 6 4 7 2 8 1 9 3 10 11 11 12 12 13 13
REMARK SMILES IDX 14 14 15 15 16 16 17 17 18 18 19 19 20 20
REMARK H PARENT
REMARK Flexibility Score: inf
ROOT
ATOM      1  C   UNL     1      31.978  55.397  27.698  1.00  0.00     0.000 C 
ENDROOT
BRANCH   1   2
ATOM      2  C   UNL     1      32.286  53.894  27.585  1.00  0.00     0.000 C 
BRANCH   2   3
ATOM      3  C   UNL     1      32.847  53.308  28.891  1.00  0.00     0.000 C 
BRANCH   3   4
ATOM      4  C   UNL     1      33.137  54.386  29.949  1.00  0.00     0.000 C 
BRANCH   4   5
ATOM      5  C   UNL     1      33.485  53.789  31.322  1.00  0.00     0.000 C 
BRANCH   5   6
ATOM      6  C   UNL     1      32.287  53.797  32.289  1.00  0.00     0.006 C 
BRANCH   6   7
ATOM      7  C   UNL     1      32.723  53.985  33.749  1.00  0.00     0.053 C 
BRANCH   7   8
ATOM      8  C   UNL     1      32.645  55.420  34.174  1.00  0.00     0.041 C 
ATOM      9  O   UNL     1      33.191  55.792  35.246  1.00  0.00    -0.550 OA
ATOM     10  O   UNL     1      31.945  56.339  33.403  1.00  0.00    -0.550 OA
ENDBRANCH   7   8
ENDBRANCH   6   7
ENDBRANCH   5   6
ENDBRANCH   4   5
ENDBRANCH   3   4
ENDBRANCH   2   3
ENDBRANCH   1   2
BRANCH   1  11
ATOM     11  C   UNL     1      32.291  56.165  26.403  1.00  0.00     0.000 C 
BRANCH  11  12
ATOM     12  C   UNL     1      33.796  56.210  26.088  1.00  0.00     0.000 C 
BRANCH  12  13
ATOM     13  C   UNL     1      34.508  57.380  26.788  1.00  0.00     0.000 C 
BRANCH  13  14
ATOM     14  C   UNL     1      35.290  56.932  28.034  1.00  0.00     0.000 C 
BRANCH  14  15
ATOM     15  C   UNL     1      36.239  58.021  28.565  1.00  0.00     0.000 C 
BRANCH  15  16
ATOM     16  C   UNL     1      36.071  58.308  30.072  1.00  0.00     0.006 C 
BRANCH  16  17
ATOM     17  C   UNL     1      34.935  57.486  30.695  1.00  0.00     0.053 C 
BRANCH  17  18
ATOM     18  C   UNL     1      35.242  57.167  32.124  1.00  0.00     0.041 C 
ATOM     19  O   UNL     1      35.817  56.088  32.424  1.00  0.00    -0.550 OA
ATOM     20  O   UNL     1      34.846  58.039  33.131  1.00  0.00    -0.550 OA
ENDBRANCH  17  18
ENDBRANCH  16  17
ENDBRANCH  15  16
ENDBRANCH  14  15
ENDBRANCH  13  14
ENDBRANCH  12  13
ENDBRANCH  11  12
ENDBRANCH   1  11
TORSDOF 15
ENDMDL
MODEL 5
REMARK VINA RESULT:    -5.131      3.175      5.113
REMARK INTER + INTRA:         -11.240
REMARK INTER:                  -9.676
REMARK INTRA:                  -1.564
REMARK UNBOUND:                -1.611
REMARK SMILES O=C([O-])CCCCCCCCCCCCCCC(=O)[O-]
REMARK SMILES IDX 10 1 9 2 8 3 7 4 6 5 5 6 4 7 2 8 1 9 3 10 11 11 12 12 13 13
REMARK SMILES IDX 14 14 15 15 16 16 17 17 18 18 19 19 20 20
REMARK H PARENT
REMARK Flexibility Score: inf
ROOT
ATOM      1  C   UNL     1      32.251  55.398  32.938  1.00  0.00     0.000 C 
ENDROOT
BRANCH   1   2
ATOM      2  C   UNL     1      32.660  56.426  31.870  1.00  0.00     0.000 C 
BRANCH   2   3
ATOM      3  C   UNL     1      33.968  57.154  32.222  1.00  0.00     0.000 C 
BRANCH   3   4
ATOM      4  C   UNL     1      35.052  56.980  31.145  1.00  0.00     0.000 C 
BRANCH   4   5
ATOM      5  C   UNL     1      35.593  58.323  30.629  1.00  0.00     0.000 C 
BRANCH   5   6
ATOM      6  C   UNL     1      36.302  58.190  29.269  1.00  0.00     0.006 C 
BRANCH   6   7
ATOM      7  C   UNL     1      35.346  57.731  28.160  1.00  0.00     0.053 C 
BRANCH   7   8
ATOM      8  C   UNL     1      36.012  56.792  27.202  1.00  0.00     0.041 C 
ATOM      9  O   UNL     1      35.551  56.641  26.040  1.00  0.00    -0.550 OA
ATOM     10  O   UNL     1      37.124  56.060  27.602  1.00  0.00    -0.550 OA
ENDBRANCH   7   8
ENDBRANCH   6   7
ENDBRANCH   5   6
ENDBRANCH   4   5
ENDBRANCH   3   4
ENDBRANCH   2   3
ENDBRANCH   1   2
BRANCH   1  11
ATOM     11  C   UNL     1      33.160  54.156  32.944  1.00  0.00     0.000 C 
BRANCH  11  12
ATOM     12  C   UNL     1      32.630  53.030  32.040  1.00  0.00     0.000 C 
BRANCH  12  13
ATOM     13  C   UNL     1      33.758  52.158  31.464  1.00  0.00     0.000 C 
BRANCH  13  14
ATOM     14  C   UNL     1      33.726  52.092  29.928  1.00  0.00     0.000 C 
BRANCH  14  15
ATOM     15  C   UNL     1      32.374  52.533  29.341  1.00  0.00     0.000 C 
BRANCH  15  16
ATOM     16  C   UNL     1      32.504  53.426  28.089  1.00  0.00     0.006 C 
BRANCH  16  17
ATOM     17  C   UNL     1      32.454  54.920  28.436  1.00  0.00     0.053 C 
BRANCH  17  18
ATOM     18  C   UNL     1      31.685  55.674  27.397  1.00  0.00     0.041 C 
ATOM     19  O   UNL     1      30.427  55.639  27.389  1.00  0.00    -0.550 OA
ATOM     20  O   UNL     1      32.362  56.376  26.407  1.00  0.00    -0.550 OA
ENDBRANCH  17  18
ENDBRANCH  16  17
ENDBRANCH  15  16
ENDBRANCH  14  15
ENDBRANCH  13  14
ENDBRANCH  12  13
ENDBRANCH  11  12
ENDBRANCH   1  11
TORSDOF 15
ENDMDL
MODEL 6
REMARK VINA RESULT:    -5.045      3.478      7.082
REMARK INTER + INTRA:         -11.080
REMARK INTER:                  -9.668
REMARK INTRA:                  -1.412
REMARK UNBOUND:                -1.611
REMARK SMILES O=C([O-])CCCCCCCCCCCCCCC(=O)[O-]
REMARK SMILES IDX 10 1 9 2 8 3 7 4 6 5 5 6 4 7 2 8 1 9 3 10 11 11 12 12 13 13
REMARK SMILES IDX 14 14 15 15 16 16 17 17 18 18 19 19 20 20
REMARK H PARENT
REMARK Flexibility Score: inf
ROOT
ATOM      1  C   UNL     1      34.413  57.447  31.852  1.00  0.00     0.000 C 
ENDROOT
BRANCH   1   2
ATOM      2  C   UNL     1      33.171  56.643  32.275  1.00  0.00     0.000 C 
BRANCH   2   3
ATOM      3  C   UNL     1      32.751  55.609  31.219  1.00  0.00     0.000 C 
BRANCH   3   4
ATOM      4  C   UNL     1      32.954  54.160  31.694  1.00  0.00     0.000 C 
BRANCH   4   5
ATOM      5  C   UNL     1      32.483  53.941  33.141  1.00  0.00     0.000 C 
BRANCH   5   6
ATOM      6  C   UNL     1      31.768  52.591  33.331  1.00  0.00     0.006 C 
BRANCH   6   7
ATOM      7  C   UNL     1      31.353  51.963  31.993  1.00  0.00     0.053 C 
BRANCH   7   8
ATOM      8  C   UNL     1      30.011  51.302  32.080  1.00  0.00     0.041 C 
ATOM      9  O   UNL     1      29.096  51.818  32.775  1.00  0.00    -0.550 OA
ATOM     10  O   UNL     1      29.779  50.103  31.417  1.00  0.00    -0.550 OA
ENDBRANCH   7   8
ENDBRANCH   6   7
ENDBRANCH   5   6
ENDBRANCH   4   5
ENDBRANCH   3   4
ENDBRANCH   2   3
ENDBRANCH   1   2
BRANCH   1  11
ATOM     11  C   UNL     1      34.863  57.130  30.415  1.00  0.00     0.000 C 
BRANCH  11  12
ATOM     12  C   UNL     1      35.874  58.155  29.871  1.00  0.00     0.000 C 
BRANCH  12  13
ATOM     13  C   UNL     1      36.075  58.032  28.352  1.00  0.00     0.000 C 
BRANCH  13  14
ATOM     14  C   UNL     1      35.549  56.699  27.794  1.00  0.00     0.000 C 
BRANCH  14  15
ATOM     15  C   UNL     1      34.330  56.877  26.873  1.00  0.00     0.000 C 
BRANCH  15  16
ATOM     16  C   UNL     1      33.395  55.650  26.837  1.00  0.00     0.006 C 
BRANCH  16  17
ATOM     17  C   UNL     1      33.724  54.639  27.943  1.00  0.00     0.053 C 
BRANCH  17  18
ATOM     18  C   UNL     1      32.758  53.497  27.915  1.00  0.00     0.041 C 
ATOM     19  O   UNL     1      33.059  52.398  28.448  1.00  0.00    -0.550 OA
ATOM     20  O   UNL     1      31.543  53.633  27.254  1.00  0.00    -0.550 OA
ENDBRANCH  17  18
ENDBRANCH  16  17
ENDBRANCH  15  16
ENDBRANCH  14  15
ENDBRANCH  13  14
ENDBRANCH  12  13
ENDBRANCH  11  12
ENDBRANCH   1  11
TORSDOF 15
ENDMDL
MODEL 7
REMARK VINA RESULT:    -5.034      2.417      6.217
REMARK INTER + INTRA:         -11.059
REMARK INTER:                  -9.144
REMARK INTRA:                  -1.915
REMARK UNBOUND:                -1.611
REMARK SMILES O=C([O-])CCCCCCCCCCCCCCC(=O)[O-]
REMARK SMILES IDX 10 1 9 2 8 3 7 4 6 5 5 6 4 7 2 8 1 9 3 10 11 11 12 12 13 13
REMARK SMILES IDX 14 14 15 15 16 16 17 17 18 18 19 19 20 20
REMARK H PARENT
REMARK Flexibility Score: inf
ROOT
ATOM      1  C   UNL     1      34.622  57.376  31.961  1.00  0.00     0.000 C 
ENDROOT
BRANCH   1   2
ATOM      2  C   UNL     1      33.166  56.965  32.242  1.00  0.00     0.000 C 
BRANCH   2   3
ATOM      3  C   UNL     1      32.704  55.795  31.359  1.00  0.00     0.000 C 
BRANCH   3   4
ATOM      4  C   UNL     1      32.597  54.471  32.135  1.00  0.00     0.000 C 
BRANCH   4   5
ATOM      5  C   UNL     1      33.689  53.464  31.740  1.00  0.00     0.000 C 
BRANCH   5   6
ATOM      6  C   UNL     1      34.520  52.991  32.946  1.00  0.00     0.006 C 
BRANCH   6   7
ATOM      7  C   UNL     1      35.269  54.147  33.623  1.00  0.00     0.053 C 
BRANCH   7   8
ATOM      8  C   UNL     1      34.792  54.376  35.024  1.00  0.00     0.041 C 
ATOM      9  O   UNL     1      34.077  55.377  35.294  1.00  0.00    -0.550 OA
ATOM     10  O   UNL     1      35.161  53.501  36.038  1.00  0.00    -0.550 OA
ENDBRANCH   7   8
ENDBRANCH   6   7
ENDBRANCH   5   6
ENDBRANCH   4   5
ENDBRANCH   3   4
ENDBRANCH   2   3
ENDBRANCH   1   2
BRANCH   1  11
ATOM     11  C   UNL     1      35.092  56.966  30.555  1.00  0.00     0.000 C 
BRANCH  11  12
ATOM     12  C   UNL     1      35.752  58.125  29.788  1.00  0.00     0.000 C 
BRANCH  12  13
ATOM     13  C   UNL     1      36.480  57.653  28.520  1.00  0.00     0.000 C 
BRANCH  13  14
ATOM     14  C   UNL     1      35.728  56.525  27.795  1.00  0.00     0.000 C 
BRANCH  14  15
ATOM     15  C   UNL     1      34.635  57.050  26.848  1.00  0.00     0.000 C 
BRANCH  15  16
ATOM     16  C   UNL     1      33.329  56.229  26.892  1.00  0.00     0.006 C 
BRANCH  16  17
ATOM     17  C   UNL     1      33.426  55.037  27.853  1.00  0.00     0.053 C 
BRANCH  17  18
ATOM     18  C   UNL     1      32.224  54.157  27.722  1.00  0.00     0.041 C 
ATOM     19  O   UNL     1      32.203  53.025  28.272  1.00  0.00    -0.550 OA
ATOM     20  O   UNL     1      31.144  54.568  26.949  1.00  0.00    -0.550 OA
ENDBRANCH  17  18
ENDBRANCH  16  17
ENDBRANCH  15  16
ENDBRANCH  14  15
ENDBRANCH  13  14
ENDBRANCH  12  13
ENDBRANCH  11  12
ENDBRANCH   1  11
TORSDOF 15
ENDMDL
MODEL 8
REMARK VINA RESULT:    -5.033      3.188      5.002
REMARK INTER + INTRA:         -11.057
REMARK INTER:                  -9.546
REMARK INTRA:                  -1.511
REMARK UNBOUND:                -1.611
REMARK SMILES O=C([O-])CCCCCCCCCCCCCCC(=O)[O-]
REMARK SMILES IDX 10 1 9 2 8 3 7 4 6 5 5 6 4 7 2 8 1 9 3 10 11 11 12 12 13 13
REMARK SMILES IDX 14 14 15 15 16 16 17 17 18 18 19 19 20 20
REMARK H PARENT
REMARK Flexibility Score: inf
ROOT
ATOM      1  C   UNL     1      35.380  57.338  30.083  1.00  0.00     0.000 C 
ENDROOT
BRANCH   1   2
ATOM      2  C   UNL     1      36.257  58.024  29.022  1.00  0.00     0.000 C 
BRANCH   2   3
ATOM      3  C   UNL     1      36.288  57.252  27.694  1.00  0.00     0.000 C 
BRANCH   3   4
ATOM      4  C   UNL     1      35.074  56.324  27.519  1.00  0.00     0.000 C 
BRANCH   4   5
ATOM      5  C   UNL     1      34.084  56.837  26.460  1.00  0.00     0.000 C 
BRANCH   5   6
ATOM      6  C   UNL     1      32.683  56.220  26.614  1.00  0.00     0.006 C 
BRANCH   6   7
ATOM      7  C   UNL     1      32.593  55.281  27.825  1.00  0.00     0.053 C 
BRANCH   7   8
ATOM      8  C   UNL     1      32.255  53.879  27.421  1.00  0.00     0.041 C 
ATOM      9  O   UNL     1      32.992  52.922  27.778  1.00  0.00    -0.550 OA
ATOM     10  O   UNL     1      31.143  53.632  26.625  1.00  0.00    -0.550 OA
ENDBRANCH   7   8
ENDBRANCH   6   7
ENDBRANCH   5   6
ENDBRANCH   4   5
ENDBRANCH   3   4
ENDBRANCH   2   3
ENDBRANCH   1   2
BRANCH   1  11
ATOM     11  C   UNL     1      35.247  58.169  31.371  1.00  0.00     0.000 C 
BRANCH  11  12
ATOM     12  C   UNL     1      35.194  57.296  32.637  1.00  0.00     0.000 C 
BRANCH  12  13
ATOM     13  C   UNL     1      33.846  57.402  33.368  1.00  0.00     0.000 C 
BRANCH  13  14
ATOM     14  C   UNL     1      32.694  56.764  32.574  1.00  0.00     0.000 C 
BRANCH  14  15
ATOM     15  C   UNL     1      32.222  55.430  33.178  1.00  0.00     0.000 C 
BRANCH  15  16
ATOM     16  C   UNL     1      33.124  54.231  32.817  1.00  0.00     0.006 C 
BRANCH  16  17
ATOM     17  C   UNL     1      33.076  53.900  31.320  1.00  0.00     0.053 C 
BRANCH  17  18
ATOM     18  C   UNL     1      32.990  52.421  31.112  1.00  0.00     0.041 C 
ATOM     19  O   UNL     1      31.880  51.833  31.191  1.00  0.00    -0.550 OA
ATOM     20  O   UNL     1      34.146  51.685  30.881  1.00  0.00    -0.550 OA
ENDBRANCH  17  18
ENDBRANCH  16  17
ENDBRANCH  15  16
ENDBRANCH  14  15
ENDBRANCH  13  14
ENDBRANCH  12  13
ENDBRANCH  11  12
ENDBRANCH   1  11
TORSDOF 15
ENDMDL
MODEL 9
REMARK VINA RESULT:    -5.021      2.323      4.216
REMARK INTER + INTRA:         -11.034
REMARK INTER:                  -9.662
REMARK INTRA:                  -1.372
REMARK UNBOUND:                -1.611
REMARK SMILES O=C([O-])CCCCCCCCCCCCCCC(=O)[O-]
REMARK SMILES IDX 10 1 9 2 8 3 7 4 6 5 5 6 4 7 2 8 1 9 3 10 11 11 12 12 13 13
REMARK SMILES IDX 14 14 15 15 16 16 17 17 18 18 19 19 20 20
REMARK H PARENT
REMARK Flexibility Score: inf
ROOT
ATOM      1  C   UNL     1      35.282  57.462  29.952  1.00  0.00     0.000 C 
ENDROOT
BRANCH   1   2
ATOM      2  C   UNL     1      36.383  58.173  29.148  1.00  0.00     0.000 C 
BRANCH   2   3
ATOM      3  C   UNL     1      36.860  57.347  27.942  1.00  0.00     0.000 C 
BRANCH   3   4
ATOM      4  C   UNL     1      35.775  56.396  27.408  1.00  0.00     0.000 C 
BRANCH   4   5
ATOM      5  C   UNL     1      34.856  57.069  26.376  1.00  0.00     0.000 C 
BRANCH   5   6
ATOM      6  C   UNL     1      33.417  56.524  26.423  1.00  0.00     0.006 C 
BRANCH   6   7
ATOM      7  C   UNL     1      33.179  55.622  27.642  1.00  0.00     0.053 C 
BRANCH   7   8
ATOM      8  C   UNL     1      31.878  54.886  27.546  1.00  0.00     0.041 C 
ATOM      9  O   UNL     1      31.854  53.630  27.635  1.00  0.00    -0.550 OA
ATOM     10  O   UNL     1      30.696  55.583  27.330  1.00  0.00    -0.550 OA
ENDBRANCH   7   8
ENDBRANCH   6   7
ENDBRANCH   5   6
ENDBRANCH   4   5
ENDBRANCH   3   4
ENDBRANCH   2   3
ENDBRANCH   1   2
BRANCH   1  11
ATOM     11  C   UNL     1      34.986  58.153  31.294  1.00  0.00     0.000 C 
BRANCH  11  12
ATOM     12  C   UNL     1      34.484  57.173  32.368  1.00  0.00     0.000 C 
BRANCH  12  13
ATOM     13  C   UNL     1      32.968  56.931  32.280  1.00  0.00     0.000 C 
BRANCH  13  14
ATOM     14  C   UNL     1      32.623  55.618  31.557  1.00  0.00     0.000 C 
BRANCH  14  15
ATOM     15  C   UNL     1      32.571  54.410  32.508  1.00  0.00     0.000 C 
BRANCH  15  16
ATOM     16  C   UNL     1      33.740  53.421  32.319  1.00  0.00     0.006 C 
BRANCH  16  17
ATOM     17  C   UNL     1      34.867  53.655  33.334  1.00  0.00     0.053 C 
BRANCH  17  18
ATOM     18  C   UNL     1      34.305  53.841  34.707  1.00  0.00     0.041 C 
ATOM     19  O   UNL     1      33.742  52.882  35.298  1.00  0.00    -0.550 OA
ATOM     20  O   UNL     1      34.358  55.089  35.316  1.00  0.00    -0.550 OA
ENDBRANCH  17  18
ENDBRANCH  16  17
ENDBRANCH  15  16
ENDBRANCH  14  15
ENDBRANCH  13  14
ENDBRANCH  12  13
ENDBRANCH  11  12
ENDBRANCH   1  11
TORSDOF 15
ENDMDL
