MODEL 1
REMARK VINA RESULT:    -2.890      0.000      0.000
REMARK INTER + INTRA:          -4.289
REMARK INTER:                  -3.904
REMARK INTRA:                  -0.385
REMARK UNBOUND:                -0.385
REMARK SMILES CCCCCCCC(=O)[O-]
REMARK SMILES IDX 5 1 6 2 7 3 8 4 9 5 10 6 4 7 3 8 2 9 1 10
REMARK H PARENT
REMARK Flexibility Score: inf
ROOT
ATOM      1  C   UNL     1       9.829  14.907  -0.400  1.00  0.00     0.000 C 
ENDROOT
BRANCH   1   2
ATOM      2  C   UNL     1       9.297  14.415   0.958  1.00  0.00     0.006 C 
BRANCH   2   3
ATOM      3  C   UNL     1       9.542  15.395   2.119  1.00  0.00     0.053 C 
BRANCH   3   4
ATOM      4  C   UNL     1       9.813  16.793   1.650  1.00  0.00     0.041 C 
ATOM      5  O   UNL     1       8.865  17.603   1.482  1.00  0.00    -0.550 OA
ATOM      6  O   UNL     1      11.119  17.209   1.427  1.00  0.00    -0.550 OA
ENDBRANCH   3   4
ENDBRANCH   2   3
ENDBRANCH   1   2
BRANCH   1   7
ATOM      7  C   UNL     1      10.943  14.018  -0.968  1.00  0.00     0.000 C 
BRANCH   7   8
ATOM      8  C   UNL     1      11.285  12.877   0.001  1.00  0.00    -0.000 C 
BRANCH   8   9
ATOM      9  C   UNL     1      12.721  12.972   0.542  1.00  0.00    -0.003 C 
ATOM     10  C   UNL     1      12.783  13.541   1.959  1.00  0.00     0.004 C 
ENDBRANCH   8   9
ENDBRANCH   7   8
ENDBRANCH   1   7
TORSDOF 6
ENDMDL
MODEL 2
REMARK VINA RESULT:    -2.440      2.562      4.428
REMARK INTER + INTRA:          -3.681
REMARK INTER:                  -3.400
REMARK INTRA:                  -0.281
REMARK UNBOUND:                -0.385
REMARK SMILES CCCCCCCC(=O)[O-]
REMARK SMILES IDX 5 1 6 2 7 3 8 4 9 5 10 6 4 7 3 8 2 9 1 10
REMARK H PARENT
REMARK Flexibility Score: inf
ROOT
ATOM      1  C   UNL     1      10.456  16.322   0.978  1.00  0.00     0.000 C 
ENDROOT
BRANCH   1   2
ATOM      2  C   UNL     1      11.631  15.461   1.476  1.00  0.00     0.006 C 
BRANCH   2   3
ATOM      3  C   UNL     1      11.396  13.946   1.342  1.00  0.00     0.053 C 
BRANCH   3   4
ATOM      4  C   UNL     1      11.431  13.478  -0.082  1.00  0.00     0.041 C 
ATOM      5  O   UNL     1      10.364  13.350  -0.735  1.00  0.00    -0.550 OA
ATOM      6  O   UNL     1      12.649  13.214  -0.696  1.00  0.00    -0.550 OA
ENDBRANCH   3   4
ENDBRANCH   2   3
ENDBRANCH   1   2
BRANCH   1   7
ATOM      7  C   UNL     1       9.671  16.986   2.118  1.00  0.00     0.000 C 
BRANCH   7   8
ATOM      8  C   UNL     1       8.208  16.517   2.125  1.00  0.00    -0.000 C 
BRANCH   8   9
ATOM      9  C   UNL     1       8.079  14.985   2.119  1.00  0.00    -0.003 C 
ATOM     10  C   UNL     1       6.624  14.513   2.117  1.00  0.00     0.004 C 
ENDBRANCH   8   9
ENDBRANCH   7   8
ENDBRANCH   1   7
TORSDOF 6
ENDMDL
MODEL 3
REMARK VINA RESULT:    -1.980      1.776      2.778
REMARK INTER + INTRA:          -3.060
REMARK INTER:                  -3.004
REMARK INTRA:                  -0.056
REMARK UNBOUND:                -0.385
REMARK SMILES CCCCCCCC(=O)[O-]
REMARK SMILES IDX 5 1 6 2 7 3 8 4 9 5 10 6 4 7 3 8 2 9 1 10
REMARK H PARENT
REMARK Flexibility Score: inf
ROOT
ATOM      1  C   UNL     1      11.228  15.897   1.152  1.00  0.00     0.000 C 
ENDROOT
BRANCH   1   2
ATOM      2  C   UNL     1       9.957  16.237   1.951  1.00  0.00     0.006 C 
BRANCH   2   3
ATOM      3  C   UNL     1       8.956  15.072   2.059  1.00  0.00     0.053 C 
BRANCH   3   4
ATOM      4  C   UNL     1       7.531  15.534   2.088  1.00  0.00     0.041 C 
ATOM      5  O   UNL     1       7.261  16.763   2.124  1.00  0.00    -0.550 OA
ATOM      6  O   UNL     1       6.498  14.606   2.044  1.00  0.00    -0.550 OA
ENDBRANCH   3   4
ENDBRANCH   2   3
ENDBRANCH   1   2
BRANCH   1   7
ATOM      7  C   UNL     1      12.138  14.889   1.868  1.00  0.00     0.000 C 
BRANCH   7   8
ATOM      8  C   UNL     1      12.029  13.497   1.227  1.00  0.00    -0.000 C 
BRANCH   8   9
ATOM      9  C   UNL     1      11.846  13.561  -0.297  1.00  0.00    -0.003 C 
ATOM     10  C   UNL     1      10.387  13.401  -0.726  1.00  0.00     0.004 C 
ENDBRANCH   8   9
ENDBRANCH   7   8
ENDBRANCH   1   7
TORSDOF 6
ENDMDL
MODEL 4
REMARK VINA RESULT:    -1.810      2.682      4.579
REMARK INTER + INTRA:          -2.830
REMARK INTER:                  -2.833
REMARK INTRA:                   0.002
REMARK UNBOUND:                -0.385
REMARK SMILES CCCCCCCC(=O)[O-]
REMARK SMILES IDX 5 1 6 2 7 3 8 4 9 5 10 6 4 7 3 8 2 9 1 10
REMARK H PARENT
REMARK Flexibility Score: inf
ROOT
ATOM      1  C   UNL     1      10.121  16.503   1.279  1.00  0.00     0.000 C 
ENDROOT
BRANCH   1   2
ATOM      2  C   UNL     1      11.490  15.848   1.538  1.00  0.00     0.006 C 
BRANCH   2   3
ATOM      3  C   UNL     1      11.404  14.396   2.041  1.00  0.00     0.053 C 
BRANCH   3   4
ATOM      4  C   UNL     1      12.385  13.489   1.362  1.00  0.00     0.041 C 
ATOM      5  O   UNL     1      12.264  13.224   0.138  1.00  0.00    -0.550 OA
ATOM      6  O   UNL     1      13.451  12.959   2.077  1.00  0.00    -0.550 OA
ENDBRANCH   3   4
ENDBRANCH   2   3
ENDBRANCH   1   2
BRANCH   1   7
ATOM      7  C   UNL     1       8.993  15.895   2.123  1.00  0.00     0.000 C 
BRANCH   7   8
ATOM      8  C   UNL     1       8.229  14.824   1.332  1.00  0.00    -0.000 C 
BRANCH   8   9
ATOM      9  C   UNL     1       7.053  14.230   2.124  1.00  0.00    -0.003 C 
ATOM     10  C   UNL     1       5.741  14.246   1.340  1.00  0.00     0.004 C 
ENDBRANCH   8   9
ENDBRANCH   7   8
ENDBRANCH   1   7
TORSDOF 6
ENDMDL
MODEL 5
REMARK VINA RESULT:    -1.278      2.333      4.538
REMARK INTER + INTRA:          -2.111
REMARK INTER:                  -2.371
REMARK INTRA:                   0.259
REMARK UNBOUND:                -0.385
REMARK SMILES CCCCCCCC(=O)[O-]
REMARK SMILES IDX 5 1 6 2 7 3 8 4 9 5 10 6 4 7 3 8 2 9 1 10
REMARK H PARENT
REMARK Flexibility Score: inf
ROOT
ATOM      1  C   UNL     1      11.481  15.459   1.229  1.00  0.00     0.000 C 
ENDROOT
BRANCH   1   2
ATOM      2  C   UNL     1      11.946  14.007   1.444  1.00  0.00     0.006 C 
BRANCH   2   3
ATOM      3  C   UNL     1      11.640  13.070   0.262  1.00  0.00     0.053 C 
BRANCH   3   4
ATOM      4  C   UNL     1      10.786  13.718  -0.785  1.00  0.00     0.041 C 
ATOM      5  O   UNL     1      11.265  13.997  -1.915  1.00  0.00    -0.550 OA
ATOM      6  O   UNL     1       9.448  13.987  -0.521  1.00  0.00    -0.550 OA
ENDBRANCH   3   4
ENDBRANCH   2   3
ENDBRANCH   1   2
BRANCH   1   7
ATOM      7  C   UNL     1      10.166  15.783   1.950  1.00  0.00     0.000 C 
BRANCH   7   8
ATOM      8  C   UNL     1       9.602  17.134   1.487  1.00  0.00    -0.000 C 
BRANCH   8   9
ATOM      9  C   UNL     1       8.241  17.456   2.125  1.00  0.00    -0.003 C 
ATOM     10  C   UNL     1       7.268  16.278   2.070  1.00  0.00     0.004 C 
ENDBRANCH   8   9
ENDBRANCH   7   8
ENDBRANCH   1   7
TORSDOF 6
ENDMDL
MODEL 6
REMARK VINA RESULT:    -1.047      1.303      2.626
REMARK INTER + INTRA:          -1.799
REMARK INTER:                  -1.538
REMARK INTRA:                  -0.261
REMARK UNBOUND:                -0.385
REMARK SMILES CCCCCCCC(=O)[O-]
REMARK SMILES IDX 5 1 6 2 7 3 8 4 9 5 10 6 4 7 3 8 2 9 1 10
REMARK H PARENT
REMARK Flexibility Score: inf
ROOT
ATOM      1  C   UNL     1      12.161  13.415   1.135  1.00  0.00     0.000 C 
ENDROOT
BRANCH   1   2
ATOM      2  C   UNL     1      11.141  14.006   2.125  1.00  0.00     0.006 C 
BRANCH   2   3
ATOM      3  C   UNL     1      11.061  15.544   2.098  1.00  0.00     0.053 C 
BRANCH   3   4
ATOM      4  C   UNL     1       9.663  16.048   1.909  1.00  0.00     0.041 C 
ATOM      5  O   UNL     1       8.726  15.246   1.659  1.00  0.00    -0.550 OA
ATOM      6  O   UNL     1       9.389  17.403   2.042  1.00  0.00    -0.550 OA
ENDBRANCH   3   4
ENDBRANCH   2   3
ENDBRANCH   1   2
BRANCH   1   7
ATOM      7  C   UNL     1      11.515  12.896  -0.156  1.00  0.00     0.000 C 
BRANCH   7   8
ATOM      8  C   UNL     1      11.589  13.949  -1.272  1.00  0.00    -0.000 C 
BRANCH   8   9
ATOM      9  C   UNL     1      10.232  14.180  -1.956  1.00  0.00    -0.003 C 
ATOM     10  C   UNL     1       9.047  13.898  -1.032  1.00  0.00     0.004 C 
ENDBRANCH   8   9
ENDBRANCH   7   8
ENDBRANCH   1   7
TORSDOF 6
ENDMDL
MODEL 7
REMARK VINA RESULT:    -0.898      2.257      3.850
REMARK INTER + INTRA:          -1.598
REMARK INTER:                  -1.412
REMARK INTRA:                  -0.186
REMARK UNBOUND:                -0.385
REMARK SMILES CCCCCCCC(=O)[O-]
REMARK SMILES IDX 5 1 6 2 7 3 8 4 9 5 10 6 4 7 3 8 2 9 1 10
REMARK H PARENT
REMARK Flexibility Score: inf
ROOT
ATOM      1  C   UNL     1      11.003  13.898  -1.743  1.00  0.00     0.000 C 
ENDROOT
BRANCH   1   2
ATOM      2  C   UNL     1      11.278  12.875  -0.626  1.00  0.00     0.006 C 
BRANCH   2   3
ATOM      3  C   UNL     1      12.706  12.942  -0.055  1.00  0.00     0.053 C 
BRANCH   3   4
ATOM      4  C   UNL     1      12.728  13.038   1.440  1.00  0.00     0.041 C 
ATOM      5  O   UNL     1      11.654  13.154   2.086  1.00  0.00    -0.550 OA
ATOM      6  O   UNL     1      13.935  12.968   2.124  1.00  0.00    -0.550 OA
ENDBRANCH   3   4
ENDBRANCH   2   3
ENDBRANCH   1   2
BRANCH   1   7
ATOM      7  C   UNL     1      10.085  15.044  -1.297  1.00  0.00     0.000 C 
BRANCH   7   8
ATOM      8  C   UNL     1       9.279  14.650  -0.050  1.00  0.00    -0.000 C 
BRANCH   8   9
ATOM      9  C   UNL     1       9.791  15.338   1.226  1.00  0.00    -0.003 C 
ATOM     10  C   UNL     1      10.767  16.477   0.934  1.00  0.00     0.004 C 
ENDBRANCH   8   9
ENDBRANCH   7   8
ENDBRANCH   1   7
TORSDOF 6
ENDMDL
MODEL 8
REMARK VINA RESULT:    -0.238      1.484      2.093
REMARK INTER + INTRA:          -0.707
REMARK INTER:                  -0.626
REMARK INTRA:                  -0.081
REMARK UNBOUND:                -0.385
REMARK SMILES CCCCCCCC(=O)[O-]
REMARK SMILES IDX 5 1 6 2 7 3 8 4 9 5 10 6 4 7 3 8 2 9 1 10
REMARK H PARENT
REMARK Flexibility Score: inf
ROOT
ATOM      1  C   UNL     1      10.614  13.884   0.359  1.00  0.00     0.000 C 
ENDROOT
BRANCH   1   2
ATOM      2  C   UNL     1       9.272  14.608   0.570  1.00  0.00     0.006 C 
BRANCH   2   3
ATOM      3  C   UNL     1       9.086  15.182   1.986  1.00  0.00     0.053 C 
BRANCH   3   4
ATOM      4  C   UNL     1       8.535  16.576   1.979  1.00  0.00     0.041 C 
ATOM      5  O   UNL     1       7.301  16.773   2.125  1.00  0.00    -0.550 OA
ATOM      6  O   UNL     1       9.392  17.661   1.841  1.00  0.00    -0.550 OA
ENDBRANCH   3   4
ENDBRANCH   2   3
ENDBRANCH   1   2
BRANCH   1   7
ATOM      7  C   UNL     1      11.215  13.340   1.662  1.00  0.00     0.000 C 
BRANCH   7   8
ATOM      8  C   UNL     1      12.399  14.202   2.124  1.00  0.00    -0.000 C 
BRANCH   8   9
ATOM      9  C   UNL     1      12.555  15.486   1.293  1.00  0.00    -0.003 C 
ATOM     10  C   UNL     1      12.369  16.755   2.124  1.00  0.00     0.004 C 
ENDBRANCH   8   9
ENDBRANCH   7   8
ENDBRANCH   1   7
TORSDOF 6
ENDMDL
