MODEL 1
REMARK VINA RESULT:    -5.574      0.000      0.000
REMARK INTER + INTRA:         -13.244
REMARK INTER:                 -10.788
REMARK INTRA:                  -2.456
REMARK UNBOUND:                -2.456
REMARK SMILES CCCCCCCCCCCCCCCCCC(=O)[O-]
REMARK SMILES IDX 10 1 11 2 12 3 13 4 14 5 15 6 16 7 17 8 18 9 19 10 20 11
REMARK SMILES IDX 9 12 8 13 7 14 6 15 5 16 4 17 3 18 2 19 1 20
REMARK H PARENT
REMARK Flexibility Score: inf
ROOT
ATOM      1  C   UNL     1      18.752  -3.178  16.578  1.00  0.00     0.000 C 
ENDROOT
BRANCH   1   2
ATOM      2  C   UNL     1      17.630  -3.761  17.451  1.00  0.00     0.000 C 
BRANCH   2   3
ATOM      3  C   UNL     1      16.879  -2.646  18.194  1.00  0.00     0.000 C 
BRANCH   3   4
ATOM      4  C   UNL     1      15.385  -2.594  17.836  1.00  0.00     0.000 C 
BRANCH   4   5
ATOM      5  C   UNL     1      15.016  -3.555  16.692  1.00  0.00     0.000 C 
BRANCH   5   6
ATOM      6  C   UNL     1      13.502  -3.791  16.583  1.00  0.00     0.000 C 
BRANCH   6   7
ATOM      7  C   UNL     1      12.924  -3.327  15.234  1.00  0.00     0.006 C 
BRANCH   7   8
ATOM      8  C   UNL     1      14.024  -3.043  14.202  1.00  0.00     0.053 C 
BRANCH   8   9
ATOM      9  C   UNL     1      13.470  -2.423  12.956  1.00  0.00     0.041 C 
ATOM     10  O   UNL     1      13.104  -1.218  12.956  1.00  0.00    -0.550 OA
ATOM     11  O   UNL     1      13.333  -3.183  11.802  1.00  0.00    -0.550 OA
ENDBRANCH   8   9
ENDBRANCH   7   8
ENDBRANCH   6   7
ENDBRANCH   5   6
ENDBRANCH   4   5
ENDBRANCH   3   4
ENDBRANCH   2   3
ENDBRANCH   1   2
BRANCH   1  12
ATOM     12  C   UNL     1      19.203  -4.140  15.463  1.00  0.00     0.000 C 
BRANCH  12  13
ATOM     13  C   UNL     1      18.064  -4.922  14.781  1.00  0.00    -0.000 C 
BRANCH  13  14
ATOM     14  C   UNL     1      17.503  -4.279  13.496  1.00  0.00    -0.000 C 
BRANCH  14  15
ATOM     15  C   UNL     1      17.544  -5.175  12.243  1.00  0.00    -0.000 C 
BRANCH  15  16
ATOM     16  C   UNL     1      16.643  -6.415  12.365  1.00  0.00    -0.000 C 
BRANCH  16  17
ATOM     17  C   UNL     1      15.147  -6.062  12.450  1.00  0.00    -0.000 C 
BRANCH  17  18
ATOM     18  C   UNL     1      14.361  -6.797  13.551  1.00  0.00    -0.000 C 
BRANCH  18  19
ATOM     19  C   UNL     1      15.269  -7.525  14.552  1.00  0.00    -0.003 C 
ATOM     20  C   UNL     1      14.903  -7.165  15.990  1.00  0.00     0.004 C 
ENDBRANCH  18  19
ENDBRANCH  17  18
ENDBRANCH  16  17
ENDBRANCH  15  16
ENDBRANCH  14  15
ENDBRANCH  13  14
ENDBRANCH  12  13
ENDBRANCH   1  12
TORSDOF 16
ENDMDL
MODEL 2
REMARK VINA RESULT:    -5.564      2.036      5.698
REMARK INTER + INTRA:         -13.225
REMARK INTER:                 -10.624
REMARK INTRA:                  -2.601
REMARK UNBOUND:                -2.456
REMARK SMILES CCCCCCCCCCCCCCCCCC(=O)[O-]
REMARK SMILES IDX 10 1 11 2 12 3 13 4 14 5 15 6 16 7 17 8 18 9 19 10 20 11
REMARK SMILES IDX 9 12 8 13 7 14 6 15 5 16 4 17 3 18 2 19 1 20
REMARK H PARENT
REMARK Flexibility Score: inf
ROOT
ATOM      1  C   UNL     1      13.608  -6.653  13.249  1.00  0.00     0.000 C 
ENDROOT
BRANCH   1   2
ATOM      2  C   UNL     1      13.839  -5.946  11.906  1.00  0.00     0.000 C 
BRANCH   2   3
ATOM      3  C   UNL     1      15.158  -5.158  11.921  1.00  0.00     0.000 C 
BRANCH   3   4
ATOM      4  C   UNL     1      16.142  -5.623  10.837  1.00  0.00     0.000 C 
BRANCH   4   5
ATOM      5  C   UNL     1      17.535  -5.950  11.402  1.00  0.00     0.000 C 
BRANCH   5   6
ATOM      6  C   UNL     1      17.797  -5.273  12.756  1.00  0.00     0.000 C 
BRANCH   6   7
ATOM      7  C   UNL     1      19.182  -4.607  12.828  1.00  0.00     0.006 C 
BRANCH   7   8
ATOM      8  C   UNL     1      19.084  -3.076  12.902  1.00  0.00     0.053 C 
BRANCH   8   9
ATOM      9  C   UNL     1      18.096  -2.632  13.936  1.00  0.00     0.041 C 
ATOM     10  O   UNL     1      17.014  -2.089  13.589  1.00  0.00    -0.550 OA
ATOM     11  O   UNL     1      18.383  -2.792  15.286  1.00  0.00    -0.550 OA
ENDBRANCH   8   9
ENDBRANCH   7   8
ENDBRANCH   6   7
ENDBRANCH   5   6
ENDBRANCH   4   5
ENDBRANCH   3   4
ENDBRANCH   2   3
ENDBRANCH   1   2
BRANCH   1  12
ATOM     12  C   UNL     1      14.912  -7.174  13.883  1.00  0.00     0.000 C 
BRANCH  12  13
ATOM     13  C   UNL     1      14.813  -7.516  15.382  1.00  0.00    -0.000 C 
BRANCH  13  14
ATOM     14  C   UNL     1      14.967  -6.319  16.341  1.00  0.00    -0.000 C 
BRANCH  14  15
ATOM     15  C   UNL     1      15.676  -5.088  15.745  1.00  0.00    -0.000 C 
BRANCH  15  16
ATOM     16  C   UNL     1      15.010  -3.762  16.147  1.00  0.00    -0.000 C 
BRANCH  16  17
ATOM     17  C   UNL     1      13.483  -3.884  16.312  1.00  0.00    -0.000 C 
BRANCH  17  18
ATOM     18  C   UNL     1      12.649  -3.261  15.178  1.00  0.00    -0.000 C 
BRANCH  18  19
ATOM     19  C   UNL     1      13.512  -2.656  14.061  1.00  0.00    -0.003 C 
ATOM     20  C   UNL     1      12.719  -1.642  13.241  1.00  0.00     0.004 C 
ENDBRANCH  18  19
ENDBRANCH  17  18
ENDBRANCH  16  17
ENDBRANCH  15  16
ENDBRANCH  14  15
ENDBRANCH  13  14
ENDBRANCH  12  13
ENDBRANCH   1  12
TORSDOF 16
ENDMDL
MODEL 3
REMARK VINA RESULT:    -5.536      2.761      4.994
REMARK INTER + INTRA:         -13.170
REMARK INTER:                 -10.582
REMARK INTRA:                  -2.588
REMARK UNBOUND:                -2.456
REMARK SMILES CCCCCCCCCCCCCCCCCC(=O)[O-]
REMARK SMILES IDX 10 1 11 2 12 3 13 4 14 5 15 6 16 7 17 8 18 9 19 10 20 11
REMARK SMILES IDX 9 12 8 13 7 14 6 15 5 16 4 17 3 18 2 19 1 20
REMARK H PARENT
REMARK Flexibility Score: inf
ROOT
ATOM      1  C   UNL     1      12.567  -5.246  11.852  1.00  0.00     0.000 C 
ENDROOT
BRANCH   1   2
ATOM      2  C   UNL     1      11.934  -4.094  12.646  1.00  0.00     0.000 C 
BRANCH   2   3
ATOM      3  C   UNL     1      12.684  -2.777  12.393  1.00  0.00     0.000 C 
BRANCH   3   4
ATOM      4  C   UNL     1      13.252  -2.158  13.680  1.00  0.00     0.000 C 
BRANCH   4   5
ATOM      5  C   UNL     1      14.113  -3.149  14.483  1.00  0.00     0.000 C 
BRANCH   5   6
ATOM      6  C   UNL     1      13.564  -3.397  15.897  1.00  0.00     0.000 C 
BRANCH   6   7
ATOM      7  C   UNL     1      14.673  -3.450  16.962  1.00  0.00     0.006 C 
BRANCH   7   8
ATOM      8  C   UNL     1      16.062  -3.184  16.365  1.00  0.00     0.053 C 
BRANCH   8   9
ATOM      9  C   UNL     1      17.119  -4.017  17.023  1.00  0.00     0.041 C 
ATOM     10  O   UNL     1      17.417  -5.149  16.557  1.00  0.00    -0.550 OA
ATOM     11  O   UNL     1      17.755  -3.556  18.168  1.00  0.00    -0.550 OA
ENDBRANCH   8   9
ENDBRANCH   7   8
ENDBRANCH   6   7
ENDBRANCH   5   6
ENDBRANCH   4   5
ENDBRANCH   3   4
ENDBRANCH   2   3
ENDBRANCH   1   2
BRANCH   1  12
ATOM     12  C   UNL     1      12.859  -4.872  10.387  1.00  0.00     0.000 C 
BRANCH  12  13
ATOM     13  C   UNL     1      13.883  -5.780   9.678  1.00  0.00    -0.000 C 
BRANCH  13  14
ATOM     14  C   UNL     1      15.322  -5.230   9.622  1.00  0.00    -0.000 C 
BRANCH  14  15
ATOM     15  C   UNL     1      16.273  -5.770  10.707  1.00  0.00    -0.000 C 
BRANCH  15  16
ATOM     16  C   UNL     1      16.174  -4.992  12.030  1.00  0.00    -0.000 C 
BRANCH  16  17
ATOM     17  C   UNL     1      16.563  -5.840  13.255  1.00  0.00    -0.000 C 
BRANCH  17  18
ATOM     18  C   UNL     1      15.686  -7.082  13.498  1.00  0.00    -0.000 C 
BRANCH  18  19
ATOM     19  C   UNL     1      14.483  -6.796  14.409  1.00  0.00    -0.003 C 
ATOM     20  C   UNL     1      14.756  -7.253  15.840  1.00  0.00     0.004 C 
ENDBRANCH  18  19
ENDBRANCH  17  18
ENDBRANCH  16  17
ENDBRANCH  15  16
ENDBRANCH  14  15
ENDBRANCH  13  14
ENDBRANCH  12  13
ENDBRANCH   1  12
TORSDOF 16
ENDMDL
MODEL 4
REMARK VINA RESULT:    -5.533      1.378      3.056
REMARK INTER + INTRA:         -13.164
REMARK INTER:                 -10.727
REMARK INTRA:                  -2.437
REMARK UNBOUND:                -2.456
REMARK SMILES CCCCCCCCCCCCCCCCCC(=O)[O-]
REMARK SMILES IDX 10 1 11 2 12 3 13 4 14 5 15 6 16 7 17 8 18 9 19 10 20 11
REMARK SMILES IDX 9 12 8 13 7 14 6 15 5 16 4 17 3 18 2 19 1 20
REMARK H PARENT
REMARK Flexibility Score: inf
ROOT
ATOM      1  C   UNL     1      16.935  -6.106  16.100  1.00  0.00     0.000 C 
ENDROOT
BRANCH   1   2
ATOM      2  C   UNL     1      17.034  -4.658  16.603  1.00  0.00     0.000 C 
BRANCH   2   3
ATOM      3  C   UNL     1      15.983  -3.769  15.920  1.00  0.00     0.000 C 
BRANCH   3   4
ATOM      4  C   UNL     1      15.001  -3.135  16.918  1.00  0.00     0.000 C 
BRANCH   4   5
ATOM      5  C   UNL     1      13.534  -3.482  16.606  1.00  0.00     0.000 C 
BRANCH   5   6
ATOM      6  C   UNL     1      13.326  -3.906  15.144  1.00  0.00     0.000 C 
BRANCH   6   7
ATOM      7  C   UNL     1      12.124  -3.204  14.488  1.00  0.00     0.006 C 
BRANCH   7   8
ATOM      8  C   UNL     1      12.508  -1.846  13.884  1.00  0.00     0.053 C 
BRANCH   8   9
ATOM      9  C   UNL     1      12.624  -1.914  12.392  1.00  0.00     0.041 C 
ATOM     10  O   UNL     1      12.965  -0.895  11.735  1.00  0.00    -0.550 OA
ATOM     11  O   UNL     1      12.328  -3.095  11.725  1.00  0.00    -0.550 OA
ENDBRANCH   8   9
ENDBRANCH   7   8
ENDBRANCH   6   7
ENDBRANCH   5   6
ENDBRANCH   4   5
ENDBRANCH   3   4
ENDBRANCH   2   3
ENDBRANCH   1   2
BRANCH   1  12
ATOM     12  C   UNL     1      15.484  -6.615  16.026  1.00  0.00     0.000 C 
BRANCH  12  13
ATOM     13  C   UNL     1      15.283  -7.878  15.166  1.00  0.00    -0.000 C 
BRANCH  13  14
ATOM     14  C   UNL     1      15.398  -7.661  13.644  1.00  0.00    -0.000 C 
BRANCH  14  15
ATOM     15  C   UNL     1      14.601  -6.465  13.090  1.00  0.00    -0.000 C 
BRANCH  15  16
ATOM     16  C   UNL     1      15.348  -5.715  11.975  1.00  0.00    -0.000 C 
BRANCH  16  17
ATOM     17  C   UNL     1      16.584  -4.952  12.489  1.00  0.00    -0.000 C 
BRANCH  17  18
ATOM     18  C   UNL     1      17.942  -5.568  12.105  1.00  0.00    -0.000 C 
BRANCH  18  19
ATOM     19  C   UNL     1      19.118  -4.955  12.879  1.00  0.00    -0.003 C 
ATOM     20  C   UNL     1      19.053  -3.430  12.861  1.00  0.00     0.004 C 
ENDBRANCH  18  19
ENDBRANCH  17  18
ENDBRANCH  16  17
ENDBRANCH  15  16
ENDBRANCH  14  15
ENDBRANCH  13  14
ENDBRANCH  12  13
ENDBRANCH   1  12
TORSDOF 16
ENDMDL
MODEL 5
REMARK VINA RESULT:    -5.500      1.438      4.485
REMARK INTER + INTRA:         -13.101
REMARK INTER:                 -10.534
REMARK INTRA:                  -2.567
REMARK UNBOUND:                -2.456
REMARK SMILES CCCCCCCCCCCCCCCCCC(=O)[O-]
REMARK SMILES IDX 10 1 11 2 12 3 13 4 14 5 15 6 16 7 17 8 18 9 19 10 20 11
REMARK SMILES IDX 9 12 8 13 7 14 6 15 5 16 4 17 3 18 2 19 1 20
REMARK H PARENT
REMARK Flexibility Score: inf
ROOT
ATOM      1  C   UNL     1      13.766  -5.817  11.917  1.00  0.00     0.000 C 
ENDROOT
BRANCH   1   2
ATOM      2  C   UNL     1      13.519  -6.734  13.123  1.00  0.00     0.000 C 
BRANCH   2   3
ATOM      3  C   UNL     1      14.840  -7.318  13.646  1.00  0.00     0.000 C 
BRANCH   3   4
ATOM      4  C   UNL     1      14.921  -7.328  15.181  1.00  0.00     0.000 C 
BRANCH   4   5
ATOM      5  C   UNL     1      15.988  -6.362  15.723  1.00  0.00     0.000 C 
BRANCH   5   6
ATOM      6  C   UNL     1      15.524  -4.897  15.705  1.00  0.00     0.000 C 
BRANCH   6   7
ATOM      7  C   UNL     1      14.093  -4.721  16.245  1.00  0.00     0.006 C 
BRANCH   7   8
ATOM      8  C   UNL     1      13.555  -3.304  16.004  1.00  0.00     0.053 C 
BRANCH   8   9
ATOM      9  C   UNL     1      13.158  -3.095  14.575  1.00  0.00     0.041 C 
ATOM     10  O   UNL     1      13.889  -2.415  13.806  1.00  0.00    -0.550 OA
ATOM     11  O   UNL     1      11.968  -3.628  14.099  1.00  0.00    -0.550 OA
ENDBRANCH   8   9
ENDBRANCH   7   8
ENDBRANCH   6   7
ENDBRANCH   5   6
ENDBRANCH   4   5
ENDBRANCH   3   4
ENDBRANCH   2   3
ENDBRANCH   1   2
BRANCH   1  12
ATOM     12  C   UNL     1      15.148  -5.139  11.955  1.00  0.00     0.000 C 
BRANCH  12  13
ATOM     13  C   UNL     1      16.148  -5.646  10.898  1.00  0.00    -0.000 C 
BRANCH  13  14
ATOM     14  C   UNL     1      17.542  -6.024  11.439  1.00  0.00    -0.000 C 
BRANCH  14  15
ATOM     15  C   UNL     1      17.949  -5.321  12.747  1.00  0.00    -0.000 C 
BRANCH  15  16
ATOM     16  C   UNL     1      19.237  -4.493  12.603  1.00  0.00    -0.000 C 
BRANCH  16  17
ATOM     17  C   UNL     1      19.061  -3.028  13.047  1.00  0.00    -0.000 C 
BRANCH  17  18
ATOM     18  C   UNL     1      18.421  -2.835  14.433  1.00  0.00    -0.000 C 
BRANCH  18  19
ATOM     19  C   UNL     1      19.367  -3.198  15.586  1.00  0.00    -0.003 C 
ATOM     20  C   UNL     1      18.606  -3.325  16.904  1.00  0.00     0.004 C 
ENDBRANCH  18  19
ENDBRANCH  17  18
ENDBRANCH  16  17
ENDBRANCH  15  16
ENDBRANCH  14  15
ENDBRANCH  13  14
ENDBRANCH  12  13
ENDBRANCH   1  12
TORSDOF 16
ENDMDL
MODEL 6
REMARK VINA RESULT:    -5.491      1.454      4.392
REMARK INTER + INTRA:         -13.082
REMARK INTER:                 -10.576
REMARK INTRA:                  -2.506
REMARK UNBOUND:                -2.456
REMARK SMILES CCCCCCCCCCCCCCCCCC(=O)[O-]
REMARK SMILES IDX 10 1 11 2 12 3 13 4 14 5 15 6 16 7 17 8 18 9 19 10 20 11
REMARK SMILES IDX 9 12 8 13 7 14 6 15 5 16 4 17 3 18 2 19 1 20
REMARK H PARENT
REMARK Flexibility Score: inf
ROOT
ATOM      1  C   UNL     1      18.075  -4.488  14.790  1.00  0.00     0.000 C 
ENDROOT
BRANCH   1   2
ATOM      2  C   UNL     1      17.638  -4.283  13.333  1.00  0.00     0.000 C 
BRANCH   2   3
ATOM      3  C   UNL     1      18.391  -5.239  12.395  1.00  0.00     0.000 C 
BRANCH   3   4
ATOM      4  C   UNL     1      17.449  -6.137  11.578  1.00  0.00     0.000 C 
BRANCH   4   5
ATOM      5  C   UNL     1      15.988  -5.658  11.623  1.00  0.00     0.000 C 
BRANCH   5   6
ATOM      6  C   UNL     1      15.433  -5.322  10.230  1.00  0.00     0.000 C 
BRANCH   6   7
ATOM      7  C   UNL     1      13.925  -5.601  10.109  1.00  0.00     0.006 C 
BRANCH   7   8
ATOM      8  C   UNL     1      13.189  -5.388  11.439  1.00  0.00     0.053 C 
BRANCH   8   9
ATOM      9  C   UNL     1      12.632  -4.002  11.550  1.00  0.00     0.041 C 
ATOM     10  O   UNL     1      13.367  -3.050  11.926  1.00  0.00    -0.550 OA
ATOM     11  O   UNL     1      11.294  -3.765  11.266  1.00  0.00    -0.550 OA
ENDBRANCH   8   9
ENDBRANCH   7   8
ENDBRANCH   6   7
ENDBRANCH   5   6
ENDBRANCH   4   5
ENDBRANCH   3   4
ENDBRANCH   2   3
ENDBRANCH   1   2
BRANCH   1  12
ATOM     12  C   UNL     1      18.568  -3.189  15.455  1.00  0.00     0.000 C 
BRANCH  12  13
ATOM     13  C   UNL     1      18.581  -3.213  16.996  1.00  0.00    -0.000 C 
BRANCH  13  14
ATOM     14  C   UNL     1      17.233  -3.561  17.659  1.00  0.00    -0.000 C 
BRANCH  14  15
ATOM     15  C   UNL     1      16.069  -2.614  17.314  1.00  0.00    -0.000 C 
BRANCH  15  16
ATOM     16  C   UNL     1      14.744  -3.358  17.077  1.00  0.00    -0.000 C 
BRANCH  16  17
ATOM     17  C   UNL     1      14.325  -3.379  15.595  1.00  0.00    -0.000 C 
BRANCH  17  18
ATOM     18  C   UNL     1      14.383  -4.759  14.916  1.00  0.00    -0.000 C 
BRANCH  18  19
ATOM     19  C   UNL     1      14.702  -5.897  15.897  1.00  0.00    -0.003 C 
ATOM     20  C   UNL     1      15.416  -7.047  15.191  1.00  0.00     0.004 C 
ENDBRANCH  18  19
ENDBRANCH  17  18
ENDBRANCH  16  17
ENDBRANCH  15  16
ENDBRANCH  14  15
ENDBRANCH  13  14
ENDBRANCH  12  13
ENDBRANCH   1  12
TORSDOF 16
ENDMDL
MODEL 7
REMARK VINA RESULT:    -5.481      1.398      3.413
REMARK INTER + INTRA:         -13.064
REMARK INTER:                 -10.357
REMARK INTRA:                  -2.707
REMARK UNBOUND:                -2.456
REMARK SMILES CCCCCCCCCCCCCCCCCC(=O)[O-]
REMARK SMILES IDX 10 1 11 2 12 3 13 4 14 5 15 6 16 7 17 8 18 9 19 10 20 11
REMARK SMILES IDX 9 12 8 13 7 14 6 15 5 16 4 17 3 18 2 19 1 20
REMARK H PARENT
REMARK Flexibility Score: inf
ROOT
ATOM      1  C   UNL     1      15.370  -6.711  16.195  1.00  0.00     0.000 C 
ENDROOT
BRANCH   1   2
ATOM      2  C   UNL     1      16.745  -6.081  15.933  1.00  0.00     0.000 C 
BRANCH   2   3
ATOM      3  C   UNL     1      16.865  -4.718  16.630  1.00  0.00     0.000 C 
BRANCH   3   4
ATOM      4  C   UNL     1      15.940  -3.653  16.021  1.00  0.00     0.000 C 
BRANCH   4   5
ATOM      5  C   UNL     1      14.751  -3.309  16.935  1.00  0.00     0.000 C 
BRANCH   5   6
ATOM      6  C   UNL     1      13.398  -3.422  16.213  1.00  0.00     0.000 C 
BRANCH   6   7
ATOM      7  C   UNL     1      13.549  -3.767  14.721  1.00  0.00     0.006 C 
BRANCH   7   8
ATOM      8  C   UNL     1      12.818  -2.763  13.819  1.00  0.00     0.053 C 
BRANCH   8   9
ATOM      9  C   UNL     1      13.776  -1.914  13.042  1.00  0.00     0.041 C 
ATOM     10  O   UNL     1      13.359  -0.922  12.388  1.00  0.00    -0.550 OA
ATOM     11  O   UNL     1      15.127  -2.234  13.018  1.00  0.00    -0.550 OA
ENDBRANCH   8   9
ENDBRANCH   7   8
ENDBRANCH   6   7
ENDBRANCH   5   6
ENDBRANCH   4   5
ENDBRANCH   3   4
ENDBRANCH   2   3
ENDBRANCH   1   2
BRANCH   1  12
ATOM     12  C   UNL     1      14.695  -7.228  14.912  1.00  0.00     0.000 C 
BRANCH  12  13
ATOM     13  C   UNL     1      15.579  -7.182  13.650  1.00  0.00    -0.000 C 
BRANCH  13  14
ATOM     14  C   UNL     1      15.114  -6.199  12.557  1.00  0.00    -0.000 C 
BRANCH  14  15
ATOM     15  C   UNL     1      16.232  -5.358  11.913  1.00  0.00    -0.000 C 
BRANCH  15  16
ATOM     16  C   UNL     1      17.553  -6.131  11.769  1.00  0.00    -0.000 C 
BRANCH  16  17
ATOM     17  C   UNL     1      18.772  -5.332  12.266  1.00  0.00    -0.000 C 
BRANCH  17  18
ATOM     18  C   UNL     1      18.461  -4.237  13.303  1.00  0.00    -0.000 C 
BRANCH  18  19
ATOM     19  C   UNL     1      19.040  -2.867  12.921  1.00  0.00    -0.003 C 
ATOM     20  C   UNL     1      18.898  -1.871  14.069  1.00  0.00     0.004 C 
ENDBRANCH  18  19
ENDBRANCH  17  18
ENDBRANCH  16  17
ENDBRANCH  15  16
ENDBRANCH  14  15
ENDBRANCH  13  14
ENDBRANCH  12  13
ENDBRANCH   1  12
TORSDOF 16
ENDMDL
MODEL 8
REMARK VINA RESULT:    -5.475      2.655      4.757
REMARK INTER + INTRA:         -13.051
REMARK INTER:                 -10.252
REMARK INTRA:                  -2.799
REMARK UNBOUND:                -2.456
REMARK SMILES CCCCCCCCCCCCCCCCCC(=O)[O-]
REMARK SMILES IDX 10 1 11 2 12 3 13 4 14 5 15 6 16 7 17 8 18 9 19 10 20 11
REMARK SMILES IDX 9 12 8 13 7 14 6 15 5 16 4 17 3 18 2 19 1 20
REMARK H PARENT
REMARK Flexibility Score: inf
ROOT
ATOM      1  C   UNL     1      12.444  -4.354  12.835  1.00  0.00     0.000 C 
ENDROOT
BRANCH   1   2
ATOM      2  C   UNL     1      12.892  -2.950  13.265  1.00  0.00     0.000 C 
BRANCH   2   3
ATOM      3  C   UNL     1      13.999  -3.030  14.327  1.00  0.00     0.000 C 
BRANCH   3   4
ATOM      4  C   UNL     1      13.463  -3.396  15.720  1.00  0.00     0.000 C 
BRANCH   4   5
ATOM      5  C   UNL     1      14.548  -3.990  16.635  1.00  0.00     0.000 C 
BRANCH   5   6
ATOM      6  C   UNL     1      15.969  -3.605  16.193  1.00  0.00     0.000 C 
BRANCH   6   7
ATOM      7  C   UNL     1      17.034  -4.599  16.689  1.00  0.00     0.006 C 
BRANCH   7   8
ATOM      8  C   UNL     1      18.267  -4.629  15.774  1.00  0.00     0.053 C 
BRANCH   8   9
ATOM      9  C   UNL     1      18.974  -3.309  15.751  1.00  0.00     0.041 C 
ATOM     10  O   UNL     1      19.608  -2.911  16.764  1.00  0.00    -0.550 OA
ATOM     11  O   UNL     1      18.910  -2.505  14.621  1.00  0.00    -0.550 OA
ENDBRANCH   8   9
ENDBRANCH   7   8
ENDBRANCH   6   7
ENDBRANCH   5   6
ENDBRANCH   4   5
ENDBRANCH   3   4
ENDBRANCH   2   3
ENDBRANCH   1   2
BRANCH   1  12
ATOM     12  C   UNL     1      12.268  -4.485  11.311  1.00  0.00     0.000 C 
BRANCH  12  13
ATOM     13  C   UNL     1      13.351  -5.323  10.603  1.00  0.00    -0.000 C 
BRANCH  13  14
ATOM     14  C   UNL     1      14.761  -4.699  10.589  1.00  0.00    -0.000 C 
BRANCH  14  15
ATOM     15  C   UNL     1      15.900  -5.660  10.201  1.00  0.00    -0.000 C 
BRANCH  15  16
ATOM     16  C   UNL     1      16.943  -5.831  11.318  1.00  0.00    -0.000 C 
BRANCH  16  17
ATOM     17  C   UNL     1      16.366  -5.572  12.722  1.00  0.00    -0.000 C 
BRANCH  17  18
ATOM     18  C   UNL     1      16.086  -6.834  13.559  1.00  0.00    -0.000 C 
BRANCH  18  19
ATOM     19  C   UNL     1      14.668  -6.860  14.147  1.00  0.00    -0.003 C 
ATOM     20  C   UNL     1      14.664  -7.473  15.546  1.00  0.00     0.004 C 
ENDBRANCH  18  19
ENDBRANCH  17  18
ENDBRANCH  16  17
ENDBRANCH  15  16
ENDBRANCH  14  15
ENDBRANCH  13  14
ENDBRANCH  12  13
ENDBRANCH   1  12
TORSDOF 16
ENDMDL
MODEL 9
REMARK VINA RESULT:    -5.468      1.468      4.044
REMARK INTER + INTRA:         -13.037
REMARK INTER:                 -10.238
REMARK INTRA:                  -2.800
REMARK UNBOUND:                -2.456
REMARK SMILES CCCCCCCCCCCCCCCCCC(=O)[O-]
REMARK SMILES IDX 10 1 11 2 12 3 13 4 14 5 15 6 16 7 17 8 18 9 19 10 20 11
REMARK SMILES IDX 9 12 8 13 7 14 6 15 5 16 4 17 3 18 2 19 1 20
REMARK H PARENT
REMARK Flexibility Score: inf
ROOT
ATOM      1  C   UNL     1      14.086  -6.711  13.490  1.00  0.00     0.000 C 
ENDROOT
BRANCH   1   2
ATOM      2  C   UNL     1      15.349  -7.392  14.037  1.00  0.00     0.000 C 
BRANCH   2   3
ATOM      3  C   UNL     1      15.755  -6.784  15.389  1.00  0.00     0.000 C 
BRANCH   3   4
ATOM      4  C   UNL     1      14.671  -5.871  15.982  1.00  0.00     0.000 C 
BRANCH   4   5
ATOM      5  C   UNL     1      15.182  -4.447  16.258  1.00  0.00     0.000 C 
BRANCH   5   6
ATOM      6  C   UNL     1      14.045  -3.461  16.570  1.00  0.00     0.000 C 
BRANCH   6   7
ATOM      7  C   UNL     1      12.989  -3.401  15.452  1.00  0.00     0.006 C 
BRANCH   7   8
ATOM      8  C   UNL     1      13.573  -2.878  14.132  1.00  0.00     0.053 C 
BRANCH   8   9
ATOM      9  C   UNL     1      12.519  -2.729  13.079  1.00  0.00     0.041 C 
ATOM     10  O   UNL     1      11.744  -3.686  12.817  1.00  0.00    -0.550 OA
ATOM     11  O   UNL     1      12.411  -1.542  12.366  1.00  0.00    -0.550 OA
ENDBRANCH   8   9
ENDBRANCH   7   8
ENDBRANCH   6   7
ENDBRANCH   5   6
ENDBRANCH   4   5
ENDBRANCH   3   4
ENDBRANCH   2   3
ENDBRANCH   1   2
BRANCH   1  12
ATOM     12  C   UNL     1      14.293  -6.104  12.090  1.00  0.00     0.000 C 
BRANCH  12  13
ATOM     13  C   UNL     1      15.475  -5.121  11.978  1.00  0.00    -0.000 C 
BRANCH  13  14
ATOM     14  C   UNL     1      16.678  -5.629  11.157  1.00  0.00    -0.000 C 
BRANCH  14  15
ATOM     15  C   UNL     1      17.945  -5.940  11.974  1.00  0.00    -0.000 C 
BRANCH  15  16
ATOM     16  C   UNL     1      18.611  -4.677  12.547  1.00  0.00    -0.000 C 
BRANCH  16  17
ATOM     17  C   UNL     1      18.494  -4.581  14.079  1.00  0.00    -0.000 C 
BRANCH  17  18
ATOM     18  C   UNL     1      18.388  -3.151  14.641  1.00  0.00    -0.000 C 
BRANCH  18  19
ATOM     19  C   UNL     1      17.191  -2.373  14.077  1.00  0.00    -0.003 C 
ATOM     20  C   UNL     1      17.654  -1.189  13.230  1.00  0.00     0.004 C 
ENDBRANCH  18  19
ENDBRANCH  17  18
ENDBRANCH  16  17
ENDBRANCH  15  16
ENDBRANCH  14  15
ENDBRANCH  13  14
ENDBRANCH  12  13
ENDBRANCH   1  12
TORSDOF 16
ENDMDL
