MODEL 1
REMARK VINA RESULT:    -4.653      0.000      0.000
REMARK INTER + INTRA:         -10.246
REMARK INTER:                  -8.189
REMARK INTRA:                  -2.058
REMARK UNBOUND:                -2.058
REMARK SMILES CCCCCCCCCCCCCCC(=O)[O-]
REMARK SMILES IDX 9 1 10 2 11 3 12 4 13 5 14 6 15 7 16 8 17 9 8 10 7 11 6 12
REMARK SMILES IDX 5 13 4 14 3 15 2 16 1 17
REMARK H PARENT
REMARK Flexibility Score: inf
ROOT
ATOM      1  C   UNL     1      60.878  27.437  25.635  1.00  0.00     0.000 C 
ENDROOT
BRANCH   1   2
ATOM      2  C   UNL     1      61.766  27.313  26.883  1.00  0.00     0.000 C 
BRANCH   2   3
ATOM      3  C   UNL     1      61.031  27.689  28.182  1.00  0.00     0.000 C 
BRANCH   3   4
ATOM      4  C   UNL     1      61.472  29.018  28.824  1.00  0.00     0.000 C 
BRANCH   4   5
ATOM      5  C   UNL     1      62.968  29.357  28.679  1.00  0.00     0.006 C 
BRANCH   5   6
ATOM      6  C   UNL     1      63.258  30.863  28.543  1.00  0.00     0.053 C 
BRANCH   6   7
ATOM      7  C   UNL     1      64.721  31.161  28.416  1.00  0.00     0.041 C 
ATOM      8  O   UNL     1      65.512  30.282  27.982  1.00  0.00    -0.550 OA
ATOM      9  O   UNL     1      65.219  32.396  28.810  1.00  0.00    -0.550 OA
ENDBRANCH   6   7
ENDBRANCH   5   6
ENDBRANCH   4   5
ENDBRANCH   3   4
ENDBRANCH   2   3
ENDBRANCH   1   2
BRANCH   1  10
ATOM     10  C   UNL     1      61.546  28.314  24.570  1.00  0.00     0.000 C 
BRANCH  10  11
ATOM     11  C   UNL     1      61.886  29.702  25.136  1.00  0.00    -0.000 C 
BRANCH  11  12
ATOM     12  C   UNL     1      63.345  30.112  24.873  1.00  0.00    -0.000 C 
BRANCH  12  13
ATOM     13  C   UNL     1      64.190  29.074  24.107  1.00  0.00    -0.000 C 
BRANCH  13  14
ATOM     14  C   UNL     1      65.279  28.375  24.940  1.00  0.00    -0.000 C 
BRANCH  14  15
ATOM     15  C   UNL     1      64.929  26.917  25.274  1.00  0.00    -0.000 C 
BRANCH  15  16
ATOM     16  C   UNL     1      65.145  26.009  24.057  1.00  0.00    -0.003 C 
ATOM     17  C   UNL     1      63.814  25.570  23.455  1.00  0.00     0.004 C 
ENDBRANCH  15  16
ENDBRANCH  14  15
ENDBRANCH  13  14
ENDBRANCH  12  13
ENDBRANCH  11  12
ENDBRANCH  10  11
ENDBRANCH   1  10
TORSDOF 13
ENDMDL
MODEL 2
REMARK VINA RESULT:    -4.598      2.674      5.387
REMARK INTER + INTRA:         -10.150
REMARK INTER:                  -8.086
REMARK INTRA:                  -2.064
REMARK UNBOUND:                -2.058
REMARK SMILES CCCCCCCCCCCCCCC(=O)[O-]
REMARK SMILES IDX 9 1 10 2 11 3 12 4 13 5 14 6 15 7 16 8 17 9 8 10 7 11 6 12
REMARK SMILES IDX 5 13 4 14 3 15 2 16 1 17
REMARK H PARENT
REMARK Flexibility Score: inf
ROOT
ATOM      1  C   UNL     1      61.510  28.303  24.556  1.00  0.00     0.000 C 
ENDROOT
BRANCH   1   2
ATOM      2  C   UNL     1      61.885  29.734  24.970  1.00  0.00     0.000 C 
BRANCH   2   3
ATOM      3  C   UNL     1      63.367  30.062  24.719  1.00  0.00     0.000 C 
BRANCH   3   4
ATOM      4  C   UNL     1      64.065  29.182  23.663  1.00  0.00     0.000 C 
BRANCH   4   5
ATOM      5  C   UNL     1      65.329  28.446  24.148  1.00  0.00     0.006 C 
BRANCH   5   6
ATOM      6  C   UNL     1      65.038  27.149  24.925  1.00  0.00     0.053 C 
BRANCH   6   7
ATOM      7  C   UNL     1      64.742  25.990  24.024  1.00  0.00     0.041 C 
ATOM      8  O   UNL     1      65.606  25.590  23.199  1.00  0.00    -0.550 OA
ATOM      9  O   UNL     1      63.498  25.372  24.066  1.00  0.00    -0.550 OA
ENDBRANCH   6   7
ENDBRANCH   5   6
ENDBRANCH   4   5
ENDBRANCH   3   4
ENDBRANCH   2   3
ENDBRANCH   1   2
BRANCH   1  10
ATOM     10  C   UNL     1      60.850  27.551  25.718  1.00  0.00     0.000 C 
BRANCH  10  11
ATOM     11  C   UNL     1      61.894  27.131  26.764  1.00  0.00    -0.000 C 
BRANCH  11  12
ATOM     12  C   UNL     1      61.452  27.441  28.206  1.00  0.00    -0.000 C 
BRANCH  12  13
ATOM     13  C   UNL     1      61.493  28.932  28.597  1.00  0.00    -0.000 C 
BRANCH  13  14
ATOM     14  C   UNL     1      62.891  29.482  28.931  1.00  0.00    -0.000 C 
BRANCH  14  15
ATOM     15  C   UNL     1      63.034  30.979  28.616  1.00  0.00    -0.000 C 
BRANCH  15  16
ATOM     16  C   UNL     1      64.484  31.328  28.262  1.00  0.00    -0.003 C 
ATOM     17  C   UNL     1      65.229  30.109  27.727  1.00  0.00     0.004 C 
ENDBRANCH  15  16
ENDBRANCH  14  15
ENDBRANCH  13  14
ENDBRANCH  12  13
ENDBRANCH  11  12
ENDBRANCH  10  11
ENDBRANCH   1  10
TORSDOF 13
ENDMDL
MODEL 3
REMARK VINA RESULT:    -4.476      2.864      5.858
REMARK INTER + INTRA:          -9.936
REMARK INTER:                  -7.983
REMARK INTRA:                  -1.953
REMARK UNBOUND:                -2.058
REMARK SMILES CCCCCCCCCCCCCCC(=O)[O-]
REMARK SMILES IDX 9 1 10 2 11 3 12 4 13 5 14 6 15 7 16 8 17 9 8 10 7 11 6 12
REMARK SMILES IDX 5 13 4 14 3 15 2 16 1 17
REMARK H PARENT
REMARK Flexibility Score: inf
ROOT
ATOM      1  C   UNL     1      63.376  30.161  24.558  1.00  0.00     0.000 C 
ENDROOT
BRANCH   1   2
ATOM      2  C   UNL     1      64.248  29.480  25.624  1.00  0.00     0.000 C 
BRANCH   2   3
ATOM      3  C   UNL     1      65.414  28.677  25.021  1.00  0.00     0.000 C 
BRANCH   3   4
ATOM      4  C   UNL     1      65.186  27.155  24.934  1.00  0.00     0.000 C 
BRANCH   4   5
ATOM      5  C   UNL     1      64.639  26.645  23.587  1.00  0.00     0.006 C 
BRANCH   5   6
ATOM      6  C   UNL     1      65.606  25.718  22.830  1.00  0.00     0.053 C 
BRANCH   6   7
ATOM      7  C   UNL     1      66.357  26.428  21.745  1.00  0.00     0.041 C 
ATOM      8  O   UNL     1      66.848  27.568  21.955  1.00  0.00    -0.550 OA
ATOM      9  O   UNL     1      66.484  25.847  20.489  1.00  0.00    -0.550 OA
ENDBRANCH   6   7
ENDBRANCH   5   6
ENDBRANCH   4   5
ENDBRANCH   3   4
ENDBRANCH   2   3
ENDBRANCH   1   2
BRANCH   1  10
ATOM     10  C   UNL     1      61.900  29.782  24.732  1.00  0.00     0.000 C 
BRANCH  10  11
ATOM     11  C   UNL     1      61.670  28.301  24.392  1.00  0.00    -0.000 C 
BRANCH  11  12
ATOM     12  C   UNL     1      60.383  27.738  25.019  1.00  0.00    -0.000 C 
BRANCH  12  13
ATOM     13  C   UNL     1      60.504  27.317  26.498  1.00  0.00    -0.000 C 
BRANCH  13  14
ATOM     14  C   UNL     1      61.904  26.849  26.931  1.00  0.00    -0.000 C 
BRANCH  14  15
ATOM     15  C   UNL     1      62.508  27.722  28.040  1.00  0.00    -0.000 C 
BRANCH  15  16
ATOM     16  C   UNL     1      61.578  28.892  28.384  1.00  0.00    -0.003 C 
ATOM     17  C   UNL     1      62.375  30.148  28.723  1.00  0.00     0.004 C 
ENDBRANCH  15  16
ENDBRANCH  14  15
ENDBRANCH  13  14
ENDBRANCH  12  13
ENDBRANCH  11  12
ENDBRANCH  10  11
ENDBRANCH   1  10
TORSDOF 13
ENDMDL
MODEL 4
REMARK VINA RESULT:    -4.458      2.333      5.507
REMARK INTER + INTRA:          -9.903
REMARK INTER:                  -7.949
REMARK INTRA:                  -1.954
REMARK UNBOUND:                -2.058
REMARK SMILES CCCCCCCCCCCCCCC(=O)[O-]
REMARK SMILES IDX 9 1 10 2 11 3 12 4 13 5 14 6 15 7 16 8 17 9 8 10 7 11 6 12
REMARK SMILES IDX 5 13 4 14 3 15 2 16 1 17
REMARK H PARENT
REMARK Flexibility Score: inf
ROOT
ATOM      1  C   UNL     1      65.170  29.743  27.006  1.00  0.00     0.000 C 
ENDROOT
BRANCH   1   2
ATOM      2  C   UNL     1      65.978  29.470  25.729  1.00  0.00     0.000 C 
BRANCH   2   3
ATOM      3  C   UNL     1      65.269  29.959  24.454  1.00  0.00     0.000 C 
BRANCH   3   4
ATOM      4  C   UNL     1      65.251  28.953  23.286  1.00  0.00     0.000 C 
BRANCH   4   5
ATOM      5  C   UNL     1      66.219  27.763  23.425  1.00  0.00     0.006 C 
BRANCH   5   6
ATOM      6  C   UNL     1      65.571  26.394  23.149  1.00  0.00     0.053 C 
BRANCH   6   7
ATOM      7  C   UNL     1      64.609  25.983  24.222  1.00  0.00     0.041 C 
ATOM      8  O   UNL     1      64.899  26.158  25.435  1.00  0.00    -0.550 OA
ATOM      9  O   UNL     1      63.407  25.373  23.886  1.00  0.00    -0.550 OA
ENDBRANCH   6   7
ENDBRANCH   5   6
ENDBRANCH   4   5
ENDBRANCH   3   4
ENDBRANCH   2   3
ENDBRANCH   1   2
BRANCH   1  10
ATOM     10  C   UNL     1      64.031  30.734  26.734  1.00  0.00     0.000 C 
BRANCH  10  11
ATOM     11  C   UNL     1      62.970  30.669  27.843  1.00  0.00    -0.000 C 
BRANCH  11  12
ATOM     12  C   UNL     1      62.782  29.249  28.407  1.00  0.00    -0.000 C 
BRANCH  12  13
ATOM     13  C   UNL     1      61.320  28.768  28.496  1.00  0.00    -0.000 C 
BRANCH  13  14
ATOM     14  C   UNL     1      61.055  27.371  27.907  1.00  0.00    -0.000 C 
BRANCH  14  15
ATOM     15  C   UNL     1      61.772  27.143  26.568  1.00  0.00    -0.000 C 
BRANCH  15  16
ATOM     16  C   UNL     1      60.942  27.692  25.402  1.00  0.00    -0.003 C 
ATOM     17  C   UNL     1      61.759  28.659  24.551  1.00  0.00     0.004 C 
ENDBRANCH  15  16
ENDBRANCH  14  15
ENDBRANCH  13  14
ENDBRANCH  12  13
ENDBRANCH  11  12
ENDBRANCH  10  11
ENDBRANCH   1  10
TORSDOF 13
ENDMDL
MODEL 5
REMARK VINA RESULT:    -4.429     13.147     15.140
REMARK INTER + INTRA:          -9.853
REMARK INTER:                  -7.874
REMARK INTRA:                  -1.980
REMARK UNBOUND:                -2.058
REMARK SMILES CCCCCCCCCCCCCCC(=O)[O-]
REMARK SMILES IDX 9 1 10 2 11 3 12 4 13 5 14 6 15 7 16 8 17 9 8 10 7 11 6 12
REMARK SMILES IDX 5 13 4 14 3 15 2 16 1 17
REMARK H PARENT
REMARK Flexibility Score: inf
ROOT
ATOM      1  C   UNL     1      64.255  29.735  10.549  1.00  0.00     0.000 C 
ENDROOT
BRANCH   1   2
ATOM      2  C   UNL     1      64.610  31.166  10.119  1.00  0.00     0.000 C 
BRANCH   2   3
ATOM      3  C   UNL     1      64.440  32.193  11.252  1.00  0.00     0.000 C 
BRANCH   3   4
ATOM      4  C   UNL     1      63.742  31.663  12.519  1.00  0.00     0.000 C 
BRANCH   4   5
ATOM      5  C   UNL     1      62.471  32.424  12.941  1.00  0.00     0.006 C 
BRANCH   5   6
ATOM      6  C   UNL     1      61.911  31.996  14.310  1.00  0.00     0.053 C 
BRANCH   6   7
ATOM      7  C   UNL     1      60.605  32.656  14.631  1.00  0.00     0.041 C 
ATOM      8  O   UNL     1      59.520  32.123  14.277  1.00  0.00    -0.550 OA
ATOM      9  O   UNL     1      60.584  33.879  15.291  1.00  0.00    -0.550 OA
ENDBRANCH   6   7
ENDBRANCH   5   6
ENDBRANCH   4   5
ENDBRANCH   3   4
ENDBRANCH   2   3
ENDBRANCH   1   2
BRANCH   1  10
ATOM     10  C   UNL     1      63.655  28.943   9.381  1.00  0.00     0.000 C 
BRANCH  10  11
ATOM     11  C   UNL     1      62.363  29.603   8.876  1.00  0.00    -0.000 C 
BRANCH  11  12
ATOM     12  C   UNL     1      61.103  28.788   9.220  1.00  0.00    -0.000 C 
BRANCH  12  13
ATOM     13  C   UNL     1      59.970  29.589   9.894  1.00  0.00    -0.000 C 
BRANCH  13  14
ATOM     14  C   UNL     1      60.220  29.964  11.365  1.00  0.00    -0.000 C 
BRANCH  14  15
ATOM     15  C   UNL     1      59.617  28.951  12.350  1.00  0.00    -0.000 C 
BRANCH  15  16
ATOM     16  C   UNL     1      60.614  28.609  13.463  1.00  0.00    -0.003 C 
ATOM     17  C   UNL     1      62.019  28.411  12.902  1.00  0.00     0.004 C 
ENDBRANCH  15  16
ENDBRANCH  14  15
ENDBRANCH  13  14
ENDBRANCH  12  13
ENDBRANCH  11  12
ENDBRANCH  10  11
ENDBRANCH   1  10
TORSDOF 13
ENDMDL
MODEL 6
REMARK VINA RESULT:    -4.423     13.508     15.852
REMARK INTER + INTRA:          -9.841
REMARK INTER:                  -7.827
REMARK INTRA:                  -2.015
REMARK UNBOUND:                -2.058
REMARK SMILES CCCCCCCCCCCCCCC(=O)[O-]
REMARK SMILES IDX 9 1 10 2 11 3 12 4 13 5 14 6 15 7 16 8 17 9 8 10 7 11 6 12
REMARK SMILES IDX 5 13 4 14 3 15 2 16 1 17
REMARK H PARENT
REMARK Flexibility Score: inf
ROOT
ATOM      1  C   UNL     1      64.051  29.835  13.363  1.00  0.00     0.000 C 
ENDROOT
BRANCH   1   2
ATOM      2  C   UNL     1      63.990  31.158  12.585  1.00  0.00     0.000 C 
BRANCH   2   3
ATOM      3  C   UNL     1      63.572  30.971  11.116  1.00  0.00     0.000 C 
BRANCH   3   4
ATOM      4  C   UNL     1      64.191  29.750  10.407  1.00  0.00     0.000 C 
BRANCH   4   5
ATOM      5  C   UNL     1      63.291  29.068   9.359  1.00  0.00     0.006 C 
BRANCH   5   6
ATOM      6  C   UNL     1      61.910  29.730   9.196  1.00  0.00     0.053 C 
BRANCH   6   7
ATOM      7  C   UNL     1      60.805  28.729   9.045  1.00  0.00     0.041 C 
ATOM      8  O   UNL     1      61.071  27.510   8.875  1.00  0.00    -0.550 OA
ATOM      9  O   UNL     1      59.479  29.146   9.056  1.00  0.00    -0.550 OA
ENDBRANCH   6   7
ENDBRANCH   5   6
ENDBRANCH   4   5
ENDBRANCH   3   4
ENDBRANCH   2   3
ENDBRANCH   1   2
BRANCH   1  10
ATOM     10  C   UNL     1      62.685  29.491  13.970  1.00  0.00     0.000 C 
BRANCH  10  11
ATOM     11  C   UNL     1      61.856  28.632  13.003  1.00  0.00    -0.000 C 
BRANCH  11  12
ATOM     12  C   UNL     1      60.365  29.012  12.996  1.00  0.00    -0.000 C 
BRANCH  12  13
ATOM     13  C   UNL     1      60.038  30.368  12.337  1.00  0.00    -0.000 C 
BRANCH  13  14
ATOM     14  C   UNL     1      59.809  31.532  13.316  1.00  0.00    -0.000 C 
BRANCH  14  15
ATOM     15  C   UNL     1      60.697  32.748  13.015  1.00  0.00    -0.000 C 
BRANCH  15  16
ATOM     16  C   UNL     1      61.567  33.104  14.227  1.00  0.00    -0.003 C 
ATOM     17  C   UNL     1      60.740  33.770  15.322  1.00  0.00     0.004 C 
ENDBRANCH  15  16
ENDBRANCH  14  15
ENDBRANCH  13  14
ENDBRANCH  12  13
ENDBRANCH  11  12
ENDBRANCH  10  11
ENDBRANCH   1  10
TORSDOF 13
ENDMDL
MODEL 7
REMARK VINA RESULT:    -4.421      2.675      5.225
REMARK INTER + INTRA:          -9.839
REMARK INTER:                  -7.985
REMARK INTRA:                  -1.854
REMARK UNBOUND:                -2.058
REMARK SMILES CCCCCCCCCCCCCCC(=O)[O-]
REMARK SMILES IDX 9 1 10 2 11 3 12 4 13 5 14 6 15 7 16 8 17 9 8 10 7 11 6 12
REMARK SMILES IDX 5 13 4 14 3 15 2 16 1 17
REMARK H PARENT
REMARK Flexibility Score: inf
ROOT
ATOM      1  C   UNL     1      61.312  27.982  24.612  1.00  0.00     0.000 C 
ENDROOT
BRANCH   1   2
ATOM      2  C   UNL     1      61.589  27.175  25.890  1.00  0.00     0.000 C 
BRANCH   2   3
ATOM      3  C   UNL     1      63.084  26.870  26.094  1.00  0.00     0.000 C 
BRANCH   3   4
ATOM      4  C   UNL     1      63.733  26.005  24.996  1.00  0.00     0.000 C 
BRANCH   4   5
ATOM      5  C   UNL     1      65.119  26.477  24.518  1.00  0.00     0.006 C 
BRANCH   5   6
ATOM      6  C   UNL     1      65.603  25.790  23.228  1.00  0.00     0.053 C 
BRANCH   6   7
ATOM      7  C   UNL     1      66.259  26.744  22.277  1.00  0.00     0.041 C 
ATOM      8  O   UNL     1      66.567  27.906  22.654  1.00  0.00    -0.550 OA
ATOM      9  O   UNL     1      66.500  26.365  20.962  1.00  0.00    -0.550 OA
ENDBRANCH   6   7
ENDBRANCH   5   6
ENDBRANCH   4   5
ENDBRANCH   3   4
ENDBRANCH   2   3
ENDBRANCH   1   2
BRANCH   1  10
ATOM     10  C   UNL     1      61.511  29.482  24.856  1.00  0.00     0.000 C 
BRANCH  10  11
ATOM     11  C   UNL     1      62.930  29.920  24.462  1.00  0.00    -0.000 C 
BRANCH  11  12
ATOM     12  C   UNL     1      63.578  30.851  25.502  1.00  0.00    -0.000 C 
BRANCH  12  13
ATOM     13  C   UNL     1      64.691  30.208  26.354  1.00  0.00    -0.000 C 
BRANCH  13  14
ATOM     14  C   UNL     1      64.380  30.094  27.856  1.00  0.00    -0.000 C 
BRANCH  14  15
ATOM     15  C   UNL     1      62.881  30.218  28.166  1.00  0.00    -0.000 C 
BRANCH  15  16
ATOM     16  C   UNL     1      62.403  29.049  29.036  1.00  0.00    -0.003 C 
ATOM     17  C   UNL     1      60.879  28.964  29.054  1.00  0.00     0.004 C 
ENDBRANCH  15  16
ENDBRANCH  14  15
ENDBRANCH  13  14
ENDBRANCH  12  13
ENDBRANCH  11  12
ENDBRANCH  10  11
ENDBRANCH   1  10
TORSDOF 13
ENDMDL
MODEL 8
REMARK VINA RESULT:    -4.413     13.017     14.813
REMARK INTER + INTRA:          -9.824
REMARK INTER:                  -7.724
REMARK INTRA:                  -2.100
REMARK UNBOUND:                -2.058
REMARK SMILES CCCCCCCCCCCCCCC(=O)[O-]
REMARK SMILES IDX 9 1 10 2 11 3 12 4 13 5 14 6 15 7 16 8 17 9 8 10 7 11 6 12
REMARK SMILES IDX 5 13 4 14 3 15 2 16 1 17
REMARK H PARENT
REMARK Flexibility Score: inf
ROOT
ATOM      1  C   UNL     1      60.258  28.257  12.050  1.00  0.00     0.000 C 
ENDROOT
BRANCH   1   2
ATOM      2  C   UNL     1      60.860  28.665  13.404  1.00  0.00     0.000 C 
BRANCH   2   3
ATOM      3  C   UNL     1      62.337  29.086  13.301  1.00  0.00     0.000 C 
BRANCH   3   4
ATOM      4  C   UNL     1      62.631  30.546  13.695  1.00  0.00     0.000 C 
BRANCH   4   5
ATOM      5  C   UNL     1      62.009  31.616  12.777  1.00  0.00     0.006 C 
BRANCH   5   6
ATOM      6  C   UNL     1      61.504  32.864  13.523  1.00  0.00     0.053 C 
BRANCH   6   7
ATOM      7  C   UNL     1      60.496  32.535  14.582  1.00  0.00     0.041 C 
ATOM      8  O   UNL     1      60.749  32.767  15.794  1.00  0.00    -0.550 OA
ATOM      9  O   UNL     1      59.289  31.940  14.236  1.00  0.00    -0.550 OA
ENDBRANCH   6   7
ENDBRANCH   5   6
ENDBRANCH   4   5
ENDBRANCH   3   4
ENDBRANCH   2   3
ENDBRANCH   1   2
BRANCH   1  10
ATOM     10  C   UNL     1      59.756  29.484  11.280  1.00  0.00     0.000 C 
BRANCH  10  11
ATOM     11  C   UNL     1      60.513  29.648   9.954  1.00  0.00    -0.000 C 
BRANCH  11  12
ATOM     12  C   UNL     1      61.424  28.450   9.634  1.00  0.00    -0.000 C 
BRANCH  12  13
ATOM     13  C   UNL     1      62.937  28.744   9.693  1.00  0.00    -0.000 C 
BRANCH  13  14
ATOM     14  C   UNL     1      63.324  30.220   9.495  1.00  0.00    -0.000 C 
BRANCH  14  15
ATOM     15  C   UNL     1      64.492  30.655  10.393  1.00  0.00    -0.000 C 
BRANCH  15  16
ATOM     16  C   UNL     1      64.883  32.112  10.115  1.00  0.00    -0.003 C 
ATOM     17  C   UNL     1      65.155  32.866  11.413  1.00  0.00     0.004 C 
ENDBRANCH  15  16
ENDBRANCH  14  15
ENDBRANCH  13  14
ENDBRANCH  12  13
ENDBRANCH  11  12
ENDBRANCH  10  11
ENDBRANCH   1  10
TORSDOF 13
ENDMDL
MODEL 9
REMARK VINA RESULT:    -4.388     13.032     15.220
REMARK INTER + INTRA:          -9.781
REMARK INTER:                  -7.979
REMARK INTRA:                  -1.802
REMARK UNBOUND:                -2.058
REMARK SMILES CCCCCCCCCCCCCCC(=O)[O-]
REMARK SMILES IDX 9 1 10 2 11 3 12 4 13 5 14 6 15 7 16 8 17 9 8 10 7 11 6 12
REMARK SMILES IDX 5 13 4 14 3 15 2 16 1 17
REMARK H PARENT
REMARK Flexibility Score: inf
ROOT
ATOM      1  C   UNL     1      63.441  29.469   9.898  1.00  0.00     0.000 C 
ENDROOT
BRANCH   1   2
ATOM      2  C   UNL     1      62.307  28.995   8.976  1.00  0.00     0.000 C 
BRANCH   2   3
ATOM      3  C   UNL     1      61.186  28.262   9.732  1.00  0.00     0.000 C 
BRANCH   3   4
ATOM      4  C   UNL     1      60.036  29.158  10.231  1.00  0.00     0.000 C 
BRANCH   4   5
ATOM      5  C   UNL     1      60.353  30.005  11.479  1.00  0.00     0.006 C 
BRANCH   5   6
ATOM      6  C   UNL     1      60.176  29.250  12.809  1.00  0.00     0.053 C 
BRANCH   6   7
ATOM      7  C   UNL     1      61.459  29.113  13.570  1.00  0.00     0.041 C 
ATOM      8  O   UNL     1      62.398  28.411  13.110  1.00  0.00    -0.550 OA
ATOM      9  O   UNL     1      61.607  29.729  14.807  1.00  0.00    -0.550 OA
ENDBRANCH   6   7
ENDBRANCH   5   6
ENDBRANCH   4   5
ENDBRANCH   3   4
ENDBRANCH   2   3
ENDBRANCH   1   2
BRANCH   1  10
ATOM     10  C   UNL     1      64.082  30.755   9.363  1.00  0.00     0.000 C 
BRANCH  10  11
ATOM     11  C   UNL     1      64.693  31.581  10.506  1.00  0.00    -0.000 C 
BRANCH  11  12
ATOM     12  C   UNL     1      64.088  31.239  11.879  1.00  0.00    -0.000 C 
BRANCH  12  13
ATOM     13  C   UNL     1      63.075  32.267  12.423  1.00  0.00    -0.000 C 
BRANCH  13  14
ATOM     14  C   UNL     1      63.325  32.728  13.870  1.00  0.00    -0.000 C 
BRANCH  14  15
ATOM     15  C   UNL     1      62.068  33.305  14.537  1.00  0.00    -0.000 C 
BRANCH  15  16
ATOM     16  C   UNL     1      60.827  33.064  13.669  1.00  0.00    -0.003 C 
ATOM     17  C   UNL     1      59.691  32.461  14.488  1.00  0.00     0.004 C 
ENDBRANCH  15  16
ENDBRANCH  14  15
ENDBRANCH  13  14
ENDBRANCH  12  13
ENDBRANCH  11  12
ENDBRANCH  10  11
ENDBRANCH   1  10
TORSDOF 13
ENDMDL
