MODEL 1
REMARK VINA RESULT:    -5.829      0.000      0.000
REMARK INTER + INTRA:         -11.958
REMARK INTER:                  -8.896
REMARK INTRA:                  -3.062
REMARK UNBOUND:                -3.062
REMARK SMILES CC(=O)CCC=C(C)CCC=C(C)CCC=C(C)C
REMARK SMILES IDX 10 1 11 2 12 3 13 4 14 5 15 6 16 7 18 8 17 9 19 10 9 11 7 12
REMARK SMILES IDX 6 13 8 14 5 15 4 16 2 17 3 18 1 19
REMARK H PARENT
REMARK Flexibility Score: inf
ROOT
ATOM      1  C   UNL     1     121.051 176.998 128.588  1.00  0.00     0.032 C 
ENDROOT
BRANCH   1   2
ATOM      2  C   UNL     1     119.975 176.309 127.787  1.00  0.00    -0.028 C 
ATOM      3  C   UNL     1     120.202 175.432 126.781  1.00  0.00    -0.077 C 
ATOM      4  C   UNL     1     119.013 174.785 126.119  1.00  0.00     0.039 C 
BRANCH   3   5
ATOM      5  C   UNL     1     121.594 175.101 126.271  1.00  0.00     0.034 C 
BRANCH   5   6
ATOM      6  C   UNL     1     121.856 175.697 124.882  1.00  0.00     0.032 C 
BRANCH   6   7
ATOM      7  C   UNL     1     123.299 176.115 124.725  1.00  0.00    -0.028 C 
ATOM      8  C   UNL     1     125.233 177.260 123.735  1.00  0.00     0.039 C 
ATOM      9  C   UNL     1     123.751 176.998 123.808  1.00  0.00    -0.080 C 
ATOM     10  C   UNL     1     122.822 177.720 122.861  1.00  0.00     0.039 C 
ENDBRANCH   6   7
ENDBRANCH   5   6
ENDBRANCH   3   5
ENDBRANCH   1   2
BRANCH   1  11
ATOM     11  C   UNL     1     121.011 178.513 128.352  1.00  0.00     0.034 C 
BRANCH  11  12
ATOM     12  C   UNL     1     121.823 178.886 127.128  1.00  0.00    -0.077 C 
ATOM     13  C   UNL     1     121.264 179.249 125.950  1.00  0.00    -0.028 C 
ATOM     14  C   UNL     1     123.327 178.821 127.211  1.00  0.00     0.039 C 
BRANCH  13  15
ATOM     15  C   UNL     1     119.783 179.417 125.697  1.00  0.00     0.035 C 
BRANCH  15  16
ATOM     16  C   UNL     1     119.283 178.410 124.656  1.00  0.00     0.079 C 
BRANCH  16  17
ATOM     17  C   UNL     1     117.784 178.277 124.686  1.00  0.00     0.130 C 
ATOM     18  O   UNL     1     117.140 178.485 123.670  1.00  0.00    -0.300 OA
ATOM     19  C   UNL     1     117.063 177.888 125.943  1.00  0.00     0.087 C 
ENDBRANCH  16  17
ENDBRANCH  15  16
ENDBRANCH  13  15
ENDBRANCH  11  12
ENDBRANCH   1  11
TORSDOF 9
ENDMDL
MODEL 2
REMARK VINA RESULT:    -5.612      1.978      5.105
REMARK INTER + INTRA:         -11.627
REMARK INTER:                  -8.910
REMARK INTRA:                  -2.717
REMARK UNBOUND:                -3.062
REMARK SMILES CC(=O)CCC=C(C)CCC=C(C)CCC=C(C)C
REMARK SMILES IDX 10 1 11 2 12 3 13 4 14 5 15 6 16 7 18 8 17 9 19 10 9 11 7 12
REMARK SMILES IDX 6 13 8 14 5 15 4 16 2 17 3 18 1 19
REMARK H PARENT
REMARK Flexibility Score: inf
ROOT
ATOM      1  C   UNL     1     120.905 178.738 127.723  1.00  0.00     0.032 C 
ENDROOT
BRANCH   1   2
ATOM      2  C   UNL     1     120.888 177.234 127.627  1.00  0.00    -0.028 C 
ATOM      3  C   UNL     1     119.773 176.480 127.486  1.00  0.00    -0.077 C 
ATOM      4  C   UNL     1     119.934 174.988 127.347  1.00  0.00     0.039 C 
BRANCH   3   5
ATOM      5  C   UNL     1     118.372 177.067 127.498  1.00  0.00     0.034 C 
BRANCH   5   6
ATOM      6  C   UNL     1     117.730 177.055 126.104  1.00  0.00     0.032 C 
BRANCH   6   7
ATOM      7  C   UNL     1     116.431 177.824 126.090  1.00  0.00    -0.028 C 
ATOM      8  C   UNL     1     114.672 179.289 125.197  1.00  0.00     0.039 C 
ATOM      9  C   UNL     1     115.956 178.517 125.031  1.00  0.00    -0.080 C 
ATOM     10  C   UNL     1     116.670 178.541 123.700  1.00  0.00     0.039 C 
ENDBRANCH   6   7
ENDBRANCH   5   6
ENDBRANCH   3   5
ENDBRANCH   1   2
BRANCH   1  11
ATOM     11  C   UNL     1     121.485 179.354 126.444  1.00  0.00     0.034 C 
BRANCH  11  12
ATOM     12  C   UNL     1     120.401 179.547 125.403  1.00  0.00    -0.077 C 
ATOM     13  C   UNL     1     120.482 179.047 124.147  1.00  0.00    -0.028 C 
ATOM     14  C   UNL     1     119.186 180.361 125.768  1.00  0.00     0.039 C 
BRANCH  13  15
ATOM     15  C   UNL     1     121.596 178.171 123.622  1.00  0.00     0.035 C 
BRANCH  15  16
ATOM     16  C   UNL     1     121.416 176.718 124.077  1.00  0.00     0.079 C 
BRANCH  16  17
ATOM     17  C   UNL     1     122.687 176.158 124.658  1.00  0.00     0.130 C 
ATOM     18  O   UNL     1     122.690 175.028 125.121  1.00  0.00    -0.300 OA
ATOM     19  C   UNL     1     123.955 176.959 124.675  1.00  0.00     0.087 C 
ENDBRANCH  16  17
ENDBRANCH  15  16
ENDBRANCH  13  15
ENDBRANCH  11  12
ENDBRANCH   1  11
TORSDOF 9
ENDMDL
MODEL 3
REMARK VINA RESULT:    -5.471      2.507      5.270
REMARK INTER + INTRA:         -11.411
REMARK INTER:                  -8.844
REMARK INTRA:                  -2.568
REMARK UNBOUND:                -3.062
REMARK SMILES CC(=O)CCC=C(C)CCC=C(C)CCC=C(C)C
REMARK SMILES IDX 10 1 11 2 12 3 13 4 14 5 15 6 16 7 18 8 17 9 19 10 9 11 7 12
REMARK SMILES IDX 6 13 8 14 5 15 4 16 2 17 3 18 1 19
REMARK H PARENT
REMARK Flexibility Score: inf
ROOT
ATOM      1  C   UNL     1     123.311 178.700 126.702  1.00  0.00     0.032 C 
ENDROOT
BRANCH   1   2
ATOM      2  C   UNL     1     123.188 177.685 125.594  1.00  0.00    -0.028 C 
ATOM      3  C   UNL     1     122.239 177.703 124.630  1.00  0.00    -0.077 C 
ATOM      4  C   UNL     1     122.290 176.645 123.559  1.00  0.00     0.039 C 
BRANCH   3   5
ATOM      5  C   UNL     1     121.109 178.719 124.602  1.00  0.00     0.034 C 
BRANCH   5   6
ATOM      6  C   UNL     1     119.839 178.151 123.955  1.00  0.00     0.032 C 
BRANCH   6   7
ATOM      7  C   UNL     1     118.644 178.300 124.865  1.00  0.00    -0.028 C 
ATOM      8  C   UNL     1     116.954 177.628 126.518  1.00  0.00     0.039 C 
ATOM      9  C   UNL     1     118.204 177.352 125.723  1.00  0.00    -0.080 C 
ATOM     10  C   UNL     1     118.922 176.035 125.902  1.00  0.00     0.039 C 
ENDBRANCH   6   7
ENDBRANCH   5   6
ENDBRANCH   3   5
ENDBRANCH   1   2
BRANCH   1  11
ATOM     11  C   UNL     1     123.086 178.039 128.067  1.00  0.00     0.034 C 
BRANCH  11  12
ATOM     12  C   UNL     1     121.610 177.785 128.303  1.00  0.00    -0.077 C 
ATOM     13  C   UNL     1     121.110 176.571 128.631  1.00  0.00    -0.028 C 
ATOM     14  C   UNL     1     120.645 178.931 128.135  1.00  0.00     0.039 C 
BRANCH  13  15
ATOM     15  C   UNL     1     121.928 175.326 128.891  1.00  0.00     0.035 C 
BRANCH  15  16
ATOM     16  C   UNL     1     121.219 174.079 128.353  1.00  0.00     0.079 C 
BRANCH  16  17
ATOM     17  C   UNL     1     122.055 173.367 127.322  1.00  0.00     0.130 C 
ATOM     18  O   UNL     1     122.568 172.294 127.600  1.00  0.00    -0.300 OA
ATOM     19  C   UNL     1     122.266 173.947 125.956  1.00  0.00     0.087 C 
ENDBRANCH  16  17
ENDBRANCH  15  16
ENDBRANCH  13  15
ENDBRANCH  11  12
ENDBRANCH   1  11
TORSDOF 9
ENDMDL
MODEL 4
REMARK VINA RESULT:    -5.441      1.153      3.655
REMARK INTER + INTRA:         -11.365
REMARK INTER:                  -8.752
REMARK INTRA:                  -2.613
REMARK UNBOUND:                -3.062
REMARK SMILES CC(=O)CCC=C(C)CCC=C(C)CCC=C(C)C
REMARK SMILES IDX 10 1 11 2 12 3 13 4 14 5 15 6 16 7 18 8 17 9 19 10 9 11 7 12
REMARK SMILES IDX 6 13 8 14 5 15 4 16 2 17 3 18 1 19
REMARK H PARENT
REMARK Flexibility Score: inf
ROOT
ATOM      1  C   UNL     1     123.199 177.724 126.334  1.00  0.00     0.032 C 
ENDROOT
BRANCH   1   2
ATOM      2  C   UNL     1     123.773 177.623 124.944  1.00  0.00    -0.028 C 
ATOM      3  C   UNL     1     123.101 177.170 123.860  1.00  0.00    -0.077 C 
ATOM      4  C   UNL     1     123.805 177.187 122.527  1.00  0.00     0.039 C 
BRANCH   3   5
ATOM      5  C   UNL     1     121.688 176.617 123.935  1.00  0.00     0.034 C 
BRANCH   5   6
ATOM      6  C   UNL     1     121.587 175.423 124.893  1.00  0.00     0.032 C 
BRANCH   6   7
ATOM      7  C   UNL     1     120.366 175.529 125.776  1.00  0.00    -0.028 C 
ATOM      8  C   UNL     1     119.029 175.346 127.830  1.00  0.00     0.039 C 
ATOM      9  C   UNL     1     120.345 175.257 127.100  1.00  0.00    -0.080 C 
ATOM     10  C   UNL     1     121.591 174.866 127.860  1.00  0.00     0.039 C 
ENDBRANCH   6   7
ENDBRANCH   5   6
ENDBRANCH   3   5
ENDBRANCH   1   2
BRANCH   1  11
ATOM     11  C   UNL     1     122.513 179.080 126.537  1.00  0.00     0.034 C 
BRANCH  11  12
ATOM     12  C   UNL     1     121.199 178.913 127.272  1.00  0.00    -0.077 C 
ATOM     13  C   UNL     1     119.994 179.125 126.693  1.00  0.00    -0.028 C 
ATOM     14  C   UNL     1     121.230 178.520 128.727  1.00  0.00     0.039 C 
BRANCH  13  15
ATOM     15  C   UNL     1     119.768 179.472 125.239  1.00  0.00     0.035 C 
BRANCH  15  16
ATOM     16  C   UNL     1     118.680 178.586 124.623  1.00  0.00     0.079 C 
BRANCH  16  17
ATOM     17  C   UNL     1     117.329 178.864 125.226  1.00  0.00     0.130 C 
ATOM     18  O   UNL     1     116.767 179.920 124.984  1.00  0.00    -0.300 OA
ATOM     19  C   UNL     1     116.655 177.864 126.118  1.00  0.00     0.087 C 
ENDBRANCH  16  17
ENDBRANCH  15  16
ENDBRANCH  13  15
ENDBRANCH  11  12
ENDBRANCH   1  11
TORSDOF 9
ENDMDL
MODEL 5
REMARK VINA RESULT:    -5.424      1.253      3.188
REMARK INTER + INTRA:         -11.339
REMARK INTER:                  -8.590
REMARK INTRA:                  -2.749
REMARK UNBOUND:                -3.062
REMARK SMILES CC(=O)CCC=C(C)CCC=C(C)CCC=C(C)C
REMARK SMILES IDX 10 1 11 2 12 3 13 4 14 5 15 6 16 7 18 8 17 9 19 10 9 11 7 12
REMARK SMILES IDX 6 13 8 14 5 15 4 16 2 17 3 18 1 19
REMARK H PARENT
REMARK Flexibility Score: inf
ROOT
ATOM      1  C   UNL     1     121.774 175.087 128.694  1.00  0.00     0.032 C 
ENDROOT
BRANCH   1   2
ATOM      2  C   UNL     1     121.140 176.448 128.833  1.00  0.00    -0.028 C 
ATOM      3  C   UNL     1     121.736 177.617 128.503  1.00  0.00    -0.077 C 
ATOM      4  C   UNL     1     120.940 178.889 128.650  1.00  0.00     0.039 C 
BRANCH   3   5
ATOM      5  C   UNL     1     123.176 177.705 128.026  1.00  0.00     0.034 C 
BRANCH   5   6
ATOM      6  C   UNL     1     123.325 178.630 126.811  1.00  0.00     0.032 C 
BRANCH   6   7
ATOM      7  C   UNL     1     122.741 178.002 125.567  1.00  0.00    -0.028 C 
ATOM      8  C   UNL     1     122.736 176.928 123.358  1.00  0.00     0.039 C 
ATOM      9  C   UNL     1     123.466 177.456 124.566  1.00  0.00    -0.080 C 
ATOM     10  C   UNL     1     124.973 177.363 124.622  1.00  0.00     0.039 C 
ENDBRANCH   6   7
ENDBRANCH   5   6
ENDBRANCH   3   5
ENDBRANCH   1   2
BRANCH   1  11
ATOM     11  C   UNL     1     120.936 174.193 127.773  1.00  0.00     0.034 C 
BRANCH  11  12
ATOM     12  C   UNL     1     121.269 174.458 126.319  1.00  0.00    -0.077 C 
ATOM     13  C   UNL     1     120.429 175.095 125.470  1.00  0.00    -0.028 C 
ATOM     14  C   UNL     1     122.587 173.964 125.778  1.00  0.00     0.039 C 
BRANCH  13  15
ATOM     15  C   UNL     1     119.096 175.700 125.846  1.00  0.00     0.035 C 
BRANCH  15  16
ATOM     16  C   UNL     1     119.131 177.228 125.728  1.00  0.00     0.079 C 
BRANCH  16  17
ATOM     17  C   UNL     1     117.764 177.795 125.451  1.00  0.00     0.130 C 
ATOM     18  O   UNL     1     117.521 178.276 124.355  1.00  0.00    -0.300 OA
ATOM     19  C   UNL     1     116.688 177.775 126.496  1.00  0.00     0.087 C 
ENDBRANCH  16  17
ENDBRANCH  15  16
ENDBRANCH  13  15
ENDBRANCH  11  12
ENDBRANCH   1  11
TORSDOF 9
ENDMDL
MODEL 6
REMARK VINA RESULT:    -5.384      1.305      3.588
REMARK INTER + INTRA:         -11.278
REMARK INTER:                  -8.601
REMARK INTRA:                  -2.677
REMARK UNBOUND:                -3.062
REMARK SMILES CC(=O)CCC=C(C)CCC=C(C)CCC=C(C)C
REMARK SMILES IDX 10 1 11 2 12 3 13 4 14 5 15 6 16 7 18 8 17 9 19 10 9 11 7 12
REMARK SMILES IDX 6 13 8 14 5 15 4 16 2 17 3 18 1 19
REMARK H PARENT
REMARK Flexibility Score: inf
ROOT
ATOM      1  C   UNL     1     122.637 175.645 125.010  1.00  0.00     0.032 C 
ENDROOT
BRANCH   1   2
ATOM      2  C   UNL     1     121.296 174.961 125.093  1.00  0.00    -0.028 C 
ATOM      3  C   UNL     1     120.861 174.235 126.149  1.00  0.00    -0.077 C 
ATOM      4  C   UNL     1     119.467 173.663 126.096  1.00  0.00     0.039 C 
BRANCH   3   5
ATOM      5  C   UNL     1     121.726 173.944 127.364  1.00  0.00     0.034 C 
BRANCH   5   6
ATOM      6  C   UNL     1     121.180 174.612 128.632  1.00  0.00     0.032 C 
BRANCH   6   7
ATOM      7  C   UNL     1     121.418 176.104 128.613  1.00  0.00    -0.028 C 
ATOM      8  C   UNL     1     120.855 178.488 128.418  1.00  0.00     0.039 C 
ATOM      9  C   UNL     1     120.449 177.038 128.486  1.00  0.00    -0.080 C 
ATOM     10  C   UNL     1     118.986 176.673 128.407  1.00  0.00     0.039 C 
ENDBRANCH   6   7
ENDBRANCH   5   6
ENDBRANCH   3   5
ENDBRANCH   1   2
BRANCH   1  11
ATOM     11  C   UNL     1     122.486 177.155 125.228  1.00  0.00     0.034 C 
BRANCH  11  12
ATOM     12  C   UNL     1     122.057 177.841 123.947  1.00  0.00    -0.077 C 
ATOM     13  C   UNL     1     120.887 178.509 123.820  1.00  0.00    -0.028 C 
ATOM     14  C   UNL     1     122.960 177.753 122.743  1.00  0.00     0.039 C 
BRANCH  13  15
ATOM     15  C   UNL     1     119.885 178.743 124.927  1.00  0.00     0.035 C 
BRANCH  15  16
ATOM     16  C   UNL     1     118.843 177.620 124.975  1.00  0.00     0.079 C 
BRANCH  16  17
ATOM     17  C   UNL     1     117.443 178.156 124.841  1.00  0.00     0.130 C 
ATOM     18  O   UNL     1     117.060 178.578 123.761  1.00  0.00    -0.300 OA
ATOM     19  C   UNL     1     116.503 178.177 126.010  1.00  0.00     0.087 C 
ENDBRANCH  16  17
ENDBRANCH  15  16
ENDBRANCH  13  15
ENDBRANCH  11  12
ENDBRANCH   1  11
TORSDOF 9
ENDMDL
MODEL 7
REMARK VINA RESULT:    -5.379      1.504      3.393
REMARK INTER + INTRA:         -11.271
REMARK INTER:                  -8.120
REMARK INTRA:                  -3.151
REMARK UNBOUND:                -3.062
REMARK SMILES CC(=O)CCC=C(C)CCC=C(C)CCC=C(C)C
REMARK SMILES IDX 10 1 11 2 12 3 13 4 14 5 15 6 16 7 18 8 17 9 19 10 9 11 7 12
REMARK SMILES IDX 6 13 8 14 5 15 4 16 2 17 3 18 1 19
REMARK H PARENT
REMARK Flexibility Score: inf
ROOT
ATOM      1  C   UNL     1     121.757 178.839 127.606  1.00  0.00     0.032 C 
ENDROOT
BRANCH   1   2
ATOM      2  C   UNL     1     121.253 179.133 126.216  1.00  0.00    -0.028 C 
ATOM      3  C   UNL     1     121.511 178.378 125.124  1.00  0.00    -0.077 C 
ATOM      4  C   UNL     1     120.882 178.779 123.814  1.00  0.00     0.039 C 
BRANCH   3   5
ATOM      5  C   UNL     1     122.430 177.168 125.154  1.00  0.00     0.034 C 
BRANCH   5   6
ATOM      6  C   UNL     1     121.946 176.054 124.216  1.00  0.00     0.032 C 
BRANCH   6   7
ATOM      7  C   UNL     1     120.953 175.148 124.905  1.00  0.00    -0.028 C 
ATOM      8  C   UNL     1     120.162 173.199 126.175  1.00  0.00     0.039 C 
ATOM      9  C   UNL     1     121.276 174.035 125.601  1.00  0.00    -0.080 C 
ATOM     10  C   UNL     1     122.710 173.609 125.814  1.00  0.00     0.039 C 
ENDBRANCH   6   7
ENDBRANCH   5   6
ENDBRANCH   3   5
ENDBRANCH   1   2
BRANCH   1  11
ATOM     11  C   UNL     1     120.609 178.369 128.508  1.00  0.00     0.034 C 
BRANCH  11  12
ATOM     12  C   UNL     1     120.349 176.889 128.317  1.00  0.00    -0.077 C 
ATOM     13  C   UNL     1     119.199 176.399 127.796  1.00  0.00    -0.028 C 
ATOM     14  C   UNL     1     121.407 175.907 128.754  1.00  0.00     0.039 C 
BRANCH  13  15
ATOM     15  C   UNL     1     118.056 177.229 127.260  1.00  0.00     0.035 C 
BRANCH  15  16
ATOM     16  C   UNL     1     117.946 177.098 125.737  1.00  0.00     0.079 C 
BRANCH  16  17
ATOM     17  C   UNL     1     117.225 178.272 125.130  1.00  0.00     0.130 C 
ATOM     18  O   UNL     1     116.276 178.078 124.386  1.00  0.00    -0.300 OA
ATOM     19  C   UNL     1     117.645 179.681 125.425  1.00  0.00     0.087 C 
ENDBRANCH  16  17
ENDBRANCH  15  16
ENDBRANCH  13  15
ENDBRANCH  11  12
ENDBRANCH   1  11
TORSDOF 9
ENDMDL
MODEL 8
REMARK VINA RESULT:    -5.377      1.648      4.030
REMARK INTER + INTRA:         -11.267
REMARK INTER:                  -9.263
REMARK INTRA:                  -2.004
REMARK UNBOUND:                -3.062
REMARK SMILES CC(=O)CCC=C(C)CCC=C(C)CCC=C(C)C
REMARK SMILES IDX 10 1 11 2 12 3 13 4 14 5 15 6 16 7 18 8 17 9 19 10 9 11 7 12
REMARK SMILES IDX 6 13 8 14 5 15 4 16 2 17 3 18 1 19
REMARK H PARENT
REMARK Flexibility Score: inf
ROOT
ATOM      1  C   UNL     1     120.302 178.642 123.939  1.00  0.00     0.032 C 
ENDROOT
BRANCH   1   2
ATOM      2  C   UNL     1     121.760 178.262 123.980  1.00  0.00    -0.028 C 
ATOM      3  C   UNL     1     122.228 176.995 124.063  1.00  0.00    -0.077 C 
ATOM      4  C   UNL     1     123.720 176.782 124.034  1.00  0.00     0.039 C 
BRANCH   3   5
ATOM      5  C   UNL     1     121.319 175.787 124.216  1.00  0.00     0.034 C 
BRANCH   5   6
ATOM      6  C   UNL     1     121.549 175.059 125.547  1.00  0.00     0.032 C 
BRANCH   6   7
ATOM      7  C   UNL     1     121.375 173.566 125.394  1.00  0.00    -0.028 C 
ATOM      8  C   UNL     1     120.239 171.391 125.515  1.00  0.00     0.039 C 
ATOM      9  C   UNL     1     120.233 172.892 125.653  1.00  0.00    -0.080 C 
ATOM     10  C   UNL     1     118.963 173.593 126.075  1.00  0.00     0.039 C 
ENDBRANCH   6   7
ENDBRANCH   5   6
ENDBRANCH   3   5
ENDBRANCH   1   2
BRANCH   1  11
ATOM     11  C   UNL     1     119.924 179.463 125.177  1.00  0.00     0.034 C 
BRANCH  11  12
ATOM     12  C   UNL     1     119.984 178.609 126.427  1.00  0.00    -0.077 C 
ATOM     13  C   UNL     1     119.090 177.628 126.698  1.00  0.00    -0.028 C 
ATOM     14  C   UNL     1     121.070 178.880 127.436  1.00  0.00     0.039 C 
BRANCH  13  15
ATOM     15  C   UNL     1     117.971 177.184 125.784  1.00  0.00     0.035 C 
BRANCH  15  16
ATOM     16  C   UNL     1     116.639 177.822 126.193  1.00  0.00     0.079 C 
BRANCH  16  17
ATOM     17  C   UNL     1     116.162 178.817 125.168  1.00  0.00     0.130 C 
ATOM     18  O   UNL     1     115.518 179.790 125.527  1.00  0.00    -0.300 OA
ATOM     19  C   UNL     1     116.469 178.640 123.711  1.00  0.00     0.087 C 
ENDBRANCH  16  17
ENDBRANCH  15  16
ENDBRANCH  13  15
ENDBRANCH  11  12
ENDBRANCH   1  11
TORSDOF 9
ENDMDL
MODEL 9
REMARK VINA RESULT:    -5.349      2.371      5.068
REMARK INTER + INTRA:         -11.225
REMARK INTER:                  -8.814
REMARK INTRA:                  -2.411
REMARK UNBOUND:                -3.062
REMARK SMILES CC(=O)CCC=C(C)CCC=C(C)CCC=C(C)C
REMARK SMILES IDX 10 1 11 2 12 3 13 4 14 5 15 6 16 7 18 8 17 9 19 10 9 11 7 12
REMARK SMILES IDX 6 13 8 14 5 15 4 16 2 17 3 18 1 19
REMARK H PARENT
REMARK Flexibility Score: inf
ROOT
ATOM      1  C   UNL     1     118.938 176.469 126.627  1.00  0.00     0.032 C 
ENDROOT
BRANCH   1   2
ATOM      2  C   UNL     1     117.772 177.130 125.935  1.00  0.00    -0.028 C 
ATOM      3  C   UNL     1     117.875 178.131 125.031  1.00  0.00    -0.077 C 
ATOM      4  C   UNL     1     116.613 178.644 124.388  1.00  0.00     0.039 C 
BRANCH   3   5
ATOM      5  C   UNL     1     119.200 178.781 124.665  1.00  0.00     0.034 C 
BRANCH   5   6
ATOM      6  C   UNL     1     119.744 179.658 125.800  1.00  0.00     0.032 C 
BRANCH   6   7
ATOM      7  C   UNL     1     121.218 179.416 126.023  1.00  0.00    -0.028 C 
ATOM      8  C   UNL     1     123.266 178.886 127.274  1.00  0.00     0.039 C 
ATOM      9  C   UNL     1     121.767 179.021 127.194  1.00  0.00    -0.080 C 
ATOM     10  C   UNL     1     120.928 178.716 128.412  1.00  0.00     0.039 C 
ENDBRANCH   6   7
ENDBRANCH   5   6
ENDBRANCH   3   5
ENDBRANCH   1   2
BRANCH   1  11
ATOM     11  C   UNL     1     119.505 175.336 125.764  1.00  0.00     0.034 C 
BRANCH  11  12
ATOM     12  C   UNL     1     120.976 175.561 125.483  1.00  0.00    -0.077 C 
ATOM     13  C   UNL     1     121.944 175.386 126.414  1.00  0.00    -0.028 C 
ATOM     14  C   UNL     1     121.386 176.032 124.111  1.00  0.00     0.039 C 
BRANCH  13  15
ATOM     15  C   UNL     1     121.727 174.872 127.818  1.00  0.00     0.035 C 
BRANCH  15  16
ATOM     16  C   UNL     1     121.884 173.349 127.879  1.00  0.00     0.079 C 
BRANCH  16  17
ATOM     17  C   UNL     1     120.550 172.654 127.927  1.00  0.00     0.130 C 
ATOM     18  O   UNL     1     120.197 171.962 126.985  1.00  0.00    -0.300 OA
ATOM     19  C   UNL     1     119.643 172.790 129.114  1.00  0.00     0.087 C 
ENDBRANCH  16  17
ENDBRANCH  15  16
ENDBRANCH  13  15
ENDBRANCH  11  12
ENDBRANCH   1  11
TORSDOF 9
ENDMDL
