MODEL 1
REMARK VINA RESULT:    -7.009      0.000      0.000
REMARK INTER + INTRA:          -8.073
REMARK INTER:                  -8.239
REMARK INTRA:                   0.165
REMARK UNBOUND:                 0.165
REMARK SMILES Oc1ccc(-c2[o+]c3cc(O)cc(O)c3cc2O)cc1
REMARK SMILES IDX 6 1 7 2 8 3 9 4 10 5 12 6 13 7 15 8 16 9 17 10 5 11 4 12
REMARK SMILES IDX 3 13 2 14 19 15 20 16 1 17 18 19 11 21 14 23
REMARK H PARENT 1 18 18 20 11 22 14 24
REMARK Flexibility Score: inf
ROOT
ATOM      1  C   UNL     1     -22.795  84.920 -23.125  1.00  0.00     0.401 A 
ATOM      2  O   UNL     1     -22.447  86.195 -23.288  1.00  0.00    -0.202 OA
ATOM      3  C   UNL     1     -22.815  86.921 -24.340  1.00  0.00     0.368 A 
ATOM      4  C   UNL     1     -22.412  88.257 -24.434  1.00  0.00     0.162 A 
ATOM      5  C   UNL     1     -22.796  89.033 -25.535  1.00  0.00     0.128 A 
ATOM      6  C   UNL     1     -23.584  88.470 -26.544  1.00  0.00     0.093 A 
ATOM      7  C   UNL     1     -23.995  87.131 -26.464  1.00  0.00     0.136 A 
ATOM      8  C   UNL     1     -23.609  86.351 -25.357  1.00  0.00     0.125 A 
ATOM      9  C   UNL     1     -23.984  85.008 -25.228  1.00  0.00     0.078 A 
ATOM     10  C   UNL     1     -23.569  84.276 -24.111  1.00  0.00     0.223 A 
ENDROOT
BRANCH   1  11
ATOM     11  C   UNL     1     -22.332  84.219 -21.905  1.00  0.00     0.084 A 
ATOM     12  C   UNL     1     -21.931  82.870 -21.941  1.00  0.00     0.022 A 
ATOM     13  C   UNL     1     -21.519  82.224 -20.772  1.00  0.00     0.047 A 
ATOM     14  C   UNL     1     -21.514  82.911 -19.551  1.00  0.00     0.115 A 
ATOM     15  C   UNL     1     -22.342  84.894 -20.673  1.00  0.00     0.022 A 
ATOM     16  C   UNL     1     -21.929  84.246 -19.506  1.00  0.00     0.047 A 
BRANCH  14  17
ATOM     17  O   UNL     1     -21.104  82.277 -18.380  1.00  0.00    -0.508 OA
ATOM     18  H   UNL     1     -21.250  81.284 -18.237  1.00  0.00     0.293 HD
ENDBRANCH  14  17
ENDBRANCH   1  11
BRANCH  10  19
ATOM     19  O   UNL     1     -23.895  82.924 -24.001  1.00  0.00    -0.500 OA
ATOM     20  H   UNL     1     -24.761  82.554 -24.375  1.00  0.00     0.294 HD
ENDBRANCH  10  19
BRANCH   5  21
ATOM     21  O   UNL     1     -22.399  90.364 -25.637  1.00  0.00    -0.507 OA
ATOM     22  H   UNL     1     -21.758  90.672 -26.361  1.00  0.00     0.293 HD
ENDBRANCH   5  21
BRANCH   7  23
ATOM     23  O   UNL     1     -24.780  86.581 -27.478  1.00  0.00    -0.507 OA
ATOM     24  H   UNL     1     -25.249  85.691 -27.363  1.00  0.00     0.293 HD
ENDBRANCH   7  23
TORSDOF 5
ENDMDL
MODEL 2
REMARK VINA RESULT:    -6.943      1.533      2.998
REMARK INTER + INTRA:          -7.995
REMARK INTER:                  -7.731
REMARK INTRA:                  -0.264
REMARK UNBOUND:                 0.165
REMARK SMILES Oc1ccc(-c2[o+]c3cc(O)cc(O)c3cc2O)cc1
REMARK SMILES IDX 6 1 7 2 8 3 9 4 10 5 12 6 13 7 15 8 16 9 17 10 5 11 4 12
REMARK SMILES IDX 3 13 2 14 19 15 20 16 1 17 18 19 11 21 14 23
REMARK H PARENT 1 18 18 20 11 22 14 24
REMARK Flexibility Score: inf
ROOT
ATOM      1  C   UNL     1     -22.532  85.594 -23.641  1.00  0.00     0.401 A 
ATOM      2  O   UNL     1     -23.590  85.691 -24.443  1.00  0.00    -0.202 OA
ATOM      3  C   UNL     1     -23.881  86.790 -25.135  1.00  0.00     0.368 A 
ATOM      4  C   UNL     1     -25.009  86.810 -25.960  1.00  0.00     0.162 A 
ATOM      5  C   UNL     1     -25.323  87.959 -26.696  1.00  0.00     0.128 A 
ATOM      6  C   UNL     1     -24.506  89.091 -26.605  1.00  0.00     0.093 A 
ATOM      7  C   UNL     1     -23.371  89.086 -25.781  1.00  0.00     0.136 A 
ATOM      8  C   UNL     1     -23.055  87.931 -25.041  1.00  0.00     0.125 A 
ATOM      9  C   UNL     1     -21.940  87.871 -24.197  1.00  0.00     0.078 A 
ATOM     10  C   UNL     1     -21.674  86.701 -23.478  1.00  0.00     0.223 A 
ENDROOT
BRANCH   1  11
ATOM     11  C   UNL     1     -22.309  84.314 -22.930  1.00  0.00     0.084 A 
ATOM     12  C   UNL     1     -22.602  84.174 -21.561  1.00  0.00     0.022 A 
ATOM     13  C   UNL     1     -22.362  82.962 -20.907  1.00  0.00     0.047 A 
ATOM     14  C   UNL     1     -21.813  81.880 -21.607  1.00  0.00     0.115 A 
ATOM     15  C   UNL     1     -21.740  83.230 -23.619  1.00  0.00     0.022 A 
ATOM     16  C   UNL     1     -21.501  82.019 -22.963  1.00  0.00     0.047 A 
BRANCH  14  17
ATOM     17  O   UNL     1     -21.570  80.667 -20.966  1.00  0.00    -0.508 OA
ATOM     18  H   UNL     1     -21.005  80.617 -20.126  1.00  0.00     0.293 HD
ENDBRANCH  14  17
ENDBRANCH   1  11
BRANCH  10  19
ATOM     19  O   UNL     1     -20.595  86.652 -22.597  1.00  0.00    -0.500 OA
ATOM     20  H   UNL     1     -20.021  87.467 -22.413  1.00  0.00     0.294 HD
ENDBRANCH  10  19
BRANCH   5  21
ATOM     21  O   UNL     1     -26.446  87.989 -27.521  1.00  0.00    -0.507 OA
ATOM     22  H   UNL     1     -27.351  88.286 -27.173  1.00  0.00     0.293 HD
ENDBRANCH   5  21
BRANCH   7  23
ATOM     23  O   UNL     1     -22.565  90.222 -25.697  1.00  0.00    -0.507 OA
ATOM     24  H   UNL     1     -22.959  91.155 -25.725  1.00  0.00     0.293 HD
ENDBRANCH   7  23
TORSDOF 5
ENDMDL
MODEL 3
REMARK VINA RESULT:    -6.758      6.359      9.614
REMARK INTER + INTRA:          -7.778
REMARK INTER:                  -7.502
REMARK INTRA:                  -0.276
REMARK UNBOUND:                 0.165
REMARK SMILES Oc1ccc(-c2[o+]c3cc(O)cc(O)c3cc2O)cc1
REMARK SMILES IDX 6 1 7 2 8 3 9 4 10 5 12 6 13 7 15 8 16 9 17 10 5 11 4 12
REMARK SMILES IDX 3 13 2 14 19 15 20 16 1 17 18 19 11 21 14 23
REMARK H PARENT 1 18 18 20 11 22 14 24
REMARK Flexibility Score: inf
ROOT
ATOM      1  C   UNL     1     -24.121  91.479 -29.758  1.00  0.00     0.401 A 
ATOM      2  O   UNL     1     -24.596  92.478 -29.017  1.00  0.00    -0.202 OA
ATOM      3  C   UNL     1     -24.484  93.757 -29.363  1.00  0.00     0.368 A 
ATOM      4  C   UNL     1     -25.016  94.748 -28.532  1.00  0.00     0.162 A 
ATOM      5  C   UNL     1     -24.907  96.099 -28.887  1.00  0.00     0.128 A 
ATOM      6  C   UNL     1     -24.266  96.458 -30.077  1.00  0.00     0.093 A 
ATOM      7  C   UNL     1     -23.727  95.475 -30.921  1.00  0.00     0.136 A 
ATOM      8  C   UNL     1     -23.836  94.118 -30.564  1.00  0.00     0.125 A 
ATOM      9  C   UNL     1     -23.311  93.095 -31.363  1.00  0.00     0.078 A 
ATOM     10  C   UNL     1     -23.440  91.762 -30.960  1.00  0.00     0.223 A 
ENDROOT
BRANCH   1  11
ATOM     11  C   UNL     1     -24.315  90.094 -29.271  1.00  0.00     0.084 A 
ATOM     12  C   UNL     1     -25.560  89.445 -29.380  1.00  0.00     0.022 A 
ATOM     13  C   UNL     1     -25.725  88.145 -28.892  1.00  0.00     0.047 A 
ATOM     14  C   UNL     1     -24.654  87.482 -28.279  1.00  0.00     0.115 A 
ATOM     15  C   UNL     1     -23.253  89.428 -28.637  1.00  0.00     0.022 A 
ATOM     16  C   UNL     1     -23.420  88.128 -28.151  1.00  0.00     0.047 A 
BRANCH  14  17
ATOM     17  O   UNL     1     -24.807  86.186 -27.790  1.00  0.00    -0.508 OA
ATOM     18  H   UNL     1     -24.344  85.883 -26.941  1.00  0.00     0.293 HD
ENDBRANCH  14  17
ENDBRANCH   1  11
BRANCH  10  19
ATOM     19  O   UNL     1     -22.875  90.742 -31.725  1.00  0.00    -0.500 OA
ATOM     20  H   UNL     1     -22.454  90.927 -32.628  1.00  0.00     0.294 HD
ENDBRANCH  10  19
BRANCH   5  21
ATOM     21  O   UNL     1     -25.433  97.093 -28.064  1.00  0.00    -0.507 OA
ATOM     22  H   UNL     1     -25.201  97.142 -27.079  1.00  0.00     0.293 HD
ENDBRANCH   5  21
BRANCH   7  23
ATOM     23  O   UNL     1     -23.088  95.847 -32.104  1.00  0.00    -0.507 OA
ATOM     24  H   UNL     1     -22.306  95.319 -32.474  1.00  0.00     0.293 HD
ENDBRANCH   7  23
TORSDOF 5
ENDMDL
MODEL 4
REMARK VINA RESULT:    -6.664      3.618      7.322
REMARK INTER + INTRA:          -7.667
REMARK INTER:                  -7.356
REMARK INTRA:                  -0.311
REMARK UNBOUND:                 0.165
REMARK SMILES Oc1ccc(-c2[o+]c3cc(O)cc(O)c3cc2O)cc1
REMARK SMILES IDX 6 1 7 2 8 3 9 4 10 5 12 6 13 7 15 8 16 9 17 10 5 11 4 12
REMARK SMILES IDX 3 13 2 14 19 15 20 16 1 17 18 19 11 21 14 23
REMARK H PARENT 1 18 18 20 11 22 14 24
REMARK Flexibility Score: inf
ROOT
ATOM      1  C   UNL     1     -22.701  82.191 -23.159  1.00  0.00     0.401 A 
ATOM      2  O   UNL     1     -21.963  81.359 -23.892  1.00  0.00    -0.202 OA
ATOM      3  C   UNL     1     -22.066  80.036 -23.816  1.00  0.00     0.368 A 
ATOM      4  C   UNL     1     -21.256  79.231 -24.624  1.00  0.00     0.162 A 
ATOM      5  C   UNL     1     -21.359  77.836 -24.556  1.00  0.00     0.128 A 
ATOM      6  C   UNL     1     -22.272  77.245 -23.677  1.00  0.00     0.093 A 
ATOM      7  C   UNL     1     -23.090  78.040 -22.860  1.00  0.00     0.136 A 
ATOM      8  C   UNL     1     -22.988  79.442 -22.928  1.00  0.00     0.125 A 
ATOM      9  C   UNL     1     -23.773  80.284 -22.132  1.00  0.00     0.078 A 
ATOM     10  C   UNL     1     -23.628  81.671 -22.233  1.00  0.00     0.223 A 
ENDROOT
BRANCH   1  11
ATOM     11  C   UNL     1     -22.502  83.647 -23.340  1.00  0.00     0.084 A 
ATOM     12  C   UNL     1     -23.369  84.413 -24.141  1.00  0.00     0.022 A 
ATOM     13  C   UNL     1     -23.146  85.783 -24.314  1.00  0.00     0.047 A 
ATOM     14  C   UNL     1     -22.048  86.401 -23.702  1.00  0.00     0.115 A 
ATOM     15  C   UNL     1     -21.392  84.272 -22.746  1.00  0.00     0.022 A 
ATOM     16  C   UNL     1     -21.172  85.641 -22.920  1.00  0.00     0.047 A 
BRANCH  14  17
ATOM     17  O   UNL     1     -21.818  87.765 -23.867  1.00  0.00    -0.508 OA
ATOM     18  H   UNL     1     -21.287  88.298 -23.188  1.00  0.00     0.293 HD
ENDBRANCH  14  17
ENDBRANCH   1  11
BRANCH  10  19
ATOM     19  O   UNL     1     -24.370  82.514 -21.407  1.00  0.00    -0.500 OA
ATOM     20  H   UNL     1     -24.618  82.247 -20.460  1.00  0.00     0.294 HD
ENDBRANCH  10  19
BRANCH   5  21
ATOM     21  O   UNL     1     -20.556  77.026 -25.356  1.00  0.00    -0.507 OA
ATOM     22  H   UNL     1     -19.545  77.105 -25.344  1.00  0.00     0.293 HD
ENDBRANCH   5  21
BRANCH   7  23
ATOM     23  O   UNL     1     -23.997  77.438 -21.986  1.00  0.00    -0.507 OA
ATOM     24  H   UNL     1     -24.899  77.103 -22.304  1.00  0.00     0.293 HD
ENDBRANCH   7  23
TORSDOF 5
ENDMDL
MODEL 5
REMARK VINA RESULT:    -6.625      1.577      6.589
REMARK INTER + INTRA:          -7.621
REMARK INTER:                  -7.315
REMARK INTRA:                  -0.306
REMARK UNBOUND:                 0.165
REMARK SMILES Oc1ccc(-c2[o+]c3cc(O)cc(O)c3cc2O)cc1
REMARK SMILES IDX 6 1 7 2 8 3 9 4 10 5 12 6 13 7 15 8 16 9 17 10 5 11 4 12
REMARK SMILES IDX 3 13 2 14 19 15 20 16 1 17 18 19 11 21 14 23
REMARK H PARENT 1 18 18 20 11 22 14 24
REMARK Flexibility Score: inf
ROOT
ATOM      1  C   UNL     1     -23.467  85.189 -23.858  1.00  0.00     0.401 A 
ATOM      2  O   UNL     1     -23.061  85.109 -22.592  1.00  0.00    -0.202 OA
ATOM      3  C   UNL     1     -22.664  83.973 -22.025  1.00  0.00     0.368 A 
ATOM      4  C   UNL     1     -22.246  83.974 -20.691  1.00  0.00     0.162 A 
ATOM      5  C   UNL     1     -21.823  82.785 -20.084  1.00  0.00     0.128 A 
ATOM      6  C   UNL     1     -21.818  81.592 -20.815  1.00  0.00     0.093 A 
ATOM      7  C   UNL     1     -22.236  81.575 -22.154  1.00  0.00     0.136 A 
ATOM      8  C   UNL     1     -22.661  82.770 -22.764  1.00  0.00     0.125 A 
ATOM      9  C   UNL     1     -23.095  82.812 -24.095  1.00  0.00     0.078 A 
ATOM     10  C   UNL     1     -23.514  84.024 -24.651  1.00  0.00     0.223 A 
ENDROOT
BRANCH   1  11
ATOM     11  C   UNL     1     -23.876  86.513 -24.378  1.00  0.00     0.084 A 
ATOM     12  C   UNL     1     -22.929  87.437 -24.858  1.00  0.00     0.022 A 
ATOM     13  C   UNL     1     -23.338  88.691 -25.324  1.00  0.00     0.047 A 
ATOM     14  C   UNL     1     -24.694  89.042 -25.304  1.00  0.00     0.115 A 
ATOM     15  C   UNL     1     -25.232  86.882 -24.344  1.00  0.00     0.022 A 
ATOM     16  C   UNL     1     -25.638  88.135 -24.811  1.00  0.00     0.047 A 
BRANCH  14  17
ATOM     17  O   UNL     1     -25.113  90.288 -25.767  1.00  0.00    -0.508 OA
ATOM     18  H   UNL     1     -25.426  90.420 -26.721  1.00  0.00     0.293 HD
ENDBRANCH  14  17
ENDBRANCH   1  11
BRANCH  10  19
ATOM     19  O   UNL     1     -23.995  84.064 -25.959  1.00  0.00    -0.500 OA
ATOM     20  H   UNL     1     -24.557  84.838 -26.296  1.00  0.00     0.294 HD
ENDBRANCH  10  19
BRANCH   5  21
ATOM     21  O   UNL     1     -21.406  82.776 -18.755  1.00  0.00    -0.507 OA
ATOM     22  H   UNL     1     -21.104  83.625 -18.289  1.00  0.00     0.293 HD
ENDBRANCH   5  21
BRANCH   7  23
ATOM     23  O   UNL     1     -22.228  80.378 -22.871  1.00  0.00    -0.507 OA
ATOM     24  H   UNL     1     -21.839  79.528 -22.481  1.00  0.00     0.293 HD
ENDBRANCH   7  23
TORSDOF 5
ENDMDL
MODEL 6
REMARK VINA RESULT:    -6.520      6.387      9.662
REMARK INTER + INTRA:          -7.498
REMARK INTER:                  -7.189
REMARK INTRA:                  -0.310
REMARK UNBOUND:                 0.165
REMARK SMILES Oc1ccc(-c2[o+]c3cc(O)cc(O)c3cc2O)cc1
REMARK SMILES IDX 6 1 7 2 8 3 9 4 10 5 12 6 13 7 15 8 16 9 17 10 5 11 4 12
REMARK SMILES IDX 3 13 2 14 19 15 20 16 1 17 18 19 11 21 14 23
REMARK H PARENT 1 18 18 20 11 22 14 24
REMARK Flexibility Score: inf
ROOT
ATOM      1  C   UNL     1     -24.900  92.039 -28.510  1.00  0.00     0.401 A 
ATOM      2  O   UNL     1     -24.331  92.616 -29.568  1.00  0.00    -0.202 OA
ATOM      3  C   UNL     1     -24.318  93.932 -29.759  1.00  0.00     0.368 A 
ATOM      4  C   UNL     1     -23.694  94.460 -30.894  1.00  0.00     0.162 A 
ATOM      5  C   UNL     1     -23.670  95.844 -31.105  1.00  0.00     0.128 A 
ATOM      6  C   UNL     1     -24.272  96.701 -30.179  1.00  0.00     0.093 A 
ATOM      7  C   UNL     1     -24.903  96.186 -29.036  1.00  0.00     0.136 A 
ATOM      8  C   UNL     1     -24.926  94.795 -28.824  1.00  0.00     0.125 A 
ATOM      9  C   UNL     1     -25.546  94.225 -27.706  1.00  0.00     0.078 A 
ATOM     10  C   UNL     1     -25.548  92.836 -27.545  1.00  0.00     0.223 A 
ENDROOT
BRANCH   1  11
ATOM     11  C   UNL     1     -24.841  90.563 -28.403  1.00  0.00     0.084 A 
ATOM     12  C   UNL     1     -23.720  89.911 -27.857  1.00  0.00     0.022 A 
ATOM     13  C   UNL     1     -23.679  88.515 -27.787  1.00  0.00     0.047 A 
ATOM     14  C   UNL     1     -24.749  87.753 -28.273  1.00  0.00     0.115 A 
ATOM     15  C   UNL     1     -25.901  89.790 -28.906  1.00  0.00     0.022 A 
ATOM     16  C   UNL     1     -25.857  88.395 -28.835  1.00  0.00     0.047 A 
BRANCH  14  17
ATOM     17  O   UNL     1     -24.719  86.362 -28.208  1.00  0.00    -0.508 OA
ATOM     18  H   UNL     1     -24.745  85.873 -27.321  1.00  0.00     0.293 HD
ENDBRANCH  14  17
ENDBRANCH   1  11
BRANCH  10  19
ATOM     19  O   UNL     1     -26.208  92.258 -26.461  1.00  0.00    -0.500 OA
ATOM     20  H   UNL     1     -26.661  92.823 -25.752  1.00  0.00     0.294 HD
ENDBRANCH  10  19
BRANCH   5  21
ATOM     21  O   UNL     1     -23.052  96.379 -32.234  1.00  0.00    -0.507 OA
ATOM     22  H   UNL     1     -22.979  97.380 -32.373  1.00  0.00     0.293 HD
ENDBRANCH   5  21
BRANCH   7  23
ATOM     23  O   UNL     1     -25.501  97.053 -28.120  1.00  0.00    -0.507 OA
ATOM     24  H   UNL     1     -25.559  98.050 -28.292  1.00  0.00     0.293 HD
ENDBRANCH   7  23
TORSDOF 5
ENDMDL
MODEL 7
REMARK VINA RESULT:    -6.342      5.136      8.374
REMARK INTER + INTRA:          -7.289
REMARK INTER:                  -6.985
REMARK INTRA:                  -0.304
REMARK UNBOUND:                 0.165
REMARK SMILES Oc1ccc(-c2[o+]c3cc(O)cc(O)c3cc2O)cc1
REMARK SMILES IDX 6 1 7 2 8 3 9 4 10 5 12 6 13 7 15 8 16 9 17 10 5 11 4 12
REMARK SMILES IDX 3 13 2 14 19 15 20 16 1 17 18 19 11 21 14 23
REMARK H PARENT 1 18 18 20 11 22 14 24
REMARK Flexibility Score: inf
ROOT
ATOM      1  C   UNL     1     -24.239  91.247 -28.151  1.00  0.00     0.401 A 
ATOM      2  O   UNL     1     -24.653  92.455 -27.773  1.00  0.00    -0.202 OA
ATOM      3  C   UNL     1     -24.589  93.525 -28.560  1.00  0.00     0.368 A 
ATOM      4  C   UNL     1     -25.051  94.758 -28.091  1.00  0.00     0.162 A 
ATOM      5  C   UNL     1     -24.992  95.892 -28.911  1.00  0.00     0.128 A 
ATOM      6  C   UNL     1     -24.469  95.790 -30.205  1.00  0.00     0.093 A 
ATOM      7  C   UNL     1     -24.001  94.559 -30.689  1.00  0.00     0.136 A 
ATOM      8  C   UNL     1     -24.061  93.420 -29.865  1.00  0.00     0.125 A 
ATOM      9  C   UNL     1     -23.603  92.168 -30.293  1.00  0.00     0.078 A 
ATOM     10  C   UNL     1     -23.678  91.069 -29.432  1.00  0.00     0.223 A 
ENDROOT
BRANCH   1  11
ATOM     11  C   UNL     1     -24.371  90.130 -27.187  1.00  0.00     0.084 A 
ATOM     12  C   UNL     1     -25.584  89.434 -27.033  1.00  0.00     0.022 A 
ATOM     13  C   UNL     1     -25.691  88.397 -26.100  1.00  0.00     0.047 A 
ATOM     14  C   UNL     1     -24.593  88.052 -25.302  1.00  0.00     0.115 A 
ATOM     15  C   UNL     1     -23.281  89.790 -26.368  1.00  0.00     0.022 A 
ATOM     16  C   UNL     1     -23.390  88.753 -25.437  1.00  0.00     0.047 A 
BRANCH  14  17
ATOM     17  O   UNL     1     -24.687  87.020 -24.370  1.00  0.00    -0.508 OA
ATOM     18  H   UNL     1     -24.454  87.166 -23.395  1.00  0.00     0.293 HD
ENDBRANCH  14  17
ENDBRANCH   1  11
BRANCH  10  19
ATOM     19  O   UNL     1     -23.176  89.832 -29.832  1.00  0.00    -0.500 OA
ATOM     20  H   UNL     1     -23.772  89.014 -29.904  1.00  0.00     0.294 HD
ENDBRANCH  10  19
BRANCH   5  21
ATOM     21  O   UNL     1     -25.449  97.125 -28.451  1.00  0.00    -0.507 OA
ATOM     22  H   UNL     1     -25.642  97.889 -29.088  1.00  0.00     0.293 HD
ENDBRANCH   5  21
BRANCH   7  23
ATOM     23  O   UNL     1     -23.481  94.472 -31.981  1.00  0.00    -0.507 OA
ATOM     24  H   UNL     1     -24.046  94.155 -32.761  1.00  0.00     0.293 HD
ENDBRANCH   7  23
TORSDOF 5
ENDMDL
MODEL 8
REMARK VINA RESULT:    -6.327      2.323      2.878
REMARK INTER + INTRA:          -7.272
REMARK INTER:                  -6.968
REMARK INTRA:                  -0.304
REMARK UNBOUND:                 0.165
REMARK SMILES Oc1ccc(-c2[o+]c3cc(O)cc(O)c3cc2O)cc1
REMARK SMILES IDX 6 1 7 2 8 3 9 4 10 5 12 6 13 7 15 8 16 9 17 10 5 11 4 12
REMARK SMILES IDX 3 13 2 14 19 15 20 16 1 17 18 19 11 21 14 23
REMARK H PARENT 1 18 18 20 11 22 14 24
REMARK Flexibility Score: inf
ROOT
ATOM      1  C   UNL     1     -23.150  84.092 -23.899  1.00  0.00     0.401 A 
ATOM      2  O   UNL     1     -22.494  85.219 -24.170  1.00  0.00    -0.202 OA
ATOM      3  C   UNL     1     -23.100  86.391 -24.341  1.00  0.00     0.368 A 
ATOM      4  C   UNL     1     -22.338  87.530 -24.618  1.00  0.00     0.162 A 
ATOM      5  C   UNL     1     -22.965  88.770 -24.796  1.00  0.00     0.128 A 
ATOM      6  C   UNL     1     -24.356  88.870 -24.696  1.00  0.00     0.093 A 
ATOM      7  C   UNL     1     -25.134  87.735 -24.420  1.00  0.00     0.136 A 
ATOM      8  C   UNL     1     -24.504  86.489 -24.241  1.00  0.00     0.125 A 
ATOM      9  C   UNL     1     -25.229  85.322 -23.970  1.00  0.00     0.078 A 
ATOM     10  C   UNL     1     -24.556  84.108 -23.807  1.00  0.00     0.223 A 
ENDROOT
BRANCH   1  11
ATOM     11  C   UNL     1     -22.362  82.851 -23.721  1.00  0.00     0.084 A 
ATOM     12  C   UNL     1     -22.062  82.349 -22.441  1.00  0.00     0.022 A 
ATOM     13  C   UNL     1     -21.298  81.187 -22.298  1.00  0.00     0.047 A 
ATOM     14  C   UNL     1     -20.813  80.520 -23.431  1.00  0.00     0.115 A 
ATOM     15  C   UNL     1     -21.855  82.186 -24.850  1.00  0.00     0.022 A 
ATOM     16  C   UNL     1     -21.091  81.024 -24.705  1.00  0.00     0.047 A 
BRANCH  14  17
ATOM     17  O   UNL     1     -20.051  79.361 -23.300  1.00  0.00    -0.508 OA
ATOM     18  H   UNL     1     -19.447  79.212 -22.500  1.00  0.00     0.293 HD
ENDBRANCH  14  17
ENDBRANCH   1  11
BRANCH  10  19
ATOM     19  O   UNL     1     -25.276  82.934 -23.588  1.00  0.00    -0.500 OA
ATOM     20  H   UNL     1     -25.570  82.340 -24.355  1.00  0.00     0.294 HD
ENDBRANCH  10  19
BRANCH   5  21
ATOM     21  O   UNL     1     -22.214  89.911 -25.073  1.00  0.00    -0.507 OA
ATOM     22  H   UNL     1     -22.157  90.293 -26.010  1.00  0.00     0.293 HD
ENDBRANCH   5  21
BRANCH   7  23
ATOM     23  O   UNL     1     -26.521  87.848 -24.325  1.00  0.00    -0.507 OA
ATOM     24  H   UNL     1     -27.097  88.018 -25.140  1.00  0.00     0.293 HD
ENDBRANCH   7  23
TORSDOF 5
ENDMDL
MODEL 9
REMARK VINA RESULT:    -6.290      2.350      6.826
REMARK INTER + INTRA:          -7.227
REMARK INTER:                  -6.922
REMARK INTRA:                  -0.306
REMARK UNBOUND:                 0.165
REMARK SMILES Oc1ccc(-c2[o+]c3cc(O)cc(O)c3cc2O)cc1
REMARK SMILES IDX 6 1 7 2 8 3 9 4 10 5 12 6 13 7 15 8 16 9 17 10 5 11 4 12
REMARK SMILES IDX 3 13 2 14 19 15 20 16 1 17 18 19 11 21 14 23
REMARK H PARENT 1 18 18 20 11 22 14 24
REMARK Flexibility Score: inf
ROOT
ATOM      1  C   UNL     1     -22.380  84.472 -23.427  1.00  0.00     0.401 A 
ATOM      2  O   UNL     1     -22.033  83.542 -24.315  1.00  0.00    -0.202 OA
ATOM      3  C   UNL     1     -21.694  82.302 -23.974  1.00  0.00     0.368 A 
ATOM      4  C   UNL     1     -21.346  81.382 -24.969  1.00  0.00     0.162 A 
ATOM      5  C   UNL     1     -20.992  80.072 -24.624  1.00  0.00     0.128 A 
ATOM      6  C   UNL     1     -20.984  79.682 -23.280  1.00  0.00     0.093 A 
ATOM      7  C   UNL     1     -21.329  80.594 -22.272  1.00  0.00     0.136 A 
ATOM      8  C   UNL     1     -21.686  81.911 -22.619  1.00  0.00     0.125 A 
ATOM      9  C   UNL     1     -22.033  82.865 -21.655  1.00  0.00     0.078 A 
ATOM     10  C   UNL     1     -22.374  84.162 -22.052  1.00  0.00     0.223 A 
ENDROOT
BRANCH   1  11
ATOM     11  C   UNL     1     -22.746  85.816 -23.929  1.00  0.00     0.084 A 
ATOM     12  C   UNL     1     -21.808  86.864 -23.971  1.00  0.00     0.022 A 
ATOM     13  C   UNL     1     -22.184  88.131 -24.429  1.00  0.00     0.047 A 
ATOM     14  C   UNL     1     -23.503  88.370 -24.836  1.00  0.00     0.115 A 
ATOM     15  C   UNL     1     -24.071  86.071 -24.321  1.00  0.00     0.022 A 
ATOM     16  C   UNL     1     -24.444  87.338 -24.778  1.00  0.00     0.047 A 
BRANCH  14  17
ATOM     17  O   UNL     1     -23.888  89.629 -25.295  1.00  0.00    -0.508 OA
ATOM     18  H   UNL     1     -24.858  89.847 -25.487  1.00  0.00     0.293 HD
ENDBRANCH  14  17
ENDBRANCH   1  11
BRANCH  10  19
ATOM     19  O   UNL     1     -22.670  85.131 -21.094  1.00  0.00    -0.500 OA
ATOM     20  H   UNL     1     -21.963  85.485 -20.460  1.00  0.00     0.294 HD
ENDBRANCH  10  19
BRANCH   5  21
ATOM     21  O   UNL     1     -20.643  79.149 -25.607  1.00  0.00    -0.507 OA
ATOM     22  H   UNL     1     -19.693  79.077 -25.954  1.00  0.00     0.293 HD
ENDBRANCH   5  21
BRANCH   7  23
ATOM     23  O   UNL     1     -21.316  80.193 -20.935  1.00  0.00    -0.507 OA
ATOM     24  H   UNL     1     -22.090  80.394 -20.313  1.00  0.00     0.293 HD
ENDBRANCH   7  23
TORSDOF 5
ENDMDL
