MODEL 1
REMARK VINA RESULT:    -3.401      0.000      0.000
REMARK INTER + INTRA:          -3.943
REMARK INTER:                  -3.898
REMARK INTRA:                  -0.045
REMARK UNBOUND:                -0.045
REMARK SMILES O=C([O-])c1cc(O)c(O)c(O)c1
REMARK SMILES IDX 4 1 5 2 12 3 6 4 10 5 8 6 2 7 1 8 3 9 7 10 11 12 9 14
REMARK H PARENT 7 11 11 13 9 15
REMARK Flexibility Score: inf
ROOT
ATOM      1  C   UNL     1     101.226 112.651  93.154  1.00  0.00     0.005 A 
ATOM      2  C   UNL     1     102.531 113.161  93.260  1.00  0.00     0.060 A 
ATOM      3  C   UNL     1     101.003 111.288  93.414  1.00  0.00     0.060 A 
ATOM      4  C   UNL     1     103.596 112.328  93.617  1.00  0.00     0.162 A 
ATOM      5  C   UNL     1     102.066 110.447  93.773  1.00  0.00     0.162 A 
ATOM      6  C   UNL     1     103.367 110.966  93.875  1.00  0.00     0.200 A 
ENDROOT
BRANCH   1   7
ATOM      7  C   UNL     1     100.106 113.540  92.775  1.00  0.00     0.072 C 
ATOM      8  O   UNL     1      99.233 113.870  93.623  1.00  0.00    -0.545 OA
ATOM      9  O   UNL     1     100.000 114.026  91.477  1.00  0.00    -0.545 OA
ENDBRANCH   1   7
BRANCH   4  10
ATOM     10  O   UNL     1     104.876 112.874  93.711  1.00  0.00    -0.504 OA
ATOM     11  H   UNL     1     105.656 112.357  94.101  1.00  0.00     0.293 HD
ENDBRANCH   4  10
BRANCH   5  12
ATOM     12  O   UNL     1     101.832 109.096  94.028  1.00  0.00    -0.504 OA
ATOM     13  H   UNL     1     100.938 108.664  93.824  1.00  0.00     0.293 HD
ENDBRANCH   5  12
BRANCH   6  14
ATOM     14  O   UNL     1     104.436 110.142  94.232  1.00  0.00    -0.502 OA
ATOM     15  H   UNL     1     104.547 109.208  93.857  1.00  0.00     0.293 HD
ENDBRANCH   6  14
TORSDOF 4
ENDMDL
MODEL 2
REMARK VINA RESULT:    -3.384      0.316      2.447
REMARK INTER + INTRA:          -3.924
REMARK INTER:                  -3.879
REMARK INTRA:                  -0.045
REMARK UNBOUND:                -0.045
REMARK SMILES O=C([O-])c1cc(O)c(O)c(O)c1
REMARK SMILES IDX 4 1 5 2 12 3 6 4 10 5 8 6 2 7 1 8 3 9 7 10 11 12 9 14
REMARK H PARENT 7 11 11 13 9 15
REMARK Flexibility Score: inf
ROOT
ATOM      1  C   UNL     1     101.058 112.459  93.177  1.00  0.00     0.005 A 
ATOM      2  C   UNL     1     100.936 111.079  93.415  1.00  0.00     0.060 A 
ATOM      3  C   UNL     1     102.322 113.062  93.295  1.00  0.00     0.060 A 
ATOM      4  C   UNL     1     102.052 110.314  93.765  1.00  0.00     0.162 A 
ATOM      5  C   UNL     1     103.446 112.301  93.646  1.00  0.00     0.162 A 
ATOM      6  C   UNL     1     103.313 110.923  93.882  1.00  0.00     0.200 A 
ENDROOT
BRANCH   1   7
ATOM      7  C   UNL     1      99.871 113.260  92.807  1.00  0.00     0.072 C 
ATOM      8  O   UNL     1      99.223 113.890  93.686  1.00  0.00    -0.545 OA
ATOM      9  O   UNL     1      99.452 113.331  91.484  1.00  0.00    -0.545 OA
ENDBRANCH   1   7
BRANCH   4  10
ATOM     10  O   UNL     1     101.889 108.948  93.993  1.00  0.00    -0.504 OA
ATOM     11  H   UNL     1     101.758 108.286  93.236  1.00  0.00     0.293 HD
ENDBRANCH   4  10
BRANCH   5  12
ATOM     12  O   UNL     1     104.694 112.912  93.760  1.00  0.00    -0.504 OA
ATOM     13  H   UNL     1     105.204 112.922  94.635  1.00  0.00     0.293 HD
ENDBRANCH   5  12
BRANCH   6  14
ATOM     14  O   UNL     1     104.422 110.150  94.232  1.00  0.00    -0.502 OA
ATOM     15  H   UNL     1     105.158 109.932  93.571  1.00  0.00     0.293 HD
ENDBRANCH   6  14
TORSDOF 4
ENDMDL
MODEL 3
REMARK VINA RESULT:    -3.334     12.756     15.117
REMARK INTER + INTRA:          -3.866
REMARK INTER:                  -3.821
REMARK INTRA:                  -0.045
REMARK UNBOUND:                -0.045
REMARK SMILES O=C([O-])c1cc(O)c(O)c(O)c1
REMARK SMILES IDX 4 1 5 2 12 3 6 4 10 5 8 6 2 7 1 8 3 9 7 10 11 12 9 14
REMARK H PARENT 7 11 11 13 9 15
REMARK Flexibility Score: inf
ROOT
ATOM      1  C   UNL     1     102.900  96.431  93.656  1.00  0.00     0.005 A 
ATOM      2  C   UNL     1     104.190  96.835  93.275  1.00  0.00     0.060 A 
ATOM      3  C   UNL     1     101.942  97.411  93.967  1.00  0.00     0.060 A 
ATOM      4  C   UNL     1     104.522  98.192  93.207  1.00  0.00     0.162 A 
ATOM      5  C   UNL     1     102.267  98.773  93.901  1.00  0.00     0.162 A 
ATOM      6  C   UNL     1     103.560  99.167  93.520  1.00  0.00     0.200 A 
ENDROOT
BRANCH   1   7
ATOM      7  C   UNL     1     102.559  94.993  93.726  1.00  0.00     0.072 C 
ATOM      8  O   UNL     1     101.989  94.421  92.758  1.00  0.00    -0.545 OA
ATOM      9  O   UNL     1     102.863  94.251  94.861  1.00  0.00    -0.545 OA
ENDBRANCH   1   7
BRANCH   4  10
ATOM     10  O   UNL     1     105.814  98.552  92.824  1.00  0.00    -0.504 OA
ATOM     11  H   UNL     1     106.318  98.059  92.095  1.00  0.00     0.293 HD
ENDBRANCH   4  10
BRANCH   5  12
ATOM     12  O   UNL     1     101.308  99.735  94.214  1.00  0.00    -0.504 OA
ATOM     13  H   UNL     1     100.893  99.793  95.136  1.00  0.00     0.293 HD
ENDBRANCH   5  12
BRANCH   6  14
ATOM     14  O   UNL     1     103.900 100.519  93.449  1.00  0.00    -0.502 OA
ATOM     15  H   UNL     1     103.827 101.050  92.589  1.00  0.00     0.293 HD
ENDBRANCH   6  14
TORSDOF 4
ENDMDL
MODEL 4
REMARK VINA RESULT:    -3.329     12.772     15.211
REMARK INTER + INTRA:          -3.861
REMARK INTER:                  -3.816
REMARK INTRA:                  -0.045
REMARK UNBOUND:                -0.045
REMARK SMILES O=C([O-])c1cc(O)c(O)c(O)c1
REMARK SMILES IDX 4 1 5 2 12 3 6 4 10 5 8 6 2 7 1 8 3 9 7 10 11 12 9 14
REMARK H PARENT 7 11 11 13 9 15
REMARK Flexibility Score: inf
ROOT
ATOM      1  C   UNL     1     102.877  96.413  93.660  1.00  0.00     0.005 A 
ATOM      2  C   UNL     1     101.934  97.406  93.973  1.00  0.00     0.060 A 
ATOM      3  C   UNL     1     104.172  96.800  93.274  1.00  0.00     0.060 A 
ATOM      4  C   UNL     1     102.274  98.761  93.904  1.00  0.00     0.162 A 
ATOM      5  C   UNL     1     104.520  98.156  93.201  1.00  0.00     0.162 A 
ATOM      6  C   UNL     1     103.570  99.141  93.517  1.00  0.00     0.200 A 
ENDROOT
BRANCH   1   7
ATOM      7  C   UNL     1     102.508  94.982  93.736  1.00  0.00     0.072 C 
ATOM      8  O   UNL     1     101.883  94.430  92.791  1.00  0.00    -0.545 OA
ATOM      9  O   UNL     1     102.846  94.226  94.852  1.00  0.00    -0.545 OA
ENDBRANCH   1   7
BRANCH   4  10
ATOM     10  O   UNL     1     101.309  99.715  94.223  1.00  0.00    -0.504 OA
ATOM     11  H   UNL     1     101.047  99.919  95.182  1.00  0.00     0.293 HD
ENDBRANCH   4  10
BRANCH   5  12
ATOM     12  O   UNL     1     105.808  98.526  92.817  1.00  0.00    -0.504 OA
ATOM     13  H   UNL     1     106.227  98.184  91.960  1.00  0.00     0.293 HD
ENDBRANCH   5  12
BRANCH   6  14
ATOM     14  O   UNL     1     103.900 100.496  93.450  1.00  0.00    -0.502 OA
ATOM     15  H   UNL     1     103.803 101.115  94.245  1.00  0.00     0.293 HD
ENDBRANCH   6  14
TORSDOF 4
ENDMDL
MODEL 5
REMARK VINA RESULT:    -3.296     13.552     15.432
REMARK INTER + INTRA:          -3.823
REMARK INTER:                  -3.776
REMARK INTRA:                  -0.047
REMARK UNBOUND:                -0.045
REMARK SMILES O=C([O-])c1cc(O)c(O)c(O)c1
REMARK SMILES IDX 4 1 5 2 12 3 6 4 10 5 8 6 2 7 1 8 3 9 7 10 11 12 9 14
REMARK H PARENT 7 11 11 13 9 15
REMARK Flexibility Score: inf
ROOT
ATOM      1  C   UNL     1     105.950  99.112 100.675  1.00  0.00     0.005 A 
ATOM      2  C   UNL     1     106.833  98.150 100.158  1.00  0.00     0.060 A 
ATOM      3  C   UNL     1     106.166 100.468 100.374  1.00  0.00     0.060 A 
ATOM      4  C   UNL     1     107.914  98.530  99.356  1.00  0.00     0.162 A 
ATOM      5  C   UNL     1     107.248 100.857  99.572  1.00  0.00     0.162 A 
ATOM      6  C   UNL     1     108.125  99.887  99.060  1.00  0.00     0.200 A 
ENDROOT
BRANCH   1   7
ATOM      7  C   UNL     1     104.809  98.699 101.522  1.00  0.00     0.072 C 
ATOM      8  O   UNL     1     103.627  98.986 101.191  1.00  0.00    -0.545 OA
ATOM      9  O   UNL     1     105.025  97.988 102.697  1.00  0.00    -0.545 OA
ENDBRANCH   1   7
BRANCH   4  10
ATOM     10  O   UNL     1     108.767  97.544  98.863  1.00  0.00    -0.504 OA
ATOM     11  H   UNL     1     108.634  97.122  97.951  1.00  0.00     0.293 HD
ENDBRANCH   4  10
BRANCH   5  12
ATOM     12  O   UNL     1     107.451 102.206  99.281  1.00  0.00    -0.504 OA
ATOM     13  H   UNL     1     108.360 102.560  99.008  1.00  0.00     0.293 HD
ENDBRANCH   5  12
BRANCH   6  14
ATOM     14  O   UNL     1     109.207 100.258  98.258  1.00  0.00    -0.502 OA
ATOM     15  H   UNL     1     110.165 100.174  98.572  1.00  0.00     0.293 HD
ENDBRANCH   6  14
TORSDOF 4
ENDMDL
MODEL 6
REMARK VINA RESULT:    -3.294     13.525     15.250
REMARK INTER + INTRA:          -3.821
REMARK INTER:                  -3.774
REMARK INTRA:                  -0.046
REMARK UNBOUND:                -0.045
REMARK SMILES O=C([O-])c1cc(O)c(O)c(O)c1
REMARK SMILES IDX 4 1 5 2 12 3 6 4 10 5 8 6 2 7 1 8 3 9 7 10 11 12 9 14
REMARK H PARENT 7 11 11 13 9 15
REMARK Flexibility Score: inf
ROOT
ATOM      1  C   UNL     1     105.891  99.221 100.700  1.00  0.00     0.005 A 
ATOM      2  C   UNL     1     106.154 100.557 100.354  1.00  0.00     0.060 A 
ATOM      3  C   UNL     1     106.747  98.212 100.226  1.00  0.00     0.060 A 
ATOM      4  C   UNL     1     107.251 100.883  99.550  1.00  0.00     0.162 A 
ATOM      5  C   UNL     1     107.848  98.531  99.419  1.00  0.00     0.162 A 
ATOM      6  C   UNL     1     108.103  99.870  99.079  1.00  0.00     0.200 A 
ENDROOT
BRANCH   1   7
ATOM      7  C   UNL     1     104.728  98.886 101.551  1.00  0.00     0.072 C 
ATOM      8  O   UNL     1     103.556  99.143 101.165  1.00  0.00    -0.545 OA
ATOM      9  O   UNL     1     104.911  98.281 102.789  1.00  0.00    -0.545 OA
ENDBRANCH   1   7
BRANCH   4  10
ATOM     10  O   UNL     1     107.478 102.221  99.230  1.00  0.00    -0.504 OA
ATOM     11  H   UNL     1     106.763 102.804  98.808  1.00  0.00     0.293 HD
ENDBRANCH   4  10
BRANCH   5  12
ATOM     12  O   UNL     1     108.690  97.521  98.956  1.00  0.00    -0.504 OA
ATOM     13  H   UNL     1     109.295  97.004  99.582  1.00  0.00     0.293 HD
ENDBRANCH   5  12
BRANCH   6  14
ATOM     14  O   UNL     1     109.196 100.205  98.277  1.00  0.00    -0.502 OA
ATOM     15  H   UNL     1     109.914  99.534  98.036  1.00  0.00     0.293 HD
ENDBRANCH   6  14
TORSDOF 4
ENDMDL
MODEL 7
REMARK VINA RESULT:    -3.282     12.012     14.230
REMARK INTER + INTRA:          -3.807
REMARK INTER:                  -3.758
REMARK INTRA:                  -0.048
REMARK UNBOUND:                -0.045
REMARK SMILES O=C([O-])c1cc(O)c(O)c(O)c1
REMARK SMILES IDX 4 1 5 2 12 3 6 4 10 5 8 6 2 7 1 8 3 9 7 10 11 12 9 14
REMARK H PARENT 7 11 11 13 9 15
REMARK Flexibility Score: inf
ROOT
ATOM      1  C   UNL     1     103.384  97.596  93.217  1.00  0.00     0.005 A 
ATOM      2  C   UNL     1     103.034  98.945  93.400  1.00  0.00     0.060 A 
ATOM      3  C   UNL     1     104.655  97.285  92.703  1.00  0.00     0.060 A 
ATOM      4  C   UNL     1     103.934  99.965  93.077  1.00  0.00     0.162 A 
ATOM      5  C   UNL     1     105.562  98.303  92.377  1.00  0.00     0.162 A 
ATOM      6  C   UNL     1     105.203  99.648  92.564  1.00  0.00     0.200 A 
ENDROOT
BRANCH   1   7
ATOM      7  C   UNL     1     102.425  96.523  93.560  1.00  0.00     0.072 C 
ATOM      8  O   UNL     1     102.801  95.513  94.214  1.00  0.00    -0.545 OA
ATOM      9  O   UNL     1     101.095  96.614  93.168  1.00  0.00    -0.545 OA
ENDBRANCH   1   7
BRANCH   4  10
ATOM     10  O   UNL     1     103.548 101.291  93.275  1.00  0.00    -0.504 OA
ATOM     11  H   UNL     1     102.751 101.542  93.849  1.00  0.00     0.293 HD
ENDBRANCH   4  10
BRANCH   5  12
ATOM     12  O   UNL     1     106.819  97.981  91.869  1.00  0.00    -0.504 OA
ATOM     13  H   UNL     1     106.940  97.269  91.158  1.00  0.00     0.293 HD
ENDBRANCH   5  12
BRANCH   6  14
ATOM     14  O   UNL     1     106.094 100.674  92.245  1.00  0.00    -0.502 OA
ATOM     15  H   UNL     1     106.984 100.782  92.717  1.00  0.00     0.293 HD
ENDBRANCH   6  14
TORSDOF 4
ENDMDL
MODEL 8
REMARK VINA RESULT:    -3.236      3.145      5.346
REMARK INTER + INTRA:          -3.755
REMARK INTER:                  -3.710
REMARK INTRA:                  -0.045
REMARK UNBOUND:                -0.045
REMARK SMILES O=C([O-])c1cc(O)c(O)c(O)c1
REMARK SMILES IDX 4 1 5 2 12 3 6 4 10 5 8 6 2 7 1 8 3 9 7 10 11 12 9 14
REMARK H PARENT 7 11 11 13 9 15
REMARK Flexibility Score: inf
ROOT
ATOM      1  C   UNL     1     106.238 110.328  91.924  1.00  0.00     0.005 A 
ATOM      2  C   UNL     1     106.341 111.649  92.390  1.00  0.00     0.060 A 
ATOM      3  C   UNL     1     105.157 109.537  92.351  1.00  0.00     0.060 A 
ATOM      4  C   UNL     1     105.386 112.174  93.265  1.00  0.00     0.162 A 
ATOM      5  C   UNL     1     104.195 110.056  93.229  1.00  0.00     0.162 A 
ATOM      6  C   UNL     1     104.308 111.379  93.689  1.00  0.00     0.200 A 
ENDROOT
BRANCH   1   7
ATOM      7  C   UNL     1     107.254 109.781  90.999  1.00  0.00     0.072 C 
ATOM      8  O   UNL     1     107.134 109.932  89.753  1.00  0.00    -0.545 OA
ATOM      9  O   UNL     1     108.358 109.093  91.490  1.00  0.00    -0.545 OA
ENDBRANCH   1   7
BRANCH   4  10
ATOM     10  O   UNL     1     105.524 113.491  93.704  1.00  0.00    -0.504 OA
ATOM     11  H   UNL     1     106.120 114.159  93.227  1.00  0.00     0.293 HD
ENDBRANCH   4  10
BRANCH   5  12
ATOM     12  O   UNL     1     103.128 109.261  93.645  1.00  0.00    -0.504 OA
ATOM     13  H   UNL     1     103.213 108.254  93.721  1.00  0.00     0.293 HD
ENDBRANCH   5  12
BRANCH   6  14
ATOM     14  O   UNL     1     103.358 111.911  94.563  1.00  0.00    -0.502 OA
ATOM     15  H   UNL     1     102.363 111.803  94.410  1.00  0.00     0.293 HD
ENDBRANCH   6  14
TORSDOF 4
ENDMDL
MODEL 9
REMARK VINA RESULT:    -3.232      3.095      5.805
REMARK INTER + INTRA:          -3.749
REMARK INTER:                  -3.704
REMARK INTRA:                  -0.045
REMARK UNBOUND:                -0.045
REMARK SMILES O=C([O-])c1cc(O)c(O)c(O)c1
REMARK SMILES IDX 4 1 5 2 12 3 6 4 10 5 8 6 2 7 1 8 3 9 7 10 11 12 9 14
REMARK H PARENT 7 11 11 13 9 15
REMARK Flexibility Score: inf
ROOT
ATOM      1  C   UNL     1     106.026 110.107  91.862  1.00  0.00     0.005 A 
ATOM      2  C   UNL     1     104.899 109.410  92.327  1.00  0.00     0.060 A 
ATOM      3  C   UNL     1     106.270 111.407  92.339  1.00  0.00     0.060 A 
ATOM      4  C   UNL     1     104.028 109.996  93.250  1.00  0.00     0.162 A 
ATOM      5  C   UNL     1     105.401 112.001  93.265  1.00  0.00     0.162 A 
ATOM      6  C   UNL     1     104.276 111.296  93.723  1.00  0.00     0.200 A 
ENDROOT
BRANCH   1   7
ATOM      7  C   UNL     1     106.942 109.478  90.884  1.00  0.00     0.072 C 
ATOM      8  O   UNL     1     106.922 109.824  89.672  1.00  0.00    -0.545 OA
ATOM      9  O   UNL     1     107.839 108.497  91.289  1.00  0.00    -0.545 OA
ENDBRANCH   1   7
BRANCH   4  10
ATOM     10  O   UNL     1     102.919 109.271  93.686  1.00  0.00    -0.504 OA
ATOM     11  H   UNL     1     102.570 108.463  93.183  1.00  0.00     0.293 HD
ENDBRANCH   4  10
BRANCH   5  12
ATOM     12  O   UNL     1     105.653 113.291  93.730  1.00  0.00    -0.504 OA
ATOM     13  H   UNL     1     104.907 113.898  94.048  1.00  0.00     0.293 HD
ENDBRANCH   5  12
BRANCH   6  14
ATOM     14  O   UNL     1     103.401 111.873  94.645  1.00  0.00    -0.502 OA
ATOM     15  H   UNL     1     102.474 111.503  94.815  1.00  0.00     0.293 HD
ENDBRANCH   6  14
TORSDOF 4
ENDMDL
