MODEL 1
REMARK VINA RESULT:    -6.845      0.000      0.000
REMARK INTER + INTRA:          -8.577
REMARK INTER:                  -8.246
REMARK INTRA:                  -0.332
REMARK UNBOUND:                -0.332
REMARK SMILES O=c1c(O)c(-c2ccc(O)c(O)c2)oc2cc(O)cc(O)c12
REMARK SMILES IDX 5 1 3 2 2 3 1 4 22 5 20 6 19 7 17 8 16 9 15 10 14 11 6 12
REMARK SMILES IDX 7 13 8 14 9 15 13 16 11 17 10 18 12 20 4 22 21 24 18 26
REMARK H PARENT 10 19 12 21 4 23 21 25 18 27
REMARK Flexibility Score: inf
ROOT
ATOM      1  C   UNL     1      -6.290  53.313  31.292  1.00  0.00     0.180 A 
ATOM      2  C   UNL     1      -7.480  53.296  30.540  1.00  0.00     0.208 A 
ATOM      3  C   UNL     1      -8.518  54.171  30.894  1.00  0.00     0.238 A 
ATOM      4  O   UNL     1      -9.586  54.173  30.221  1.00  0.00    -0.285 OA
ATOM      5  C   UNL     1      -8.358  55.032  32.000  1.00  0.00     0.111 A 
ATOM      6  C   UNL     1      -9.357  55.942  32.424  1.00  0.00     0.134 A 
ATOM      7  C   UNL     1      -9.126  56.757  33.541  1.00  0.00     0.093 A 
ATOM      8  C   UNL     1      -7.916  56.681  34.241  1.00  0.00     0.123 A 
ATOM      9  C   UNL     1      -6.928  55.786  33.826  1.00  0.00     0.094 A 
ATOM     10  C   UNL     1      -7.140  54.965  32.714  1.00  0.00     0.146 A 
ATOM     11  O   UNL     1      -6.180  54.127  32.339  1.00  0.00    -0.452 OA
ENDROOT
BRANCH   1  12
ATOM     12  C   UNL     1      -5.143  52.433  30.971  1.00  0.00     0.025 A 
ATOM     13  C   UNL     1      -4.173  52.811  30.027  1.00  0.00     0.016 A 
ATOM     14  C   UNL     1      -3.087  51.974  29.757  1.00  0.00     0.051 A 
ATOM     15  C   UNL     1      -2.944  50.759  30.433  1.00  0.00     0.157 A 
ATOM     16  C   UNL     1      -4.986  51.221  31.664  1.00  0.00     0.062 A 
ATOM     17  C   UNL     1      -3.897  50.380  31.394  1.00  0.00     0.158 A 
BRANCH  15  18
ATOM     18  O   UNL     1      -1.850  49.945  30.141  1.00  0.00    -0.504 OA
ATOM     19  H   UNL     1      -0.944  50.329  29.899  1.00  0.00     0.293 HD
ENDBRANCH  15  18
BRANCH  17  20
ATOM     20  O   UNL     1      -3.757  49.173  32.078  1.00  0.00    -0.504 OA
ATOM     21  H   UNL     1      -4.361  48.930  32.854  1.00  0.00     0.293 HD
ENDBRANCH  17  20
ENDBRANCH   1  12
BRANCH   2  22
ATOM     22  O   UNL     1      -7.633  52.399  29.480  1.00  0.00    -0.502 OA
ATOM     23  H   UNL     1      -7.968  51.453  29.613  1.00  0.00     0.293 HD
ENDBRANCH   2  22
BRANCH   6  24
ATOM     24  O   UNL     1     -10.574  56.040  31.748  1.00  0.00    -0.507 OA
ATOM     25  H   UNL     1     -11.449  55.771  32.183  1.00  0.00     0.293 HD
ENDBRANCH   6  24
BRANCH   8  26
ATOM     26  O   UNL     1      -7.685  57.491  35.351  1.00  0.00    -0.508 OA
ATOM     27  H   UNL     1      -8.367  57.574  36.097  1.00  0.00     0.293 HD
ENDBRANCH   8  26
TORSDOF 6
ENDMDL
MODEL 2
REMARK VINA RESULT:    -6.436      1.489      6.926
REMARK INTER + INTRA:          -8.085
REMARK INTER:                  -7.791
REMARK INTRA:                  -0.294
REMARK UNBOUND:                -0.332
REMARK SMILES O=c1c(O)c(-c2ccc(O)c(O)c2)oc2cc(O)cc(O)c12
REMARK SMILES IDX 5 1 3 2 2 3 1 4 22 5 20 6 19 7 17 8 16 9 15 10 14 11 6 12
REMARK SMILES IDX 7 13 8 14 9 15 13 16 11 17 10 18 12 20 4 22 21 24 18 26
REMARK H PARENT 10 19 12 21 4 23 21 25 18 27
REMARK Flexibility Score: inf
ROOT
ATOM      1  C   UNL     1      -6.277  53.868  32.026  1.00  0.00     0.180 A 
ATOM      2  C   UNL     1      -5.433  54.139  30.932  1.00  0.00     0.208 A 
ATOM      3  C   UNL     1      -4.471  53.184  30.566  1.00  0.00     0.238 A 
ATOM      4  O   UNL     1      -3.716  53.410  29.581  1.00  0.00    -0.285 OA
ATOM      5  C   UNL     1      -4.357  51.989  31.307  1.00  0.00     0.111 A 
ATOM      6  C   UNL     1      -3.412  50.978  31.005  1.00  0.00     0.134 A 
ATOM      7  C   UNL     1      -3.355  49.822  31.797  1.00  0.00     0.093 A 
ATOM      8  C   UNL     1      -4.222  49.658  32.883  1.00  0.00     0.123 A 
ATOM      9  C   UNL     1      -5.155  50.652  33.183  1.00  0.00     0.094 A 
ATOM     10  C   UNL     1      -5.229  51.811  32.405  1.00  0.00     0.146 A 
ATOM     11  O   UNL     1      -6.130  52.737  32.712  1.00  0.00    -0.452 OA
ENDROOT
BRANCH   1  12
ATOM     12  C   UNL     1      -7.327  54.817  32.463  1.00  0.00     0.025 A 
ATOM     13  C   UNL     1      -7.115  55.700  33.536  1.00  0.00     0.016 A 
ATOM     14  C   UNL     1      -8.112  56.603  33.915  1.00  0.00     0.051 A 
ATOM     15  C   UNL     1      -9.326  56.648  33.223  1.00  0.00     0.157 A 
ATOM     16  C   UNL     1      -8.539  54.879  31.757  1.00  0.00     0.062 A 
ATOM     17  C   UNL     1      -9.541  55.784  32.136  1.00  0.00     0.158 A 
BRANCH  15  18
ATOM     18  O   UNL     1     -10.302  57.559  33.626  1.00  0.00    -0.504 OA
ATOM     19  H   UNL     1     -10.654  58.279  33.006  1.00  0.00     0.293 HD
ENDBRANCH  15  18
BRANCH  17  20
ATOM     20  O   UNL     1     -10.747  55.829  31.437  1.00  0.00    -0.504 OA
ATOM     21  H   UNL     1     -10.868  56.426  30.627  1.00  0.00     0.293 HD
ENDBRANCH  17  20
ENDBRANCH   1  12
BRANCH   2  22
ATOM     22  O   UNL     1      -5.533  55.351  30.246  1.00  0.00    -0.502 OA
ATOM     23  H   UNL     1      -6.048  56.142  30.613  1.00  0.00     0.293 HD
ENDBRANCH   2  22
BRANCH   6  24
ATOM     24  O   UNL     1      -2.534  51.114  29.929  1.00  0.00    -0.507 OA
ATOM     25  H   UNL     1      -1.706  50.536  29.841  1.00  0.00     0.293 HD
ENDBRANCH   6  24
BRANCH   8  26
ATOM     26  O   UNL     1      -4.164  48.510  33.670  1.00  0.00    -0.508 OA
ATOM     27  H   UNL     1      -4.912  48.268  34.311  1.00  0.00     0.293 HD
ENDBRANCH   8  26
TORSDOF 6
ENDMDL
MODEL 3
REMARK VINA RESULT:    -6.366      3.378      5.047
REMARK INTER + INTRA:          -8.000
REMARK INTER:                  -7.684
REMARK INTRA:                  -0.316
REMARK UNBOUND:                -0.332
REMARK SMILES O=c1c(O)c(-c2ccc(O)c(O)c2)oc2cc(O)cc(O)c12
REMARK SMILES IDX 5 1 3 2 2 3 1 4 22 5 20 6 19 7 17 8 16 9 15 10 14 11 6 12
REMARK SMILES IDX 7 13 8 14 9 15 13 16 11 17 10 18 12 20 4 22 21 24 18 26
REMARK H PARENT 10 19 12 21 4 23 21 25 18 27
REMARK Flexibility Score: inf
ROOT
ATOM      1  C   UNL     1      -6.665  52.625  29.065  1.00  0.00     0.180 A 
ATOM      2  C   UNL     1      -7.528  52.548  30.175  1.00  0.00     0.208 A 
ATOM      3  C   UNL     1      -7.204  53.266  31.337  1.00  0.00     0.238 A 
ATOM      4  O   UNL     1      -7.975  53.213  32.334  1.00  0.00    -0.285 OA
ATOM      5  C   UNL     1      -6.019  54.030  31.376  1.00  0.00     0.111 A 
ATOM      6  C   UNL     1      -5.619  54.779  32.510  1.00  0.00     0.134 A 
ATOM      7  C   UNL     1      -4.420  55.506  32.474  1.00  0.00     0.093 A 
ATOM      8  C   UNL     1      -3.615  55.498  31.329  1.00  0.00     0.123 A 
ATOM      9  C   UNL     1      -4.006  54.761  30.210  1.00  0.00     0.094 A 
ATOM     10  C   UNL     1      -5.198  54.031  30.226  1.00  0.00     0.146 A 
ATOM     11  O   UNL     1      -5.547  53.343  29.144  1.00  0.00    -0.452 OA
ENDROOT
BRANCH   1  12
ATOM     12  C   UNL     1      -6.947  51.912  27.798  1.00  0.00     0.025 A 
ATOM     13  C   UNL     1      -6.415  50.636  27.543  1.00  0.00     0.016 A 
ATOM     14  C   UNL     1      -6.714  49.972  26.351  1.00  0.00     0.051 A 
ATOM     15  C   UNL     1      -7.557  50.562  25.404  1.00  0.00     0.157 A 
ATOM     16  C   UNL     1      -7.810  52.493  26.855  1.00  0.00     0.062 A 
ATOM     17  C   UNL     1      -8.111  51.828  25.658  1.00  0.00     0.158 A 
BRANCH  15  18
ATOM     18  O   UNL     1      -7.835  49.875  24.223  1.00  0.00    -0.504 OA
ATOM     19  H   UNL     1      -7.163  49.809  23.468  1.00  0.00     0.293 HD
ENDBRANCH  15  18
BRANCH  17  20
ATOM     20  O   UNL     1      -8.958  52.420  24.721  1.00  0.00    -0.504 OA
ATOM     21  H   UNL     1      -9.959  52.472  24.870  1.00  0.00     0.293 HD
ENDBRANCH  17  20
ENDBRANCH   1  12
BRANCH   2  22
ATOM     22  O   UNL     1      -8.669  51.744  30.127  1.00  0.00    -0.502 OA
ATOM     23  H   UNL     1      -9.566  52.094  29.813  1.00  0.00     0.293 HD
ENDBRANCH   2  22
BRANCH   6  24
ATOM     24  O   UNL     1      -6.400  54.806  33.666  1.00  0.00    -0.507 OA
ATOM     25  H   UNL     1      -7.133  54.125  33.829  1.00  0.00     0.293 HD
ENDBRANCH   6  24
BRANCH   8  26
ATOM     26  O   UNL     1      -2.423  56.219  31.294  1.00  0.00    -0.508 OA
ATOM     27  H   UNL     1      -2.306  57.020  30.683  1.00  0.00     0.293 HD
ENDBRANCH   8  26
TORSDOF 6
ENDMDL
MODEL 4
REMARK VINA RESULT:    -6.334      1.970      6.990
REMARK INTER + INTRA:          -7.962
REMARK INTER:                  -7.729
REMARK INTRA:                  -0.233
REMARK UNBOUND:                -0.332
REMARK SMILES O=c1c(O)c(-c2ccc(O)c(O)c2)oc2cc(O)cc(O)c12
REMARK SMILES IDX 5 1 3 2 2 3 1 4 22 5 20 6 19 7 17 8 16 9 15 10 14 11 6 12
REMARK SMILES IDX 7 13 8 14 9 15 13 16 11 17 10 18 12 20 4 22 21 24 18 26
REMARK H PARENT 10 19 12 21 4 23 21 25 18 27
REMARK Flexibility Score: inf
ROOT
ATOM      1  C   UNL     1      -7.736  55.784  33.785  1.00  0.00     0.180 A 
ATOM      2  C   UNL     1      -8.868  55.736  32.950  1.00  0.00     0.208 A 
ATOM      3  C   UNL     1      -8.803  54.990  31.763  1.00  0.00     0.238 A 
ATOM      4  O   UNL     1      -9.815  54.930  31.011  1.00  0.00    -0.285 OA
ATOM      5  C   UNL     1      -7.608  54.323  31.423  1.00  0.00     0.111 A 
ATOM      6  C   UNL     1      -7.460  53.553  30.243  1.00  0.00     0.134 A 
ATOM      7  C   UNL     1      -6.234  52.929  29.971  1.00  0.00     0.093 A 
ATOM      8  C   UNL     1      -5.155  53.059  30.854  1.00  0.00     0.123 A 
ATOM      9  C   UNL     1      -5.298  53.816  32.017  1.00  0.00     0.094 A 
ATOM     10  C   UNL     1      -6.512  54.445  32.307  1.00  0.00     0.146 A 
ATOM     11  O   UNL     1      -6.620  55.156  33.425  1.00  0.00    -0.452 OA
ENDROOT
BRANCH   1  12
ATOM     12  C   UNL     1      -7.732  56.534  35.062  1.00  0.00     0.025 A 
ATOM     13  C   UNL     1      -7.710  55.870  36.301  1.00  0.00     0.016 A 
ATOM     14  C   UNL     1      -7.682  56.600  37.492  1.00  0.00     0.051 A 
ATOM     15  C   UNL     1      -7.661  57.997  37.467  1.00  0.00     0.157 A 
ATOM     16  C   UNL     1      -7.689  57.938  35.039  1.00  0.00     0.062 A 
ATOM     17  C   UNL     1      -7.662  58.672  36.234  1.00  0.00     0.158 A 
BRANCH  15  18
ATOM     18  O   UNL     1      -7.635  58.697  38.672  1.00  0.00    -0.504 OA
ATOM     19  H   UNL     1      -7.633  59.710  38.706  1.00  0.00     0.293 HD
ENDBRANCH  15  18
BRANCH  17  20
ATOM     20  O   UNL     1      -7.633  60.065  36.200  1.00  0.00    -0.504 OA
ATOM     21  H   UNL     1      -7.684  60.617  37.049  1.00  0.00     0.293 HD
ENDBRANCH  17  20
ENDBRANCH   1  12
BRANCH   2  22
ATOM     22  O   UNL     1     -10.024  56.446  33.285  1.00  0.00    -0.502 OA
ATOM     23  H   UNL     1     -10.899  56.323  32.791  1.00  0.00     0.293 HD
ENDBRANCH   2  22
BRANCH   6  24
ATOM     24  O   UNL     1      -8.516  53.406  29.343  1.00  0.00    -0.507 OA
ATOM     25  H   UNL     1      -9.361  52.903  29.590  1.00  0.00     0.293 HD
ENDBRANCH   6  24
BRANCH   8  26
ATOM     26  O   UNL     1      -3.938  52.439  30.583  1.00  0.00    -0.508 OA
ATOM     27  H   UNL     1      -3.653  51.595  31.067  1.00  0.00     0.293 HD
ENDBRANCH   8  26
TORSDOF 6
ENDMDL
MODEL 5
REMARK VINA RESULT:    -6.099      2.975      4.870
REMARK INTER + INTRA:          -7.679
REMARK INTER:                  -7.350
REMARK INTRA:                  -0.329
REMARK UNBOUND:                -0.332
REMARK SMILES O=c1c(O)c(-c2ccc(O)c(O)c2)oc2cc(O)cc(O)c12
REMARK SMILES IDX 5 1 3 2 2 3 1 4 22 5 20 6 19 7 17 8 16 9 15 10 14 11 6 12
REMARK SMILES IDX 7 13 8 14 9 15 13 16 11 17 10 18 12 20 4 22 21 24 18 26
REMARK H PARENT 10 19 12 21 4 23 21 25 18 27
REMARK Flexibility Score: inf
ROOT
ATOM      1  C   UNL     1      -7.194  52.811  29.441  1.00  0.00     0.180 A 
ATOM      2  C   UNL     1      -5.810  53.002  29.615  1.00  0.00     0.208 A 
ATOM      3  C   UNL     1      -5.365  53.821  30.664  1.00  0.00     0.238 A 
ATOM      4  O   UNL     1      -4.127  53.990  30.836  1.00  0.00    -0.285 OA
ATOM      5  C   UNL     1      -6.306  54.448  31.507  1.00  0.00     0.111 A 
ATOM      6  C   UNL     1      -5.939  55.291  32.584  1.00  0.00     0.134 A 
ATOM      7  C   UNL     1      -6.936  55.886  33.371  1.00  0.00     0.093 A 
ATOM      8  C   UNL     1      -8.290  55.655  33.101  1.00  0.00     0.123 A 
ATOM      9  C   UNL     1      -8.655  54.825  32.040  1.00  0.00     0.094 A 
ATOM     10  C   UNL     1      -7.676  54.221  31.246  1.00  0.00     0.146 A 
ATOM     11  O   UNL     1      -8.054  53.432  30.246  1.00  0.00    -0.452 OA
ENDROOT
BRANCH   1  12
ATOM     12  C   UNL     1      -7.742  51.948  28.369  1.00  0.00     0.025 A 
ATOM     13  C   UNL     1      -8.026  50.591  28.597  1.00  0.00     0.016 A 
ATOM     14  C   UNL     1      -8.565  49.802  27.577  1.00  0.00     0.051 A 
ATOM     15  C   UNL     1      -8.840  50.356  26.324  1.00  0.00     0.157 A 
ATOM     16  C   UNL     1      -8.039  52.508  27.116  1.00  0.00     0.062 A 
ATOM     17  C   UNL     1      -8.580  51.717  26.091  1.00  0.00     0.158 A 
BRANCH  15  18
ATOM     18  O   UNL     1      -9.376  49.543  25.326  1.00  0.00    -0.504 OA
ATOM     19  H   UNL     1     -10.300  49.703  24.940  1.00  0.00     0.293 HD
ENDBRANCH  15  18
BRANCH  17  20
ATOM     20  O   UNL     1      -8.859  52.279  24.846  1.00  0.00    -0.504 OA
ATOM     21  H   UNL     1      -9.804  52.321  24.483  1.00  0.00     0.293 HD
ENDBRANCH  17  20
ENDBRANCH   1  12
BRANCH   2  22
ATOM     22  O   UNL     1      -4.901  52.409  28.736  1.00  0.00    -0.502 OA
ATOM     23  H   UNL     1      -5.157  52.127  27.797  1.00  0.00     0.293 HD
ENDBRANCH   2  22
BRANCH   6  24
ATOM     24  O   UNL     1      -4.598  55.541  32.877  1.00  0.00    -0.507 OA
ATOM     25  H   UNL     1      -4.132  56.384  32.563  1.00  0.00     0.293 HD
ENDBRANCH   6  24
BRANCH   8  26
ATOM     26  O   UNL     1      -9.281  56.247  33.882  1.00  0.00    -0.508 OA
ATOM     27  H   UNL     1     -10.138  56.600  33.473  1.00  0.00     0.293 HD
ENDBRANCH   8  26
TORSDOF 6
ENDMDL
MODEL 6
REMARK VINA RESULT:    -5.966      3.410      7.635
REMARK INTER + INTRA:          -7.519
REMARK INTER:                  -7.187
REMARK INTRA:                  -0.331
REMARK UNBOUND:                -0.332
REMARK SMILES O=c1c(O)c(-c2ccc(O)c(O)c2)oc2cc(O)cc(O)c12
REMARK SMILES IDX 5 1 3 2 2 3 1 4 22 5 20 6 19 7 17 8 16 9 15 10 14 11 6 12
REMARK SMILES IDX 7 13 8 14 9 15 13 16 11 17 10 18 12 20 4 22 21 24 18 26
REMARK H PARENT 10 19 12 21 4 23 21 25 18 27
REMARK Flexibility Score: inf
ROOT
ATOM      1  C   UNL     1      -5.201  52.208  28.614  1.00  0.00     0.180 A 
ATOM      2  C   UNL     1      -6.004  52.330  27.464  1.00  0.00     0.208 A 
ATOM      3  C   UNL     1      -5.824  51.418  26.412  1.00  0.00     0.238 A 
ATOM      4  O   UNL     1      -6.545  51.511  25.380  1.00  0.00    -0.285 OA
ATOM      5  C   UNL     1      -4.837  50.417  26.518  1.00  0.00     0.111 A 
ATOM      6  C   UNL     1      -4.591  49.461  25.502  1.00  0.00     0.134 A 
ATOM      7  C   UNL     1      -3.583  48.502  25.679  1.00  0.00     0.093 A 
ATOM      8  C   UNL     1      -2.819  48.479  26.851  1.00  0.00     0.123 A 
ATOM      9  C   UNL     1      -3.059  49.419  27.855  1.00  0.00     0.094 A 
ATOM     10  C   UNL     1      -4.060  50.382  27.698  1.00  0.00     0.146 A 
ATOM     11  O   UNL     1      -4.269  51.260  28.673  1.00  0.00    -0.452 OA
ENDROOT
BRANCH   1  12
ATOM     12  C   UNL     1      -5.342  53.119  29.773  1.00  0.00     0.025 A 
ATOM     13  C   UNL     1      -6.253  52.850  30.808  1.00  0.00     0.016 A 
ATOM     14  C   UNL     1      -6.352  53.713  31.903  1.00  0.00     0.051 A 
ATOM     15  C   UNL     1      -5.537  54.844  31.989  1.00  0.00     0.157 A 
ATOM     16  C   UNL     1      -4.509  54.245  29.871  1.00  0.00     0.062 A 
ATOM     17  C   UNL     1      -4.607  55.112  30.970  1.00  0.00     0.158 A 
BRANCH  15  18
ATOM     18  O   UNL     1      -5.659  55.687  33.093  1.00  0.00    -0.504 OA
ATOM     19  H   UNL     1      -6.521  56.179  33.301  1.00  0.00     0.293 HD
ENDBRANCH  15  18
BRANCH  17  20
ATOM     20  O   UNL     1      -3.785  56.236  31.052  1.00  0.00    -0.504 OA
ATOM     21  H   UNL     1      -4.076  57.134  30.684  1.00  0.00     0.293 HD
ENDBRANCH  17  20
ENDBRANCH   1  12
BRANCH   2  22
ATOM     22  O   UNL     1      -6.940  53.362  27.362  1.00  0.00    -0.502 OA
ATOM     23  H   UNL     1      -7.538  53.475  26.553  1.00  0.00     0.293 HD
ENDBRANCH   2  22
BRANCH   6  24
ATOM     24  O   UNL     1      -5.336  49.460  24.321  1.00  0.00    -0.507 OA
ATOM     25  H   UNL     1      -6.346  49.542  24.329  1.00  0.00     0.293 HD
ENDBRANCH   6  24
BRANCH   8  26
ATOM     26  O   UNL     1      -1.818  47.527  27.027  1.00  0.00    -0.508 OA
ATOM     27  H   UNL     1      -1.568  47.183  27.948  1.00  0.00     0.293 HD
ENDBRANCH   8  26
TORSDOF 6
ENDMDL
MODEL 7
REMARK VINA RESULT:    -5.933      3.283      4.420
REMARK INTER + INTRA:          -7.479
REMARK INTER:                  -7.209
REMARK INTRA:                  -0.271
REMARK UNBOUND:                -0.332
REMARK SMILES O=c1c(O)c(-c2ccc(O)c(O)c2)oc2cc(O)cc(O)c12
REMARK SMILES IDX 5 1 3 2 2 3 1 4 22 5 20 6 19 7 17 8 16 9 15 10 14 11 6 12
REMARK SMILES IDX 7 13 8 14 9 15 13 16 11 17 10 18 12 20 4 22 21 24 18 26
REMARK H PARENT 10 19 12 21 4 23 21 25 18 27
REMARK Flexibility Score: inf
ROOT
ATOM      1  C   UNL     1      -7.629  52.413  28.999  1.00  0.00     0.180 A 
ATOM      2  C   UNL     1      -8.870  52.972  29.359  1.00  0.00     0.208 A 
ATOM      3  C   UNL     1      -8.918  53.885  30.424  1.00  0.00     0.238 A 
ATOM      4  O   UNL     1     -10.022  54.402  30.750  1.00  0.00    -0.285 OA
ATOM      5  C   UNL     1      -7.734  54.208  31.119  1.00  0.00     0.111 A 
ATOM      6  C   UNL     1      -7.697  55.117  32.205  1.00  0.00     0.134 A 
ATOM      7  C   UNL     1      -6.481  55.378  32.852  1.00  0.00     0.093 A 
ATOM      8  C   UNL     1      -5.302  54.750  32.434  1.00  0.00     0.123 A 
ATOM      9  C   UNL     1      -5.334  53.854  31.364  1.00  0.00     0.094 A 
ATOM     10  C   UNL     1      -6.536  53.582  30.706  1.00  0.00     0.146 A 
ATOM     11  O   UNL     1      -6.535  52.729  29.687  1.00  0.00    -0.452 OA
ENDROOT
BRANCH   1  12
ATOM     12  C   UNL     1      -7.494  51.456  27.876  1.00  0.00     0.025 A 
ATOM     13  C   UNL     1      -7.904  50.118  28.002  1.00  0.00     0.016 A 
ATOM     14  C   UNL     1      -7.789  49.240  26.921  1.00  0.00     0.051 A 
ATOM     15  C   UNL     1      -7.278  49.685  25.698  1.00  0.00     0.157 A 
ATOM     16  C   UNL     1      -7.001  51.906  26.640  1.00  0.00     0.062 A 
ATOM     17  C   UNL     1      -6.884  51.026  25.555  1.00  0.00     0.158 A 
BRANCH  15  18
ATOM     18  O   UNL     1      -7.174  48.784  24.639  1.00  0.00    -0.504 OA
ATOM     19  H   UNL     1      -7.659  48.929  23.761  1.00  0.00     0.293 HD
ENDBRANCH  15  18
BRANCH  17  20
ATOM     20  O   UNL     1      -6.381  51.479  24.336  1.00  0.00    -0.504 OA
ATOM     21  H   UNL     1      -6.710  51.103  23.454  1.00  0.00     0.293 HD
ENDBRANCH  17  20
ENDBRANCH   1  12
BRANCH   2  22
ATOM     22  O   UNL     1     -10.036  52.597  28.687  1.00  0.00    -0.502 OA
ATOM     23  H   UNL     1     -10.803  53.240  28.532  1.00  0.00     0.293 HD
ENDBRANCH   2  22
BRANCH   6  24
ATOM     24  O   UNL     1      -8.857  55.758  32.645  1.00  0.00    -0.507 OA
ATOM     25  H   UNL     1      -8.916  56.178  33.566  1.00  0.00     0.293 HD
ENDBRANCH   6  24
BRANCH   8  26
ATOM     26  O   UNL     1      -4.093  55.009  33.077  1.00  0.00    -0.508 OA
ATOM     27  H   UNL     1      -3.569  54.273  33.538  1.00  0.00     0.293 HD
ENDBRANCH   8  26
TORSDOF 6
ENDMDL
MODEL 8
REMARK VINA RESULT:    -5.897      3.250      6.880
REMARK INTER + INTRA:          -7.436
REMARK INTER:                  -7.351
REMARK INTRA:                  -0.084
REMARK UNBOUND:                -0.332
REMARK SMILES O=c1c(O)c(-c2ccc(O)c(O)c2)oc2cc(O)cc(O)c12
REMARK SMILES IDX 5 1 3 2 2 3 1 4 22 5 20 6 19 7 17 8 16 9 15 10 14 11 6 12
REMARK SMILES IDX 7 13 8 14 9 15 13 16 11 17 10 18 12 20 4 22 21 24 18 26
REMARK H PARENT 10 19 12 21 4 23 21 25 18 27
REMARK Flexibility Score: inf
ROOT
ATOM      1  C   UNL     1      -8.480  52.961  29.820  1.00  0.00     0.180 A 
ATOM      2  C   UNL     1      -9.734  52.357  29.607  1.00  0.00     0.208 A 
ATOM      3  C   UNL     1      -9.955  51.660  28.408  1.00  0.00     0.238 A 
ATOM      4  O   UNL     1     -11.071  51.105  28.210  1.00  0.00    -0.285 OA
ATOM      5  C   UNL     1      -8.932  51.595  27.440  1.00  0.00     0.111 A 
ATOM      6  C   UNL     1      -9.076  50.916  26.205  1.00  0.00     0.134 A 
ATOM      7  C   UNL     1      -8.014  50.906  25.290  1.00  0.00     0.093 A 
ATOM      8  C   UNL     1      -6.813  51.561  25.584  1.00  0.00     0.123 A 
ATOM      9  C   UNL     1      -6.667  52.231  26.800  1.00  0.00     0.094 A 
ATOM     10  C   UNL     1      -7.713  52.251  27.726  1.00  0.00     0.146 A 
ATOM     11  O   UNL     1      -7.544  52.893  28.877  1.00  0.00    -0.452 OA
ENDROOT
BRANCH   1  12
ATOM     12  C   UNL     1      -8.164  53.698  31.065  1.00  0.00     0.025 A 
ATOM     13  C   UNL     1      -7.073  53.334  31.873  1.00  0.00     0.016 A 
ATOM     14  C   UNL     1      -6.780  54.059  33.031  1.00  0.00     0.051 A 
ATOM     15  C   UNL     1      -7.558  55.163  33.392  1.00  0.00     0.157 A 
ATOM     16  C   UNL     1      -8.931  54.820  31.418  1.00  0.00     0.062 A 
ATOM     17  C   UNL     1      -8.638  55.549  32.580  1.00  0.00     0.158 A 
BRANCH  15  18
ATOM     18  O   UNL     1      -7.241  55.865  34.554  1.00  0.00    -0.504 OA
ATOM     19  H   UNL     1      -7.522  55.541  35.472  1.00  0.00     0.293 HD
ENDBRANCH  15  18
BRANCH  17  20
ATOM     20  O   UNL     1      -9.414  56.653  32.929  1.00  0.00    -0.504 OA
ATOM     21  H   UNL     1      -9.180  57.587  32.614  1.00  0.00     0.293 HD
ENDBRANCH  17  20
ENDBRANCH   1  12
BRANCH   2  22
ATOM     22  O   UNL     1     -10.748  52.478  30.560  1.00  0.00    -0.502 OA
ATOM     23  H   UNL     1     -10.556  52.685  31.533  1.00  0.00     0.293 HD
ENDBRANCH   2  22
BRANCH   6  24
ATOM     24  O   UNL     1     -10.263  50.255  25.883  1.00  0.00    -0.507 OA
ATOM     25  H   UNL     1     -10.654  50.288  24.949  1.00  0.00     0.293 HD
ENDBRANCH   6  24
BRANCH   8  26
ATOM     26  O   UNL     1      -5.758  51.552  24.674  1.00  0.00    -0.508 OA
ATOM     27  H   UNL     1      -4.817  51.300  24.956  1.00  0.00     0.293 HD
ENDBRANCH   8  26
TORSDOF 6
ENDMDL
MODEL 9
REMARK VINA RESULT:    -5.792      3.095      5.725
REMARK INTER + INTRA:          -7.309
REMARK INTER:                  -7.000
REMARK INTRA:                  -0.309
REMARK UNBOUND:                -0.332
REMARK SMILES O=c1c(O)c(-c2ccc(O)c(O)c2)oc2cc(O)cc(O)c12
REMARK SMILES IDX 5 1 3 2 2 3 1 4 22 5 20 6 19 7 17 8 16 9 15 10 14 11 6 12
REMARK SMILES IDX 7 13 8 14 9 15 13 16 11 17 10 18 12 20 4 22 21 24 18 26
REMARK H PARENT 10 19 12 21 4 23 21 25 18 27
REMARK Flexibility Score: inf
ROOT
ATOM      1  C   UNL     1      -8.508  52.502  29.815  1.00  0.00     0.180 A 
ATOM      2  C   UNL     1      -8.926  53.708  30.408  1.00  0.00     0.208 A 
ATOM      3  C   UNL     1      -8.226  54.193  31.525  1.00  0.00     0.238 A 
ATOM      4  O   UNL     1      -8.585  55.278  32.059  1.00  0.00    -0.285 OA
ATOM      5  C   UNL     1      -7.138  53.458  32.038  1.00  0.00     0.111 A 
ATOM      6  C   UNL     1      -6.382  53.875  33.161  1.00  0.00     0.134 A 
ATOM      7  C   UNL     1      -5.320  53.082  33.617  1.00  0.00     0.093 A 
ATOM      8  C   UNL     1      -4.997  51.882  32.973  1.00  0.00     0.123 A 
ATOM      9  C   UNL     1      -5.739  51.467  31.865  1.00  0.00     0.094 A 
ATOM     10  C   UNL     1      -6.802  52.245  31.395  1.00  0.00     0.146 A 
ATOM     11  O   UNL     1      -7.487  51.827  30.336  1.00  0.00    -0.452 OA
ENDROOT
BRANCH   1  12
ATOM     12  C   UNL     1      -9.183  51.935  28.624  1.00  0.00     0.025 A 
ATOM     13  C   UNL     1     -10.356  51.171  28.744  1.00  0.00     0.016 A 
ATOM     14  C   UNL     1     -10.989  50.666  27.605  1.00  0.00     0.051 A 
ATOM     15  C   UNL     1     -10.472  50.928  26.333  1.00  0.00     0.157 A 
ATOM     16  C   UNL     1      -8.678  52.215  27.345  1.00  0.00     0.062 A 
ATOM     17  C   UNL     1      -9.311  51.710  26.200  1.00  0.00     0.158 A 
BRANCH  15  18
ATOM     18  O   UNL     1     -11.125  50.410  25.215  1.00  0.00    -0.504 OA
ATOM     19  H   UNL     1     -12.124  50.515  25.080  1.00  0.00     0.293 HD
ENDBRANCH  15  18
BRANCH  17  20
ATOM     20  O   UNL     1      -8.793  51.981  24.934  1.00  0.00    -0.504 OA
ATOM     21  H   UNL     1      -7.839  52.298  24.808  1.00  0.00     0.293 HD
ENDBRANCH  17  20
ENDBRANCH   1  12
BRANCH   2  22
ATOM     22  O   UNL     1     -10.038  54.392  29.911  1.00  0.00    -0.502 OA
ATOM     23  H   UNL     1     -10.932  54.394  30.387  1.00  0.00     0.293 HD
ENDBRANCH   2  22
BRANCH   6  24
ATOM     24  O   UNL     1      -6.680  55.067  33.825  1.00  0.00    -0.507 OA
ATOM     25  H   UNL     1      -7.619  55.279  34.141  1.00  0.00     0.293 HD
ENDBRANCH   6  24
BRANCH   8  26
ATOM     26  O   UNL     1      -3.942  51.094  33.426  1.00  0.00    -0.508 OA
ATOM     27  H   UNL     1      -3.232  50.744  32.793  1.00  0.00     0.293 HD
ENDBRANCH   8  26
TORSDOF 6
ENDMDL
