MODEL 1
REMARK VINA RESULT:    -2.924      0.000      0.000
REMARK INTER + INTRA:          -3.309
REMARK INTER:                  -3.266
REMARK INTRA:                  -0.043
REMARK UNBOUND:                -0.043
REMARK SMILES CCCC(=O)[O-]
REMARK SMILES IDX 3 1 4 2 5 3 6 4 2 5 1 6
REMARK H PARENT
REMARK Flexibility Score: inf
ROOT
ATOM      1  C   UNL     1     190.707   3.719  96.543  1.00  0.00     0.052 C 
ENDROOT
BRANCH   1   2
ATOM      2  C   UNL     1     191.622   3.661  95.361  1.00  0.00     0.041 C 
ATOM      3  O   UNL     1     192.274   2.613  95.115  1.00  0.00    -0.550 OA
ATOM      4  O   UNL     1     191.792   4.782  94.559  1.00  0.00    -0.550 OA
ENDBRANCH   1   2
BRANCH   1   5
ATOM      5  C   UNL     1     191.401   3.154  97.785  1.00  0.00     0.003 C 
ATOM      6  C   UNL     1     192.060   4.263  98.600  1.00  0.00     0.004 C 
ENDBRANCH   1   5
TORSDOF 2
ENDMDL
MODEL 2
REMARK VINA RESULT:    -2.924      0.139      1.330
REMARK INTER + INTRA:          -3.309
REMARK INTER:                  -3.269
REMARK INTRA:                  -0.039
REMARK UNBOUND:                -0.043
REMARK SMILES CCCC(=O)[O-]
REMARK SMILES IDX 3 1 4 2 5 3 6 4 2 5 1 6
REMARK H PARENT
REMARK Flexibility Score: inf
ROOT
ATOM      1  C   UNL     1     190.775   3.924  96.485  1.00  0.00     0.052 C 
ENDROOT
BRANCH   1   2
ATOM      2  C   UNL     1     191.715   3.809  95.327  1.00  0.00     0.041 C 
ATOM      3  O   UNL     1     191.892   4.789  94.556  1.00  0.00    -0.550 OA
ATOM      4  O   UNL     1     192.358   2.605  95.070  1.00  0.00    -0.550 OA
ENDBRANCH   1   2
BRANCH   1   5
ATOM      5  C   UNL     1     191.365   3.245  97.723  1.00  0.00     0.003 C 
ATOM      6  C   UNL     1     192.092   4.252  98.610  1.00  0.00     0.004 C 
ENDBRANCH   1   5
TORSDOF 2
ENDMDL
MODEL 3
REMARK VINA RESULT:    -2.861      2.287      2.494
REMARK INTER + INTRA:          -3.238
REMARK INTER:                  -3.223
REMARK INTRA:                  -0.015
REMARK UNBOUND:                -0.043
REMARK SMILES CCCC(=O)[O-]
REMARK SMILES IDX 3 1 4 2 5 3 6 4 2 5 1 6
REMARK H PARENT
REMARK Flexibility Score: inf
ROOT
ATOM      1  C   UNL     1     190.105   4.170  97.916  1.00  0.00     0.052 C 
ENDROOT
BRANCH   1   2
ATOM      2  C   UNL     1     189.423   3.498  96.767  1.00  0.00     0.041 C 
ATOM      3  O   UNL     1     190.049   3.286  95.695  1.00  0.00    -0.550 OA
ATOM      4  O   UNL     1     188.082   3.149  96.861  1.00  0.00    -0.550 OA
ENDBRANCH   1   2
BRANCH   1   5
ATOM      5  C   UNL     1     191.431   3.474  98.232  1.00  0.00     0.003 C 
ATOM      6  C   UNL     1     192.415   4.436  98.892  1.00  0.00     0.004 C 
ENDBRANCH   1   5
TORSDOF 2
ENDMDL
MODEL 4
REMARK VINA RESULT:    -2.794      1.898      2.264
REMARK INTER + INTRA:          -3.164
REMARK INTER:                  -3.125
REMARK INTRA:                  -0.040
REMARK UNBOUND:                -0.043
REMARK SMILES CCCC(=O)[O-]
REMARK SMILES IDX 3 1 4 2 5 3 6 4 2 5 1 6
REMARK H PARENT
REMARK Flexibility Score: inf
ROOT
ATOM      1  C   UNL     1     190.570   4.235  98.176  1.00  0.00     0.052 C 
ENDROOT
BRANCH   1   2
ATOM      2  C   UNL     1     190.179   3.586  96.886  1.00  0.00     0.041 C 
ATOM      3  O   UNL     1     188.980   3.263  96.677  1.00  0.00    -0.550 OA
ATOM      4  O   UNL     1     191.147   3.293  95.934  1.00  0.00    -0.550 OA
ENDBRANCH   1   2
BRANCH   1   5
ATOM      5  C   UNL     1     191.988   3.819  98.576  1.00  0.00     0.003 C 
ATOM      6  C   UNL     1     192.000   2.421  99.189  1.00  0.00     0.004 C 
ENDBRANCH   1   5
TORSDOF 2
ENDMDL
MODEL 5
REMARK VINA RESULT:    -2.674      2.487      3.262
REMARK INTER + INTRA:          -3.030
REMARK INTER:                  -2.993
REMARK INTRA:                  -0.037
REMARK UNBOUND:                -0.043
REMARK SMILES CCCC(=O)[O-]
REMARK SMILES IDX 3 1 4 2 5 3 6 4 2 5 1 6
REMARK H PARENT
REMARK Flexibility Score: inf
ROOT
ATOM      1  C   UNL     1     191.252   3.414  96.785  1.00  0.00     0.052 C 
ENDROOT
BRANCH   1   2
ATOM      2  C   UNL     1     189.827   3.504  97.230  1.00  0.00     0.041 C 
ATOM      3  O   UNL     1     189.554   3.694  98.444  1.00  0.00    -0.550 OA
ATOM      4  O   UNL     1     188.799   3.329  96.312  1.00  0.00    -0.550 OA
ENDBRANCH   1   2
BRANCH   1   5
ATOM      5  C   UNL     1     191.329   3.235  95.266  1.00  0.00     0.003 C 
ATOM      6  C   UNL     1     191.632   4.558  94.569  1.00  0.00     0.004 C 
ENDBRANCH   1   5
TORSDOF 2
ENDMDL
MODEL 6
REMARK VINA RESULT:    -2.670      2.643      3.408
REMARK INTER + INTRA:          -3.025
REMARK INTER:                  -2.988
REMARK INTRA:                  -0.037
REMARK UNBOUND:                -0.043
REMARK SMILES CCCC(=O)[O-]
REMARK SMILES IDX 3 1 4 2 5 3 6 4 2 5 1 6
REMARK H PARENT
REMARK Flexibility Score: inf
ROOT
ATOM      1  C   UNL     1     190.192   4.726  97.974  1.00  0.00     0.052 C 
ENDROOT
BRANCH   1   2
ATOM      2  C   UNL     1     191.466   4.008  98.288  1.00  0.00     0.041 C 
ATOM      3  O   UNL     1     192.387   4.597  98.911  1.00  0.00    -0.550 OA
ATOM      4  O   UNL     1     191.655   2.703  97.852  1.00  0.00    -0.550 OA
ENDBRANCH   1   2
BRANCH   1   5
ATOM      5  C   UNL     1     188.987   3.816  98.227  1.00  0.00     0.003 C 
ATOM      6  C   UNL     1     188.302   3.431  96.919  1.00  0.00     0.004 C 
ENDBRANCH   1   5
TORSDOF 2
ENDMDL
MODEL 7
REMARK VINA RESULT:    -2.600      2.416      3.393
REMARK INTER + INTRA:          -2.947
REMARK INTER:                  -2.877
REMARK INTRA:                  -0.070
REMARK UNBOUND:                -0.043
REMARK SMILES CCCC(=O)[O-]
REMARK SMILES IDX 3 1 4 2 5 3 6 4 2 5 1 6
REMARK H PARENT
REMARK Flexibility Score: inf
ROOT
ATOM      1  C   UNL     1     190.359   3.557  97.898  1.00  0.00     0.052 C 
ENDROOT
BRANCH   1   2
ATOM      2  C   UNL     1     191.691   3.447  98.568  1.00  0.00     0.041 C 
ATOM      3  O   UNL     1     192.386   4.478  98.768  1.00  0.00    -0.550 OA
ATOM      4  O   UNL     1     192.188   2.201  98.928  1.00  0.00    -0.550 OA
ENDBRANCH   1   2
BRANCH   1   5
ATOM      5  C   UNL     1     190.516   4.122  96.484  1.00  0.00     0.003 C 
ATOM      6  C   UNL     1     191.353   3.195  95.609  1.00  0.00     0.004 C 
ENDBRANCH   1   5
TORSDOF 2
ENDMDL
MODEL 8
REMARK VINA RESULT:    -2.542      4.453      5.501
REMARK INTER + INTRA:          -2.882
REMARK INTER:                  -2.874
REMARK INTRA:                  -0.008
REMARK UNBOUND:                -0.043
REMARK SMILES CCCC(=O)[O-]
REMARK SMILES IDX 3 1 4 2 5 3 6 4 2 5 1 6
REMARK H PARENT
REMARK Flexibility Score: inf
ROOT
ATOM      1  C   UNL     1     193.102   2.826 100.141  1.00  0.00     0.052 C 
ENDROOT
BRANCH   1   2
ATOM      2  C   UNL     1     193.186   1.880 101.297  1.00  0.00     0.041 C 
ATOM      3  O   UNL     1     193.567   2.291 102.424  1.00  0.00    -0.550 OA
ATOM      4  O   UNL     1     192.890   0.535 101.118  1.00  0.00    -0.550 OA
ENDBRANCH   1   2
BRANCH   1   5
ATOM      5  C   UNL     1     192.028   2.368  99.151  1.00  0.00     0.003 C 
ATOM      6  C   UNL     1     191.510   3.538  98.320  1.00  0.00     0.004 C 
ENDBRANCH   1   5
TORSDOF 2
ENDMDL
