MODEL 1
REMARK VINA RESULT:    -6.043      0.000      0.000
REMARK INTER + INTRA:          -7.575
REMARK INTER:                  -7.279
REMARK INTRA:                  -0.296
REMARK UNBOUND:                -0.296
REMARK SMILES O=c1c(O)c(-c2ccc(O)cc2O)oc2cc(O)cc(O)c12
REMARK SMILES IDX 5 1 3 2 2 3 1 4 22 5 20 6 19 7 17 8 16 9 15 10 14 11 6 12
REMARK SMILES IDX 8 13 7 14 9 15 11 16 12 17 10 18 13 20 4 22 21 24 18 26
REMARK H PARENT 10 19 13 21 4 23 21 25 18 27
REMARK Flexibility Score: inf
ROOT
ATOM      1  C   UNL     1     157.881   7.415  30.145  1.00  0.00     0.184 A 
ATOM      2  C   UNL     1     157.111   6.240  30.106  1.00  0.00     0.208 A 
ATOM      3  C   UNL     1     157.267   5.293  31.129  1.00  0.00     0.238 A 
ATOM      4  O   UNL     1     156.579   4.237  31.109  1.00  0.00    -0.285 OA
ATOM      5  C   UNL     1     158.194   5.535  32.166  1.00  0.00     0.111 A 
ATOM      6  C   UNL     1     158.415   4.631  33.232  1.00  0.00     0.134 A 
ATOM      7  C   UNL     1     159.358   4.943  34.224  1.00  0.00     0.093 A 
ATOM      8  C   UNL     1     160.082   6.136  34.169  1.00  0.00     0.123 A 
ATOM      9  C   UNL     1     159.868   7.033  33.117  1.00  0.00     0.094 A 
ATOM     10  C   UNL     1     158.932   6.741  32.120  1.00  0.00     0.146 A 
ATOM     11  O   UNL     1     158.747   7.611  31.134  1.00  0.00    -0.451 OA
ENDROOT
BRANCH   1  12
ATOM     12  C   UNL     1     157.746   8.457  29.104  1.00  0.00     0.063 A 
ATOM     13  C   UNL     1     158.665   9.589  27.156  1.00  0.00     0.047 A 
ATOM     14  C   UNL     1     158.789   8.649  28.182  1.00  0.00     0.020 A 
ATOM     15  C   UNL     1     157.497  10.343  27.031  1.00  0.00     0.119 A 
ATOM     16  C   UNL     1     156.449  10.158  27.941  1.00  0.00     0.093 A 
ATOM     17  C   UNL     1     156.566   9.227  28.981  1.00  0.00     0.130 A 
BRANCH  15  18
ATOM     18  O   UNL     1     157.384  11.272  25.999  1.00  0.00    -0.508 OA
ATOM     19  H   UNL     1     158.045  12.033  25.896  1.00  0.00     0.293 HD
ENDBRANCH  15  18
BRANCH  17  20
ATOM     20  O   UNL     1     155.505   9.109  29.883  1.00  0.00    -0.507 OA
ATOM     21  H   UNL     1     154.972   9.903  30.214  1.00  0.00     0.293 HD
ENDBRANCH  17  20
ENDBRANCH   1  12
BRANCH   2  22
ATOM     22  O   UNL     1     156.219   6.021  29.054  1.00  0.00    -0.502 OA
ATOM     23  H   UNL     1     156.117   6.672  28.284  1.00  0.00     0.293 HD
ENDBRANCH   2  22
BRANCH   6  24
ATOM     24  O   UNL     1     157.708   3.431  33.316  1.00  0.00    -0.507 OA
ATOM     25  H   UNL     1     156.710   3.386  33.145  1.00  0.00     0.293 HD
ENDBRANCH   6  24
BRANCH   8  26
ATOM     26  O   UNL     1     161.013   6.420  35.166  1.00  0.00    -0.508 OA
ATOM     27  H   UNL     1     161.495   7.310  35.200  1.00  0.00     0.293 HD
ENDBRANCH   8  26
TORSDOF 6
ENDMDL
MODEL 2
REMARK VINA RESULT:    -5.970      1.969      2.931
REMARK INTER + INTRA:          -7.488
REMARK INTER:                  -7.193
REMARK INTRA:                  -0.295
REMARK UNBOUND:                -0.296
REMARK SMILES O=c1c(O)c(-c2ccc(O)cc2O)oc2cc(O)cc(O)c12
REMARK SMILES IDX 5 1 3 2 2 3 1 4 22 5 20 6 19 7 17 8 16 9 15 10 14 11 6 12
REMARK SMILES IDX 8 13 7 14 9 15 11 16 12 17 10 18 13 20 4 22 21 24 18 26
REMARK H PARENT 10 19 13 21 4 23 21 25 18 27
REMARK Flexibility Score: inf
ROOT
ATOM      1  C   UNL     1     158.803   6.756  31.982  1.00  0.00     0.184 A 
ATOM      2  C   UNL     1     158.349   5.481  32.363  1.00  0.00     0.208 A 
ATOM      3  C   UNL     1     159.210   4.644  33.089  1.00  0.00     0.238 A 
ATOM      4  O   UNL     1     158.813   3.500  33.440  1.00  0.00    -0.285 OA
ATOM      5  C   UNL     1     160.507   5.093  33.414  1.00  0.00     0.111 A 
ATOM      6  C   UNL     1     161.437   4.311  34.140  1.00  0.00     0.134 A 
ATOM      7  C   UNL     1     162.711   4.828  34.420  1.00  0.00     0.093 A 
ATOM      8  C   UNL     1     163.072   6.107  33.990  1.00  0.00     0.123 A 
ATOM      9  C   UNL     1     162.157   6.884  33.272  1.00  0.00     0.094 A 
ATOM     10  C   UNL     1     160.883   6.387  32.983  1.00  0.00     0.146 A 
ATOM     11  O   UNL     1     160.033   7.147  32.302  1.00  0.00    -0.451 OA
ENDROOT
BRANCH   1  12
ATOM     12  C   UNL     1     157.935   7.689  31.232  1.00  0.00     0.063 A 
ATOM     13  C   UNL     1     157.364   8.769  29.127  1.00  0.00     0.047 A 
ATOM     14  C   UNL     1     158.200   7.935  29.873  1.00  0.00     0.020 A 
ATOM     15  C   UNL     1     156.249   9.361  29.723  1.00  0.00     0.119 A 
ATOM     16  C   UNL     1     155.973   9.121  31.075  1.00  0.00     0.093 A 
ATOM     17  C   UNL     1     156.810   8.296  31.837  1.00  0.00     0.130 A 
BRANCH  15  18
ATOM     18  O   UNL     1     155.421  10.187  28.965  1.00  0.00    -0.508 OA
ATOM     19  H   UNL     1     154.557  10.559  29.340  1.00  0.00     0.293 HD
ENDBRANCH  15  18
BRANCH  17  20
ATOM     20  O   UNL     1     156.508   8.119  33.189  1.00  0.00    -0.507 OA
ATOM     21  H   UNL     1     155.933   8.765  33.715  1.00  0.00     0.293 HD
ENDBRANCH  17  20
ENDBRANCH   1  12
BRANCH   2  22
ATOM     22  O   UNL     1     157.067   5.059  32.006  1.00  0.00    -0.502 OA
ATOM     23  H   UNL     1     156.748   4.108  32.153  1.00  0.00     0.293 HD
ENDBRANCH   2  22
BRANCH   6  24
ATOM     24  O   UNL     1     161.107   3.030  34.583  1.00  0.00    -0.507 OA
ATOM     25  H   UNL     1     161.498   2.199  34.153  1.00  0.00     0.293 HD
ENDBRANCH   6  24
BRANCH   8  26
ATOM     26  O   UNL     1     164.344   6.595  34.280  1.00  0.00    -0.508 OA
ATOM     27  H   UNL     1     164.535   7.590  34.308  1.00  0.00     0.293 HD
ENDBRANCH   8  26
TORSDOF 6
ENDMDL
MODEL 3
REMARK VINA RESULT:    -5.892      2.041      6.597
REMARK INTER + INTRA:          -7.393
REMARK INTER:                  -6.988
REMARK INTRA:                  -0.405
REMARK UNBOUND:                -0.296
REMARK SMILES O=c1c(O)c(-c2ccc(O)cc2O)oc2cc(O)cc(O)c12
REMARK SMILES IDX 5 1 3 2 2 3 1 4 22 5 20 6 19 7 17 8 16 9 15 10 14 11 6 12
REMARK SMILES IDX 8 13 7 14 9 15 11 16 12 17 10 18 13 20 4 22 21 24 18 26
REMARK H PARENT 10 19 13 21 4 23 21 25 18 27
REMARK Flexibility Score: inf
ROOT
ATOM      1  C   UNL     1     159.058   7.073  32.291  1.00  0.00     0.184 A 
ATOM      2  C   UNL     1     157.992   7.333  33.170  1.00  0.00     0.208 A 
ATOM      3  C   UNL     1     156.862   8.007  32.684  1.00  0.00     0.238 A 
ATOM      4  O   UNL     1     155.898   8.243  33.461  1.00  0.00    -0.285 OA
ATOM      5  C   UNL     1     156.821   8.415  31.333  1.00  0.00     0.111 A 
ATOM      6  C   UNL     1     155.722   9.101  30.766  1.00  0.00     0.134 A 
ATOM      7  C   UNL     1     155.759   9.476  29.414  1.00  0.00     0.093 A 
ATOM      8  C   UNL     1     156.871   9.179  28.622  1.00  0.00     0.123 A 
ATOM      9  C   UNL     1     157.960   8.500  29.178  1.00  0.00     0.094 A 
ATOM     10  C   UNL     1     157.942   8.118  30.523  1.00  0.00     0.146 A 
ATOM     11  O   UNL     1     158.989   7.472  31.025  1.00  0.00    -0.451 OA
ENDROOT
BRANCH   1  12
ATOM     12  C   UNL     1     160.267   6.350  32.741  1.00  0.00     0.063 A 
ATOM     13  C   UNL     1     162.491   6.419  33.725  1.00  0.00     0.047 A 
ATOM     14  C   UNL     1     161.359   7.079  33.242  1.00  0.00     0.020 A 
ATOM     15  C   UNL     1     162.547   5.024  33.721  1.00  0.00     0.119 A 
ATOM     16  C   UNL     1     161.464   4.287  33.227  1.00  0.00     0.093 A 
ATOM     17  C   UNL     1     160.327   4.937  32.730  1.00  0.00     0.130 A 
BRANCH  15  18
ATOM     18  O   UNL     1     163.681   4.379  34.211  1.00  0.00    -0.508 OA
ATOM     19  H   UNL     1     163.855   4.295  35.205  1.00  0.00     0.293 HD
ENDBRANCH  15  18
BRANCH  17  20
ATOM     20  O   UNL     1     159.291   4.153  32.217  1.00  0.00    -0.507 OA
ATOM     21  H   UNL     1     158.494   4.543  31.729  1.00  0.00     0.293 HD
ENDBRANCH  17  20
ENDBRANCH   1  12
BRANCH   2  22
ATOM     22  O   UNL     1     158.074   6.937  34.507  1.00  0.00    -0.502 OA
ATOM     23  H   UNL     1     158.482   6.053  34.786  1.00  0.00     0.293 HD
ENDBRANCH   2  22
BRANCH   6  24
ATOM     24  O   UNL     1     154.597   9.414  31.529  1.00  0.00    -0.507 OA
ATOM     25  H   UNL     1     154.100   8.708  32.061  1.00  0.00     0.293 HD
ENDBRANCH   6  24
BRANCH   8  26
ATOM     26  O   UNL     1     156.883   9.564  27.283  1.00  0.00    -0.508 OA
ATOM     27  H   UNL     1     156.026   9.775  26.786  1.00  0.00     0.293 HD
ENDBRANCH   8  26
TORSDOF 6
ENDMDL
MODEL 4
REMARK VINA RESULT:    -5.754      1.497      6.692
REMARK INTER + INTRA:          -7.227
REMARK INTER:                  -6.844
REMARK INTRA:                  -0.383
REMARK UNBOUND:                -0.296
REMARK SMILES O=c1c(O)c(-c2ccc(O)cc2O)oc2cc(O)cc(O)c12
REMARK SMILES IDX 5 1 3 2 2 3 1 4 22 5 20 6 19 7 17 8 16 9 15 10 14 11 6 12
REMARK SMILES IDX 8 13 7 14 9 15 11 16 12 17 10 18 13 20 4 22 21 24 18 26
REMARK H PARENT 10 19 13 21 4 23 21 25 18 27
REMARK Flexibility Score: inf
ROOT
ATOM      1  C   UNL     1     158.237   7.284  31.696  1.00  0.00     0.184 A 
ATOM      2  C   UNL     1     156.975   7.817  32.010  1.00  0.00     0.208 A 
ATOM      3  C   UNL     1     156.349   8.666  31.085  1.00  0.00     0.238 A 
ATOM      4  O   UNL     1     155.215   9.148  31.353  1.00  0.00    -0.285 OA
ATOM      5  C   UNL     1     156.998   8.971  29.870  1.00  0.00     0.111 A 
ATOM      6  C   UNL     1     156.437   9.820  28.886  1.00  0.00     0.134 A 
ATOM      7  C   UNL     1     157.148  10.077  27.703  1.00  0.00     0.093 A 
ATOM      8  C   UNL     1     158.403   9.504  27.487  1.00  0.00     0.123 A 
ATOM      9  C   UNL     1     158.962   8.665  28.456  1.00  0.00     0.094 A 
ATOM     10  C   UNL     1     158.270   8.396  29.640  1.00  0.00     0.146 A 
ATOM     11  O   UNL     1     158.822   7.593  30.543  1.00  0.00    -0.451 OA
ENDROOT
BRANCH   1  12
ATOM     12  C   UNL     1     158.937   6.369  32.624  1.00  0.00     0.063 A 
ATOM     13  C   UNL     1     160.332   6.064  34.594  1.00  0.00     0.047 A 
ATOM     14  C   UNL     1     159.705   6.905  33.672  1.00  0.00     0.020 A 
ATOM     15  C   UNL     1     160.195   4.679  34.488  1.00  0.00     0.119 A 
ATOM     16  C   UNL     1     159.430   4.133  33.450  1.00  0.00     0.093 A 
ATOM     17  C   UNL     1     158.806   4.965  32.512  1.00  0.00     0.130 A 
BRANCH  15  18
ATOM     18  O   UNL     1     160.822   3.852  35.419  1.00  0.00    -0.508 OA
ATOM     19  H   UNL     1     161.222   4.222  36.272  1.00  0.00     0.293 HD
ENDBRANCH  15  18
BRANCH  17  20
ATOM     20  O   UNL     1     158.085   4.366  31.476  1.00  0.00    -0.507 OA
ATOM     21  H   UNL     1     157.107   4.119  31.556  1.00  0.00     0.293 HD
ENDBRANCH  17  20
ENDBRANCH   1  12
BRANCH   2  22
ATOM     22  O   UNL     1     156.370   7.514  33.232  1.00  0.00    -0.502 OA
ATOM     23  H   UNL     1     156.675   6.740  33.811  1.00  0.00     0.293 HD
ENDBRANCH   2  22
BRANCH   6  24
ATOM     24  O   UNL     1     155.186  10.407  29.072  1.00  0.00    -0.507 OA
ATOM     25  H   UNL     1     154.372  10.108  28.546  1.00  0.00     0.293 HD
ENDBRANCH   6  24
BRANCH   8  26
ATOM     26  O   UNL     1     159.088   9.778  26.305  1.00  0.00    -0.508 OA
ATOM     27  H   UNL     1     158.600   9.884  25.424  1.00  0.00     0.293 HD
ENDBRANCH   8  26
TORSDOF 6
ENDMDL
MODEL 5
REMARK VINA RESULT:    -5.697      6.040      9.491
REMARK INTER + INTRA:          -7.159
REMARK INTER:                  -6.755
REMARK INTRA:                  -0.403
REMARK UNBOUND:                -0.296
REMARK SMILES O=c1c(O)c(-c2ccc(O)cc2O)oc2cc(O)cc(O)c12
REMARK SMILES IDX 5 1 3 2 2 3 1 4 22 5 20 6 19 7 17 8 16 9 15 10 14 11 6 12
REMARK SMILES IDX 8 13 7 14 9 15 11 16 12 17 10 18 13 20 4 22 21 24 18 26
REMARK H PARENT 10 19 13 21 4 23 21 25 18 27
REMARK Flexibility Score: inf
ROOT
ATOM      1  C   UNL     1     164.256   4.390  35.291  1.00  0.00     0.184 A 
ATOM      2  C   UNL     1     164.262   4.673  36.668  1.00  0.00     0.208 A 
ATOM      3  C   UNL     1     165.426   4.417  37.407  1.00  0.00     0.238 A 
ATOM      4  O   UNL     1     165.445   4.671  38.643  1.00  0.00    -0.285 OA
ATOM      5  C   UNL     1     166.557   3.876  36.761  1.00  0.00     0.111 A 
ATOM      6  C   UNL     1     167.768   3.585  37.434  1.00  0.00     0.134 A 
ATOM      7  C   UNL     1     168.848   3.044  36.719  1.00  0.00     0.093 A 
ATOM      8  C   UNL     1     168.740   2.789  35.350  1.00  0.00     0.123 A 
ATOM      9  C   UNL     1     167.547   3.074  34.680  1.00  0.00     0.094 A 
ATOM     10  C   UNL     1     166.460   3.614  35.374  1.00  0.00     0.146 A 
ATOM     11  O   UNL     1     165.338   3.878  34.712  1.00  0.00    -0.451 OA
ENDROOT
BRANCH   1  12
ATOM     12  C   UNL     1     163.065   4.656  34.456  1.00  0.00     0.063 A 
ATOM     13  C   UNL     1     160.922   3.905  33.582  1.00  0.00     0.047 A 
ATOM     14  C   UNL     1     162.082   3.660  34.320  1.00  0.00     0.020 A 
ATOM     15  C   UNL     1     160.722   5.148  32.978  1.00  0.00     0.119 A 
ATOM     16  C   UNL     1     161.693   6.149  33.109  1.00  0.00     0.093 A 
ATOM     17  C   UNL     1     162.866   5.912  33.836  1.00  0.00     0.130 A 
BRANCH  15  18
ATOM     18  O   UNL     1     159.557   5.380  32.250  1.00  0.00    -0.508 OA
ATOM     19  H   UNL     1     159.395   6.259  31.775  1.00  0.00     0.293 HD
ENDBRANCH  15  18
BRANCH  17  20
ATOM     20  O   UNL     1     163.816   6.933  33.905  1.00  0.00    -0.507 OA
ATOM     21  H   UNL     1     163.810   7.735  33.288  1.00  0.00     0.293 HD
ENDBRANCH  17  20
ENDBRANCH   1  12
BRANCH   2  22
ATOM     22  O   UNL     1     163.118   5.188  37.282  1.00  0.00    -0.502 OA
ATOM     23  H   UNL     1     162.838   6.156  37.183  1.00  0.00     0.293 HD
ENDBRANCH   2  22
BRANCH   6  24
ATOM     24  O   UNL     1     167.907   3.828  38.800  1.00  0.00    -0.507 OA
ATOM     25  H   UNL     1     167.361   3.324  39.490  1.00  0.00     0.293 HD
ENDBRANCH   6  24
BRANCH   8  26
ATOM     26  O   UNL     1     169.828   2.250  34.665  1.00  0.00    -0.508 OA
ATOM     27  H   UNL     1     169.706   1.532  33.961  1.00  0.00     0.293 HD
ENDBRANCH   8  26
TORSDOF 6
ENDMDL
MODEL 6
REMARK VINA RESULT:    -5.672      1.770      2.748
REMARK INTER + INTRA:          -7.129
REMARK INTER:                  -6.725
REMARK INTRA:                  -0.404
REMARK UNBOUND:                -0.296
REMARK SMILES O=c1c(O)c(-c2ccc(O)cc2O)oc2cc(O)cc(O)c12
REMARK SMILES IDX 5 1 3 2 2 3 1 4 22 5 20 6 19 7 17 8 16 9 15 10 14 11 6 12
REMARK SMILES IDX 8 13 7 14 9 15 11 16 12 17 10 18 13 20 4 22 21 24 18 26
REMARK H PARENT 10 19 13 21 4 23 21 25 18 27
REMARK Flexibility Score: inf
ROOT
ATOM      1  C   UNL     1     158.143   6.938  31.668  1.00  0.00     0.184 A 
ATOM      2  C   UNL     1     157.514   6.104  32.608  1.00  0.00     0.208 A 
ATOM      3  C   UNL     1     158.276   5.574  33.661  1.00  0.00     0.238 A 
ATOM      4  O   UNL     1     157.722   4.828  34.513  1.00  0.00    -0.285 OA
ATOM      5  C   UNL     1     159.650   5.882  33.750  1.00  0.00     0.111 A 
ATOM      6  C   UNL     1     160.488   5.387  34.777  1.00  0.00     0.134 A 
ATOM      7  C   UNL     1     161.848   5.736  34.794  1.00  0.00     0.093 A 
ATOM      8  C   UNL     1     162.382   6.567  33.806  1.00  0.00     0.123 A 
ATOM      9  C   UNL     1     161.558   7.059  32.789  1.00  0.00     0.094 A 
ATOM     10  C   UNL     1     160.201   6.723  32.755  1.00  0.00     0.146 A 
ATOM     11  O   UNL     1     159.441   7.206  31.779  1.00  0.00    -0.451 OA
ENDROOT
BRANCH   1  12
ATOM     12  C   UNL     1     157.389   7.540  30.548  1.00  0.00     0.063 A 
ATOM     13  C   UNL     1     156.245   9.469  29.603  1.00  0.00     0.047 A 
ATOM     14  C   UNL     1     156.913   8.857  30.667  1.00  0.00     0.020 A 
ATOM     15  C   UNL     1     156.050   8.778  28.406  1.00  0.00     0.119 A 
ATOM     16  C   UNL     1     156.522   7.467  28.274  1.00  0.00     0.093 A 
ATOM     17  C   UNL     1     157.183   6.838  29.337  1.00  0.00     0.130 A 
BRANCH  15  18
ATOM     18  O   UNL     1     155.386   9.403  27.351  1.00  0.00    -0.508 OA
ATOM     19  H   UNL     1     155.876   9.687  26.512  1.00  0.00     0.293 HD
ENDBRANCH  15  18
BRANCH  17  20
ATOM     20  O   UNL     1     157.602   5.517  29.164  1.00  0.00    -0.507 OA
ATOM     21  H   UNL     1     157.053   4.721  29.462  1.00  0.00     0.293 HD
ENDBRANCH  17  20
ENDBRANCH   1  12
BRANCH   2  22
ATOM     22  O   UNL     1     156.157   5.800  32.479  1.00  0.00    -0.502 OA
ATOM     23  H   UNL     1     155.620   6.057  31.659  1.00  0.00     0.293 HD
ENDBRANCH   2  22
BRANCH   6  24
ATOM     24  O   UNL     1     159.985   4.555  35.777  1.00  0.00    -0.507 OA
ATOM     25  H   UNL     1     159.799   3.572  35.610  1.00  0.00     0.293 HD
ENDBRANCH   6  24
BRANCH   8  26
ATOM     26  O   UNL     1     163.735   6.897  33.846  1.00  0.00    -0.508 OA
ATOM     27  H   UNL     1     164.190   7.162  34.711  1.00  0.00     0.293 HD
ENDBRANCH   8  26
TORSDOF 6
ENDMDL
MODEL 7
REMARK VINA RESULT:    -5.392      1.591      6.671
REMARK INTER + INTRA:          -6.792
REMARK INTER:                  -6.396
REMARK INTRA:                  -0.395
REMARK UNBOUND:                -0.296
REMARK SMILES O=c1c(O)c(-c2ccc(O)cc2O)oc2cc(O)cc(O)c12
REMARK SMILES IDX 5 1 3 2 2 3 1 4 22 5 20 6 19 7 17 8 16 9 15 10 14 11 6 12
REMARK SMILES IDX 8 13 7 14 9 15 11 16 12 17 10 18 13 20 4 22 21 24 18 26
REMARK H PARENT 10 19 13 21 4 23 21 25 18 27
REMARK Flexibility Score: inf
ROOT
ATOM      1  C   UNL     1     157.847   6.773  31.401  1.00  0.00     0.184 A 
ATOM      2  C   UNL     1     156.631   7.381  31.758  1.00  0.00     0.208 A 
ATOM      3  C   UNL     1     156.117   8.399  30.941  1.00  0.00     0.238 A 
ATOM      4  O   UNL     1     155.024   8.949  31.248  1.00  0.00    -0.285 OA
ATOM      5  C   UNL     1     156.829   8.794  29.789  1.00  0.00     0.111 A 
ATOM      6  C   UNL     1     156.382   9.813  28.914  1.00  0.00     0.134 A 
ATOM      7  C   UNL     1     157.152  10.151  27.790  1.00  0.00     0.093 A 
ATOM      8  C   UNL     1     158.355   9.493  27.525  1.00  0.00     0.123 A 
ATOM      9  C   UNL     1     158.801   8.485  28.386  1.00  0.00     0.094 A 
ATOM     10  C   UNL     1     158.049   8.133  29.511  1.00  0.00     0.146 A 
ATOM     11  O   UNL     1     158.495   7.170  30.310  1.00  0.00    -0.451 OA
ENDROOT
BRANCH   1  12
ATOM     12  C   UNL     1     158.429   5.683  32.213  1.00  0.00     0.063 A 
ATOM     13  C   UNL     1     158.491   3.320  32.792  1.00  0.00     0.047 A 
ATOM     14  C   UNL     1     157.923   4.378  32.078  1.00  0.00     0.020 A 
ATOM     15  C   UNL     1     159.573   3.547  33.644  1.00  0.00     0.119 A 
ATOM     16  C   UNL     1     160.087   4.842  33.784  1.00  0.00     0.093 A 
ATOM     17  C   UNL     1     159.520   5.913  33.083  1.00  0.00     0.130 A 
BRANCH  15  18
ATOM     18  O   UNL     1     160.133   2.481  34.346  1.00  0.00    -0.508 OA
ATOM     19  H   UNL     1     159.577   1.907  34.967  1.00  0.00     0.293 HD
ENDBRANCH  15  18
BRANCH  17  20
ATOM     20  O   UNL     1     160.049   7.190  33.287  1.00  0.00    -0.507 OA
ATOM     21  H   UNL     1     161.013   7.426  33.088  1.00  0.00     0.293 HD
ENDBRANCH  17  20
ENDBRANCH   1  12
BRANCH   2  22
ATOM     22  O   UNL     1     155.961   6.982  32.917  1.00  0.00    -0.502 OA
ATOM     23  H   UNL     1     156.450   6.634  33.733  1.00  0.00     0.293 HD
ENDBRANCH   2  22
BRANCH   6  24
ATOM     24  O   UNL     1     155.186  10.490  29.151  1.00  0.00    -0.507 OA
ATOM     25  H   UNL     1     154.736  11.047  28.433  1.00  0.00     0.293 HD
ENDBRANCH   6  24
BRANCH   8  26
ATOM     26  O   UNL     1     159.099   9.849  26.403  1.00  0.00    -0.508 OA
ATOM     27  H   UNL     1     158.772   9.648  25.465  1.00  0.00     0.293 HD
ENDBRANCH   8  26
TORSDOF 6
ENDMDL
MODEL 8
REMARK VINA RESULT:    -5.384      2.135      2.186
REMARK INTER + INTRA:          -6.782
REMARK INTER:                  -6.524
REMARK INTRA:                  -0.258
REMARK UNBOUND:                -0.296
REMARK SMILES O=c1c(O)c(-c2ccc(O)cc2O)oc2cc(O)cc(O)c12
REMARK SMILES IDX 5 1 3 2 2 3 1 4 22 5 20 6 19 7 17 8 16 9 15 10 14 11 6 12
REMARK SMILES IDX 8 13 7 14 9 15 11 16 12 17 10 18 13 20 4 22 21 24 18 26
REMARK H PARENT 10 19 13 21 4 23 21 25 18 27
REMARK Flexibility Score: inf
ROOT
ATOM      1  C   UNL     1     156.658   7.843  30.526  1.00  0.00     0.184 A 
ATOM      2  C   UNL     1     155.442   7.142  30.460  1.00  0.00     0.208 A 
ATOM      3  C   UNL     1     154.996   6.451  31.597  1.00  0.00     0.238 A 
ATOM      4  O   UNL     1     153.904   5.822  31.552  1.00  0.00    -0.285 OA
ATOM      5  C   UNL     1     155.776   6.467  32.773  1.00  0.00     0.111 A 
ATOM      6  C   UNL     1     155.400   5.794  33.960  1.00  0.00     0.134 A 
ATOM      7  C   UNL     1     156.234   5.855  35.087  1.00  0.00     0.093 A 
ATOM      8  C   UNL     1     157.432   6.573  35.050  1.00  0.00     0.123 A 
ATOM      9  C   UNL     1     157.808   7.240  33.879  1.00  0.00     0.094 A 
ATOM     10  C   UNL     1     156.991   7.192  32.746  1.00  0.00     0.146 A 
ATOM     11  O   UNL     1     157.371   7.836  31.648  1.00  0.00    -0.451 OA
ENDROOT
BRANCH   1  12
ATOM     12  C   UNL     1     157.170   8.605  29.366  1.00  0.00     0.063 A 
ATOM     13  C   UNL     1     158.839   8.864  27.615  1.00  0.00     0.047 A 
ATOM     14  C   UNL     1     158.362   8.196  28.745  1.00  0.00     0.020 A 
ATOM     15  C   UNL     1     158.129   9.944  27.085  1.00  0.00     0.119 A 
ATOM     16  C   UNL     1     156.939  10.359  27.694  1.00  0.00     0.093 A 
ATOM     17  C   UNL     1     156.456   9.705  28.834  1.00  0.00     0.130 A 
BRANCH  15  18
ATOM     18  O   UNL     1     158.614  10.598  25.954  1.00  0.00    -0.508 OA
ATOM     19  H   UNL     1     158.653  10.138  25.053  1.00  0.00     0.293 HD
ENDBRANCH  15  18
BRANCH  17  20
ATOM     20  O   UNL     1     155.282  10.183  29.422  1.00  0.00    -0.507 OA
ATOM     21  H   UNL     1     154.359   9.943  29.084  1.00  0.00     0.293 HD
ENDBRANCH  17  20
ENDBRANCH   1  12
BRANCH   2  22
ATOM     22  O   UNL     1     154.704   7.128  29.274  1.00  0.00    -0.502 OA
ATOM     23  H   UNL     1     154.906   7.753  28.503  1.00  0.00     0.293 HD
ENDBRANCH   2  22
BRANCH   6  24
ATOM     24  O   UNL     1     154.211   5.068  34.029  1.00  0.00    -0.507 OA
ATOM     25  H   UNL     1     153.806   4.628  33.210  1.00  0.00     0.293 HD
ENDBRANCH   6  24
BRANCH   8  26
ATOM     26  O   UNL     1     158.241   6.616  36.183  1.00  0.00    -0.508 OA
ATOM     27  H   UNL     1     157.943   7.089  37.028  1.00  0.00     0.293 HD
ENDBRANCH   8  26
TORSDOF 6
ENDMDL
MODEL 9
REMARK VINA RESULT:    -4.924      3.486      6.261
REMARK INTER + INTRA:          -6.227
REMARK INTER:                  -5.898
REMARK INTRA:                  -0.329
REMARK UNBOUND:                -0.296
REMARK SMILES O=c1c(O)c(-c2ccc(O)cc2O)oc2cc(O)cc(O)c12
REMARK SMILES IDX 5 1 3 2 2 3 1 4 22 5 20 6 19 7 17 8 16 9 15 10 14 11 6 12
REMARK SMILES IDX 8 13 7 14 9 15 11 16 12 17 10 18 13 20 4 22 21 24 18 26
REMARK H PARENT 10 19 13 21 4 23 21 25 18 27
REMARK Flexibility Score: inf
ROOT
ATOM      1  C   UNL     1     156.046   7.999  32.065  1.00  0.00     0.184 A 
ATOM      2  C   UNL     1     155.916   6.680  31.595  1.00  0.00     0.208 A 
ATOM      3  C   UNL     1     156.386   6.369  30.311  1.00  0.00     0.238 A 
ATOM      4  O   UNL     1     156.279   5.189  29.879  1.00  0.00    -0.285 OA
ATOM      5  C   UNL     1     156.969   7.381  29.518  1.00  0.00     0.111 A 
ATOM      6  C   UNL     1     157.465   7.152  28.213  1.00  0.00     0.134 A 
ATOM      7  C   UNL     1     158.027   8.213  27.487  1.00  0.00     0.093 A 
ATOM      8  C   UNL     1     158.104   9.493  28.039  1.00  0.00     0.123 A 
ATOM      9  C   UNL     1     157.616   9.725  29.329  1.00  0.00     0.094 A 
ATOM     10  C   UNL     1     157.052   8.682  30.069  1.00  0.00     0.146 A 
ATOM     11  O   UNL     1     156.598   8.929  31.293  1.00  0.00    -0.451 OA
ENDROOT
BRANCH   1  12
ATOM     12  C   UNL     1     155.586   8.382  33.417  1.00  0.00     0.063 A 
ATOM     13  C   UNL     1     153.882   9.391  34.831  1.00  0.00     0.047 A 
ATOM     14  C   UNL     1     154.366   9.066  33.562  1.00  0.00     0.020 A 
ATOM     15  C   UNL     1     154.602   9.032  35.972  1.00  0.00     0.119 A 
ATOM     16  C   UNL     1     155.817   8.348  35.840  1.00  0.00     0.093 A 
ATOM     17  C   UNL     1     156.319   8.026  34.573  1.00  0.00     0.130 A 
BRANCH  15  18
ATOM     18  O   UNL     1     154.104   9.359  37.232  1.00  0.00    -0.508 OA
ATOM     19  H   UNL     1     153.412  10.087  37.355  1.00  0.00     0.293 HD
ENDBRANCH  15  18
BRANCH  17  20
ATOM     20  O   UNL     1     157.552   7.374  34.499  1.00  0.00    -0.507 OA
ATOM     21  H   UNL     1     158.281   7.491  35.192  1.00  0.00     0.293 HD
ENDBRANCH  17  20
ENDBRANCH   1  12
BRANCH   2  22
ATOM     22  O   UNL     1     155.313   5.707  32.396  1.00  0.00    -0.502 OA
ATOM     23  H   UNL     1     155.677   5.453  33.306  1.00  0.00     0.293 HD
ENDBRANCH   2  22
BRANCH   6  24
ATOM     24  O   UNL     1     157.403   5.885  27.633  1.00  0.00    -0.507 OA
ATOM     25  H   UNL     1     158.238   5.343  27.444  1.00  0.00     0.293 HD
ENDBRANCH   6  24
BRANCH   8  26
ATOM     26  O   UNL     1     158.667  10.529  27.296  1.00  0.00    -0.508 OA
ATOM     27  H   UNL     1     159.652  10.536  27.061  1.00  0.00     0.293 HD
ENDBRANCH   8  26
TORSDOF 6
ENDMDL
