MODEL 1
REMARK VINA RESULT:    -6.825      0.000      0.000
REMARK INTER + INTRA:          -8.508
REMARK INTER:                  -8.221
REMARK INTRA:                  -0.287
REMARK UNBOUND:                -0.287
REMARK SMILES O=c1c(O)c(-c2ccc(O)c(O)c2)oc2cc(O)cc(O)c12
REMARK SMILES IDX 5 1 3 2 2 3 1 4 22 5 20 6 19 7 17 8 16 9 15 10 14 11 6 12
REMARK SMILES IDX 7 13 8 14 9 15 13 16 11 17 10 18 12 20 4 22 21 24 18 26
REMARK H PARENT 10 19 12 21 4 23 21 25 18 27
REMARK Flexibility Score: inf
ROOT
ATOM      1  C   UNL     1      27.741  -8.787  43.515  1.00  0.00     0.180 A 
ATOM      2  C   UNL     1      27.568  -8.023  44.683  1.00  0.00     0.208 A 
ATOM      3  C   UNL     1      26.632  -6.977  44.679  1.00  0.00     0.238 A 
ATOM      4  O   UNL     1      26.520  -6.262  45.709  1.00  0.00    -0.285 OA
ATOM      5  C   UNL     1      25.867  -6.719  43.516  1.00  0.00     0.111 A 
ATOM      6  C   UNL     1      24.862  -5.711  43.413  1.00  0.00     0.134 A 
ATOM      7  C   UNL     1      24.261  -5.459  42.174  1.00  0.00     0.093 A 
ATOM      8  C   UNL     1      24.581  -6.219  41.050  1.00  0.00     0.123 A 
ATOM      9  C   UNL     1      25.519  -7.247  41.153  1.00  0.00     0.094 A 
ATOM     10  C   UNL     1      26.162  -7.499  42.368  1.00  0.00     0.146 A 
ATOM     11  O   UNL     1      27.056  -8.478  42.420  1.00  0.00    -0.452 OA
ENDROOT
BRANCH   1  12
ATOM     12  C   UNL     1      28.691  -9.921  43.450  1.00  0.00     0.025 A 
ATOM     13  C   UNL     1      28.214 -11.231  43.611  1.00  0.00     0.016 A 
ATOM     14  C   UNL     1      29.095 -12.316  43.573  1.00  0.00     0.051 A 
ATOM     15  C   UNL     1      30.467 -12.104  43.391  1.00  0.00     0.157 A 
ATOM     16  C   UNL     1      30.072  -9.712  43.289  1.00  0.00     0.062 A 
ATOM     17  C   UNL     1      30.958 -10.795  43.254  1.00  0.00     0.158 A 
BRANCH  15  18
ATOM     18  O   UNL     1      31.344 -13.187  43.353  1.00  0.00    -0.504 OA
ATOM     19  H   UNL     1      31.856 -13.426  42.511  1.00  0.00     0.293 HD
ENDBRANCH  15  18
BRANCH  17  20
ATOM     20  O   UNL     1      32.320 -10.551  43.085  1.00  0.00    -0.504 OA
ATOM     21  H   UNL     1      32.719  -9.626  43.197  1.00  0.00     0.293 HD
ENDBRANCH  17  20
ENDBRANCH   1  12
BRANCH   2  22
ATOM     22  O   UNL     1      28.349  -8.281  45.813  1.00  0.00    -0.502 OA
ATOM     23  H   UNL     1      28.837  -9.159  45.948  1.00  0.00     0.293 HD
ENDBRANCH   2  22
BRANCH   6  24
ATOM     24  O   UNL     1      24.401  -4.955  44.495  1.00  0.00    -0.507 OA
ATOM     25  H   UNL     1      24.957  -4.288  45.008  1.00  0.00     0.293 HD
ENDBRANCH   6  24
BRANCH   8  26
ATOM     26  O   UNL     1      23.951  -5.950  39.836  1.00  0.00    -0.508 OA
ATOM     27  H   UNL     1      23.019  -6.294  39.636  1.00  0.00     0.293 HD
ENDBRANCH   8  26
TORSDOF 6
ENDMDL
MODEL 2
REMARK VINA RESULT:    -6.707      1.667      3.246
REMARK INTER + INTRA:          -8.366
REMARK INTER:                  -8.049
REMARK INTRA:                  -0.317
REMARK UNBOUND:                -0.287
REMARK SMILES O=c1c(O)c(-c2ccc(O)c(O)c2)oc2cc(O)cc(O)c12
REMARK SMILES IDX 5 1 3 2 2 3 1 4 22 5 20 6 19 7 17 8 16 9 15 10 14 11 6 12
REMARK SMILES IDX 7 13 8 14 9 15 13 16 11 17 10 18 12 20 4 22 21 24 18 26
REMARK H PARENT 10 19 12 21 4 23 21 25 18 27
REMARK Flexibility Score: inf
ROOT
ATOM      1  C   UNL     1      27.769  -7.922  43.547  1.00  0.00     0.180 A 
ATOM      2  C   UNL     1      27.197  -7.353  42.397  1.00  0.00     0.208 A 
ATOM      3  C   UNL     1      26.513  -6.132  42.510  1.00  0.00     0.238 A 
ATOM      4  O   UNL     1      25.955  -5.654  41.488  1.00  0.00    -0.285 OA
ATOM      5  C   UNL     1      26.425  -5.487  43.767  1.00  0.00     0.111 A 
ATOM      6  C   UNL     1      25.791  -4.228  43.990  1.00  0.00     0.134 A 
ATOM      7  C   UNL     1      25.650  -3.748  45.298  1.00  0.00     0.093 A 
ATOM      8  C   UNL     1      26.175  -4.448  46.383  1.00  0.00     0.123 A 
ATOM      9  C   UNL     1      26.849  -5.651  46.171  1.00  0.00     0.094 A 
ATOM     10  C   UNL     1      26.974  -6.174  44.881  1.00  0.00     0.146 A 
ATOM     11  O   UNL     1      27.613  -7.326  44.724  1.00  0.00    -0.452 OA
ENDROOT
BRANCH   1  12
ATOM     12  C   UNL     1      28.527  -9.195  43.503  1.00  0.00     0.025 A 
ATOM     13  C   UNL     1      27.839 -10.412  43.627  1.00  0.00     0.016 A 
ATOM     14  C   UNL     1      28.535 -11.623  43.608  1.00  0.00     0.051 A 
ATOM     15  C   UNL     1      29.930 -11.635  43.482  1.00  0.00     0.157 A 
ATOM     16  C   UNL     1      29.928  -9.209  43.397  1.00  0.00     0.062 A 
ATOM     17  C   UNL     1      30.630 -10.420  43.381  1.00  0.00     0.158 A 
BRANCH  15  18
ATOM     18  O   UNL     1      30.623 -12.844  43.462  1.00  0.00    -0.504 OA
ATOM     19  H   UNL     1      31.503 -12.960  43.950  1.00  0.00     0.293 HD
ENDBRANCH  15  18
BRANCH  17  20
ATOM     20  O   UNL     1      32.020 -10.397  43.268  1.00  0.00    -0.504 OA
ATOM     21  H   UNL     1      32.609  -9.965  43.969  1.00  0.00     0.293 HD
ENDBRANCH  17  20
ENDBRANCH   1  12
BRANCH   2  22
ATOM     22  O   UNL     1      27.276  -8.018  41.170  1.00  0.00    -0.502 OA
ATOM     23  H   UNL     1      28.039  -8.643  40.938  1.00  0.00     0.293 HD
ENDBRANCH   2  22
BRANCH   6  24
ATOM     24  O   UNL     1      25.312  -3.404  42.967  1.00  0.00    -0.507 OA
ATOM     25  H   UNL     1      25.738  -2.534  42.683  1.00  0.00     0.293 HD
ENDBRANCH   6  24
BRANCH   8  26
ATOM     26  O   UNL     1      26.030  -3.932  47.669  1.00  0.00    -0.508 OA
ATOM     27  H   UNL     1      26.834  -3.710  48.245  1.00  0.00     0.293 HD
ENDBRANCH   8  26
TORSDOF 6
ENDMDL
MODEL 3
REMARK VINA RESULT:    -6.694      1.804      6.982
REMARK INTER + INTRA:          -8.350
REMARK INTER:                  -8.110
REMARK INTRA:                  -0.240
REMARK UNBOUND:                -0.287
REMARK SMILES O=c1c(O)c(-c2ccc(O)c(O)c2)oc2cc(O)cc(O)c12
REMARK SMILES IDX 5 1 3 2 2 3 1 4 22 5 20 6 19 7 17 8 16 9 15 10 14 11 6 12
REMARK SMILES IDX 7 13 8 14 9 15 13 16 11 17 10 18 12 20 4 22 21 24 18 26
REMARK H PARENT 10 19 12 21 4 23 21 25 18 27
REMARK Flexibility Score: inf
ROOT
ATOM      1  C   UNL     1      28.215  -9.080  43.506  1.00  0.00     0.180 A 
ATOM      2  C   UNL     1      27.687  -9.884  44.531  1.00  0.00     0.208 A 
ATOM      3  C   UNL     1      28.408 -11.015  44.948  1.00  0.00     0.238 A 
ATOM      4  O   UNL     1      27.905 -11.761  45.827  1.00  0.00    -0.285 OA
ATOM      5  C   UNL     1      29.653 -11.318  44.348  1.00  0.00     0.111 A 
ATOM      6  C   UNL     1      30.487 -12.416  44.720  1.00  0.00     0.134 A 
ATOM      7  C   UNL     1      31.635 -12.696  43.969  1.00  0.00     0.093 A 
ATOM      8  C   UNL     1      32.015 -11.882  42.903  1.00  0.00     0.123 A 
ATOM      9  C   UNL     1      31.240 -10.772  42.568  1.00  0.00     0.094 A 
ATOM     10  C   UNL     1      30.069 -10.487  43.275  1.00  0.00     0.146 A 
ATOM     11  O   UNL     1      29.354  -9.428  42.917  1.00  0.00    -0.452 OA
ENDROOT
BRANCH   1  12
ATOM     12  C   UNL     1      27.527  -7.858  43.029  1.00  0.00     0.025 A 
ATOM     13  C   UNL     1      27.488  -6.722  43.853  1.00  0.00     0.016 A 
ATOM     14  C   UNL     1      26.827  -5.565  43.433  1.00  0.00     0.051 A 
ATOM     15  C   UNL     1      26.180  -5.533  42.191  1.00  0.00     0.157 A 
ATOM     16  C   UNL     1      26.859  -7.829  41.793  1.00  0.00     0.062 A 
ATOM     17  C   UNL     1      26.192  -6.673  41.370  1.00  0.00     0.158 A 
BRANCH  15  18
ATOM     18  O   UNL     1      25.522  -4.377  41.774  1.00  0.00    -0.504 OA
ATOM     19  H   UNL     1      25.768  -3.464  42.140  1.00  0.00     0.293 HD
ENDBRANCH  15  18
BRANCH  17  20
ATOM     20  O   UNL     1      25.546  -6.677  40.134  1.00  0.00    -0.504 OA
ATOM     21  H   UNL     1      25.522  -5.859  39.537  1.00  0.00     0.293 HD
ENDBRANCH  17  20
ENDBRANCH   1  12
BRANCH   2  22
ATOM     22  O   UNL     1      26.446  -9.578  45.094  1.00  0.00    -0.502 OA
ATOM     23  H   UNL     1      26.147  -8.626  45.269  1.00  0.00     0.293 HD
ENDBRANCH   2  22
BRANCH   6  24
ATOM     24  O   UNL     1      30.248 -13.237  45.825  1.00  0.00    -0.507 OA
ATOM     25  H   UNL     1      30.939 -13.487  46.516  1.00  0.00     0.293 HD
ENDBRANCH   6  24
BRANCH   8  26
ATOM     26  O   UNL     1      33.173 -12.183  42.189  1.00  0.00    -0.508 OA
ATOM     27  H   UNL     1      33.150 -12.357  41.190  1.00  0.00     0.293 HD
ENDBRANCH   8  26
TORSDOF 6
ENDMDL
MODEL 4
REMARK VINA RESULT:    -6.671      1.780      2.752
REMARK INTER + INTRA:          -8.323
REMARK INTER:                  -8.003
REMARK INTRA:                  -0.320
REMARK UNBOUND:                -0.287
REMARK SMILES O=c1c(O)c(-c2ccc(O)c(O)c2)oc2cc(O)cc(O)c12
REMARK SMILES IDX 5 1 3 2 2 3 1 4 22 5 20 6 19 7 17 8 16 9 15 10 14 11 6 12
REMARK SMILES IDX 7 13 8 14 9 15 13 16 11 17 10 18 12 20 4 22 21 24 18 26
REMARK H PARENT 10 19 12 21 4 23 21 25 18 27
REMARK Flexibility Score: inf
ROOT
ATOM      1  C   UNL     1      29.357 -10.120  43.727  1.00  0.00     0.180 A 
ATOM      2  C   UNL     1      28.935 -10.034  45.064  1.00  0.00     0.208 A 
ATOM      3  C   UNL     1      27.996  -9.052  45.420  1.00  0.00     0.238 A 
ATOM      4  O   UNL     1      27.663  -8.943  46.629  1.00  0.00    -0.285 OA
ATOM      5  C   UNL     1      27.479  -8.180  44.431  1.00  0.00     0.111 A 
ATOM      6  C   UNL     1      26.495  -7.175  44.672  1.00  0.00     0.134 A 
ATOM      7  C   UNL     1      26.153  -6.285  43.646  1.00  0.00     0.093 A 
ATOM      8  C   UNL     1      26.710  -6.403  42.374  1.00  0.00     0.123 A 
ATOM      9  C   UNL     1      27.629  -7.419  42.111  1.00  0.00     0.094 A 
ATOM     10  C   UNL     1      28.017  -8.300  43.124  1.00  0.00     0.146 A 
ATOM     11  O   UNL     1      28.902  -9.247  42.836  1.00  0.00    -0.452 OA
ENDROOT
BRANCH   1  12
ATOM     12  C   UNL     1      30.324 -11.145  43.271  1.00  0.00     0.025 A 
ATOM     13  C   UNL     1      31.699 -10.875  43.340  1.00  0.00     0.016 A 
ATOM     14  C   UNL     1      32.630 -11.819  42.896  1.00  0.00     0.051 A 
ATOM     15  C   UNL     1      32.198 -13.040  42.362  1.00  0.00     0.157 A 
ATOM     16  C   UNL     1      29.894 -12.363  42.715  1.00  0.00     0.062 A 
ATOM     17  C   UNL     1      30.822 -13.310  42.267  1.00  0.00     0.158 A 
BRANCH  15  18
ATOM     18  O   UNL     1      33.127 -13.981  41.922  1.00  0.00    -0.504 OA
ATOM     19  H   UNL     1      34.001 -14.133  42.413  1.00  0.00     0.293 HD
ENDBRANCH  15  18
BRANCH  17  20
ATOM     20  O   UNL     1      30.360 -14.509  41.727  1.00  0.00    -0.504 OA
ATOM     21  H   UNL     1      29.373 -14.735  41.683  1.00  0.00     0.293 HD
ENDBRANCH  17  20
ENDBRANCH   1  12
BRANCH   2  22
ATOM     22  O   UNL     1      29.475 -10.890  46.028  1.00  0.00    -0.502 OA
ATOM     23  H   UNL     1      29.573 -11.887  45.876  1.00  0.00     0.293 HD
ENDBRANCH   2  22
BRANCH   6  24
ATOM     24  O   UNL     1      25.808  -7.028  45.880  1.00  0.00    -0.507 OA
ATOM     25  H   UNL     1      24.817  -7.175  46.000  1.00  0.00     0.293 HD
ENDBRANCH   6  24
BRANCH   8  26
ATOM     26  O   UNL     1      26.335  -5.508  41.374  1.00  0.00    -0.508 OA
ATOM     27  H   UNL     1      25.626  -5.747  40.689  1.00  0.00     0.293 HD
ENDBRANCH   8  26
TORSDOF 6
ENDMDL
MODEL 5
REMARK VINA RESULT:    -6.628      1.217      1.600
REMARK INTER + INTRA:          -8.271
REMARK INTER:                  -7.984
REMARK INTRA:                  -0.287
REMARK UNBOUND:                -0.287
REMARK SMILES O=c1c(O)c(-c2ccc(O)c(O)c2)oc2cc(O)cc(O)c12
REMARK SMILES IDX 5 1 3 2 2 3 1 4 22 5 20 6 19 7 17 8 16 9 15 10 14 11 6 12
REMARK SMILES IDX 7 13 8 14 9 15 13 16 11 17 10 18 12 20 4 22 21 24 18 26
REMARK H PARENT 10 19 12 21 4 23 21 25 18 27
REMARK Flexibility Score: inf
ROOT
ATOM      1  C   UNL     1      28.832  -9.613  43.475  1.00  0.00     0.180 A 
ATOM      2  C   UNL     1      28.591  -9.289  44.821  1.00  0.00     0.208 A 
ATOM      3  C   UNL     1      27.563  -8.383  45.130  1.00  0.00     0.238 A 
ATOM      4  O   UNL     1      27.388  -8.054  46.332  1.00  0.00    -0.285 OA
ATOM      5  C   UNL     1      26.778  -7.828  44.091  1.00  0.00     0.111 A 
ATOM      6  C   UNL     1      25.685  -6.932  44.291  1.00  0.00     0.134 A 
ATOM      7  C   UNL     1      25.063  -6.343  43.183  1.00  0.00     0.093 A 
ATOM      8  C   UNL     1      25.451  -6.666  41.884  1.00  0.00     0.123 A 
ATOM      9  C   UNL     1      26.479  -7.586  41.675  1.00  0.00     0.094 A 
ATOM     10  C   UNL     1      27.142  -8.163  42.761  1.00  0.00     0.146 A 
ATOM     11  O   UNL     1      28.122  -9.025  42.519  1.00  0.00    -0.452 OA
ENDROOT
BRANCH   1  12
ATOM     12  C   UNL     1      29.882 -10.578  43.073  1.00  0.00     0.025 A 
ATOM     13  C   UNL     1      29.526 -11.906  42.788  1.00  0.00     0.016 A 
ATOM     14  C   UNL     1      30.501 -12.838  42.426  1.00  0.00     0.051 A 
ATOM     15  C   UNL     1      31.849 -12.462  42.362  1.00  0.00     0.157 A 
ATOM     16  C   UNL     1      31.237 -10.210  43.028  1.00  0.00     0.062 A 
ATOM     17  C   UNL     1      32.218 -11.142  42.670  1.00  0.00     0.158 A 
BRANCH  15  18
ATOM     18  O   UNL     1      32.821 -13.393  42.000  1.00  0.00    -0.504 OA
ATOM     19  H   UNL     1      33.314 -13.943  42.695  1.00  0.00     0.293 HD
ENDBRANCH  15  18
BRANCH  17  20
ATOM     20  O   UNL     1      33.553 -10.739  42.629  1.00  0.00    -0.504 OA
ATOM     21  H   UNL     1      33.932 -10.066  43.284  1.00  0.00     0.293 HD
ENDBRANCH  17  20
ENDBRANCH   1  12
BRANCH   2  22
ATOM     22  O   UNL     1      29.392  -9.832  45.829  1.00  0.00    -0.502 OA
ATOM     23  H   UNL     1      29.796  -9.266  46.567  1.00  0.00     0.293 HD
ENDBRANCH   2  22
BRANCH   6  24
ATOM     24  O   UNL     1      25.158  -6.612  45.546  1.00  0.00    -0.507 OA
ATOM     25  H   UNL     1      25.315  -7.145  46.388  1.00  0.00     0.293 HD
ENDBRANCH   6  24
BRANCH   8  26
ATOM     26  O   UNL     1      24.799  -6.071  40.805  1.00  0.00    -0.508 OA
ATOM     27  H   UNL     1      24.027  -5.427  40.941  1.00  0.00     0.293 HD
ENDBRANCH   8  26
TORSDOF 6
ENDMDL
MODEL 6
REMARK VINA RESULT:    -6.490      1.698      7.006
REMARK INTER + INTRA:          -8.105
REMARK INTER:                  -7.788
REMARK INTRA:                  -0.317
REMARK UNBOUND:                -0.287
REMARK SMILES O=c1c(O)c(-c2ccc(O)c(O)c2)oc2cc(O)cc(O)c12
REMARK SMILES IDX 5 1 3 2 2 3 1 4 22 5 20 6 19 7 17 8 16 9 15 10 14 11 6 12
REMARK SMILES IDX 7 13 8 14 9 15 13 16 11 17 10 18 12 20 4 22 21 24 18 26
REMARK H PARENT 10 19 12 21 4 23 21 25 18 27
REMARK Flexibility Score: inf
ROOT
ATOM      1  C   UNL     1      26.831  -8.324  43.991  1.00  0.00     0.180 A 
ATOM      2  C   UNL     1      26.110  -9.522  44.133  1.00  0.00     0.208 A 
ATOM      3  C   UNL     1      26.806 -10.742  44.105  1.00  0.00     0.238 A 
ATOM      4  O   UNL     1      26.150 -11.814  44.177  1.00  0.00    -0.285 OA
ATOM      5  C   UNL     1      28.213 -10.748  43.953  1.00  0.00     0.111 A 
ATOM      6  C   UNL     1      29.024 -11.922  43.951  1.00  0.00     0.134 A 
ATOM      7  C   UNL     1      30.390 -11.818  43.663  1.00  0.00     0.093 A 
ATOM      8  C   UNL     1      30.986 -10.578  43.440  1.00  0.00     0.123 A 
ATOM      9  C   UNL     1      30.215  -9.417  43.499  1.00  0.00     0.094 A 
ATOM     10  C   UNL     1      28.842  -9.492  43.748  1.00  0.00     0.146 A 
ATOM     11  O   UNL     1      28.142  -8.365  43.785  1.00  0.00    -0.452 OA
ENDROOT
BRANCH   1  12
ATOM     12  C   UNL     1      26.171  -6.998  44.036  1.00  0.00     0.025 A 
ATOM     13  C   UNL     1      25.916  -6.396  45.278  1.00  0.00     0.016 A 
ATOM     14  C   UNL     1      25.276  -5.156  45.345  1.00  0.00     0.051 A 
ATOM     15  C   UNL     1      24.867  -4.507  44.172  1.00  0.00     0.157 A 
ATOM     16  C   UNL     1      25.741  -6.355  42.863  1.00  0.00     0.062 A 
ATOM     17  C   UNL     1      25.097  -5.114  42.926  1.00  0.00     0.158 A 
BRANCH  15  18
ATOM     18  O   UNL     1      24.231  -3.269  44.242  1.00  0.00    -0.504 OA
ATOM     19  H   UNL     1      23.292  -3.175  44.613  1.00  0.00     0.293 HD
ENDBRANCH  15  18
BRANCH  17  20
ATOM     20  O   UNL     1      24.689  -4.501  41.741  1.00  0.00    -0.504 OA
ATOM     21  H   UNL     1      24.496  -3.508  41.688  1.00  0.00     0.293 HD
ENDBRANCH  17  20
ENDBRANCH   1  12
BRANCH   2  22
ATOM     22  O   UNL     1      24.719  -9.495  44.259  1.00  0.00    -0.502 OA
ATOM     23  H   UNL     1      24.138  -8.848  43.738  1.00  0.00     0.293 HD
ENDBRANCH   2  22
BRANCH   6  24
ATOM     24  O   UNL     1      28.545 -13.201  44.251  1.00  0.00    -0.507 OA
ATOM     25  H   UNL     1      28.570 -13.623  45.167  1.00  0.00     0.293 HD
ENDBRANCH   6  24
BRANCH   8  26
ATOM     26  O   UNL     1      32.352 -10.511  43.171  1.00  0.00    -0.508 OA
ATOM     27  H   UNL     1      32.992 -11.227  43.498  1.00  0.00     0.293 HD
ENDBRANCH   8  26
TORSDOF 6
ENDMDL
MODEL 7
REMARK VINA RESULT:    -6.484      1.857      6.901
REMARK INTER + INTRA:          -8.097
REMARK INTER:                  -7.763
REMARK INTRA:                  -0.335
REMARK UNBOUND:                -0.287
REMARK SMILES O=c1c(O)c(-c2ccc(O)c(O)c2)oc2cc(O)cc(O)c12
REMARK SMILES IDX 5 1 3 2 2 3 1 4 22 5 20 6 19 7 17 8 16 9 15 10 14 11 6 12
REMARK SMILES IDX 7 13 8 14 9 15 13 16 11 17 10 18 12 20 4 22 21 24 18 26
REMARK H PARENT 10 19 12 21 4 23 21 25 18 27
REMARK Flexibility Score: inf
ROOT
ATOM      1  C   UNL     1      28.122  -9.017  43.586  1.00  0.00     0.180 A 
ATOM      2  C   UNL     1      27.612  -9.825  44.616  1.00  0.00     0.208 A 
ATOM      3  C   UNL     1      28.337 -10.961  45.012  1.00  0.00     0.238 A 
ATOM      4  O   UNL     1      27.849 -11.711  45.897  1.00  0.00    -0.285 OA
ATOM      5  C   UNL     1      29.570 -11.264  44.386  1.00  0.00     0.111 A 
ATOM      6  C   UNL     1      30.407 -12.366  44.734  1.00  0.00     0.134 A 
ATOM      7  C   UNL     1      31.540 -12.645  43.960  1.00  0.00     0.093 A 
ATOM      8  C   UNL     1      31.901 -11.826  42.891  1.00  0.00     0.123 A 
ATOM      9  C   UNL     1      31.123 -10.711  42.578  1.00  0.00     0.094 A 
ATOM     10  C   UNL     1      29.966 -10.428  43.310  1.00  0.00     0.146 A 
ATOM     11  O   UNL     1      29.248  -9.364  42.973  1.00  0.00    -0.452 OA
ENDROOT
BRANCH   1  12
ATOM     12  C   UNL     1      27.427  -7.790  43.131  1.00  0.00     0.025 A 
ATOM     13  C   UNL     1      26.549  -7.859  42.039  1.00  0.00     0.016 A 
ATOM     14  C   UNL     1      25.898  -6.711  41.579  1.00  0.00     0.051 A 
ATOM     15  C   UNL     1      26.130  -5.474  42.194  1.00  0.00     0.157 A 
ATOM     16  C   UNL     1      27.673  -6.543  43.732  1.00  0.00     0.062 A 
ATOM     17  C   UNL     1      27.026  -5.390  43.273  1.00  0.00     0.158 A 
BRANCH  15  18
ATOM     18  O   UNL     1      25.479  -4.330  41.736  1.00  0.00    -0.504 OA
ATOM     19  H   UNL     1      25.068  -4.289  40.810  1.00  0.00     0.293 HD
ENDBRANCH  15  18
BRANCH  17  20
ATOM     20  O   UNL     1      27.289  -4.171  43.898  1.00  0.00    -0.504 OA
ATOM     21  H   UNL     1      28.234  -3.840  44.055  1.00  0.00     0.293 HD
ENDBRANCH  17  20
ENDBRANCH   1  12
BRANCH   2  22
ATOM     22  O   UNL     1      26.382  -9.520  45.206  1.00  0.00    -0.502 OA
ATOM     23  H   UNL     1      25.872  -8.671  44.991  1.00  0.00     0.293 HD
ENDBRANCH   2  22
BRANCH   6  24
ATOM     24  O   UNL     1      30.187 -13.194  45.839  1.00  0.00    -0.507 OA
ATOM     25  H   UNL     1      29.568 -13.990  45.847  1.00  0.00     0.293 HD
ENDBRANCH   6  24
BRANCH   8  26
ATOM     26  O   UNL     1      33.044 -12.125  42.152  1.00  0.00    -0.508 OA
ATOM     27  H   UNL     1      33.527 -11.415  41.613  1.00  0.00     0.293 HD
ENDBRANCH   8  26
TORSDOF 6
ENDMDL
MODEL 8
REMARK VINA RESULT:    -6.299      1.500      2.114
REMARK INTER + INTRA:          -7.875
REMARK INTER:                  -7.629
REMARK INTRA:                  -0.245
REMARK UNBOUND:                -0.287
REMARK SMILES O=c1c(O)c(-c2ccc(O)c(O)c2)oc2cc(O)cc(O)c12
REMARK SMILES IDX 5 1 3 2 2 3 1 4 22 5 20 6 19 7 17 8 16 9 15 10 14 11 6 12
REMARK SMILES IDX 7 13 8 14 9 15 13 16 11 17 10 18 12 20 4 22 21 24 18 26
REMARK H PARENT 10 19 12 21 4 23 21 25 18 27
REMARK Flexibility Score: inf
ROOT
ATOM      1  C   UNL     1      27.678  -8.364  44.270  1.00  0.00     0.180 A 
ATOM      2  C   UNL     1      27.683  -7.845  45.576  1.00  0.00     0.208 A 
ATOM      3  C   UNL     1      27.033  -6.626  45.826  1.00  0.00     0.238 A 
ATOM      4  O   UNL     1      27.088  -6.138  46.985  1.00  0.00    -0.285 OA
ATOM      5  C   UNL     1      26.372  -5.950  44.772  1.00  0.00     0.111 A 
ATOM      6  C   UNL     1      25.648  -4.729  44.920  1.00  0.00     0.134 A 
ATOM      7  C   UNL     1      25.144  -4.083  43.784  1.00  0.00     0.093 A 
ATOM      8  C   UNL     1      25.282  -4.645  42.516  1.00  0.00     0.123 A 
ATOM      9  C   UNL     1      25.936  -5.868  42.366  1.00  0.00     0.094 A 
ATOM     10  C   UNL     1      26.481  -6.518  43.476  1.00  0.00     0.146 A 
ATOM     11  O   UNL     1      27.106  -7.675  43.290  1.00  0.00    -0.452 OA
ENDROOT
BRANCH   1  12
ATOM     12  C   UNL     1      28.320  -9.656  43.934  1.00  0.00     0.025 A 
ATOM     13  C   UNL     1      29.459  -9.668  43.114  1.00  0.00     0.016 A 
ATOM     14  C   UNL     1      30.070 -10.876  42.767  1.00  0.00     0.051 A 
ATOM     15  C   UNL     1      29.540 -12.091  43.221  1.00  0.00     0.157 A 
ATOM     16  C   UNL     1      27.780 -10.878  44.370  1.00  0.00     0.062 A 
ATOM     17  C   UNL     1      28.386 -12.091  44.022  1.00  0.00     0.158 A 
BRANCH  15  18
ATOM     18  O   UNL     1      30.152 -13.295  42.875  1.00  0.00    -0.504 OA
ATOM     19  H   UNL     1      29.614 -14.143  42.739  1.00  0.00     0.293 HD
ENDBRANCH  15  18
BRANCH  17  20
ATOM     20  O   UNL     1      27.826 -13.284  44.478  1.00  0.00    -0.504 OA
ATOM     21  H   UNL     1      28.173 -13.762  45.301  1.00  0.00     0.293 HD
ENDBRANCH  17  20
ENDBRANCH   1  12
BRANCH   2  22
ATOM     22  O   UNL     1      28.361  -8.517  46.597  1.00  0.00    -0.502 OA
ATOM     23  H   UNL     1      27.880  -9.069  47.298  1.00  0.00     0.293 HD
ENDBRANCH   2  22
BRANCH   6  24
ATOM     24  O   UNL     1      25.373  -4.129  46.152  1.00  0.00    -0.507 OA
ATOM     25  H   UNL     1      24.637  -3.458  46.313  1.00  0.00     0.293 HD
ENDBRANCH   6  24
BRANCH   8  26
ATOM     26  O   UNL     1      24.755  -3.981  41.410  1.00  0.00    -0.508 OA
ATOM     27  H   UNL     1      24.298  -4.485  40.657  1.00  0.00     0.293 HD
ENDBRANCH   8  26
TORSDOF 6
ENDMDL
MODEL 9
REMARK VINA RESULT:    -6.256      2.328      7.439
REMARK INTER + INTRA:          -7.823
REMARK INTER:                  -7.537
REMARK INTRA:                  -0.286
REMARK UNBOUND:                -0.287
REMARK SMILES O=c1c(O)c(-c2ccc(O)c(O)c2)oc2cc(O)cc(O)c12
REMARK SMILES IDX 5 1 3 2 2 3 1 4 22 5 20 6 19 7 17 8 16 9 15 10 14 11 6 12
REMARK SMILES IDX 7 13 8 14 9 15 13 16 11 17 10 18 12 20 4 22 21 24 18 26
REMARK H PARENT 10 19 12 21 4 23 21 25 18 27
REMARK Flexibility Score: inf
ROOT
ATOM      1  C   UNL     1      29.788 -10.481  43.288  1.00  0.00     0.180 A 
ATOM      2  C   UNL     1      31.045 -10.433  43.914  1.00  0.00     0.208 A 
ATOM      3  C   UNL     1      31.980 -11.446  43.642  1.00  0.00     0.238 A 
ATOM      4  O   UNL     1      33.083 -11.429  44.247  1.00  0.00    -0.285 OA
ATOM      5  C   UNL     1      31.652 -12.482  42.734  1.00  0.00     0.111 A 
ATOM      6  C   UNL     1      32.536 -13.536  42.353  1.00  0.00     0.134 A 
ATOM      7  C   UNL     1      32.061 -14.578  41.549  1.00  0.00     0.093 A 
ATOM      8  C   UNL     1      30.755 -14.573  41.059  1.00  0.00     0.123 A 
ATOM      9  C   UNL     1      29.900 -13.517  41.376  1.00  0.00     0.094 A 
ATOM     10  C   UNL     1      30.335 -12.481  42.206  1.00  0.00     0.146 A 
ATOM     11  O   UNL     1      29.487 -11.500  42.493  1.00  0.00    -0.452 OA
ENDROOT
BRANCH   1  12
ATOM     12  C   UNL     1      28.760  -9.436  43.506  1.00  0.00     0.025 A 
ATOM     13  C   UNL     1      27.636  -9.729  44.294  1.00  0.00     0.016 A 
ATOM     14  C   UNL     1      26.643  -8.766  44.497  1.00  0.00     0.051 A 
ATOM     15  C   UNL     1      26.752  -7.503  43.901  1.00  0.00     0.157 A 
ATOM     16  C   UNL     1      28.855  -8.175  42.893  1.00  0.00     0.062 A 
ATOM     17  C   UNL     1      27.862  -7.209  43.091  1.00  0.00     0.158 A 
BRANCH  15  18
ATOM     18  O   UNL     1      25.762  -6.543  44.106  1.00  0.00    -0.504 OA
ATOM     19  H   UNL     1      24.787  -6.801  44.209  1.00  0.00     0.293 HD
ENDBRANCH  15  18
BRANCH  17  20
ATOM     20  O   UNL     1      27.993  -5.966  42.473  1.00  0.00    -0.504 OA
ATOM     21  H   UNL     1      27.868  -5.097  42.978  1.00  0.00     0.293 HD
ENDBRANCH  17  20
ENDBRANCH   1  12
BRANCH   2  22
ATOM     22  O   UNL     1      31.340  -9.414  44.824  1.00  0.00    -0.502 OA
ATOM     23  H   UNL     1      31.350  -8.436  44.559  1.00  0.00     0.293 HD
ENDBRANCH   2  22
BRANCH   6  24
ATOM     24  O   UNL     1      33.886 -13.590  42.712  1.00  0.00    -0.507 OA
ATOM     25  H   UNL     1      34.435 -12.795  43.004  1.00  0.00     0.293 HD
ENDBRANCH   6  24
BRANCH   8  26
ATOM     26  O   UNL     1      30.322 -15.620  40.248  1.00  0.00    -0.508 OA
ATOM     27  H   UNL     1      30.978 -16.252  39.802  1.00  0.00     0.293 HD
ENDBRANCH   8  26
TORSDOF 6
ENDMDL
