MODEL 1
REMARK VINA RESULT:    -2.638      0.000      0.000
REMARK INTER + INTRA:          -6.920
REMARK INTER:                  -4.798
REMARK INTRA:                  -2.122
REMARK UNBOUND:                -2.122
REMARK SMILES CCCCCCCCCCCCCC[C@@H](C)C(=O)[O-]
REMARK SMILES IDX 9 1 10 2 11 3 12 4 13 5 14 6 15 7 16 8 17 9 18 10 19 11 8 12
REMARK SMILES IDX 7 13 6 14 5 15 4 16 3 17 2 18 1 19
REMARK H PARENT
REMARK Flexibility Score: inf
ROOT
ATOM      1  C   UNL     1     147.132 148.807 142.652  1.00  0.00     0.000 C 
ENDROOT
BRANCH   1   2
ATOM      2  C   UNL     1     145.983 149.722 143.110  1.00  0.00     0.000 C 
BRANCH   2   3
ATOM      3  C   UNL     1     144.609 149.268 142.583  1.00  0.00     0.000 C 
BRANCH   3   4
ATOM      4  C   UNL     1     143.519 149.102 143.657  1.00  0.00     0.000 C 
BRANCH   4   5
ATOM      5  C   UNL     1     144.094 148.811 145.055  1.00  0.00     0.001 C 
BRANCH   5   6
ATOM      6  C   UNL     1     143.592 149.809 146.121  1.00  0.00     0.009 C 
BRANCH   6   7
ATOM      7  C   UNL     1     144.421 151.112 146.184  1.00  0.00     0.032 C 
ATOM      8  C   UNL     1     143.653 152.271 145.539  1.00  0.00     0.014 C 
BRANCH   7   9
ATOM      9  C   UNL     1     144.783 151.472 147.598  1.00  0.00     0.044 C 
ATOM     10  O   UNL     1     145.989 151.468 147.962  1.00  0.00    -0.550 OA
ATOM     11  O   UNL     1     143.791 151.805 148.513  1.00  0.00    -0.550 OA
ENDBRANCH   7   9
ENDBRANCH   6   7
ENDBRANCH   5   6
ENDBRANCH   4   5
ENDBRANCH   3   4
ENDBRANCH   2   3
ENDBRANCH   1   2
BRANCH   1  12
ATOM     12  C   UNL     1     146.971 147.364 143.155  1.00  0.00     0.000 C 
BRANCH  12  13
ATOM     13  C   UNL     1     148.176 146.476 142.797  1.00  0.00    -0.000 C 
BRANCH  13  14
ATOM     14  C   UNL     1     147.757 145.156 142.128  1.00  0.00    -0.000 C 
BRANCH  14  15
ATOM     15  C   UNL     1     146.238 145.065 141.896  1.00  0.00    -0.000 C 
BRANCH  15  16
ATOM     16  C   UNL     1     145.850 145.274 140.423  1.00  0.00    -0.000 C 
BRANCH  16  17
ATOM     17  C   UNL     1     144.916 146.481 140.224  1.00  0.00    -0.000 C 
BRANCH  17  18
ATOM     18  C   UNL     1     145.551 147.577 139.352  1.00  0.00    -0.003 C 
ATOM     19  C   UNL     1     147.055 147.386 139.161  1.00  0.00     0.004 C 
ENDBRANCH  17  18
ENDBRANCH  16  17
ENDBRANCH  15  16
ENDBRANCH  14  15
ENDBRANCH  13  14
ENDBRANCH  12  13
ENDBRANCH   1  12
TORSDOF 14
ENDMDL
MODEL 2
REMARK VINA RESULT:    -2.594      3.874      7.029
REMARK INTER + INTRA:          -6.839
REMARK INTER:                  -5.015
REMARK INTRA:                  -1.824
REMARK UNBOUND:                -2.122
REMARK SMILES CCCCCCCCCCCCCC[C@@H](C)C(=O)[O-]
REMARK SMILES IDX 9 1 10 2 11 3 12 4 13 5 14 6 15 7 16 8 17 9 18 10 19 11 8 12
REMARK SMILES IDX 7 13 6 14 5 15 4 16 3 17 2 18 1 19
REMARK H PARENT
REMARK Flexibility Score: inf
ROOT
ATOM      1  C   UNL     1     147.036 147.548 142.992  1.00  0.00     0.000 C 
ENDROOT
BRANCH   1   2
ATOM      2  C   UNL     1     147.389 146.622 141.815  1.00  0.00     0.000 C 
BRANCH   2   3
ATOM      3  C   UNL     1     146.444 146.796 140.612  1.00  0.00     0.000 C 
BRANCH   3   4
ATOM      4  C   UNL     1     144.972 146.433 140.879  1.00  0.00     0.000 C 
BRANCH   4   5
ATOM      5  C   UNL     1     144.007 147.601 140.606  1.00  0.00     0.001 C 
BRANCH   5   6
ATOM      6  C   UNL     1     144.406 148.419 139.359  1.00  0.00     0.009 C 
BRANCH   6   7
ATOM      7  C   UNL     1     143.695 149.788 139.266  1.00  0.00     0.032 C 
ATOM      8  C   UNL     1     144.240 150.751 140.326  1.00  0.00     0.014 C 
BRANCH   7   9
ATOM      9  C   UNL     1     143.846 150.400 137.902  1.00  0.00     0.044 C 
ATOM     10  O   UNL     1     143.622 151.628 137.732  1.00  0.00    -0.550 OA
ATOM     11  O   UNL     1     144.229 149.616 136.818  1.00  0.00    -0.550 OA
ENDBRANCH   7   9
ENDBRANCH   6   7
ENDBRANCH   5   6
ENDBRANCH   4   5
ENDBRANCH   3   4
ENDBRANCH   2   3
ENDBRANCH   1   2
BRANCH   1  12
ATOM     12  C   UNL     1     147.020 149.032 142.589  1.00  0.00     0.000 C 
BRANCH  12  13
ATOM     13  C   UNL     1     146.028 149.860 143.426  1.00  0.00    -0.000 C 
BRANCH  13  14
ATOM     14  C   UNL     1     144.793 149.048 143.849  1.00  0.00    -0.000 C 
BRANCH  14  15
ATOM     15  C   UNL     1     144.218 149.504 145.202  1.00  0.00    -0.000 C 
BRANCH  15  16
ATOM     16  C   UNL     1     143.638 150.927 145.150  1.00  0.00    -0.000 C 
BRANCH  16  17
ATOM     17  C   UNL     1     144.070 151.785 146.352  1.00  0.00    -0.000 C 
BRANCH  17  18
ATOM     18  C   UNL     1     145.004 151.027 147.309  1.00  0.00    -0.003 C 
ATOM     19  C   UNL     1     144.698 151.304 148.780  1.00  0.00     0.004 C 
ENDBRANCH  17  18
ENDBRANCH  16  17
ENDBRANCH  15  16
ENDBRANCH  14  15
ENDBRANCH  13  14
ENDBRANCH  12  13
ENDBRANCH   1  12
TORSDOF 14
ENDMDL
MODEL 3
REMARK VINA RESULT:    -2.583      1.980      3.452
REMARK INTER + INTRA:          -6.819
REMARK INTER:                  -4.688
REMARK INTRA:                  -2.131
REMARK UNBOUND:                -2.122
REMARK SMILES CCCCCCCCCCCCCC[C@@H](C)C(=O)[O-]
REMARK SMILES IDX 9 1 10 2 11 3 12 4 13 5 14 6 15 7 16 8 17 9 18 10 19 11 8 12
REMARK SMILES IDX 7 13 6 14 5 15 4 16 3 17 2 18 1 19
REMARK H PARENT
REMARK Flexibility Score: inf
ROOT
ATOM      1  C   UNL     1     146.981 148.997 141.967  1.00  0.00     0.000 C 
ENDROOT
BRANCH   1   2
ATOM      2  C   UNL     1     145.696 149.792 142.255  1.00  0.00     0.000 C 
BRANCH   2   3
ATOM      3  C   UNL     1     145.318 149.803 143.748  1.00  0.00     0.000 C 
BRANCH   3   4
ATOM      4  C   UNL     1     143.807 149.845 144.040  1.00  0.00     0.000 C 
BRANCH   4   5
ATOM      5  C   UNL     1     143.480 150.430 145.426  1.00  0.00     0.001 C 
BRANCH   5   6
ATOM      6  C   UNL     1     144.734 150.588 146.312  1.00  0.00     0.009 C 
BRANCH   6   7
ATOM      7  C   UNL     1     144.439 150.469 147.824  1.00  0.00     0.032 C 
ATOM      8  C   UNL     1     144.278 149.000 148.227  1.00  0.00     0.014 C 
BRANCH   7   9
ATOM      9  C   UNL     1     145.522 151.104 148.652  1.00  0.00     0.044 C 
ATOM     10  O   UNL     1     145.415 151.147 149.907  1.00  0.00    -0.550 OA
ATOM     11  O   UNL     1     146.644 151.651 148.040  1.00  0.00    -0.550 OA
ENDBRANCH   7   9
ENDBRANCH   6   7
ENDBRANCH   5   6
ENDBRANCH   4   5
ENDBRANCH   3   4
ENDBRANCH   2   3
ENDBRANCH   1   2
BRANCH   1  12
ATOM     12  C   UNL     1     147.241 147.901 143.014  1.00  0.00     0.000 C 
BRANCH  12  13
ATOM     13  C   UNL     1     147.183 146.486 142.412  1.00  0.00    -0.000 C 
BRANCH  13  14
ATOM     14  C   UNL     1     146.086 145.618 143.051  1.00  0.00    -0.000 C 
BRANCH  14  15
ATOM     15  C   UNL     1     144.679 146.214 142.869  1.00  0.00    -0.000 C 
BRANCH  15  16
ATOM     16  C   UNL     1     143.758 145.936 144.069  1.00  0.00    -0.000 C 
BRANCH  16  17
ATOM     17  C   UNL     1     144.291 146.550 145.376  1.00  0.00    -0.000 C 
BRANCH  17  18
ATOM     18  C   UNL     1     144.111 145.612 146.581  1.00  0.00    -0.003 C 
ATOM     19  C   UNL     1     145.215 144.561 146.684  1.00  0.00     0.004 C 
ENDBRANCH  17  18
ENDBRANCH  16  17
ENDBRANCH  15  16
ENDBRANCH  14  15
ENDBRANCH  13  14
ENDBRANCH  12  13
ENDBRANCH   1  12
TORSDOF 14
ENDMDL
MODEL 4
REMARK VINA RESULT:    -2.545      3.986      6.925
REMARK INTER + INTRA:          -6.751
REMARK INTER:                  -4.301
REMARK INTRA:                  -2.451
REMARK UNBOUND:                -2.122
REMARK SMILES CCCCCCCCCCCCCC[C@@H](C)C(=O)[O-]
REMARK SMILES IDX 9 1 10 2 11 3 12 4 13 5 14 6 15 7 16 8 17 9 18 10 19 11 8 12
REMARK SMILES IDX 7 13 6 14 5 15 4 16 3 17 2 18 1 19
REMARK H PARENT
REMARK Flexibility Score: inf
ROOT
ATOM      1  C   UNL     1     146.684 146.766 142.927  1.00  0.00     0.000 C 
ENDROOT
BRANCH   1   2
ATOM      2  C   UNL     1     147.033 148.263 142.848  1.00  0.00     0.000 C 
BRANCH   2   3
ATOM      3  C   UNL     1     146.670 148.892 141.490  1.00  0.00     0.000 C 
BRANCH   3   4
ATOM      4  C   UNL     1     145.926 150.238 141.572  1.00  0.00     0.000 C 
BRANCH   4   5
ATOM      5  C   UNL     1     144.496 150.168 141.006  1.00  0.00     0.001 C 
BRANCH   5   6
ATOM      6  C   UNL     1     144.223 148.851 140.249  1.00  0.00     0.009 C 
BRANCH   6   7
ATOM      7  C   UNL     1     143.799 149.062 138.778  1.00  0.00     0.032 C 
ATOM      8  C   UNL     1     143.612 150.554 138.481  1.00  0.00     0.014 C 
BRANCH   7   9
ATOM      9  C   UNL     1     144.802 148.479 137.823  1.00  0.00     0.044 C 
ATOM     10  O   UNL     1     145.725 147.735 138.251  1.00  0.00    -0.550 OA
ATOM     11  O   UNL     1     144.723 148.760 136.463  1.00  0.00    -0.550 OA
ENDBRANCH   7   9
ENDBRANCH   6   7
ENDBRANCH   5   6
ENDBRANCH   4   5
ENDBRANCH   3   4
ENDBRANCH   2   3
ENDBRANCH   1   2
BRANCH   1  12
ATOM     12  C   UNL     1     145.183 146.524 143.152  1.00  0.00     0.000 C 
BRANCH  12  13
ATOM     13  C   UNL     1     144.608 147.398 144.281  1.00  0.00    -0.000 C 
BRANCH  13  14
ATOM     14  C   UNL     1     143.361 148.182 143.842  1.00  0.00    -0.000 C 
BRANCH  14  15
ATOM     15  C   UNL     1     143.314 149.602 144.434  1.00  0.00    -0.000 C 
BRANCH  15  16
ATOM     16  C   UNL     1     144.645 150.017 145.084  1.00  0.00    -0.000 C 
BRANCH  16  17
ATOM     17  C   UNL     1     144.446 150.710 146.444  1.00  0.00    -0.000 C 
BRANCH  17  18
ATOM     18  C   UNL     1     143.477 149.943 147.358  1.00  0.00    -0.003 C 
ATOM     19  C   UNL     1     144.120 148.718 148.007  1.00  0.00     0.004 C 
ENDBRANCH  17  18
ENDBRANCH  16  17
ENDBRANCH  15  16
ENDBRANCH  14  15
ENDBRANCH  13  14
ENDBRANCH  12  13
ENDBRANCH   1  12
TORSDOF 14
ENDMDL
MODEL 5
REMARK VINA RESULT:    -2.530      3.013      3.921
REMARK INTER + INTRA:          -6.723
REMARK INTER:                  -4.020
REMARK INTRA:                  -2.703
REMARK UNBOUND:                -2.122
REMARK SMILES CCCCCCCCCCCCCC[C@@H](C)C(=O)[O-]
REMARK SMILES IDX 9 1 10 2 11 3 12 4 13 5 14 6 15 7 16 8 17 9 18 10 19 11 8 12
REMARK SMILES IDX 7 13 6 14 5 15 4 16 3 17 2 18 1 19
REMARK H PARENT
REMARK Flexibility Score: inf
ROOT
ATOM      1  C   UNL     1     147.333 146.536 143.379  1.00  0.00     0.000 C 
ENDROOT
BRANCH   1   2
ATOM      2  C   UNL     1     146.140 145.603 143.651  1.00  0.00     0.000 C 
BRANCH   2   3
ATOM      3  C   UNL     1     144.840 146.368 143.962  1.00  0.00     0.000 C 
BRANCH   3   4
ATOM      4  C   UNL     1     143.741 146.254 142.890  1.00  0.00     0.000 C 
BRANCH   4   5
ATOM      5  C   UNL     1     144.020 147.124 141.650  1.00  0.00     0.001 C 
BRANCH   5   6
ATOM      6  C   UNL     1     143.897 148.634 141.947  1.00  0.00     0.009 C 
BRANCH   6   7
ATOM      7  C   UNL     1     145.010 149.483 141.294  1.00  0.00     0.032 C 
ATOM      8  C   UNL     1     144.424 150.763 140.687  1.00  0.00     0.014 C 
BRANCH   7   9
ATOM      9  C   UNL     1     146.086 149.840 142.280  1.00  0.00     0.044 C 
ATOM     10  O   UNL     1     147.224 150.197 141.873  1.00  0.00    -0.550 OA
ATOM     11  O   UNL     1     145.838 149.772 143.647  1.00  0.00    -0.550 OA
ENDBRANCH   7   9
ENDBRANCH   6   7
ENDBRANCH   5   6
ENDBRANCH   4   5
ENDBRANCH   3   4
ENDBRANCH   2   3
ENDBRANCH   1   2
BRANCH   1  12
ATOM     12  C   UNL     1     147.923 146.341 141.973  1.00  0.00     0.000 C 
BRANCH  12  13
ATOM     13  C   UNL     1     147.355 145.100 141.262  1.00  0.00    -0.000 C 
BRANCH  13  14
ATOM     14  C   UNL     1     146.649 145.448 139.941  1.00  0.00    -0.000 C 
BRANCH  14  15
ATOM     15  C   UNL     1     146.963 146.877 139.460  1.00  0.00    -0.000 C 
BRANCH  15  16
ATOM     16  C   UNL     1     146.293 147.210 138.117  1.00  0.00    -0.000 C 
BRANCH  16  17
ATOM     17  C   UNL     1     145.029 146.371 137.864  1.00  0.00    -0.000 C 
BRANCH  17  18
ATOM     18  C   UNL     1     143.815 147.237 137.489  1.00  0.00    -0.003 C 
ATOM     19  C   UNL     1     144.066 148.730 137.692  1.00  0.00     0.004 C 
ENDBRANCH  17  18
ENDBRANCH  16  17
ENDBRANCH  15  16
ENDBRANCH  14  15
ENDBRANCH  13  14
ENDBRANCH  12  13
ENDBRANCH   1  12
TORSDOF 14
ENDMDL
MODEL 6
REMARK VINA RESULT:    -2.527      1.374      2.321
REMARK INTER + INTRA:          -6.718
REMARK INTER:                  -4.225
REMARK INTRA:                  -2.493
REMARK UNBOUND:                -2.122
REMARK SMILES CCCCCCCCCCCCCC[C@@H](C)C(=O)[O-]
REMARK SMILES IDX 9 1 10 2 11 3 12 4 13 5 14 6 15 7 16 8 17 9 18 10 19 11 8 12
REMARK SMILES IDX 7 13 6 14 5 15 4 16 3 17 2 18 1 19
REMARK H PARENT
REMARK Flexibility Score: inf
ROOT
ATOM      1  C   UNL     1     145.340 149.470 141.101  1.00  0.00     0.000 C 
ENDROOT
BRANCH   1   2
ATOM      2  C   UNL     1     144.250 150.546 141.242  1.00  0.00     0.000 C 
BRANCH   2   3
ATOM      3  C   UNL     1     143.250 150.243 142.372  1.00  0.00     0.000 C 
BRANCH   3   4
ATOM      4  C   UNL     1     143.142 148.759 142.769  1.00  0.00     0.000 C 
BRANCH   4   5
ATOM      5  C   UNL     1     143.296 148.529 144.283  1.00  0.00     0.001 C 
BRANCH   5   6
ATOM      6  C   UNL     1     144.239 149.557 144.944  1.00  0.00     0.009 C 
BRANCH   6   7
ATOM      7  C   UNL     1     143.644 150.215 146.209  1.00  0.00     0.032 C 
ATOM      8  C   UNL     1     144.130 149.494 147.471  1.00  0.00     0.014 C 
BRANCH   7   9
ATOM      9  C   UNL     1     143.999 151.673 146.294  1.00  0.00     0.044 C 
ATOM     10  O   UNL     1     144.632 152.113 147.290  1.00  0.00    -0.550 OA
ATOM     11  O   UNL     1     143.625 152.547 145.279  1.00  0.00    -0.550 OA
ENDBRANCH   7   9
ENDBRANCH   6   7
ENDBRANCH   5   6
ENDBRANCH   4   5
ENDBRANCH   3   4
ENDBRANCH   2   3
ENDBRANCH   1   2
BRANCH   1  12
ATOM     12  C   UNL     1     146.696 149.929 141.661  1.00  0.00     0.000 C 
BRANCH  12  13
ATOM     13  C   UNL     1     147.085 149.184 142.950  1.00  0.00    -0.000 C 
BRANCH  13  14
ATOM     14  C   UNL     1     147.403 147.701 142.700  1.00  0.00    -0.000 C 
BRANCH  14  15
ATOM     15  C   UNL     1     146.393 146.755 143.374  1.00  0.00    -0.000 C 
BRANCH  15  16
ATOM     16  C   UNL     1     145.609 145.905 142.360  1.00  0.00    -0.000 C 
BRANCH  16  17
ATOM     17  C   UNL     1     146.295 145.846 140.985  1.00  0.00    -0.000 C 
BRANCH  17  18
ATOM     18  C   UNL     1     145.286 145.797 139.826  1.00  0.00    -0.003 C 
ATOM     19  C   UNL     1     143.866 146.157 140.261  1.00  0.00     0.004 C 
ENDBRANCH  17  18
ENDBRANCH  16  17
ENDBRANCH  15  16
ENDBRANCH  14  15
ENDBRANCH  13  14
ENDBRANCH  12  13
ENDBRANCH   1  12
TORSDOF 14
ENDMDL
MODEL 7
REMARK VINA RESULT:    -2.518      3.669      6.777
REMARK INTER + INTRA:          -6.701
REMARK INTER:                  -3.978
REMARK INTRA:                  -2.723
REMARK UNBOUND:                -2.122
REMARK SMILES CCCCCCCCCCCCCC[C@@H](C)C(=O)[O-]
REMARK SMILES IDX 9 1 10 2 11 3 12 4 13 5 14 6 15 7 16 8 17 9 18 10 19 11 8 12
REMARK SMILES IDX 7 13 6 14 5 15 4 16 3 17 2 18 1 19
REMARK H PARENT
REMARK Flexibility Score: inf
ROOT
ATOM      1  C   UNL     1     147.362 148.531 142.964  1.00  0.00     0.000 C 
ENDROOT
BRANCH   1   2
ATOM      2  C   UNL     1     146.436 147.336 143.250  1.00  0.00     0.000 C 
BRANCH   2   3
ATOM      3  C   UNL     1     147.132 145.977 143.050  1.00  0.00     0.000 C 
BRANCH   3   4
ATOM      4  C   UNL     1     146.530 145.090 141.945  1.00  0.00     0.000 C 
BRANCH   4   5
ATOM      5  C   UNL     1     145.188 145.625 141.412  1.00  0.00     0.001 C 
BRANCH   5   6
ATOM      6  C   UNL     1     145.177 145.768 139.875  1.00  0.00     0.009 C 
BRANCH   6   7
ATOM      7  C   UNL     1     145.581 147.177 139.384  1.00  0.00     0.032 C 
ATOM      8  C   UNL     1     147.030 147.178 138.886  1.00  0.00     0.014 C 
BRANCH   7   9
ATOM      9  C   UNL     1     144.671 147.666 138.292  1.00  0.00     0.044 C 
ATOM     10  O   UNL     1     145.156 148.157 137.238  1.00  0.00    -0.550 OA
ATOM     11  O   UNL     1     143.290 147.585 138.439  1.00  0.00    -0.550 OA
ENDBRANCH   7   9
ENDBRANCH   6   7
ENDBRANCH   5   6
ENDBRANCH   4   5
ENDBRANCH   3   4
ENDBRANCH   2   3
ENDBRANCH   1   2
BRANCH   1  12
ATOM     12  C   UNL     1     146.585 149.844 142.776  1.00  0.00     0.000 C 
BRANCH  12  13
ATOM     13  C   UNL     1     145.735 149.848 141.493  1.00  0.00    -0.000 C 
BRANCH  13  14
ATOM     14  C   UNL     1     144.259 150.183 141.765  1.00  0.00    -0.000 C 
BRANCH  14  15
ATOM     15  C   UNL     1     143.357 148.936 141.757  1.00  0.00    -0.000 C 
BRANCH  15  16
ATOM     16  C   UNL     1     143.004 148.451 143.174  1.00  0.00    -0.000 C 
BRANCH  16  17
ATOM     17  C   UNL     1     143.092 149.575 144.220  1.00  0.00    -0.000 C 
BRANCH  17  18
ATOM     18  C   UNL     1     144.021 149.214 145.392  1.00  0.00    -0.003 C 
ATOM     19  C   UNL     1     144.563 150.444 146.118  1.00  0.00     0.004 C 
ENDBRANCH  17  18
ENDBRANCH  16  17
ENDBRANCH  15  16
ENDBRANCH  14  15
ENDBRANCH  13  14
ENDBRANCH  12  13
ENDBRANCH   1  12
TORSDOF 14
ENDMDL
MODEL 8
REMARK VINA RESULT:    -2.508      3.990      6.119
REMARK INTER + INTRA:          -6.683
REMARK INTER:                  -4.227
REMARK INTRA:                  -2.456
REMARK UNBOUND:                -2.122
REMARK SMILES CCCCCCCCCCCCCC[C@@H](C)C(=O)[O-]
REMARK SMILES IDX 9 1 10 2 11 3 12 4 13 5 14 6 15 7 16 8 17 9 18 10 19 11 8 12
REMARK SMILES IDX 7 13 6 14 5 15 4 16 3 17 2 18 1 19
REMARK H PARENT
REMARK Flexibility Score: inf
ROOT
ATOM      1  C   UNL     1     146.971 149.417 142.646  1.00  0.00     0.000 C 
ENDROOT
BRANCH   1   2
ATOM      2  C   UNL     1     147.131 147.887 142.617  1.00  0.00     0.000 C 
BRANCH   2   3
ATOM      3  C   UNL     1     146.900 147.286 141.218  1.00  0.00     0.000 C 
BRANCH   3   4
ATOM      4  C   UNL     1     145.619 146.444 141.071  1.00  0.00     0.000 C 
BRANCH   4   5
ATOM      5  C   UNL     1     144.529 147.150 140.245  1.00  0.00     0.001 C 
BRANCH   5   6
ATOM      6  C   UNL     1     145.029 148.463 139.604  1.00  0.00     0.009 C 
BRANCH   6   7
ATOM      7  C   UNL     1     143.937 149.551 139.496  1.00  0.00     0.032 C 
ATOM      8  C   UNL     1     144.255 150.726 140.428  1.00  0.00     0.014 C 
BRANCH   7   9
ATOM      9  C   UNL     1     143.789 150.050 138.087  1.00  0.00     0.044 C 
ATOM     10  O   UNL     1     143.894 149.251 137.119  1.00  0.00    -0.550 OA
ATOM     11  O   UNL     1     143.541 151.396 137.840  1.00  0.00    -0.550 OA
ENDBRANCH   7   9
ENDBRANCH   6   7
ENDBRANCH   5   6
ENDBRANCH   4   5
ENDBRANCH   3   4
ENDBRANCH   2   3
ENDBRANCH   1   2
BRANCH   1  12
ATOM     12  C   UNL     1     145.869 149.874 143.615  1.00  0.00     0.000 C 
BRANCH  12  13
ATOM     13  C   UNL     1     144.675 148.903 143.651  1.00  0.00    -0.000 C 
BRANCH  13  14
ATOM     14  C   UNL     1     143.990 148.863 145.027  1.00  0.00    -0.000 C 
BRANCH  14  15
ATOM     15  C   UNL     1     143.660 147.430 145.484  1.00  0.00    -0.000 C 
BRANCH  15  16
ATOM     16  C   UNL     1     144.420 146.362 144.680  1.00  0.00    -0.000 C 
BRANCH  16  17
ATOM     17  C   UNL     1     143.478 145.368 143.980  1.00  0.00    -0.000 C 
BRANCH  17  18
ATOM     18  C   UNL     1     144.210 144.108 143.492  1.00  0.00    -0.003 C 
ATOM     19  C   UNL     1     145.672 144.062 143.937  1.00  0.00     0.004 C 
ENDBRANCH  17  18
ENDBRANCH  16  17
ENDBRANCH  15  16
ENDBRANCH  14  15
ENDBRANCH  13  14
ENDBRANCH  12  13
ENDBRANCH   1  12
TORSDOF 14
ENDMDL
MODEL 9
REMARK VINA RESULT:    -2.476      1.728      3.199
REMARK INTER + INTRA:          -6.625
REMARK INTER:                  -4.187
REMARK INTRA:                  -2.438
REMARK UNBOUND:                -2.122
REMARK SMILES CCCCCCCCCCCCCC[C@@H](C)C(=O)[O-]
REMARK SMILES IDX 9 1 10 2 11 3 12 4 13 5 14 6 15 7 16 8 17 9 18 10 19 11 8 12
REMARK SMILES IDX 7 13 6 14 5 15 4 16 3 17 2 18 1 19
REMARK H PARENT
REMARK Flexibility Score: inf
ROOT
ATOM      1  C   UNL     1     147.701 147.718 142.946  1.00  0.00     0.000 C 
ENDROOT
BRANCH   1   2
ATOM      2  C   UNL     1     147.174 146.277 143.057  1.00  0.00     0.000 C 
BRANCH   2   3
ATOM      3  C   UNL     1     145.653 146.211 143.286  1.00  0.00     0.000 C 
BRANCH   3   4
ATOM      4  C   UNL     1     145.211 145.396 144.516  1.00  0.00     0.000 C 
BRANCH   4   5
ATOM      5  C   UNL     1     144.079 146.074 145.308  1.00  0.00     0.001 C 
BRANCH   5   6
ATOM      6  C   UNL     1     144.015 147.597 145.066  1.00  0.00     0.009 C 
BRANCH   6   7
ATOM      7  C   UNL     1     143.472 148.392 146.274  1.00  0.00     0.032 C 
ATOM      8  C   UNL     1     143.769 147.651 147.583  1.00  0.00     0.014 C 
BRANCH   7   9
ATOM      9  C   UNL     1     144.055 149.776 146.335  1.00  0.00     0.044 C 
ATOM     10  O   UNL     1     144.565 150.293 145.305  1.00  0.00    -0.550 OA
ATOM     11  O   UNL     1     144.041 150.493 147.526  1.00  0.00    -0.550 OA
ENDBRANCH   7   9
ENDBRANCH   6   7
ENDBRANCH   5   6
ENDBRANCH   4   5
ENDBRANCH   3   4
ENDBRANCH   2   3
ENDBRANCH   1   2
BRANCH   1  12
ATOM     12  C   UNL     1     146.574 148.762 143.004  1.00  0.00     0.000 C 
BRANCH  12  13
ATOM     13  C   UNL     1     146.672 149.799 141.871  1.00  0.00    -0.000 C 
BRANCH  13  14
ATOM     14  C   UNL     1     145.311 150.089 141.218  1.00  0.00    -0.000 C 
BRANCH  14  15
ATOM     15  C   UNL     1     144.188 149.187 141.761  1.00  0.00    -0.000 C 
BRANCH  15  16
ATOM     16  C   UNL     1     143.708 148.152 140.729  1.00  0.00    -0.000 C 
BRANCH  16  17
ATOM     17  C   UNL     1     144.628 148.077 139.498  1.00  0.00    -0.000 C 
BRANCH  17  18
ATOM     18  C   UNL     1     145.530 146.832 139.515  1.00  0.00    -0.003 C 
ATOM     19  C   UNL     1     147.003 147.164 139.280  1.00  0.00     0.004 C 
ENDBRANCH  17  18
ENDBRANCH  16  17
ENDBRANCH  15  16
ENDBRANCH  14  15
ENDBRANCH  13  14
ENDBRANCH  12  13
ENDBRANCH   1  12
TORSDOF 14
ENDMDL
