MODEL 1
REMARK VINA RESULT:    -7.345      0.000      0.000
REMARK INTER + INTRA:          -8.184
REMARK INTER:                  -7.989
REMARK INTRA:                  -0.195
REMARK UNBOUND:                -0.195
REMARK SMILES C[C@H]1[C@H]2C3=CC[C@@H]4[C@@]5(C)CC[C@H](O)C(C)(C)[C@@H]5CC[C@]4(C)[C@@]3(C)CC[C@@]2(C(=O)[O-])CC[C@@H]1C
REMARK SMILES IDX 26 1 30 2 25 3 3 4 31 5 24 6 4 7 2 8 32 9 22 10 5 11 1 12
REMARK SMILES IDX 33 13 23 14 20 15 6 16 7 17 19 18 21 19 8 20 18 21 17 22
REMARK SMILES IDX 10 23 9 24 14 25 11 26 12 27 15 28 16 29 27 30 28 31 29 32
REMARK SMILES IDX 13 33
REMARK H PARENT 13 34
REMARK Flexibility Score: inf
ROOT
ATOM      1  C   UNL     1      -4.068 -30.289 -27.958  1.00  0.00     0.017 C 
ATOM      2  C   UNL     1      -3.008 -29.087 -27.926  1.00  0.00     0.014 C 
ATOM      3  C   UNL     1      -3.529 -31.281 -26.894  1.00  0.00     0.014 C 
ATOM      4  C   UNL     1      -4.266 -30.993 -29.428  1.00  0.00     0.030 C 
ATOM      5  C   UNL     1      -2.709 -28.394 -29.232  1.00  0.00     0.004 C 
ATOM      6  C   UNL     1      -2.394 -32.162 -27.452  1.00  0.00     0.013 C 
ATOM      7  C   UNL     1      -3.940 -32.520 -29.454  1.00  0.00    -0.063 C 
ATOM      8  C   UNL     1      -3.775 -30.116 -30.627  1.00  0.00    -0.003 C 
ATOM      9  C   UNL     1      -2.434 -29.427 -30.297  1.00  0.00    -0.011 C 
ATOM     10  C   UNL     1      -2.973 -33.191 -28.458  1.00  0.00    -0.006 C 
ATOM     11  C   UNL     1      -4.498 -33.295 -30.394  1.00  0.00    -0.027 C 
ATOM     12  C   UNL     1      -3.846 -30.755 -32.027  1.00  0.00     0.008 C 
ATOM     13  C   UNL     1      -1.837 -28.715 -31.531  1.00  0.00     0.008 C 
ATOM     14  C   UNL     1      -3.833 -34.193 -27.541  1.00  0.00     0.017 C 
ATOM     15  C   UNL     1      -1.866 -33.954 -29.337  1.00  0.00    -0.020 C 
ATOM     16  C   UNL     1      -4.118 -34.752 -30.528  1.00  0.00     0.032 C 
ATOM     17  C   UNL     1      -2.567 -34.794 -30.502  1.00  0.00     0.006 C 
ATOM     18  C   UNL     1      -0.901 -34.858 -28.405  1.00  0.00     0.008 C 
ATOM     19  C   UNL     1      -0.906 -32.901 -30.012  1.00  0.00     0.012 C 
ATOM     20  C   UNL     1      -1.977 -36.261 -30.699  1.00  0.00    -0.025 C 
ATOM     21  C   UNL     1       0.103 -35.787 -29.150  1.00  0.00     0.005 C 
ATOM     22  C   UNL     1      -0.354 -36.168 -30.566  1.00  0.00     0.003 C 
ATOM     23  C   UNL     1      -2.378 -36.845 -32.119  1.00  0.00     0.010 C 
ATOM     24  C   UNL     1      -2.544 -37.253 -29.593  1.00  0.00     0.012 C 
ATOM     25  C   UNL     1       0.446 -37.135 -31.491  1.00  0.00    -0.006 C 
ATOM     26  C   UNL     1      -1.447 -36.360 -33.212  1.00  0.00     0.033 C 
ATOM     27  C   UNL     1       0.028 -36.785 -32.986  1.00  0.00     0.120 C 
ATOM     28  C   UNL     1       0.212 -38.570 -31.014  1.00  0.00     0.014 C 
ATOM     29  C   UNL     1       1.987 -36.819 -31.397  1.00  0.00     0.014 C 
ENDROOT
BRANCH   1  30
ATOM     30  C   UNL     1      -5.451 -29.820 -27.375  1.00  0.00     0.048 C 
ATOM     31  O   UNL     1      -6.364 -30.674 -27.234  1.00  0.00    -0.550 OA
ATOM     32  O   UNL     1      -5.803 -28.468 -27.247  1.00  0.00    -0.550 OA
ENDBRANCH   1  30
BRANCH  27  33
ATOM     33  O   UNL     1       0.469 -37.645 -34.018  1.00  0.00    -0.393 OA
ATOM     34  H   UNL     1       1.273 -38.113 -33.688  1.00  0.00     0.210 HD
ENDBRANCH  27  33
TORSDOF 2
ENDMDL
MODEL 2
REMARK VINA RESULT:    -7.343      3.903      5.707
REMARK INTER + INTRA:          -8.182
REMARK INTER:                  -7.997
REMARK INTRA:                  -0.185
REMARK UNBOUND:                -0.195
REMARK SMILES C[C@H]1[C@H]2C3=CC[C@@H]4[C@@]5(C)CC[C@H](O)C(C)(C)[C@@H]5CC[C@]4(C)[C@@]3(C)CC[C@@]2(C(=O)[O-])CC[C@@H]1C
REMARK SMILES IDX 26 1 30 2 25 3 3 4 31 5 24 6 4 7 2 8 32 9 22 10 5 11 1 12
REMARK SMILES IDX 33 13 23 14 20 15 6 16 7 17 19 18 21 19 8 20 18 21 17 22
REMARK SMILES IDX 10 23 9 24 14 25 11 26 12 27 15 28 16 29 27 30 28 31 29 32
REMARK SMILES IDX 13 33
REMARK H PARENT 13 34
REMARK Flexibility Score: inf
ROOT
ATOM      1  C   UNL     1      -4.264 -29.455 -33.069  1.00  0.00     0.017 C 
ATOM      2  C   UNL     1      -5.028 -29.599 -31.667  1.00  0.00     0.014 C 
ATOM      3  C   UNL     1      -4.268 -30.898 -33.639  1.00  0.00     0.014 C 
ATOM      4  C   UNL     1      -2.751 -28.825 -32.967  1.00  0.00     0.030 C 
ATOM      5  C   UNL     1      -4.563 -28.720 -30.533  1.00  0.00     0.004 C 
ATOM      6  C   UNL     1      -3.148 -31.761 -33.026  1.00  0.00     0.013 C 
ATOM      7  C   UNL     1      -1.631 -29.765 -33.516  1.00  0.00    -0.063 C 
ATOM      8  C   UNL     1      -2.473 -28.047 -31.639  1.00  0.00    -0.003 C 
ATOM      9  C   UNL     1      -3.060 -28.795 -30.424  1.00  0.00    -0.011 C 
ATOM     10  C   UNL     1      -1.771 -31.299 -33.572  1.00  0.00    -0.006 C 
ATOM     11  C   UNL     1      -0.477 -29.231 -33.941  1.00  0.00    -0.027 C 
ATOM     12  C   UNL     1      -1.042 -27.510 -31.438  1.00  0.00     0.008 C 
ATOM     13  C   UNL     1      -2.630 -28.146 -29.090  1.00  0.00     0.008 C 
ATOM     14  C   UNL     1      -1.799 -31.732 -35.120  1.00  0.00     0.017 C 
ATOM     15  C   UNL     1      -0.508 -31.904 -32.784  1.00  0.00    -0.020 C 
ATOM     16  C   UNL     1       0.676 -30.110 -34.368  1.00  0.00     0.032 C 
ATOM     17  C   UNL     1       0.836 -31.179 -33.253  1.00  0.00     0.006 C 
ATOM     18  C   UNL     1      -0.440 -33.513 -32.936  1.00  0.00     0.008 C 
ATOM     19  C   UNL     1      -0.678 -31.649 -31.236  1.00  0.00     0.012 C 
ATOM     20  C   UNL     1       2.061 -32.166 -33.504  1.00  0.00    -0.025 C 
ATOM     21  C   UNL     1       0.834 -34.204 -32.367  1.00  0.00     0.005 C 
ATOM     22  C   UNL     1       2.058 -33.278 -32.309  1.00  0.00     0.003 C 
ATOM     23  C   UNL     1       3.435 -31.373 -33.510  1.00  0.00     0.010 C 
ATOM     24  C   UNL     1       1.921 -32.898 -34.909  1.00  0.00     0.012 C 
ATOM     25  C   UNL     1       3.466 -33.750 -31.836  1.00  0.00    -0.006 C 
ATOM     26  C   UNL     1       3.956 -31.136 -32.107  1.00  0.00     0.033 C 
ATOM     27  C   UNL     1       4.237 -32.451 -31.333  1.00  0.00     0.120 C 
ATOM     28  C   UNL     1       4.113 -34.557 -32.963  1.00  0.00     0.014 C 
ATOM     29  C   UNL     1       3.326 -34.676 -30.569  1.00  0.00     0.014 C 
ENDROOT
BRANCH   1  30
ATOM     30  C   UNL     1      -5.137 -28.640 -34.092  1.00  0.00     0.048 C 
ATOM     31  O   UNL     1      -5.554 -29.224 -35.125  1.00  0.00    -0.550 OA
ATOM     32  O   UNL     1      -5.261 -27.243 -34.043  1.00  0.00    -0.550 OA
ENDBRANCH   1  30
BRANCH  27  33
ATOM     33  O   UNL     1       5.611 -32.572 -31.024  1.00  0.00    -0.393 OA
ATOM     34  H   UNL     1       5.952 -31.665 -30.838  1.00  0.00     0.210 HD
ENDBRANCH  27  33
TORSDOF 2
ENDMDL
MODEL 3
REMARK VINA RESULT:    -7.326      1.663      7.587
REMARK INTER + INTRA:          -8.163
REMARK INTER:                  -7.990
REMARK INTRA:                  -0.173
REMARK UNBOUND:                -0.195
REMARK SMILES C[C@H]1[C@H]2C3=CC[C@@H]4[C@@]5(C)CC[C@H](O)C(C)(C)[C@@H]5CC[C@]4(C)[C@@]3(C)CC[C@@]2(C(=O)[O-])CC[C@@H]1C
REMARK SMILES IDX 26 1 30 2 25 3 3 4 31 5 24 6 4 7 2 8 32 9 22 10 5 11 1 12
REMARK SMILES IDX 33 13 23 14 20 15 6 16 7 17 19 18 21 19 8 20 18 21 17 22
REMARK SMILES IDX 10 23 9 24 14 25 11 26 12 27 15 28 16 29 27 30 28 31 29 32
REMARK SMILES IDX 13 33
REMARK H PARENT 13 34
REMARK Flexibility Score: inf
ROOT
ATOM      1  C   UNL     1      -1.205 -36.666 -32.138  1.00  0.00     0.017 C 
ATOM      2  C   UNL     1      -1.824 -36.727 -33.615  1.00  0.00     0.014 C 
ATOM      3  C   UNL     1      -2.378 -37.122 -31.230  1.00  0.00     0.014 C 
ATOM      4  C   UNL     1      -0.609 -35.200 -31.701  1.00  0.00     0.030 C 
ATOM      5  C   UNL     1      -1.359 -35.686 -34.603  1.00  0.00     0.004 C 
ATOM      6  C   UNL     1      -3.368 -35.974 -30.949  1.00  0.00     0.013 C 
ATOM      7  C   UNL     1      -1.285 -34.587 -30.435  1.00  0.00    -0.063 C 
ATOM      8  C   UNL     1      -0.307 -34.250 -32.907  1.00  0.00    -0.003 C 
ATOM      9  C   UNL     1      -1.430 -34.321 -33.964  1.00  0.00    -0.011 C 
ATOM     10  C   UNL     1      -2.717 -34.943 -29.989  1.00  0.00    -0.006 C 
ATOM     11  C   UNL     1      -0.613 -33.688 -29.702  1.00  0.00    -0.027 C 
ATOM     12  C   UNL     1       0.167 -32.825 -32.564  1.00  0.00     0.008 C 
ATOM     13  C   UNL     1      -1.249 -33.252 -35.064  1.00  0.00     0.008 C 
ATOM     14  C   UNL     1      -2.614 -35.724 -28.588  1.00  0.00     0.017 C 
ATOM     15  C   UNL     1      -3.518 -33.556 -29.866  1.00  0.00    -0.020 C 
ATOM     16  C   UNL     1      -1.273 -32.982 -28.539  1.00  0.00     0.032 C 
ATOM     17  C   UNL     1      -2.645 -32.483 -29.064  1.00  0.00     0.006 C 
ATOM     18  C   UNL     1      -4.983 -33.782 -29.219  1.00  0.00     0.008 C 
ATOM     19  C   UNL     1      -3.795 -32.973 -31.305  1.00  0.00     0.012 C 
ATOM     20  C   UNL     1      -3.464 -31.649 -27.980  1.00  0.00    -0.025 C 
ATOM     21  C   UNL     1      -5.793 -32.495 -28.882  1.00  0.00     0.005 C 
ATOM     22  C   UNL     1      -4.908 -31.264 -28.635  1.00  0.00     0.003 C 
ATOM     23  C   UNL     1      -2.680 -30.333 -27.570  1.00  0.00     0.010 C 
ATOM     24  C   UNL     1      -3.692 -32.506 -26.660  1.00  0.00     0.012 C 
ATOM     25  C   UNL     1      -5.476 -29.872 -28.222  1.00  0.00    -0.006 C 
ATOM     26  C   UNL     1      -2.909 -29.208 -28.560  1.00  0.00     0.033 C 
ATOM     27  C   UNL     1      -4.399 -28.789 -28.670  1.00  0.00     0.120 C 
ATOM     28  C   UNL     1      -5.848 -29.919 -26.739  1.00  0.00     0.014 C 
ATOM     29  C   UNL     1      -6.773 -29.550 -29.057  1.00  0.00     0.014 C 
ENDROOT
BRANCH   1  30
ATOM     30  C   UNL     1      -0.120 -37.787 -31.948  1.00  0.00     0.048 C 
ATOM     31  O   UNL     1       0.404 -38.296 -32.972  1.00  0.00    -0.550 OA
ATOM     32  O   UNL     1       0.107 -38.426 -30.719  1.00  0.00    -0.550 OA
ENDBRANCH   1  30
BRANCH  27  33
ATOM     33  O   UNL     1      -4.581 -27.454 -28.243  1.00  0.00    -0.393 OA
ATOM     34  H   UNL     1      -4.052 -26.878 -28.844  1.00  0.00     0.210 HD
ENDBRANCH  27  33
TORSDOF 2
ENDMDL
MODEL 4
REMARK VINA RESULT:    -7.195      1.609      2.596
REMARK INTER + INTRA:          -8.021
REMARK INTER:                  -7.833
REMARK INTRA:                  -0.188
REMARK UNBOUND:                -0.195
REMARK SMILES C[C@H]1[C@H]2C3=CC[C@@H]4[C@@]5(C)CC[C@H](O)C(C)(C)[C@@H]5CC[C@]4(C)[C@@]3(C)CC[C@@]2(C(=O)[O-])CC[C@@H]1C
REMARK SMILES IDX 26 1 30 2 25 3 3 4 31 5 24 6 4 7 2 8 32 9 22 10 5 11 1 12
REMARK SMILES IDX 33 13 23 14 20 15 6 16 7 17 19 18 21 19 8 20 18 21 17 22
REMARK SMILES IDX 10 23 9 24 14 25 11 26 12 27 15 28 16 29 27 30 28 31 29 32
REMARK SMILES IDX 13 33
REMARK H PARENT 13 34
REMARK Flexibility Score: inf
ROOT
ATOM      1  C   UNL     1      -5.090 -29.578 -28.559  1.00  0.00     0.017 C 
ATOM      2  C   UNL     1      -5.298 -28.699 -29.883  1.00  0.00     0.014 C 
ATOM      3  C   UNL     1      -3.565 -29.480 -28.289  1.00  0.00     0.014 C 
ATOM      4  C   UNL     1      -5.607 -31.132 -28.676  1.00  0.00     0.030 C 
ATOM      5  C   UNL     1      -6.353 -29.158 -30.859  1.00  0.00     0.004 C 
ATOM      6  C   UNL     1      -2.762 -30.463 -29.164  1.00  0.00     0.013 C 
ATOM      7  C   UNL     1      -4.491 -32.196 -28.432  1.00  0.00    -0.063 C 
ATOM      8  C   UNL     1      -6.619 -31.381 -29.843  1.00  0.00    -0.003 C 
ATOM      9  C   UNL     1      -6.185 -30.634 -31.122  1.00  0.00    -0.011 C 
ATOM     10  C   UNL     1      -2.994 -31.915 -28.669  1.00  0.00    -0.006 C 
ATOM     11  C   UNL     1      -4.834 -33.425 -28.021  1.00  0.00    -0.027 C 
ATOM     12  C   UNL     1      -7.072 -32.837 -30.067  1.00  0.00     0.008 C 
ATOM     13  C   UNL     1      -7.059 -31.021 -32.335  1.00  0.00     0.008 C 
ATOM     14  C   UNL     1      -2.255 -31.965 -27.242  1.00  0.00     0.017 C 
ATOM     15  C   UNL     1      -2.468 -33.051 -29.677  1.00  0.00    -0.020 C 
ATOM     16  C   UNL     1      -3.799 -34.518 -27.887  1.00  0.00     0.032 C 
ATOM     17  C   UNL     1      -2.974 -34.490 -29.202  1.00  0.00     0.006 C 
ATOM     18  C   UNL     1      -0.862 -32.977 -29.855  1.00  0.00     0.008 C 
ATOM     19  C   UNL     1      -3.048 -32.788 -31.120  1.00  0.00     0.012 C 
ATOM     20  C   UNL     1      -1.863 -35.631 -29.269  1.00  0.00    -0.025 C 
ATOM     21  C   UNL     1      -0.205 -34.131 -30.667  1.00  0.00     0.005 C 
ATOM     22  C   UNL     1      -1.026 -35.430 -30.655  1.00  0.00     0.003 C 
ATOM     23  C   UNL     1      -2.529 -37.070 -29.235  1.00  0.00     0.010 C 
ATOM     24  C   UNL     1      -0.872 -35.529 -28.030  1.00  0.00     0.012 C 
ATOM     25  C   UNL     1      -0.553 -36.747 -31.343  1.00  0.00    -0.006 C 
ATOM     26  C   UNL     1      -3.009 -37.503 -30.606  1.00  0.00     0.033 C 
ATOM     27  C   UNL     1      -1.863 -37.597 -31.648  1.00  0.00     0.120 C 
ATOM     28  C   UNL     1       0.517 -37.398 -30.464  1.00  0.00     0.014 C 
ATOM     29  C   UNL     1       0.079 -36.422 -32.749  1.00  0.00     0.014 C 
ENDROOT
BRANCH   1  30
ATOM     30  C   UNL     1      -5.742 -28.867 -27.317  1.00  0.00     0.048 C 
ATOM     31  O   UNL     1      -6.002 -29.556 -26.298  1.00  0.00    -0.550 OA
ATOM     32  O   UNL     1      -6.280 -27.572 -27.378  1.00  0.00    -0.550 OA
ENDBRANCH   1  30
BRANCH  27  33
ATOM     33  O   UNL     1      -1.702 -38.926 -32.103  1.00  0.00    -0.393 OA
ATOM     34  H   UNL     1      -1.025 -39.354 -31.528  1.00  0.00     0.210 HD
ENDBRANCH  27  33
TORSDOF 2
ENDMDL
MODEL 5
REMARK VINA RESULT:    -7.106      2.143      2.952
REMARK INTER + INTRA:          -7.923
REMARK INTER:                  -7.725
REMARK INTRA:                  -0.198
REMARK UNBOUND:                -0.195
REMARK SMILES C[C@H]1[C@H]2C3=CC[C@@H]4[C@@]5(C)CC[C@H](O)C(C)(C)[C@@H]5CC[C@]4(C)[C@@]3(C)CC[C@@]2(C(=O)[O-])CC[C@@H]1C
REMARK SMILES IDX 26 1 30 2 25 3 3 4 31 5 24 6 4 7 2 8 32 9 22 10 5 11 1 12
REMARK SMILES IDX 33 13 23 14 20 15 6 16 7 17 19 18 21 19 8 20 18 21 17 22
REMARK SMILES IDX 10 23 9 24 14 25 11 26 12 27 15 28 16 29 27 30 28 31 29 32
REMARK SMILES IDX 13 33
REMARK H PARENT 13 34
REMARK Flexibility Score: inf
ROOT
ATOM      1  C   UNL     1      -2.827 -29.508 -31.643  1.00  0.00     0.017 C 
ATOM      2  C   UNL     1      -1.538 -28.568 -31.487  1.00  0.00     0.014 C 
ATOM      3  C   UNL     1      -2.945 -30.201 -30.260  1.00  0.00     0.014 C 
ATOM      4  C   UNL     1      -2.748 -30.586 -32.879  1.00  0.00     0.030 C 
ATOM      5  C   UNL     1      -0.667 -28.381 -32.705  1.00  0.00     0.004 C 
ATOM      6  C   UNL     1      -1.986 -31.401 -30.134  1.00  0.00     0.013 C 
ATOM      7  C   UNL     1      -2.870 -32.077 -32.434  1.00  0.00    -0.063 C 
ATOM      8  C   UNL     1      -1.685 -30.228 -33.970  1.00  0.00    -0.003 C 
ATOM      9  C   UNL     1      -0.376 -29.726 -33.324  1.00  0.00    -0.011 C 
ATOM     10  C   UNL     1      -2.489 -32.569 -31.024  1.00  0.00    -0.006 C 
ATOM     11  C   UNL     1      -3.303 -32.991 -33.314  1.00  0.00    -0.027 C 
ATOM     12  C   UNL     1      -1.493 -31.247 -35.110  1.00  0.00     0.008 C 
ATOM     13  C   UNL     1       0.748 -29.553 -34.369  1.00  0.00     0.008 C 
ATOM     14  C   UNL     1      -3.835 -33.064 -30.297  1.00  0.00     0.017 C 
ATOM     15  C   UNL     1      -1.423 -33.755 -31.224  1.00  0.00    -0.020 C 
ATOM     16  C   UNL     1      -3.323 -34.462 -32.962  1.00  0.00     0.032 C 
ATOM     17  C   UNL     1      -1.934 -34.774 -32.345  1.00  0.00     0.006 C 
ATOM     18  C   UNL     1      -1.089 -34.484 -29.819  1.00  0.00     0.008 C 
ATOM     19  C   UNL     1      -0.047 -33.156 -31.708  1.00  0.00     0.012 C 
ATOM     20  C   UNL     1      -1.747 -36.311 -31.969  1.00  0.00    -0.025 C 
ATOM     21  C   UNL     1      -0.205 -35.763 -29.901  1.00  0.00     0.005 C 
ATOM     22  C   UNL     1      -0.287 -36.476 -31.259  1.00  0.00     0.003 C 
ATOM     23  C   UNL     1      -1.834 -37.224 -33.263  1.00  0.00     0.010 C 
ATOM     24  C   UNL     1      -2.882 -36.790 -30.964  1.00  0.00     0.012 C 
ATOM     25  C   UNL     1       0.456 -37.811 -31.571  1.00  0.00    -0.006 C 
ATOM     26  C   UNL     1      -0.513 -37.280 -34.004  1.00  0.00     0.033 C 
ATOM     27  C   UNL     1       0.638 -37.873 -33.150  1.00  0.00     0.120 C 
ATOM     28  C   UNL     1      -0.306 -38.959 -30.906  1.00  0.00     0.014 C 
ATOM     29  C   UNL     1       1.916 -37.765 -30.978  1.00  0.00     0.014 C 
ENDROOT
BRANCH   1  30
ATOM     30  C   UNL     1      -4.133 -28.639 -31.746  1.00  0.00     0.048 C 
ATOM     31  O   UNL     1      -5.242 -29.192 -31.529  1.00  0.00    -0.550 OA
ATOM     32  O   UNL     1      -4.150 -27.355 -32.312  1.00  0.00    -0.550 OA
ENDBRANCH   1  30
BRANCH  27  33
ATOM     33  O   UNL     1       1.119 -39.076 -33.717  1.00  0.00    -0.393 OA
ATOM     34  H   UNL     1       2.001 -38.882 -34.115  1.00  0.00     0.210 HD
ENDBRANCH  27  33
TORSDOF 2
ENDMDL
MODEL 6
REMARK VINA RESULT:    -7.038      3.679      5.641
REMARK INTER + INTRA:          -7.850
REMARK INTER:                  -7.687
REMARK INTRA:                  -0.163
REMARK UNBOUND:                -0.195
REMARK SMILES C[C@H]1[C@H]2C3=CC[C@@H]4[C@@]5(C)CC[C@H](O)C(C)(C)[C@@H]5CC[C@]4(C)[C@@]3(C)CC[C@@]2(C(=O)[O-])CC[C@@H]1C
REMARK SMILES IDX 26 1 30 2 25 3 3 4 31 5 24 6 4 7 2 8 32 9 22 10 5 11 1 12
REMARK SMILES IDX 33 13 23 14 20 15 6 16 7 17 19 18 21 19 8 20 18 21 17 22
REMARK SMILES IDX 10 23 9 24 14 25 11 26 12 27 15 28 16 29 27 30 28 31 29 32
REMARK SMILES IDX 13 33
REMARK H PARENT 13 34
REMARK Flexibility Score: inf
ROOT
ATOM      1  C   UNL     1      -4.508 -32.533 -32.983  1.00  0.00     0.017 C 
ATOM      2  C   UNL     1      -5.253 -33.216 -31.739  1.00  0.00     0.014 C 
ATOM      3  C   UNL     1      -4.005 -33.741 -33.818  1.00  0.00     0.014 C 
ATOM      4  C   UNL     1      -3.295 -31.503 -32.578  1.00  0.00     0.030 C 
ATOM      5  C   UNL     1      -5.164 -32.512 -30.408  1.00  0.00     0.004 C 
ATOM      6  C   UNL     1      -2.695 -34.326 -33.252  1.00  0.00     0.013 C 
ATOM      7  C   UNL     1      -1.901 -31.900 -33.158  1.00  0.00    -0.063 C 
ATOM      8  C   UNL     1      -3.359 -30.993 -31.101  1.00  0.00    -0.003 C 
ATOM      9  C   UNL     1      -3.728 -32.138 -30.134  1.00  0.00    -0.011 C 
ATOM     10  C   UNL     1      -1.522 -33.348 -33.527  1.00  0.00    -0.006 C 
ATOM     11  C   UNL     1      -0.967 -30.953 -33.328  1.00  0.00    -0.027 C 
ATOM     12  C   UNL     1      -2.198 -30.097 -30.627  1.00  0.00     0.008 C 
ATOM     13  C   UNL     1      -3.607 -31.701 -28.657  1.00  0.00     0.008 C 
ATOM     14  C   UNL     1      -1.325 -33.412 -35.121  1.00  0.00     0.017 C 
ATOM     15  C   UNL     1      -0.174 -33.689 -32.723  1.00  0.00    -0.020 C 
ATOM     16  C   UNL     1       0.433 -31.310 -33.774  1.00  0.00     0.032 C 
ATOM     17  C   UNL     1       0.878 -32.496 -32.876  1.00  0.00     0.006 C 
ATOM     18  C   UNL     1       0.430 -35.120 -33.174  1.00  0.00     0.008 C 
ATOM     19  C   UNL     1      -0.498 -33.852 -31.188  1.00  0.00     0.012 C 
ATOM     20  C   UNL     1       2.372 -32.971 -33.162  1.00  0.00    -0.025 C 
ATOM     21  C   UNL     1       1.830 -35.489 -32.599  1.00  0.00     0.005 C 
ATOM     22  C   UNL     1       2.674 -34.264 -32.215  1.00  0.00     0.003 C 
ATOM     23  C   UNL     1       3.405 -31.808 -32.848  1.00  0.00     0.010 C 
ATOM     24  C   UNL     1       2.555 -33.377 -34.689  1.00  0.00     0.012 C 
ATOM     25  C   UNL     1       4.133 -34.367 -31.674  1.00  0.00    -0.006 C 
ATOM     26  C   UNL     1       3.745 -31.740 -31.372  1.00  0.00     0.033 C 
ATOM     27  C   UNL     1       4.404 -33.040 -30.839  1.00  0.00     0.120 C 
ATOM     28  C   UNL     1       5.068 -34.660 -32.849  1.00  0.00     0.014 C 
ATOM     29  C   UNL     1       4.241 -35.549 -30.637  1.00  0.00     0.014 C 
ENDROOT
BRANCH   1  30
ATOM     30  C   UNL     1      -5.546 -31.825 -33.927  1.00  0.00     0.048 C 
ATOM     31  O   UNL     1      -6.266 -32.539 -34.672  1.00  0.00    -0.550 OA
ATOM     32  O   UNL     1      -5.535 -30.443 -34.170  1.00  0.00    -0.550 OA
ENDBRANCH   1  30
BRANCH  27  33
ATOM     33  O   UNL     1       5.722 -32.792 -30.395  1.00  0.00    -0.393 OA
ATOM     34  H   UNL     1       5.800 -33.160 -29.482  1.00  0.00     0.210 HD
ENDBRANCH  27  33
TORSDOF 2
ENDMDL
MODEL 7
REMARK VINA RESULT:    -6.964      2.604      7.672
REMARK INTER + INTRA:          -7.769
REMARK INTER:                  -7.596
REMARK INTRA:                  -0.173
REMARK UNBOUND:                -0.195
REMARK SMILES C[C@H]1[C@H]2C3=CC[C@@H]4[C@@]5(C)CC[C@H](O)C(C)(C)[C@@H]5CC[C@]4(C)[C@@]3(C)CC[C@@]2(C(=O)[O-])CC[C@@H]1C
REMARK SMILES IDX 26 1 30 2 25 3 3 4 31 5 24 6 4 7 2 8 32 9 22 10 5 11 1 12
REMARK SMILES IDX 33 13 23 14 20 15 6 16 7 17 19 18 21 19 8 20 18 21 17 22
REMARK SMILES IDX 10 23 9 24 14 25 11 26 12 27 15 28 16 29 27 30 28 31 29 32
REMARK SMILES IDX 13 33
REMARK H PARENT 13 34
REMARK Flexibility Score: inf
ROOT
ATOM      1  C   UNL     1       0.119 -37.494 -31.284  1.00  0.00     0.017 C 
ATOM      2  C   UNL     1       1.662 -37.138 -31.034  1.00  0.00     0.014 C 
ATOM      3  C   UNL     1      -0.042 -37.367 -32.822  1.00  0.00     0.014 C 
ATOM      4  C   UNL     1      -0.946 -36.553 -30.462  1.00  0.00     0.030 C 
ATOM      5  C   UNL     1       2.005 -36.402 -29.762  1.00  0.00     0.004 C 
ATOM      6  C   UNL     1      -0.226 -35.901 -33.261  1.00  0.00     0.013 C 
ATOM      7  C   UNL     1      -1.944 -35.772 -31.375  1.00  0.00    -0.063 C 
ATOM      8  C   UNL     1      -0.322 -35.799 -29.242  1.00  0.00    -0.003 C 
ATOM      9  C   UNL     1       1.069 -35.230 -29.594  1.00  0.00    -0.011 C 
ATOM     10  C   UNL     1      -1.631 -35.398 -32.838  1.00  0.00    -0.006 C 
ATOM     11  C   UNL     1      -3.123 -35.379 -30.873  1.00  0.00    -0.027 C 
ATOM     12  C   UNL     1      -1.245 -34.825 -28.483  1.00  0.00     0.008 C 
ATOM     13  C   UNL     1       1.617 -34.321 -28.472  1.00  0.00     0.008 C 
ATOM     14  C   UNL     1      -2.641 -36.221 -33.780  1.00  0.00     0.017 C 
ATOM     15  C   UNL     1      -1.831 -33.808 -32.958  1.00  0.00    -0.020 C 
ATOM     16  C   UNL     1      -4.067 -34.520 -31.683  1.00  0.00     0.032 C 
ATOM     17  C   UNL     1      -3.204 -33.369 -32.267  1.00  0.00     0.006 C 
ATOM     18  C   UNL     1      -1.716 -33.319 -34.495  1.00  0.00     0.008 C 
ATOM     19  C   UNL     1      -0.656 -33.069 -32.208  1.00  0.00     0.012 C 
ATOM     20  C   UNL     1      -4.053 -32.315 -33.108  1.00  0.00    -0.025 C 
ATOM     21  C   UNL     1      -2.065 -31.827 -34.770  1.00  0.00     0.005 C 
ATOM     22  C   UNL     1      -3.014 -31.219 -33.726  1.00  0.00     0.003 C 
ATOM     23  C   UNL     1      -5.127 -31.594 -32.190  1.00  0.00     0.010 C 
ATOM     24  C   UNL     1      -4.834 -33.032 -34.293  1.00  0.00     0.012 C 
ATOM     25  C   UNL     1      -3.559 -29.761 -33.813  1.00  0.00    -0.006 C 
ATOM     26  C   UNL     1      -4.524 -30.440 -31.414  1.00  0.00     0.033 C 
ATOM     27  C   UNL     1      -3.944 -29.330 -32.330  1.00  0.00     0.120 C 
ATOM     28  C   UNL     1      -4.668 -29.717 -34.867  1.00  0.00     0.014 C 
ATOM     29  C   UNL     1      -2.407 -28.780 -34.253  1.00  0.00     0.014 C 
ENDROOT
BRANCH   1  30
ATOM     30  C   UNL     1      -0.149 -39.016 -30.998  1.00  0.00     0.048 C 
ATOM     31  O   UNL     1       0.805 -39.730 -30.595  1.00  0.00    -0.550 OA
ATOM     32  O   UNL     1      -1.319 -39.673 -31.410  1.00  0.00    -0.550 OA
ENDBRANCH   1  30
BRANCH  27  33
ATOM     33  O   UNL     1      -4.642 -28.113 -32.152  1.00  0.00    -0.393 OA
ATOM     34  H   UNL     1      -4.118 -27.563 -31.523  1.00  0.00     0.210 HD
ENDBRANCH  27  33
TORSDOF 2
ENDMDL
MODEL 8
REMARK VINA RESULT:    -6.947      3.001      4.965
REMARK INTER + INTRA:          -7.750
REMARK INTER:                  -7.551
REMARK INTRA:                  -0.199
REMARK UNBOUND:                -0.195
REMARK SMILES C[C@H]1[C@H]2C3=CC[C@@H]4[C@@]5(C)CC[C@H](O)C(C)(C)[C@@H]5CC[C@]4(C)[C@@]3(C)CC[C@@]2(C(=O)[O-])CC[C@@H]1C
REMARK SMILES IDX 26 1 30 2 25 3 3 4 31 5 24 6 4 7 2 8 32 9 22 10 5 11 1 12
REMARK SMILES IDX 33 13 23 14 20 15 6 16 7 17 19 18 21 19 8 20 18 21 17 22
REMARK SMILES IDX 10 23 9 24 14 25 11 26 12 27 15 28 16 29 27 30 28 31 29 32
REMARK SMILES IDX 13 33
REMARK H PARENT 13 34
REMARK Flexibility Score: inf
ROOT
ATOM      1  C   UNL     1      -3.641 -29.134 -33.912  1.00  0.00     0.017 C 
ATOM      2  C   UNL     1      -4.623 -29.515 -35.121  1.00  0.00     0.014 C 
ATOM      3  C   UNL     1      -2.227 -29.240 -34.541  1.00  0.00     0.014 C 
ATOM      4  C   UNL     1      -3.803 -30.069 -32.572  1.00  0.00     0.030 C 
ATOM      5  C   UNL     1      -5.882 -30.272 -34.777  1.00  0.00     0.004 C 
ATOM      6  C   UNL     1      -1.728 -30.697 -34.592  1.00  0.00     0.013 C 
ATOM      7  C   UNL     1      -2.500 -30.823 -32.160  1.00  0.00    -0.063 C 
ATOM      8  C   UNL     1      -5.158 -30.847 -32.498  1.00  0.00    -0.003 C 
ATOM      9  C   UNL     1      -5.539 -31.432 -33.875  1.00  0.00    -0.011 C 
ATOM     10  C   UNL     1      -1.383 -31.184 -33.160  1.00  0.00    -0.006 C 
ATOM     11  C   UNL     1      -2.338 -31.205 -30.885  1.00  0.00    -0.027 C 
ATOM     12  C   UNL     1      -5.336 -31.816 -31.313  1.00  0.00     0.008 C 
ATOM     13  C   UNL     1      -6.767 -32.363 -33.781  1.00  0.00     0.008 C 
ATOM     14  C   UNL     1      -0.077 -30.335 -32.762  1.00  0.00     0.017 C 
ATOM     15  C   UNL     1      -1.151 -32.769 -33.036  1.00  0.00    -0.020 C 
ATOM     16  C   UNL     1      -1.149 -32.041 -30.467  1.00  0.00     0.032 C 
ATOM     17  C   UNL     1      -1.054 -33.196 -31.499  1.00  0.00     0.006 C 
ATOM     18  C   UNL     1       0.132 -33.241 -33.901  1.00  0.00     0.008 C 
ATOM     19  C   UNL     1      -2.373 -33.535 -33.673  1.00  0.00     0.012 C 
ATOM     20  C   UNL     1       0.118 -34.228 -31.178  1.00  0.00    -0.025 C 
ATOM     21  C   UNL     1       0.572 -34.725 -33.727  1.00  0.00     0.005 C 
ATOM     22  C   UNL     1       0.153 -35.332 -32.379  1.00  0.00     0.003 C 
ATOM     23  C   UNL     1      -0.127 -34.943 -29.783  1.00  0.00     0.010 C 
ATOM     24  C   UNL     1       1.521 -33.484 -31.098  1.00  0.00     0.012 C 
ATOM     25  C   UNL     1       0.527 -36.780 -31.940  1.00  0.00    -0.006 C 
ATOM     26  C   UNL     1      -1.079 -36.116 -29.910  1.00  0.00     0.033 C 
ATOM     27  C   UNL     1      -0.556 -37.223 -30.862  1.00  0.00     0.120 C 
ATOM     28  C   UNL     1       1.995 -36.794 -31.507  1.00  0.00     0.014 C 
ATOM     29  C   UNL     1       0.350 -37.772 -33.152  1.00  0.00     0.014 C 
ENDROOT
BRANCH   1  30
ATOM     30  C   UNL     1      -3.782 -27.611 -33.547  1.00  0.00     0.048 C 
ATOM     31  O   UNL     1      -2.840 -27.051 -32.930  1.00  0.00    -0.550 OA
ATOM     32  O   UNL     1      -4.996 -26.914 -33.645  1.00  0.00    -0.550 OA
ENDBRANCH   1  30
BRANCH  27  33
ATOM     33  O   UNL     1      -0.340 -38.432 -30.161  1.00  0.00    -0.393 OA
ATOM     34  H   UNL     1      -0.889 -38.399 -29.342  1.00  0.00     0.210 HD
ENDBRANCH  27  33
TORSDOF 2
ENDMDL
MODEL 9
REMARK VINA RESULT:    -6.913      3.258      8.411
REMARK INTER + INTRA:          -7.714
REMARK INTER:                  -7.520
REMARK INTRA:                  -0.194
REMARK UNBOUND:                -0.195
REMARK SMILES C[C@H]1[C@H]2C3=CC[C@@H]4[C@@]5(C)CC[C@H](O)C(C)(C)[C@@H]5CC[C@]4(C)[C@@]3(C)CC[C@@]2(C(=O)[O-])CC[C@@H]1C
REMARK SMILES IDX 26 1 30 2 25 3 3 4 31 5 24 6 4 7 2 8 32 9 22 10 5 11 1 12
REMARK SMILES IDX 33 13 23 14 20 15 6 16 7 17 19 18 21 19 8 20 18 21 17 22
REMARK SMILES IDX 10 23 9 24 14 25 11 26 12 27 15 28 16 29 27 30 28 31 29 32
REMARK SMILES IDX 13 33
REMARK H PARENT 13 34
REMARK Flexibility Score: inf
ROOT
ATOM      1  C   UNL     1       1.056 -36.338 -32.538  1.00  0.00     0.017 C 
ATOM      2  C   UNL     1       0.301 -37.192 -31.411  1.00  0.00     0.014 C 
ATOM      3  C   UNL     1       1.788 -35.233 -31.731  1.00  0.00     0.014 C 
ATOM      4  C   UNL     1       0.078 -35.719 -33.703  1.00  0.00     0.030 C 
ATOM      5  C   UNL     1      -1.045 -37.773 -31.769  1.00  0.00     0.004 C 
ATOM      6  C   UNL     1       0.847 -34.068 -31.366  1.00  0.00     0.013 C 
ATOM      7  C   UNL     1       0.125 -34.162 -33.814  1.00  0.00    -0.063 C 
ATOM      8  C   UNL     1      -1.315 -36.422 -33.806  1.00  0.00    -0.003 C 
ATOM      9  C   UNL     1      -1.899 -36.705 -32.405  1.00  0.00    -0.011 C 
ATOM     10  C   UNL     1       0.513 -33.245 -32.638  1.00  0.00    -0.006 C 
ATOM     11  C   UNL     1      -0.209 -33.577 -34.973  1.00  0.00    -0.027 C 
ATOM     12  C   UNL     1      -2.317 -35.830 -34.816  1.00  0.00     0.008 C 
ATOM     13  C   UNL     1      -3.353 -37.219 -32.484  1.00  0.00     0.008 C 
ATOM     14  C   UNL     1       1.900 -32.526 -33.015  1.00  0.00     0.017 C 
ATOM     15  C   UNL     1      -0.694 -32.200 -32.452  1.00  0.00    -0.020 C 
ATOM     16  C   UNL     1      -0.293 -32.072 -35.089  1.00  0.00     0.032 C 
ATOM     17  C   UNL     1      -1.122 -31.593 -33.868  1.00  0.00     0.006 C 
ATOM     18  C   UNL     1      -0.319 -31.060 -31.368  1.00  0.00     0.008 C 
ATOM     19  C   UNL     1      -1.948 -32.941 -31.846  1.00  0.00     0.012 C 
ATOM     20  C   UNL     1      -1.372 -30.019 -33.858  1.00  0.00    -0.025 C 
ATOM     21  C   UNL     1      -1.332 -29.887 -31.225  1.00  0.00     0.005 C 
ATOM     22  C   UNL     1      -2.176 -29.651 -32.487  1.00  0.00     0.003 C 
ATOM     23  C   UNL     1      -2.215 -29.573 -35.125  1.00  0.00     0.010 C 
ATOM     24  C   UNL     1       0.007 -29.227 -33.894  1.00  0.00     0.012 C 
ATOM     25  C   UNL     1      -3.217 -28.498 -32.617  1.00  0.00    -0.006 C 
ATOM     26  C   UNL     1      -3.702 -29.776 -34.913  1.00  0.00     0.033 C 
ATOM     27  C   UNL     1      -4.265 -28.952 -33.725  1.00  0.00     0.120 C 
ATOM     28  C   UNL     1      -2.465 -27.187 -32.857  1.00  0.00     0.014 C 
ATOM     29  C   UNL     1      -4.044 -28.366 -31.281  1.00  0.00     0.014 C 
ENDROOT
BRANCH   1  30
ATOM     30  C   UNL     1       2.221 -37.177 -33.177  1.00  0.00     0.048 C 
ATOM     31  O   UNL     1       3.232 -36.569 -33.611  1.00  0.00    -0.550 OA
ATOM     32  O   UNL     1       2.083 -38.531 -33.521  1.00  0.00    -0.550 OA
ENDBRANCH   1  30
BRANCH  27  33
ATOM     33  O   UNL     1      -5.212 -28.003 -34.172  1.00  0.00    -0.393 OA
ATOM     34  H   UNL     1      -5.974 -28.503 -34.550  1.00  0.00     0.210 HD
ENDBRANCH  27  33
TORSDOF 2
ENDMDL
