MODEL 1
REMARK VINA RESULT:    -6.818      0.000      0.000
REMARK INTER + INTRA:          -9.826
REMARK INTER:                  -9.010
REMARK INTRA:                  -0.816
REMARK UNBOUND:                -0.816
REMARK SMILES CC[C@H](C=C[C@H](C)[C@@H]1CC[C@H]2C3=CC[C@H]4C[C@@H](O)CC[C@]4(C)[C@@H]3CC[C@]21C)C(C)C
REMARK SMILES IDX 6 1 7 2 5 3 4 4 3 5 2 6 1 7 28 8 29 9 30 10 8 11 9 12 26 13
REMARK SMILES IDX 10 14 11 15 25 16 27 17 12 18 24 19 23 20 13 21 21 22 14 23
REMARK SMILES IDX 15 24 20 25 22 26 16 27 19 28 17 29 18 30
REMARK H PARENT 18 31
REMARK Flexibility Score: inf
ROOT
ATOM      1  C   UNL     1     139.451 136.490 141.421  1.00  0.00     0.012 C 
ATOM      2  C   UNL     1     139.201 135.065 140.906  1.00  0.00     0.012 C 
ENDROOT
BRANCH   1   3
ATOM      3  C   UNL     1     138.450 136.757 142.526  1.00  0.00    -0.028 C 
ATOM      4  C   UNL     1     137.326 137.461 142.311  1.00  0.00    -0.027 C 
BRANCH   4   5
ATOM      5  C   UNL     1     136.310 137.693 143.411  1.00  0.00     0.014 C 
BRANCH   5   6
ATOM      6  C   UNL     1     136.967 138.411 144.611  1.00  0.00     0.004 C 
ATOM      7  C   UNL     1     136.979 137.541 145.869  1.00  0.00     0.004 C 
ENDBRANCH   5   6
BRANCH   5   8
ATOM      8  C   UNL     1     135.061 138.463 142.886  1.00  0.00    -0.011 C 
ATOM      9  C   UNL     1     134.717 139.655 143.794  1.00  0.00     0.008 C 
ATOM     10  C   UNL     1     133.822 137.568 142.699  1.00  0.00     0.008 C 
ENDBRANCH   5   8
ENDBRANCH   4   5
ENDBRANCH   1   3
BRANCH   1  11
ATOM     11  C   UNL     1     140.906 136.700 141.962  1.00  0.00     0.002 C 
ATOM     12  C   UNL     1     141.020 136.268 143.428  1.00  0.00     0.005 C 
ATOM     13  C   UNL     1     141.507 138.145 141.939  1.00  0.00    -0.023 C 
ATOM     14  C   UNL     1     142.244 136.962 144.007  1.00  0.00     0.009 C 
ATOM     15  C   UNL     1     142.561 138.157 143.099  1.00  0.00     0.021 C 
ATOM     16  C   UNL     1     142.179 138.511 140.575  1.00  0.00     0.008 C 
ATOM     17  C   UNL     1     140.430 139.217 142.254  1.00  0.00     0.012 C 
ATOM     18  C   UNL     1     143.990 138.070 142.583  1.00  0.00    -0.067 C 
ATOM     19  C   UNL     1     143.414 137.655 140.196  1.00  0.00     0.009 C 
ATOM     20  C   UNL     1     144.231 137.135 141.413  1.00  0.00     0.021 C 
ATOM     21  C   UNL     1     144.930 138.938 143.022  1.00  0.00    -0.027 C 
ATOM     22  C   UNL     1     145.759 136.864 141.158  1.00  0.00    -0.023 C 
ATOM     23  C   UNL     1     146.351 138.953 142.516  1.00  0.00     0.031 C 
ATOM     24  C   UNL     1     146.511 138.231 141.165  1.00  0.00     0.002 C 
ATOM     25  C   UNL     1     145.992 136.149 139.789  1.00  0.00     0.010 C 
ATOM     26  C   UNL     1     146.265 135.921 142.294  1.00  0.00     0.012 C 
ATOM     27  C   UNL     1     148.004 138.094 140.789  1.00  0.00     0.036 C 
ATOM     28  C   UNL     1     147.482 136.017 139.434  1.00  0.00     0.032 C 
ATOM     29  C   UNL     1     148.178 137.385 139.435  1.00  0.00     0.114 C 
BRANCH  29  30
ATOM     30  O   UNL     1     149.543 137.200 139.166  1.00  0.00    -0.393 OA
ATOM     31  H   UNL     1     149.991 137.062 140.041  1.00  0.00     0.210 HD
ENDBRANCH  29  30
ENDBRANCH   1  11
TORSDOF 6
ENDMDL
MODEL 2
REMARK VINA RESULT:    -6.763      3.695      9.133
REMARK INTER + INTRA:          -9.754
REMARK INTER:                  -8.546
REMARK INTRA:                  -1.208
REMARK UNBOUND:                -0.816
REMARK SMILES CC[C@H](C=C[C@H](C)[C@@H]1CC[C@H]2C3=CC[C@H]4C[C@@H](O)CC[C@]4(C)[C@@H]3CC[C@]21C)C(C)C
REMARK SMILES IDX 6 1 7 2 5 3 4 4 3 5 2 6 1 7 28 8 29 9 30 10 8 11 9 12 26 13
REMARK SMILES IDX 10 14 11 15 25 16 27 17 12 18 24 19 23 20 13 21 21 22 14 23
REMARK SMILES IDX 15 24 20 25 22 26 16 27 19 28 17 29 18 30
REMARK H PARENT 18 31
REMARK Flexibility Score: inf
ROOT
ATOM      1  C   UNL     1     146.724 140.308 137.104  1.00  0.00     0.012 C 
ATOM      2  C   UNL     1     145.799 141.513 136.873  1.00  0.00     0.012 C 
ENDROOT
BRANCH   1   3
ATOM      3  C   UNL     1     147.861 140.771 137.992  1.00  0.00    -0.028 C 
ATOM      4  C   UNL     1     147.643 141.320 139.198  1.00  0.00    -0.027 C 
BRANCH   4   5
ATOM      5  C   UNL     1     148.785 141.747 140.097  1.00  0.00     0.014 C 
BRANCH   5   6
ATOM      6  C   UNL     1     148.717 143.265 140.374  1.00  0.00     0.004 C 
ATOM      7  C   UNL     1     149.767 143.715 141.391  1.00  0.00     0.004 C 
ENDBRANCH   5   6
BRANCH   5   8
ATOM      8  C   UNL     1     148.821 140.917 141.415  1.00  0.00    -0.011 C 
ATOM      9  C   UNL     1     149.333 139.490 141.164  1.00  0.00     0.008 C 
ATOM     10  C   UNL     1     147.468 140.870 142.149  1.00  0.00     0.008 C 
ENDBRANCH   5   8
ENDBRANCH   4   5
ENDBRANCH   1   3
BRANCH   1  11
ATOM     11  C   UNL     1     145.993 139.094 137.770  1.00  0.00     0.002 C 
ATOM     12  C   UNL     1     146.983 137.980 138.130  1.00  0.00     0.005 C 
ATOM     13  C   UNL     1     144.871 138.364 136.957  1.00  0.00    -0.023 C 
ATOM     14  C   UNL     1     146.181 136.695 138.267  1.00  0.00     0.009 C 
ATOM     15  C   UNL     1     144.856 136.903 137.523  1.00  0.00     0.021 C 
ATOM     16  C   UNL     1     143.466 139.033 137.111  1.00  0.00     0.008 C 
ATOM     17  C   UNL     1     145.215 138.293 135.446  1.00  0.00     0.012 C 
ATOM     18  C   UNL     1     143.677 136.656 138.454  1.00  0.00    -0.067 C 
ATOM     19  C   UNL     1     142.875 139.011 138.543  1.00  0.00     0.009 C 
ATOM     20  C   UNL     1     143.311 137.787 139.397  1.00  0.00     0.021 C 
ATOM     21  C   UNL     1     142.891 135.567 138.290  1.00  0.00    -0.027 C 
ATOM     22  C   UNL     1     142.312 137.337 140.525  1.00  0.00    -0.023 C 
ATOM     23  C   UNL     1     141.674 135.283 139.134  1.00  0.00     0.031 C 
ATOM     24  C   UNL     1     141.149 136.534 139.864  1.00  0.00     0.002 C 
ATOM     25  C   UNL     1     141.726 138.564 141.292  1.00  0.00     0.010 C 
ATOM     26  C   UNL     1     143.112 136.462 141.540  1.00  0.00     0.012 C 
ATOM     27  C   UNL     1     140.036 136.158 140.867  1.00  0.00     0.036 C 
ATOM     28  C   UNL     1     140.624 138.171 142.289  1.00  0.00     0.032 C 
ATOM     29  C   UNL     1     139.493 137.400 141.595  1.00  0.00     0.114 C 
BRANCH  29  30
ATOM     30  O   UNL     1     138.549 137.014 142.558  1.00  0.00    -0.393 OA
ATOM     31  H   UNL     1     138.727 137.556 143.370  1.00  0.00     0.210 HD
ENDBRANCH  29  30
ENDBRANCH   1  11
TORSDOF 6
ENDMDL
MODEL 3
REMARK VINA RESULT:    -6.751      3.804      8.263
REMARK INTER + INTRA:          -9.738
REMARK INTER:                  -8.962
REMARK INTRA:                  -0.776
REMARK UNBOUND:                -0.816
REMARK SMILES CC[C@H](C=C[C@H](C)[C@@H]1CC[C@H]2C3=CC[C@H]4C[C@@H](O)CC[C@]4(C)[C@@H]3CC[C@]21C)C(C)C
REMARK SMILES IDX 6 1 7 2 5 3 4 4 3 5 2 6 1 7 28 8 29 9 30 10 8 11 9 12 26 13
REMARK SMILES IDX 10 14 11 15 25 16 27 17 12 18 24 19 23 20 13 21 21 22 14 23
REMARK SMILES IDX 15 24 20 25 22 26 16 27 19 28 17 29 18 30
REMARK H PARENT 18 31
REMARK Flexibility Score: inf
ROOT
ATOM      1  C   UNL     1     148.331 140.264 138.366  1.00  0.00     0.012 C 
ATOM      2  C   UNL     1     149.790 139.969 137.989  1.00  0.00     0.012 C 
ENDROOT
BRANCH   1   3
ATOM      3  C   UNL     1     147.459 139.774 137.228  1.00  0.00    -0.028 C 
ATOM      4  C   UNL     1     146.181 140.165 137.093  1.00  0.00    -0.027 C 
BRANCH   4   5
ATOM      5  C   UNL     1     145.324 139.702 135.933  1.00  0.00     0.014 C 
BRANCH   5   6
ATOM      6  C   UNL     1     145.597 138.214 135.620  1.00  0.00     0.004 C 
ATOM      7  C   UNL     1     144.307 137.426 135.386  1.00  0.00     0.004 C 
ENDBRANCH   5   6
BRANCH   5   8
ATOM      8  C   UNL     1     143.812 139.974 136.189  1.00  0.00    -0.011 C 
ATOM      9  C   UNL     1     143.325 141.205 135.409  1.00  0.00     0.008 C 
ATOM     10  C   UNL     1     143.458 140.122 137.680  1.00  0.00     0.008 C 
ENDBRANCH   5   8
ENDBRANCH   4   5
ENDBRANCH   1   3
BRANCH   1  11
ATOM     11  C   UNL     1     147.893 139.576 139.703  1.00  0.00     0.002 C 
ATOM     12  C   UNL     1     148.844 139.937 140.850  1.00  0.00     0.005 C 
ATOM     13  C   UNL     1     147.814 138.013 139.745  1.00  0.00    -0.023 C 
ATOM     14  C   UNL     1     148.680 138.870 141.921  1.00  0.00     0.009 C 
ATOM     15  C   UNL     1     148.050 137.643 141.249  1.00  0.00     0.021 C 
ATOM     16  C   UNL     1     146.443 137.453 139.244  1.00  0.00     0.008 C 
ATOM     17  C   UNL     1     148.943 137.362 138.904  1.00  0.00     0.012 C 
ATOM     18  C   UNL     1     146.761 137.250 141.957  1.00  0.00    -0.067 C 
ATOM     19  C   UNL     1     145.214 137.848 140.101  1.00  0.00     0.009 C 
ATOM     20  C   UNL     1     145.525 138.058 141.610  1.00  0.00     0.021 C 
ATOM     21  C   UNL     1     146.702 136.115 142.691  1.00  0.00    -0.027 C 
ATOM     22  C   UNL     1     144.335 137.805 142.606  1.00  0.00    -0.023 C 
ATOM     23  C   UNL     1     145.448 135.629 143.374  1.00  0.00     0.031 C 
ATOM     24  C   UNL     1     144.169 136.265 142.796  1.00  0.00     0.002 C 
ATOM     25  C   UNL     1     143.000 138.408 142.067  1.00  0.00     0.010 C 
ATOM     26  C   UNL     1     144.687 138.517 143.950  1.00  0.00     0.012 C 
ATOM     27  C   UNL     1     142.938 135.897 143.653  1.00  0.00     0.036 C 
ATOM     28  C   UNL     1     141.786 138.037 142.934  1.00  0.00     0.032 C 
ATOM     29  C   UNL     1     141.650 136.516 143.080  1.00  0.00     0.114 C 
BRANCH  29  30
ATOM     30  O   UNL     1     140.569 136.235 143.929  1.00  0.00    -0.393 OA
ATOM     31  H   UNL     1     139.762 136.168 143.353  1.00  0.00     0.210 HD
ENDBRANCH  29  30
ENDBRANCH   1  11
TORSDOF 6
ENDMDL
MODEL 4
REMARK VINA RESULT:    -6.591      6.715      9.960
REMARK INTER + INTRA:          -9.526
REMARK INTER:                  -8.163
REMARK INTRA:                  -1.363
REMARK UNBOUND:                -0.816
REMARK SMILES CC[C@H](C=C[C@H](C)[C@@H]1CC[C@H]2C3=CC[C@H]4C[C@@H](O)CC[C@]4(C)[C@@H]3CC[C@]21C)C(C)C
REMARK SMILES IDX 6 1 7 2 5 3 4 4 3 5 2 6 1 7 28 8 29 9 30 10 8 11 9 12 26 13
REMARK SMILES IDX 10 14 11 15 25 16 27 17 12 18 24 19 23 20 13 21 21 22 14 23
REMARK SMILES IDX 15 24 20 25 22 26 16 27 19 28 17 29 18 30
REMARK H PARENT 18 31
REMARK Flexibility Score: inf
ROOT
ATOM      1  C   UNL     1     148.631 135.095 140.590  1.00  0.00     0.012 C 
ATOM      2  C   UNL     1     147.262 134.455 140.865  1.00  0.00     0.012 C 
ENDROOT
BRANCH   1   3
ATOM      3  C   UNL     1     149.477 134.066 139.869  1.00  0.00    -0.028 C 
ATOM      4  C   UNL     1     148.983 133.310 138.875  1.00  0.00    -0.027 C 
BRANCH   4   5
ATOM      5  C   UNL     1     149.844 132.308 138.132  1.00  0.00     0.014 C 
BRANCH   5   6
ATOM      6  C   UNL     1     149.273 130.882 138.291  1.00  0.00     0.004 C 
ATOM      7  C   UNL     1     147.934 130.874 139.031  1.00  0.00     0.004 C 
ENDBRANCH   5   6
BRANCH   5   8
ATOM      8  C   UNL     1     150.020 132.701 136.635  1.00  0.00    -0.011 C 
ATOM      9  C   UNL     1     149.105 133.875 136.253  1.00  0.00     0.008 C 
ATOM     10  C   UNL     1     149.805 131.527 135.662  1.00  0.00     0.008 C 
ENDBRANCH   5   8
ENDBRANCH   4   5
ENDBRANCH   1   3
BRANCH   1  11
ATOM     11  C   UNL     1     148.536 136.400 139.730  1.00  0.00     0.002 C 
ATOM     12  C   UNL     1     149.899 136.774 139.137  1.00  0.00     0.005 C 
ATOM     13  C   UNL     1     148.044 137.714 140.424  1.00  0.00    -0.023 C 
ATOM     14  C   UNL     1     149.844 138.253 138.784  1.00  0.00     0.009 C 
ATOM     15  C   UNL     1     148.698 138.872 139.594  1.00  0.00     0.021 C 
ATOM     16  C   UNL     1     146.487 137.855 140.442  1.00  0.00     0.008 C 
ATOM     17  C   UNL     1     148.560 137.817 141.884  1.00  0.00     0.012 C 
ATOM     18  C   UNL     1     147.700 139.554 138.669  1.00  0.00    -0.067 C 
ATOM     19  C   UNL     1     145.817 137.971 139.049  1.00  0.00     0.009 C 
ATOM     20  C   UNL     1     146.701 138.653 137.967  1.00  0.00     0.021 C 
ATOM     21  C   UNL     1     147.597 140.903 138.648  1.00  0.00    -0.027 C 
ATOM     22  C   UNL     1     145.935 139.384 136.805  1.00  0.00    -0.023 C 
ATOM     23  C   UNL     1     146.595 141.649 137.804  1.00  0.00     0.031 C 
ATOM     24  C   UNL     1     145.426 140.760 137.338  1.00  0.00     0.002 C 
ATOM     25  C   UNL     1     144.721 138.542 136.301  1.00  0.00     0.010 C 
ATOM     26  C   UNL     1     146.935 139.560 135.620  1.00  0.00     0.012 C 
ATOM     27  C   UNL     1     144.541 141.507 136.316  1.00  0.00     0.036 C 
ATOM     28  C   UNL     1     143.855 139.298 135.282  1.00  0.00     0.032 C 
ATOM     29  C   UNL     1     143.362 140.635 135.852  1.00  0.00     0.114 C 
BRANCH  29  30
ATOM     30  O   UNL     1     142.630 141.309 134.863  1.00  0.00    -0.393 OA
ATOM     31  H   UNL     1     143.127 142.144 134.657  1.00  0.00     0.210 HD
ENDBRANCH  29  30
ENDBRANCH   1  11
TORSDOF 6
ENDMDL
MODEL 5
REMARK VINA RESULT:    -6.533      3.150      9.041
REMARK INTER + INTRA:          -9.449
REMARK INTER:                  -8.054
REMARK INTRA:                  -1.395
REMARK UNBOUND:                -0.816
REMARK SMILES CC[C@H](C=C[C@H](C)[C@@H]1CC[C@H]2C3=CC[C@H]4C[C@@H](O)CC[C@]4(C)[C@@H]3CC[C@]21C)C(C)C
REMARK SMILES IDX 6 1 7 2 5 3 4 4 3 5 2 6 1 7 28 8 29 9 30 10 8 11 9 12 26 13
REMARK SMILES IDX 10 14 11 15 25 16 27 17 12 18 24 19 23 20 13 21 21 22 14 23
REMARK SMILES IDX 15 24 20 25 22 26 16 27 19 28 17 29 18 30
REMARK H PARENT 18 31
REMARK Flexibility Score: inf
ROOT
ATOM      1  C   UNL     1     146.035 136.300 142.456  1.00  0.00     0.012 C 
ATOM      2  C   UNL     1     146.254 134.779 142.458  1.00  0.00     0.012 C 
ENDROOT
BRANCH   1   3
ATOM      3  C   UNL     1     147.033 136.902 141.488  1.00  0.00    -0.028 C 
ATOM      4  C   UNL     1     147.988 137.755 141.892  1.00  0.00    -0.027 C 
BRANCH   4   5
ATOM      5  C   UNL     1     149.007 138.326 140.926  1.00  0.00     0.014 C 
BRANCH   5   6
ATOM      6  C   UNL     1     148.891 137.635 139.549  1.00  0.00     0.004 C 
ATOM      7  C   UNL     1     150.103 137.916 138.658  1.00  0.00     0.004 C 
ENDBRANCH   5   6
BRANCH   5   8
ATOM      8  C   UNL     1     148.887 139.874 140.812  1.00  0.00    -0.011 C 
ATOM      9  C   UNL     1     149.005 140.547 142.188  1.00  0.00     0.008 C 
ATOM     10  C   UNL     1     147.600 140.341 140.106  1.00  0.00     0.008 C 
ENDBRANCH   5   8
ENDBRANCH   4   5
ENDBRANCH   1   3
BRANCH   1  11
ATOM     11  C   UNL     1     144.582 136.709 142.042  1.00  0.00     0.002 C 
ATOM     12  C   UNL     1     144.554 137.300 140.627  1.00  0.00     0.005 C 
ATOM     13  C   UNL     1     143.829 137.767 142.916  1.00  0.00    -0.023 C 
ATOM     14  C   UNL     1     143.279 138.121 140.510  1.00  0.00     0.009 C 
ATOM     15  C   UNL     1     142.811 138.444 141.934  1.00  0.00     0.021 C 
ATOM     16  C   UNL     1     143.085 137.138 144.139  1.00  0.00     0.008 C 
ATOM     17  C   UNL     1     144.793 138.863 143.443  1.00  0.00     0.012 C 
ATOM     18  C   UNL     1     141.386 137.955 142.152  1.00  0.00    -0.067 C 
ATOM     19  C   UNL     1     141.939 136.157 143.784  1.00  0.00     0.009 C 
ATOM     20  C   UNL     1     141.216 136.476 142.444  1.00  0.00     0.021 C 
ATOM     21  C   UNL     1     140.370 138.839 142.276  1.00  0.00    -0.027 C 
ATOM     22  C   UNL     1     139.719 136.004 142.335  1.00  0.00    -0.023 C 
ATOM     23  C   UNL     1     138.943 138.436 142.550  1.00  0.00     0.031 C 
ATOM     24  C   UNL     1     138.825 137.011 143.123  1.00  0.00     0.002 C 
ATOM     25  C   UNL     1     139.528 134.570 142.921  1.00  0.00     0.010 C 
ATOM     26  C   UNL     1     139.348 135.968 140.819  1.00  0.00     0.012 C 
ATOM     27  C   UNL     1     137.347 136.569 143.195  1.00  0.00     0.036 C 
ATOM     28  C   UNL     1     138.052 134.144 142.980  1.00  0.00     0.032 C 
ATOM     29  C   UNL     1     137.213 135.152 143.778  1.00  0.00     0.114 C 
BRANCH  29  30
ATOM     30  O   UNL     1     135.869 134.749 143.748  1.00  0.00    -0.393 OA
ATOM     31  H   UNL     1     135.840 133.882 143.265  1.00  0.00     0.210 HD
ENDBRANCH  29  30
ENDBRANCH   1  11
TORSDOF 6
ENDMDL
MODEL 6
REMARK VINA RESULT:    -6.505      1.899      3.633
REMARK INTER + INTRA:          -9.412
REMARK INTER:                  -8.355
REMARK INTRA:                  -1.057
REMARK UNBOUND:                -0.816
REMARK SMILES CC[C@H](C=C[C@H](C)[C@@H]1CC[C@H]2C3=CC[C@H]4C[C@@H](O)CC[C@]4(C)[C@@H]3CC[C@]21C)C(C)C
REMARK SMILES IDX 6 1 7 2 5 3 4 4 3 5 2 6 1 7 28 8 29 9 30 10 8 11 9 12 26 13
REMARK SMILES IDX 10 14 11 15 25 16 27 17 12 18 24 19 23 20 13 21 21 22 14 23
REMARK SMILES IDX 15 24 20 25 22 26 16 27 19 28 17 29 18 30
REMARK H PARENT 18 31
REMARK Flexibility Score: inf
ROOT
ATOM      1  C   UNL     1     141.247 137.881 142.449  1.00  0.00     0.012 C 
ATOM      2  C   UNL     1     141.488 139.234 143.136  1.00  0.00     0.012 C 
ENDROOT
BRANCH   1   3
ATOM      3  C   UNL     1     139.782 137.819 142.068  1.00  0.00    -0.028 C 
ATOM      4  C   UNL     1     138.810 138.186 142.920  1.00  0.00    -0.027 C 
BRANCH   4   5
ATOM      5  C   UNL     1     137.349 138.157 142.522  1.00  0.00     0.014 C 
BRANCH   5   6
ATOM      6  C   UNL     1     137.026 136.860 141.746  1.00  0.00     0.004 C 
ATOM      7  C   UNL     1     135.536 136.735 141.424  1.00  0.00     0.004 C 
ENDBRANCH   5   6
BRANCH   5   8
ATOM      8  C   UNL     1     136.413 138.346 143.752  1.00  0.00    -0.011 C 
ATOM      9  C   UNL     1     135.468 139.542 143.558  1.00  0.00     0.008 C 
ATOM     10  C   UNL     1     137.171 138.485 145.085  1.00  0.00     0.008 C 
ENDBRANCH   5   8
ENDBRANCH   4   5
ENDBRANCH   1   3
BRANCH   1  11
ATOM     11  C   UNL     1     142.134 137.675 141.176  1.00  0.00     0.002 C 
ATOM     12  C   UNL     1     141.278 137.318 139.955  1.00  0.00     0.005 C 
ATOM     13  C   UNL     1     143.237 136.564 141.210  1.00  0.00    -0.023 C 
ATOM     14  C   UNL     1     142.195 136.644 138.946  1.00  0.00     0.009 C 
ATOM     15  C   UNL     1     143.427 136.145 139.712  1.00  0.00     0.021 C 
ATOM     16  C   UNL     1     144.589 137.058 141.823  1.00  0.00     0.008 C 
ATOM     17  C   UNL     1     142.768 135.317 142.005  1.00  0.00     0.012 C 
ATOM     18  C   UNL     1     144.700 136.719 139.107  1.00  0.00    -0.067 C 
ATOM     19  C   UNL     1     145.304 138.181 141.030  1.00  0.00     0.009 C 
ATOM     20  C   UNL     1     145.051 138.144 139.496  1.00  0.00     0.021 C 
ATOM     21  C   UNL     1     145.558 135.921 138.431  1.00  0.00    -0.027 C 
ATOM     22  C   UNL     1     146.180 138.759 138.591  1.00  0.00    -0.023 C 
ATOM     23  C   UNL     1     146.865 136.403 137.853  1.00  0.00     0.031 C 
ATOM     24  C   UNL     1     147.344 137.725 138.483  1.00  0.00     0.002 C 
ATOM     25  C   UNL     1     146.726 140.094 139.187  1.00  0.00     0.010 C 
ATOM     26  C   UNL     1     145.550 139.066 137.197  1.00  0.00     0.012 C 
ATOM     27  C   UNL     1     148.570 138.282 137.724  1.00  0.00     0.036 C 
ATOM     28  C   UNL     1     147.941 140.637 138.418  1.00  0.00     0.032 C 
ATOM     29  C   UNL     1     149.067 139.596 138.350  1.00  0.00     0.114 C 
BRANCH  29  30
ATOM     30  O   UNL     1     150.123 140.118 137.587  1.00  0.00    -0.393 OA
ATOM     31  H   UNL     1     150.912 139.539 137.755  1.00  0.00     0.210 HD
ENDBRANCH  29  30
ENDBRANCH   1  11
TORSDOF 6
ENDMDL
MODEL 7
REMARK VINA RESULT:    -6.433      6.126      8.648
REMARK INTER + INTRA:          -9.317
REMARK INTER:                  -8.166
REMARK INTRA:                  -1.151
REMARK UNBOUND:                -0.816
REMARK SMILES CC[C@H](C=C[C@H](C)[C@@H]1CC[C@H]2C3=CC[C@H]4C[C@@H](O)CC[C@]4(C)[C@@H]3CC[C@]21C)C(C)C
REMARK SMILES IDX 6 1 7 2 5 3 4 4 3 5 2 6 1 7 28 8 29 9 30 10 8 11 9 12 26 13
REMARK SMILES IDX 10 14 11 15 25 16 27 17 12 18 24 19 23 20 13 21 21 22 14 23
REMARK SMILES IDX 15 24 20 25 22 26 16 27 19 28 17 29 18 30
REMARK H PARENT 18 31
REMARK Flexibility Score: inf
ROOT
ATOM      1  C   UNL     1     136.916 135.764 141.693  1.00  0.00     0.012 C 
ATOM      2  C   UNL     1     138.024 136.786 141.397  1.00  0.00     0.012 C 
ENDROOT
BRANCH   1   3
ATOM      3  C   UNL     1     135.709 136.533 142.191  1.00  0.00    -0.028 C 
ATOM      4  C   UNL     1     135.559 137.847 141.959  1.00  0.00    -0.027 C 
BRANCH   4   5
ATOM      5  C   UNL     1     134.331 138.603 142.426  1.00  0.00     0.014 C 
BRANCH   5   6
ATOM      6  C   UNL     1     133.045 137.879 141.972  1.00  0.00     0.004 C 
ATOM      7  C   UNL     1     132.820 137.992 140.462  1.00  0.00     0.004 C 
ENDBRANCH   5   6
BRANCH   5   8
ATOM      8  C   UNL     1     134.353 138.839 143.966  1.00  0.00    -0.011 C 
ATOM      9  C   UNL     1     135.782 139.088 144.473  1.00  0.00     0.008 C 
ATOM     10  C   UNL     1     133.699 137.701 144.771  1.00  0.00     0.008 C 
ENDBRANCH   5   8
ENDBRANCH   4   5
ENDBRANCH   1   3
BRANCH   1  11
ATOM     11  C   UNL     1     136.521 134.909 140.442  1.00  0.00     0.002 C 
ATOM     12  C   UNL     1     135.129 134.289 140.611  1.00  0.00     0.005 C 
ATOM     13  C   UNL     1     137.435 133.701 140.048  1.00  0.00    -0.023 C 
ATOM     14  C   UNL     1     135.044 133.109 139.655  1.00  0.00     0.009 C 
ATOM     15  C   UNL     1     136.481 132.707 139.300  1.00  0.00     0.021 C 
ATOM     16  C   UNL     1     138.637 134.110 139.136  1.00  0.00     0.008 C 
ATOM     17  C   UNL     1     137.998 132.978 141.301  1.00  0.00     0.012 C 
ATOM     18  C   UNL     1     136.685 132.736 137.792  1.00  0.00    -0.067 C 
ATOM     19  C   UNL     1     138.249 134.673 137.745  1.00  0.00     0.009 C 
ATOM     20  C   UNL     1     136.925 134.098 137.167  1.00  0.00     0.021 C 
ATOM     21  C   UNL     1     136.844 131.585 137.100  1.00  0.00    -0.027 C 
ATOM     22  C   UNL     1     136.803 134.077 135.599  1.00  0.00    -0.023 C 
ATOM     23  C   UNL     1     137.107 131.533 135.616  1.00  0.00     0.031 C 
ATOM     24  C   UNL     1     137.630 132.870 135.056  1.00  0.00     0.002 C 
ATOM     25  C   UNL     1     137.337 135.400 134.967  1.00  0.00     0.010 C 
ATOM     26  C   UNL     1     135.288 133.943 135.248  1.00  0.00     0.012 C 
ATOM     27  C   UNL     1     137.690 132.833 133.513  1.00  0.00     0.036 C 
ATOM     28  C   UNL     1     137.386 135.348 133.431  1.00  0.00     0.032 C 
ATOM     29  C   UNL     1     138.222 134.158 132.940  1.00  0.00     0.114 C 
BRANCH  29  30
ATOM     30  O   UNL     1     138.182 134.122 131.538  1.00  0.00    -0.393 OA
ATOM     31  H   UNL     1     137.853 135.009 131.237  1.00  0.00     0.210 HD
ENDBRANCH  29  30
ENDBRANCH   1  11
TORSDOF 6
ENDMDL
MODEL 8
REMARK VINA RESULT:    -6.409      3.948      9.136
REMARK INTER + INTRA:          -9.286
REMARK INTER:                  -8.082
REMARK INTRA:                  -1.204
REMARK UNBOUND:                -0.816
REMARK SMILES CC[C@H](C=C[C@H](C)[C@@H]1CC[C@H]2C3=CC[C@H]4C[C@@H](O)CC[C@]4(C)[C@@H]3CC[C@]21C)C(C)C
REMARK SMILES IDX 6 1 7 2 5 3 4 4 3 5 2 6 1 7 28 8 29 9 30 10 8 11 9 12 26 13
REMARK SMILES IDX 10 14 11 15 25 16 27 17 12 18 24 19 23 20 13 21 21 22 14 23
REMARK SMILES IDX 15 24 20 25 22 26 16 27 19 28 17 29 18 30
REMARK H PARENT 18 31
REMARK Flexibility Score: inf
ROOT
ATOM      1  C   UNL     1     142.291 137.291 138.225  1.00  0.00     0.012 C 
ATOM      2  C   UNL     1     141.348 137.019 137.043  1.00  0.00     0.012 C 
ENDROOT
BRANCH   1   3
ATOM      3  C   UNL     1     143.008 138.595 137.945  1.00  0.00    -0.028 C 
ATOM      4  C   UNL     1     144.227 138.629 137.383  1.00  0.00    -0.027 C 
BRANCH   4   5
ATOM      5  C   UNL     1     144.924 139.938 137.071  1.00  0.00     0.014 C 
BRANCH   5   6
ATOM      6  C   UNL     1     143.897 141.087 136.971  1.00  0.00     0.004 C 
ATOM      7  C   UNL     1     143.433 141.324 135.532  1.00  0.00     0.004 C 
ENDBRANCH   5   6
BRANCH   5   8
ATOM      8  C   UNL     1     146.048 140.252 138.103  1.00  0.00    -0.011 C 
ATOM      9  C   UNL     1     147.136 141.148 137.490  1.00  0.00     0.008 C 
ATOM     10  C   UNL     1     146.687 138.993 138.717  1.00  0.00     0.008 C 
ENDBRANCH   5   8
ENDBRANCH   4   5
ENDBRANCH   1   3
BRANCH   1  11
ATOM     11  C   UNL     1     141.543 137.381 139.597  1.00  0.00     0.002 C 
ATOM     12  C   UNL     1     142.174 138.444 140.504  1.00  0.00     0.005 C 
ATOM     13  C   UNL     1     141.477 136.100 140.495  1.00  0.00    -0.023 C 
ATOM     14  C   UNL     1     141.762 138.118 141.931  1.00  0.00     0.009 C 
ATOM     15  C   UNL     1     141.336 136.645 141.958  1.00  0.00     0.021 C 
ATOM     16  C   UNL     1     140.281 135.158 140.136  1.00  0.00     0.008 C 
ATOM     17  C   UNL     1     142.789 135.276 140.411  1.00  0.00     0.012 C 
ATOM     18  C   UNL     1     139.917 136.509 142.490  1.00  0.00    -0.067 C 
ATOM     19  C   UNL     1     138.872 135.764 140.357  1.00  0.00     0.009 C 
ATOM     20  C   UNL     1     138.795 136.803 141.512  1.00  0.00     0.021 C 
ATOM     21  C   UNL     1     139.691 135.960 143.706  1.00  0.00    -0.027 C 
ATOM     22  C   UNL     1     137.398 136.954 142.217  1.00  0.00    -0.023 C 
ATOM     23  C   UNL     1     138.314 135.739 144.278  1.00  0.00     0.031 C 
ATOM     24  C   UNL     1     137.211 135.759 143.203  1.00  0.00     0.002 C 
ATOM     25  C   UNL     1     136.231 136.959 141.180  1.00  0.00     0.010 C 
ATOM     26  C   UNL     1     137.394 138.324 142.965  1.00  0.00     0.012 C 
ATOM     27  C   UNL     1     135.809 135.733 143.853  1.00  0.00     0.036 C 
ATOM     28  C   UNL     1     134.845 136.939 141.843  1.00  0.00     0.032 C 
ATOM     29  C   UNL     1     134.697 135.740 142.790  1.00  0.00     0.114 C 
BRANCH  29  30
ATOM     30  O   UNL     1     133.442 135.804 143.413  1.00  0.00    -0.393 OA
ATOM     31  H   UNL     1     132.842 136.304 142.800  1.00  0.00     0.210 HD
ENDBRANCH  29  30
ENDBRANCH   1  11
TORSDOF 6
ENDMDL
MODEL 9
REMARK VINA RESULT:    -6.338      6.290      8.728
REMARK INTER + INTRA:          -9.192
REMARK INTER:                  -8.630
REMARK INTRA:                  -0.563
REMARK UNBOUND:                -0.816
REMARK SMILES CC[C@H](C=C[C@H](C)[C@@H]1CC[C@H]2C3=CC[C@H]4C[C@@H](O)CC[C@]4(C)[C@@H]3CC[C@]21C)C(C)C
REMARK SMILES IDX 6 1 7 2 5 3 4 4 3 5 2 6 1 7 28 8 29 9 30 10 8 11 9 12 26 13
REMARK SMILES IDX 10 14 11 15 25 16 27 17 12 18 24 19 23 20 13 21 21 22 14 23
REMARK SMILES IDX 15 24 20 25 22 26 16 27 19 28 17 29 18 30
REMARK H PARENT 18 31
REMARK Flexibility Score: inf
ROOT
ATOM      1  C   UNL     1     146.226 140.954 137.030  1.00  0.00     0.012 C 
ATOM      2  C   UNL     1     144.799 141.520 136.972  1.00  0.00     0.012 C 
ENDROOT
BRANCH   1   3
ATOM      3  C   UNL     1     146.810 141.328 138.376  1.00  0.00    -0.028 C 
ATOM      4  C   UNL     1     147.985 140.837 138.802  1.00  0.00    -0.027 C 
BRANCH   4   5
ATOM      5  C   UNL     1     148.584 141.244 140.133  1.00  0.00     0.014 C 
BRANCH   5   6
ATOM      6  C   UNL     1     148.199 142.700 140.475  1.00  0.00     0.004 C 
ATOM      7  C   UNL     1     149.427 143.592 140.667  1.00  0.00     0.004 C 
ENDBRANCH   5   6
BRANCH   5   8
ATOM      8  C   UNL     1     148.185 140.256 141.269  1.00  0.00    -0.011 C 
ATOM      9  C   UNL     1     147.569 140.998 142.466  1.00  0.00     0.008 C 
ATOM     10  C   UNL     1     149.346 139.363 141.744  1.00  0.00     0.008 C 
ENDBRANCH   5   8
ENDBRANCH   4   5
ENDBRANCH   1   3
BRANCH   1  11
ATOM     11  C   UNL     1     146.276 139.400 136.844  1.00  0.00     0.002 C 
ATOM     12  C   UNL     1     146.004 139.005 135.388  1.00  0.00     0.005 C 
ATOM     13  C   UNL     1     145.282 138.519 137.673  1.00  0.00    -0.023 C 
ATOM     14  C   UNL     1     145.562 137.550 135.392  1.00  0.00     0.009 C 
ATOM     15  C   UNL     1     145.085 137.223 136.813  1.00  0.00     0.021 C 
ATOM     16  C   UNL     1     145.817 138.162 139.098  1.00  0.00     0.008 C 
ATOM     17  C   UNL     1     143.901 139.209 137.829  1.00  0.00     0.012 C 
ATOM     18  C   UNL     1     145.855 136.035 137.373  1.00  0.00    -0.067 C 
ATOM     19  C   UNL     1     147.099 137.292 139.125  1.00  0.00     0.009 C 
ATOM     20  C   UNL     1     147.242 136.323 137.917  1.00  0.00     0.021 C 
ATOM     21  C   UNL     1     145.240 134.844 137.551  1.00  0.00    -0.027 C 
ATOM     22  C   UNL     1     148.077 135.015 138.171  1.00  0.00    -0.023 C 
ATOM     23  C   UNL     1     145.917 133.638 138.153  1.00  0.00     0.031 C 
ATOM     24  C   UNL     1     147.183 134.002 138.952  1.00  0.00     0.002 C 
ATOM     25  C   UNL     1     149.368 135.313 138.997  1.00  0.00     0.010 C 
ATOM     26  C   UNL     1     148.505 134.453 136.780  1.00  0.00     0.012 C 
ATOM     27  C   UNL     1     147.951 132.729 139.374  1.00  0.00     0.036 C 
ATOM     28  C   UNL     1     150.121 134.037 139.404  1.00  0.00     0.032 C 
ATOM     29  C   UNL     1     149.212 133.077 140.184  1.00  0.00     0.114 C 
BRANCH  29  30
ATOM     30  O   UNL     1     149.929 131.907 140.475  1.00  0.00    -0.393 OA
ATOM     31  H   UNL     1     149.925 131.355 139.650  1.00  0.00     0.210 HD
ENDBRANCH  29  30
ENDBRANCH   1  11
TORSDOF 6
ENDMDL
