MODEL 1
REMARK VINA RESULT:    -3.005      0.000      0.000
REMARK INTER + INTRA:          -3.813
REMARK INTER:                  -3.708
REMARK INTRA:                  -0.105
REMARK UNBOUND:                -0.105
REMARK SMILES CCCCCC(=O)[O-]
REMARK SMILES IDX 4 1 5 2 6 3 7 4 8 5 3 6 2 7 1 8
REMARK H PARENT
REMARK Flexibility Score: inf
ROOT
ATOM      1  C   UNL     1      19.855   8.556  29.476  1.00  0.00     0.006 C 
ENDROOT
BRANCH   1   2
ATOM      2  C   UNL     1      19.112   8.336  28.152  1.00  0.00     0.053 C 
BRANCH   2   3
ATOM      3  C   UNL     1      18.554   6.949  28.093  1.00  0.00     0.041 C 
ATOM      4  O   UNL     1      19.315   5.969  27.876  1.00  0.00    -0.550 OA
ATOM      5  O   UNL     1      17.187   6.742  28.228  1.00  0.00    -0.550 OA
ENDBRANCH   2   3
ENDBRANCH   1   2
BRANCH   1   6
ATOM      6  C   UNL     1      20.705   9.837  29.471  1.00  0.00     0.000 C 
BRANCH   6   7
ATOM      7  C   UNL     1      21.376  10.095  28.114  1.00  0.00    -0.003 C 
ATOM      8  C   UNL     1      21.575  11.589  27.875  1.00  0.00     0.004 C 
ENDBRANCH   6   7
ENDBRANCH   1   6
TORSDOF 4
ENDMDL
MODEL 2
REMARK VINA RESULT:    -2.749     22.843     23.779
REMARK INTER + INTRA:          -3.497
REMARK INTER:                  -3.295
REMARK INTRA:                  -0.202
REMARK UNBOUND:                -0.105
REMARK SMILES CCCCCC(=O)[O-]
REMARK SMILES IDX 4 1 5 2 6 3 7 4 8 5 3 6 2 7 1 8
REMARK H PARENT
REMARK Flexibility Score: inf
ROOT
ATOM      1  C   UNL     1      18.888  24.435  47.409  1.00  0.00     0.006 C 
ENDROOT
BRANCH   1   2
ATOM      2  C   UNL     1      17.734  24.363  46.400  1.00  0.00     0.053 C 
BRANCH   2   3
ATOM      3  C   UNL     1      18.248  24.540  45.006  1.00  0.00     0.041 C 
ATOM      4  O   UNL     1      17.482  24.362  44.022  1.00  0.00    -0.550 OA
ATOM      5  O   UNL     1      19.584  24.854  44.792  1.00  0.00    -0.550 OA
ENDBRANCH   2   3
ENDBRANCH   1   2
BRANCH   1   6
ATOM      6  C   UNL     1      19.131  23.097  48.125  1.00  0.00     0.000 C 
BRANCH   6   7
ATOM      7  C   UNL     1      20.607  22.671  48.095  1.00  0.00    -0.003 C 
ATOM      8  C   UNL     1      20.995  22.133  46.721  1.00  0.00     0.004 C 
ENDBRANCH   6   7
ENDBRANCH   1   6
TORSDOF 4
ENDMDL
MODEL 3
REMARK VINA RESULT:    -2.644     22.954     23.709
REMARK INTER + INTRA:          -3.368
REMARK INTER:                  -3.178
REMARK INTRA:                  -0.191
REMARK UNBOUND:                -0.105
REMARK SMILES CCCCCC(=O)[O-]
REMARK SMILES IDX 4 1 5 2 6 3 7 4 8 5 3 6 2 7 1 8
REMARK H PARENT
REMARK Flexibility Score: inf
ROOT
ATOM      1  C   UNL     1      18.715  24.420  47.024  1.00  0.00     0.006 C 
ENDROOT
BRANCH   1   2
ATOM      2  C   UNL     1      19.129  23.218  47.882  1.00  0.00     0.053 C 
BRANCH   2   3
ATOM      3  C   UNL     1      20.226  22.451  47.211  1.00  0.00     0.041 C 
ATOM      4  O   UNL     1      20.899  21.609  47.861  1.00  0.00    -0.550 OA
ATOM      5  O   UNL     1      20.536  22.703  45.880  1.00  0.00    -0.550 OA
ENDBRANCH   2   3
ENDBRANCH   1   2
BRANCH   1   6
ATOM      6  C   UNL     1      17.226  24.388  46.642  1.00  0.00     0.000 C 
BRANCH   6   7
ATOM      7  C   UNL     1      17.007  24.384  45.122  1.00  0.00    -0.003 C 
ATOM      8  C   UNL     1      18.237  24.913  44.389  1.00  0.00     0.004 C 
ENDBRANCH   6   7
ENDBRANCH   1   6
TORSDOF 4
ENDMDL
MODEL 4
REMARK VINA RESULT:    -2.563      2.630      4.396
REMARK INTER + INTRA:          -3.268
REMARK INTER:                  -3.216
REMARK INTRA:                  -0.051
REMARK UNBOUND:                -0.105
REMARK SMILES CCCCCC(=O)[O-]
REMARK SMILES IDX 4 1 5 2 6 3 7 4 8 5 3 6 2 7 1 8
REMARK H PARENT
REMARK Flexibility Score: inf
ROOT
ATOM      1  C   UNL     1      18.721   8.759  28.368  1.00  0.00     0.006 C 
ENDROOT
BRANCH   1   2
ATOM      2  C   UNL     1      19.574   9.937  27.878  1.00  0.00     0.053 C 
BRANCH   2   3
ATOM      3  C   UNL     1      20.878   9.977  28.612  1.00  0.00     0.041 C 
ATOM      4  O   UNL     1      20.908   9.796  29.858  1.00  0.00    -0.550 OA
ATOM      5  O   UNL     1      22.053  10.262  27.928  1.00  0.00    -0.550 OA
ENDBRANCH   2   3
ENDBRANCH   1   2
BRANCH   1   6
ATOM      6  C   UNL     1      19.417   7.403  28.170  1.00  0.00     0.000 C 
BRANCH   6   7
ATOM      7  C   UNL     1      18.425   6.268  27.875  1.00  0.00    -0.003 C 
ATOM      8  C   UNL     1      16.984   6.762  27.967  1.00  0.00     0.004 C 
ENDBRANCH   6   7
ENDBRANCH   1   6
TORSDOF 4
ENDMDL
MODEL 5
REMARK VINA RESULT:    -2.481     18.802     19.778
REMARK INTER + INTRA:          -3.167
REMARK INTER:                  -3.118
REMARK INTRA:                  -0.049
REMARK UNBOUND:                -0.105
REMARK SMILES CCCCCC(=O)[O-]
REMARK SMILES IDX 4 1 5 2 6 3 7 4 8 5 3 6 2 7 1 8
REMARK H PARENT
REMARK Flexibility Score: inf
ROOT
ATOM      1  C   UNL     1      30.401  24.094  31.628  1.00  0.00     0.006 C 
ENDROOT
BRANCH   1   2
ATOM      2  C   UNL     1      30.492  24.818  30.279  1.00  0.00     0.053 C 
BRANCH   2   3
ATOM      3  C   UNL     1      30.555  23.827  29.159  1.00  0.00     0.041 C 
ATOM      4  O   UNL     1      29.715  23.877  28.222  1.00  0.00    -0.550 OA
ATOM      5  O   UNL     1      31.511  22.819  29.175  1.00  0.00    -0.550 OA
ENDBRANCH   2   3
ENDBRANCH   1   2
BRANCH   1   6
ATOM      6  C   UNL     1      30.499  25.056  32.823  1.00  0.00     0.000 C 
BRANCH   6   7
ATOM      7  C   UNL     1      31.917  25.124  33.410  1.00  0.00    -0.003 C 
ATOM      8  C   UNL     1      31.880  25.117  34.936  1.00  0.00     0.004 C 
ENDBRANCH   6   7
ENDBRANCH   1   6
TORSDOF 4
ENDMDL
MODEL 6
REMARK VINA RESULT:    -2.241     19.674     20.772
REMARK INTER + INTRA:          -2.870
REMARK INTER:                  -2.822
REMARK INTRA:                  -0.048
REMARK UNBOUND:                -0.105
REMARK SMILES CCCCCC(=O)[O-]
REMARK SMILES IDX 4 1 5 2 6 3 7 4 8 5 3 6 2 7 1 8
REMARK H PARENT
REMARK Flexibility Score: inf
ROOT
ATOM      1  C   UNL     1      31.607  25.125  31.543  1.00  0.00     0.006 C 
ENDROOT
BRANCH   1   2
ATOM      2  C   UNL     1      31.109  25.103  32.994  1.00  0.00     0.053 C 
BRANCH   2   3
ATOM      3  C   UNL     1      32.267  25.102  33.942  1.00  0.00     0.041 C 
ATOM      4  O   UNL     1      32.067  25.125  35.186  1.00  0.00    -0.550 OA
ATOM      5  O   UNL     1      33.567  25.125  33.453  1.00  0.00    -0.550 OA
ENDBRANCH   2   3
ENDBRANCH   1   2
BRANCH   1   6
ATOM      6  C   UNL     1      30.488  24.835  30.530  1.00  0.00     0.000 C 
BRANCH   6   7
ATOM      7  C   UNL     1      30.743  23.555  29.719  1.00  0.00    -0.003 C 
ATOM      8  C   UNL     1      30.342  23.742  28.258  1.00  0.00     0.004 C 
ENDBRANCH   6   7
ENDBRANCH   1   6
TORSDOF 4
ENDMDL
MODEL 7
REMARK VINA RESULT:    -2.177     19.621     20.993
REMARK INTER + INTRA:          -2.791
REMARK INTER:                  -2.690
REMARK INTRA:                  -0.102
REMARK UNBOUND:                -0.105
REMARK SMILES CCCCCC(=O)[O-]
REMARK SMILES IDX 4 1 5 2 6 3 7 4 8 5 3 6 2 7 1 8
REMARK H PARENT
REMARK Flexibility Score: inf
ROOT
ATOM      1  C   UNL     1      31.914  24.781  33.602  1.00  0.00     0.006 C 
ENDROOT
BRANCH   1   2
ATOM      2  C   UNL     1      31.679  25.125  32.125  1.00  0.00     0.053 C 
BRANCH   2   3
ATOM      3  C   UNL     1      30.302  24.713  31.707  1.00  0.00     0.041 C 
ATOM      4  O   UNL     1      29.998  24.668  30.486  1.00  0.00    -0.550 OA
ATOM      5  O   UNL     1      29.340  24.427  32.668  1.00  0.00    -0.550 OA
ENDBRANCH   2   3
ENDBRANCH   1   2
BRANCH   1   6
ATOM      6  C   UNL     1      33.381  24.958  34.024  1.00  0.00     0.000 C 
BRANCH   6   7
ATOM      7  C   UNL     1      34.324  25.125  32.823  1.00  0.00    -0.003 C 
ATOM      8  C   UNL     1      35.748  24.708  33.181  1.00  0.00     0.004 C 
ENDBRANCH   6   7
ENDBRANCH   1   6
TORSDOF 4
ENDMDL
MODEL 8
REMARK VINA RESULT:    -2.129     20.620     21.200
REMARK INTER + INTRA:          -2.733
REMARK INTER:                  -2.634
REMARK INTRA:                  -0.098
REMARK UNBOUND:                -0.105
REMARK SMILES CCCCCC(=O)[O-]
REMARK SMILES IDX 4 1 5 2 6 3 7 4 8 5 3 6 2 7 1 8
REMARK H PARENT
REMARK Flexibility Score: inf
ROOT
ATOM      1  C   UNL     1      31.715  24.868  30.795  1.00  0.00     0.006 C 
ENDROOT
BRANCH   1   2
ATOM      2  C   UNL     1      33.223  25.015  30.549  1.00  0.00     0.053 C 
BRANCH   2   3
ATOM      3  C   UNL     1      33.610  24.341  29.269  1.00  0.00     0.041 C 
ATOM      4  O   UNL     1      34.683  23.686  29.199  1.00  0.00    -0.550 OA
ATOM      5  O   UNL     1      32.810  24.477  28.142  1.00  0.00    -0.550 OA
ENDBRANCH   2   3
ENDBRANCH   1   2
BRANCH   1   6
ATOM      6  C   UNL     1      31.328  25.125  32.260  1.00  0.00     0.000 C 
BRANCH   6   7
ATOM      7  C   UNL     1      32.502  24.907  33.227  1.00  0.00    -0.003 C 
ATOM      8  C   UNL     1      32.067  25.120  34.675  1.00  0.00     0.004 C 
ENDBRANCH   6   7
ENDBRANCH   1   6
TORSDOF 4
ENDMDL
