MODEL 1
REMARK VINA RESULT:    -2.834      0.000      0.000
REMARK INTER + INTRA:          -3.177
REMARK INTER:                  -3.165
REMARK INTRA:                  -0.012
REMARK UNBOUND:                -0.012
REMARK SMILES CCCC(=O)[O-]
REMARK SMILES IDX 3 1 4 2 5 3 6 4 2 5 1 6
REMARK H PARENT
REMARK Flexibility Score: inf
ROOT
ATOM      1  C   UNL     1      55.784  22.348  48.737  1.00  0.00     0.052 C 
ENDROOT
BRANCH   1   2
ATOM      2  C   UNL     1      55.703  21.054  49.486  1.00  0.00     0.041 C 
ATOM      3  O   UNL     1      56.316  20.038  49.067  1.00  0.00    -0.550 OA
ATOM      4  O   UNL     1      54.973  20.979  50.667  1.00  0.00    -0.550 OA
ENDBRANCH   1   2
BRANCH   1   5
ATOM      5  C   UNL     1      56.827  22.289  47.614  1.00  0.00     0.003 C 
ATOM      6  C   UNL     1      57.292  23.678  47.179  1.00  0.00     0.004 C 
ENDBRANCH   1   5
TORSDOF 2
ENDMDL
MODEL 2
REMARK VINA RESULT:    -2.816      2.591      3.441
REMARK INTER + INTRA:          -3.157
REMARK INTER:                  -3.136
REMARK INTRA:                  -0.021
REMARK UNBOUND:                -0.012
REMARK SMILES CCCC(=O)[O-]
REMARK SMILES IDX 3 1 4 2 5 3 6 4 2 5 1 6
REMARK H PARENT
REMARK Flexibility Score: inf
ROOT
ATOM      1  C   UNL     1      56.374  22.368  48.101  1.00  0.00     0.052 C 
ENDROOT
BRANCH   1   2
ATOM      2  C   UNL     1      55.307  23.403  47.919  1.00  0.00     0.041 C 
ATOM      3  O   UNL     1      54.205  23.291  48.517  1.00  0.00    -0.550 OA
ATOM      4  O   UNL     1      55.543  24.510  47.113  1.00  0.00    -0.550 OA
ENDBRANCH   1   2
BRANCH   1   5
ATOM      5  C   UNL     1      55.939  21.272  49.083  1.00  0.00     0.003 C 
ATOM      6  C   UNL     1      56.340  19.876  48.608  1.00  0.00     0.004 C 
ENDBRANCH   1   5
TORSDOF 2
ENDMDL
MODEL 3
REMARK VINA RESULT:    -2.798      2.797      3.565
REMARK INTER + INTRA:          -3.137
REMARK INTER:                  -3.129
REMARK INTRA:                  -0.008
REMARK UNBOUND:                -0.012
REMARK SMILES CCCC(=O)[O-]
REMARK SMILES IDX 3 1 4 2 5 3 6 4 2 5 1 6
REMARK H PARENT
REMARK Flexibility Score: inf
ROOT
ATOM      1  C   UNL     1      56.826  22.334  47.608  1.00  0.00     0.052 C 
ENDROOT
BRANCH   1   2
ATOM      2  C   UNL     1      56.795  23.820  47.792  1.00  0.00     0.041 C 
ATOM      3  O   UNL     1      56.588  24.577  46.808  1.00  0.00    -0.550 OA
ATOM      4  O   UNL     1      56.962  24.368  49.058  1.00  0.00    -0.550 OA
ENDBRANCH   1   2
BRANCH   1   5
ATOM      5  C   UNL     1      56.066  21.609  48.726  1.00  0.00     0.003 C 
ATOM      6  C   UNL     1      56.323  20.102  48.720  1.00  0.00     0.004 C 
ENDBRANCH   1   5
TORSDOF 2
ENDMDL
MODEL 4
REMARK VINA RESULT:    -2.781      2.867      3.709
REMARK INTER + INTRA:          -3.118
REMARK INTER:                  -3.111
REMARK INTRA:                  -0.008
REMARK UNBOUND:                -0.012
REMARK SMILES CCCC(=O)[O-]
REMARK SMILES IDX 3 1 4 2 5 3 6 4 2 5 1 6
REMARK H PARENT
REMARK Flexibility Score: inf
ROOT
ATOM      1  C   UNL     1      56.778  22.428  47.702  1.00  0.00     0.052 C 
ENDROOT
BRANCH   1   2
ATOM      2  C   UNL     1      56.670  23.914  47.847  1.00  0.00     0.041 C 
ATOM      3  O   UNL     1      57.057  24.479  48.903  1.00  0.00    -0.550 OA
ATOM      4  O   UNL     1      56.171  24.680  46.801  1.00  0.00    -0.550 OA
ENDBRANCH   1   2
BRANCH   1   5
ATOM      5  C   UNL     1      55.965  21.692  48.775  1.00  0.00     0.003 C 
ATOM      6  C   UNL     1      56.256  20.192  48.798  1.00  0.00     0.004 C 
ENDBRANCH   1   5
TORSDOF 2
ENDMDL
MODEL 5
REMARK VINA RESULT:    -2.716      2.677      3.260
REMARK INTER + INTRA:          -3.045
REMARK INTER:                  -3.002
REMARK INTRA:                  -0.043
REMARK UNBOUND:                -0.012
REMARK SMILES CCCC(=O)[O-]
REMARK SMILES IDX 3 1 4 2 5 3 6 4 2 5 1 6
REMARK H PARENT
REMARK Flexibility Score: inf
ROOT
ATOM      1  C   UNL     1      55.800  23.709  48.561  1.00  0.00     0.052 C 
ENDROOT
BRANCH   1   2
ATOM      2  C   UNL     1      56.767  23.048  47.628  1.00  0.00     0.041 C 
ATOM      3  O   UNL     1      57.456  23.739  46.833  1.00  0.00    -0.550 OA
ATOM      4  O   UNL     1      56.931  21.668  47.660  1.00  0.00    -0.550 OA
ENDBRANCH   1   2
BRANCH   1   5
ATOM      5  C   UNL     1      54.355  23.584  48.062  1.00  0.00     0.003 C 
ATOM      6  C   UNL     1      53.981  24.694  47.081  1.00  0.00     0.004 C 
ENDBRANCH   1   5
TORSDOF 2
ENDMDL
MODEL 6
REMARK VINA RESULT:    -2.712      1.741      2.368
REMARK INTER + INTRA:          -3.040
REMARK INTER:                  -3.020
REMARK INTRA:                  -0.020
REMARK UNBOUND:                -0.012
REMARK SMILES CCCC(=O)[O-]
REMARK SMILES IDX 3 1 4 2 5 3 6 4 2 5 1 6
REMARK H PARENT
REMARK Flexibility Score: inf
ROOT
ATOM      1  C   UNL     1      55.477  22.369  48.922  1.00  0.00     0.052 C 
ENDROOT
BRANCH   1   2
ATOM      2  C   UNL     1      56.401  21.400  48.252  1.00  0.00     0.041 C 
ATOM      3  O   UNL     1      57.138  21.778  47.304  1.00  0.00    -0.550 OA
ATOM      4  O   UNL     1      56.471  20.085  48.696  1.00  0.00    -0.550 OA
ENDBRANCH   1   2
BRANCH   1   5
ATOM      5  C   UNL     1      55.221  23.605  48.051  1.00  0.00     0.003 C 
ATOM      6  C   UNL     1      53.731  23.867  47.836  1.00  0.00     0.004 C 
ENDBRANCH   1   5
TORSDOF 2
ENDMDL
MODEL 7
REMARK VINA RESULT:    -2.688      2.181      3.370
REMARK INTER + INTRA:          -3.015
REMARK INTER:                  -3.008
REMARK INTRA:                  -0.007
REMARK UNBOUND:                -0.012
REMARK SMILES CCCC(=O)[O-]
REMARK SMILES IDX 3 1 4 2 5 3 6 4 2 5 1 6
REMARK H PARENT
REMARK Flexibility Score: inf
ROOT
ATOM      1  C   UNL     1      55.476  22.448  48.792  1.00  0.00     0.052 C 
ENDROOT
BRANCH   1   2
ATOM      2  C   UNL     1      56.653  22.719  47.906  1.00  0.00     0.041 C 
ATOM      3  O   UNL     1      57.163  21.790  47.226  1.00  0.00    -0.550 OA
ATOM      4  O   UNL     1      57.165  24.006  47.805  1.00  0.00    -0.550 OA
ENDBRANCH   1   2
BRANCH   1   5
ATOM      5  C   UNL     1      55.688  21.193  49.648  1.00  0.00     0.003 C 
ATOM      6  C   UNL     1      54.905  21.246  50.960  1.00  0.00     0.004 C 
ENDBRANCH   1   5
TORSDOF 2
ENDMDL
MODEL 8
REMARK VINA RESULT:    -2.685      2.372      3.016
REMARK INTER + INTRA:          -3.011
REMARK INTER:                  -3.005
REMARK INTRA:                  -0.006
REMARK UNBOUND:                -0.012
REMARK SMILES CCCC(=O)[O-]
REMARK SMILES IDX 3 1 4 2 5 3 6 4 2 5 1 6
REMARK H PARENT
REMARK Flexibility Score: inf
ROOT
ATOM      1  C   UNL     1      55.568  22.216  49.105  1.00  0.00     0.052 C 
ENDROOT
BRANCH   1   2
ATOM      2  C   UNL     1      54.411  22.911  49.753  1.00  0.00     0.041 C 
ATOM      3  O   UNL     1      53.554  23.508  49.051  1.00  0.00    -0.550 OA
ATOM      4  O   UNL     1      54.262  22.871  51.134  1.00  0.00    -0.550 OA
ENDBRANCH   1   2
BRANCH   1   5
ATOM      5  C   UNL     1      55.765  20.801  49.663  1.00  0.00     0.003 C 
ATOM      6  C   UNL     1      56.356  19.845  48.627  1.00  0.00     0.004 C 
ENDBRANCH   1   5
TORSDOF 2
ENDMDL
MODEL 9
REMARK VINA RESULT:    -2.677      2.567      3.337
REMARK INTER + INTRA:          -3.002
REMARK INTER:                  -2.960
REMARK INTRA:                  -0.042
REMARK UNBOUND:                -0.012
REMARK SMILES CCCC(=O)[O-]
REMARK SMILES IDX 3 1 4 2 5 3 6 4 2 5 1 6
REMARK H PARENT
REMARK Flexibility Score: inf
ROOT
ATOM      1  C   UNL     1      56.134  23.589  48.640  1.00  0.00     0.052 C 
ENDROOT
BRANCH   1   2
ATOM      2  C   UNL     1      56.969  22.986  47.554  1.00  0.00     0.041 C 
ATOM      3  O   UNL     1      57.028  21.737  47.418  1.00  0.00    -0.550 OA
ATOM      4  O   UNL     1      57.658  23.808  46.670  1.00  0.00    -0.550 OA
ENDBRANCH   1   2
BRANCH   1   5
ATOM      5  C   UNL     1      54.683  23.096  48.581  1.00  0.00     0.003 C 
ATOM      6  C   UNL     1      53.799  23.992  47.715  1.00  0.00     0.004 C 
ENDBRANCH   1   5
TORSDOF 2
ENDMDL
