MODEL 1
REMARK VINA RESULT:    -4.164      0.000      0.000
REMARK INTER + INTRA:          -7.040
REMARK INTER:                  -5.989
REMARK INTRA:                  -1.050
REMARK UNBOUND:                -1.050
REMARK SMILES O=C(CO)[C@H](O)[C@H](O)[C@H](O)CO
REMARK SMILES IDX 7 1 9 2 11 3 12 4 10 6 5 8 2 9 1 10 3 11 4 12 6 14 8 16
REMARK H PARENT 12 5 10 7 4 13 6 15 8 17
REMARK Flexibility Score: inf
ROOT
ATOM      1  C   UNL     1      -3.157  18.765  46.955  1.00  0.00     0.181 C 
ENDROOT
BRANCH   1   2
ATOM      2  C   UNL     1      -2.087  18.208  47.931  1.00  0.00     0.171 C 
BRANCH   2   3
ATOM      3  C   UNL     1      -2.728  17.474  49.123  1.00  0.00     0.190 C 
BRANCH   3   4
ATOM      4  O   UNL     1      -3.068  18.385  50.132  1.00  0.00    -0.394 OA
ATOM      5  H   UNL     1      -3.204  19.258  49.680  1.00  0.00     0.210 HD
ENDBRANCH   3   4
ENDBRANCH   2   3
BRANCH   2   6
ATOM      6  O   UNL     1      -1.254  17.305  47.248  1.00  0.00    -0.388 OA
ATOM      7  H   UNL     1      -0.332  17.446  47.590  1.00  0.00     0.211 HD
ENDBRANCH   2   6
ENDBRANCH   1   2
BRANCH   1   8
ATOM      8  C   UNL     1      -3.086  20.308  46.789  1.00  0.00     0.214 C 
BRANCH   8   9
ATOM      9  C   UNL     1      -3.958  21.031  47.793  1.00  0.00     0.189 C 
ATOM     10  O   UNL     1      -3.692  20.940  48.983  1.00  0.00    -0.294 OA
BRANCH   9  11
ATOM     11  C   UNL     1      -5.102  21.907  47.350  1.00  0.00     0.234 C 
BRANCH  11  12
ATOM     12  O   UNL     1      -4.630  22.995  46.605  1.00  0.00    -0.388 OA
ATOM     13  H   UNL     1      -3.661  22.830  46.460  1.00  0.00     0.211 HD
ENDBRANCH  11  12
ENDBRANCH   9  11
ENDBRANCH   8   9
BRANCH   8  14
ATOM     14  O   UNL     1      -3.429  20.682  45.478  1.00  0.00    -0.382 OA
ATOM     15  H   UNL     1      -3.427  19.854  44.930  1.00  0.00     0.211 HD
ENDBRANCH   8  14
ENDBRANCH   1   8
BRANCH   1  16
ATOM     16  O   UNL     1      -4.437  18.420  47.421  1.00  0.00    -0.387 OA
ATOM     17  H   UNL     1      -4.315  17.958  48.292  1.00  0.00     0.211 HD
ENDBRANCH   1  16
TORSDOF 10
ENDMDL
MODEL 2
REMARK VINA RESULT:    -4.121      1.552      2.648
REMARK INTER + INTRA:          -6.978
REMARK INTER:                  -6.186
REMARK INTRA:                  -0.792
REMARK UNBOUND:                -1.050
REMARK SMILES O=C(CO)[C@H](O)[C@H](O)[C@H](O)CO
REMARK SMILES IDX 7 1 9 2 11 3 12 4 10 6 5 8 2 9 1 10 3 11 4 12 6 14 8 16
REMARK H PARENT 12 5 10 7 4 13 6 15 8 17
REMARK Flexibility Score: inf
ROOT
ATOM      1  C   UNL     1      -2.843  18.846  46.929  1.00  0.00     0.181 C 
ENDROOT
BRANCH   1   2
ATOM      2  C   UNL     1      -2.577  17.336  46.692  1.00  0.00     0.171 C 
BRANCH   2   3
ATOM      3  C   UNL     1      -2.046  17.066  45.272  1.00  0.00     0.190 C 
BRANCH   3   4
ATOM      4  O   UNL     1      -3.109  16.875  44.380  1.00  0.00    -0.394 OA
ATOM      5  H   UNL     1      -2.981  17.538  43.653  1.00  0.00     0.210 HD
ENDBRANCH   3   4
ENDBRANCH   2   3
BRANCH   2   6
ATOM      6  O   UNL     1      -1.627  16.875  47.618  1.00  0.00    -0.388 OA
ATOM      7  H   UNL     1      -0.815  17.436  47.504  1.00  0.00     0.211 HD
ENDBRANCH   2   6
ENDBRANCH   1   2
BRANCH   1   8
ATOM      8  C   UNL     1      -3.958  19.111  47.978  1.00  0.00     0.214 C 
BRANCH   8   9
ATOM      9  C   UNL     1      -4.021  20.567  48.388  1.00  0.00     0.189 C 
ATOM     10  O   UNL     1      -3.224  20.984  49.217  1.00  0.00    -0.294 OA
BRANCH   9  11
ATOM     11  C   UNL     1      -5.000  21.519  47.751  1.00  0.00     0.234 C 
BRANCH  11  12
ATOM     12  O   UNL     1      -4.474  22.044  46.563  1.00  0.00    -0.388 OA
ATOM     13  H   UNL     1      -3.847  22.765  46.835  1.00  0.00     0.211 HD
ENDBRANCH  11  12
ENDBRANCH   9  11
ENDBRANCH   8   9
BRANCH   8  14
ATOM     14  O   UNL     1      -3.785  18.288  49.105  1.00  0.00    -0.382 OA
ATOM     15  H   UNL     1      -4.689  17.996  49.393  1.00  0.00     0.211 HD
ENDBRANCH   8  14
ENDBRANCH   1   8
BRANCH   1  16
ATOM     16  O   UNL     1      -3.212  19.451  45.716  1.00  0.00    -0.387 OA
ATOM     17  H   UNL     1      -2.825  18.899  44.986  1.00  0.00     0.211 HD
ENDBRANCH   1  16
TORSDOF 10
ENDMDL
MODEL 3
REMARK VINA RESULT:    -4.094      1.327      4.214
REMARK INTER + INTRA:          -6.939
REMARK INTER:                  -5.970
REMARK INTRA:                  -0.969
REMARK UNBOUND:                -1.050
REMARK SMILES O=C(CO)[C@H](O)[C@H](O)[C@H](O)CO
REMARK SMILES IDX 7 1 9 2 11 3 12 4 10 6 5 8 2 9 1 10 3 11 4 12 6 14 8 16
REMARK H PARENT 12 5 10 7 4 13 6 15 8 17
REMARK Flexibility Score: inf
ROOT
ATOM      1  C   UNL     1      -3.892  19.268  48.685  1.00  0.00     0.181 C 
ENDROOT
BRANCH   1   2
ATOM      2  C   UNL     1      -3.357  20.680  48.328  1.00  0.00     0.171 C 
BRANCH   2   3
ATOM      3  C   UNL     1      -4.130  21.303  47.151  1.00  0.00     0.190 C 
BRANCH   3   4
ATOM      4  O   UNL     1      -3.641  20.814  45.932  1.00  0.00    -0.394 OA
ATOM      5  H   UNL     1      -3.188  19.957  46.141  1.00  0.00     0.210 HD
ENDBRANCH   3   4
ENDBRANCH   2   3
BRANCH   2   6
ATOM      6  O   UNL     1      -3.485  21.526  49.443  1.00  0.00    -0.388 OA
ATOM      7  H   UNL     1      -3.779  20.960  50.204  1.00  0.00     0.211 HD
ENDBRANCH   2   6
ENDBRANCH   1   2
BRANCH   1   8
ATOM      8  C   UNL     1      -2.771  18.196  48.771  1.00  0.00     0.214 C 
BRANCH   8   9
ATOM      9  C   UNL     1      -2.240  17.815  47.405  1.00  0.00     0.189 C 
ATOM     10  O   UNL     1      -2.955  17.172  46.650  1.00  0.00    -0.294 OA
BRANCH   9  11
ATOM     11  C   UNL     1      -0.879  18.265  46.940  1.00  0.00     0.234 C 
BRANCH  11  12
ATOM     12  O   UNL     1      -0.991  19.379  46.098  1.00  0.00    -0.388 OA
ATOM     13  H   UNL     1      -0.526  20.124  46.563  1.00  0.00     0.211 HD
ENDBRANCH  11  12
ENDBRANCH   9  11
ENDBRANCH   8   9
BRANCH   8  14
ATOM     14  O   UNL     1      -3.227  17.057  49.459  1.00  0.00    -0.382 OA
ATOM     15  H   UNL     1      -4.064  16.764  49.013  1.00  0.00     0.211 HD
ENDBRANCH   8  14
ENDBRANCH   1   8
BRANCH   1  16
ATOM     16  O   UNL     1      -4.828  18.866  47.717  1.00  0.00    -0.387 OA
ATOM     17  H   UNL     1      -4.353  18.263  47.086  1.00  0.00     0.211 HD
ENDBRANCH   1  16
TORSDOF 10
ENDMDL
MODEL 4
REMARK VINA RESULT:    -4.086      1.119      1.766
REMARK INTER + INTRA:          -6.928
REMARK INTER:                  -6.003
REMARK INTRA:                  -0.924
REMARK UNBOUND:                -1.050
REMARK SMILES O=C(CO)[C@H](O)[C@H](O)[C@H](O)CO
REMARK SMILES IDX 7 1 9 2 11 3 12 4 10 6 5 8 2 9 1 10 3 11 4 12 6 14 8 16
REMARK H PARENT 12 5 10 7 4 13 6 15 8 17
REMARK Flexibility Score: inf
ROOT
ATOM      1  C   UNL     1      -3.604  19.410  47.661  1.00  0.00     0.181 C 
ENDROOT
BRANCH   1   2
ATOM      2  C   UNL     1      -2.919  18.446  46.656  1.00  0.00     0.171 C 
BRANCH   2   3
ATOM      3  C   UNL     1      -2.196  17.293  47.376  1.00  0.00     0.190 C 
BRANCH   3   4
ATOM      4  O   UNL     1      -0.870  17.648  47.657  1.00  0.00    -0.394 OA
ATOM      5  H   UNL     1      -0.316  16.864  47.404  1.00  0.00     0.210 HD
ENDBRANCH   3   4
ENDBRANCH   2   3
BRANCH   2   6
ATOM      6  O   UNL     1      -3.886  17.898  45.797  1.00  0.00    -0.388 OA
ATOM      7  H   UNL     1      -4.737  18.380  45.974  1.00  0.00     0.211 HD
ENDBRANCH   2   6
ENDBRANCH   1   2
BRANCH   1   8
ATOM      8  C   UNL     1      -3.487  20.904  47.249  1.00  0.00     0.214 C 
BRANCH   8   9
ATOM      9  C   UNL     1      -4.314  21.808  48.139  1.00  0.00     0.189 C 
ATOM     10  O   UNL     1      -3.901  22.074  49.258  1.00  0.00    -0.294 OA
BRANCH   9  11
ATOM     11  C   UNL     1      -5.595  22.432  47.648  1.00  0.00     0.234 C 
BRANCH  11  12
ATOM     12  O   UNL     1      -5.330  23.385  46.656  1.00  0.00    -0.388 OA
ATOM     13  H   UNL     1      -4.399  23.217  46.354  1.00  0.00     0.211 HD
ENDBRANCH  11  12
ENDBRANCH   9  11
ENDBRANCH   8   9
BRANCH   8  14
ATOM     14  O   UNL     1      -3.846  21.076  45.900  1.00  0.00    -0.382 OA
ATOM     15  H   UNL     1      -4.229  20.214  45.590  1.00  0.00     0.211 HD
ENDBRANCH   8  14
ENDBRANCH   1   8
BRANCH   1  16
ATOM     16  O   UNL     1      -3.028  19.247  48.932  1.00  0.00    -0.387 OA
ATOM     17  H   UNL     1      -2.646  20.126  49.193  1.00  0.00     0.211 HD
ENDBRANCH   1  16
TORSDOF 10
ENDMDL
MODEL 5
REMARK VINA RESULT:    -4.053      1.683      4.250
REMARK INTER + INTRA:          -6.880
REMARK INTER:                  -5.858
REMARK INTRA:                  -1.021
REMARK UNBOUND:                -1.050
REMARK SMILES O=C(CO)[C@H](O)[C@H](O)[C@H](O)CO
REMARK SMILES IDX 7 1 9 2 11 3 12 4 10 6 5 8 2 9 1 10 3 11 4 12 6 14 8 16
REMARK H PARENT 12 5 10 7 4 13 6 15 8 17
REMARK Flexibility Score: inf
ROOT
ATOM      1  C   UNL     1      -4.407  21.062  47.439  1.00  0.00     0.181 C 
ENDROOT
BRANCH   1   2
ATOM      2  C   UNL     1      -3.958  22.234  48.351  1.00  0.00     0.171 C 
BRANCH   2   3
ATOM      3  C   UNL     1      -5.109  23.221  48.620  1.00  0.00     0.190 C 
BRANCH   3   4
ATOM      4  O   UNL     1      -6.192  22.951  47.773  1.00  0.00    -0.394 OA
ATOM      5  H   UNL     1      -7.000  22.956  48.349  1.00  0.00     0.210 HD
ENDBRANCH   3   4
ENDBRANCH   2   3
BRANCH   2   6
ATOM      6  O   UNL     1      -3.511  21.725  49.582  1.00  0.00    -0.388 OA
ATOM      7  H   UNL     1      -2.813  22.348  49.917  1.00  0.00     0.211 HD
ENDBRANCH   2   6
ENDBRANCH   1   2
BRANCH   1   8
ATOM      8  C   UNL     1      -3.852  19.685  47.898  1.00  0.00     0.214 C 
BRANCH   8   9
ATOM      9  C   UNL     1      -2.648  19.256  47.086  1.00  0.00     0.189 C 
ATOM     10  O   UNL     1      -1.586  19.840  47.249  1.00  0.00    -0.294 OA
BRANCH   9  11
ATOM     11  C   UNL     1      -2.719  18.089  46.136  1.00  0.00     0.234 C 
BRANCH  11  12
ATOM     12  O   UNL     1      -3.611  18.359  45.090  1.00  0.00    -0.388 OA
ATOM     13  H   UNL     1      -3.275  17.854  44.303  1.00  0.00     0.211 HD
ENDBRANCH  11  12
ENDBRANCH   9  11
ENDBRANCH   8   9
BRANCH   8  14
ATOM     14  O   UNL     1      -4.857  18.703  47.847  1.00  0.00    -0.382 OA
ATOM     15  H   UNL     1      -5.665  19.093  48.274  1.00  0.00     0.211 HD
ENDBRANCH   8  14
ENDBRANCH   1   8
BRANCH   1  16
ATOM     16  O   UNL     1      -3.978  21.305  46.123  1.00  0.00    -0.387 OA
ATOM     17  H   UNL     1      -3.095  20.860  46.017  1.00  0.00     0.211 HD
ENDBRANCH   1  16
TORSDOF 10
ENDMDL
MODEL 6
REMARK VINA RESULT:    -4.040      1.949      2.518
REMARK INTER + INTRA:          -6.862
REMARK INTER:                  -5.775
REMARK INTRA:                  -1.087
REMARK UNBOUND:                -1.050
REMARK SMILES O=C(CO)[C@H](O)[C@H](O)[C@H](O)CO
REMARK SMILES IDX 7 1 9 2 11 3 12 4 10 6 5 8 2 9 1 10 3 11 4 12 6 14 8 16
REMARK H PARENT 12 5 10 7 4 13 6 15 8 17
REMARK Flexibility Score: inf
ROOT
ATOM      1  C   UNL     1      -1.865  19.519  46.573  1.00  0.00     0.181 C 
ENDROOT
BRANCH   1   2
ATOM      2  C   UNL     1      -2.594  18.362  45.840  1.00  0.00     0.171 C 
BRANCH   2   3
ATOM      3  C   UNL     1      -1.837  17.029  45.984  1.00  0.00     0.190 C 
BRANCH   3   4
ATOM      4  O   UNL     1      -1.364  16.875  47.294  1.00  0.00    -0.394 OA
ATOM      5  H   UNL     1      -1.682  15.986  47.599  1.00  0.00     0.210 HD
ENDBRANCH   3   4
ENDBRANCH   2   3
BRANCH   2   6
ATOM      6  O   UNL     1      -3.882  18.204  46.378  1.00  0.00    -0.388 OA
ATOM      7  H   UNL     1      -3.769  17.930  47.326  1.00  0.00     0.211 HD
ENDBRANCH   2   6
ENDBRANCH   1   2
BRANCH   1   8
ATOM      8  C   UNL     1      -2.450  20.919  46.235  1.00  0.00     0.214 C 
BRANCH   8   9
ATOM      9  C   UNL     1      -2.919  21.655  47.472  1.00  0.00     0.189 C 
ATOM     10  O   UNL     1      -2.421  22.739  47.740  1.00  0.00    -0.294 OA
BRANCH   9  11
ATOM     11  C   UNL     1      -4.025  21.109  48.337  1.00  0.00     0.234 C 
BRANCH  11  12
ATOM     12  O   UNL     1      -5.091  20.659  47.548  1.00  0.00    -0.388 OA
ATOM     13  H   UNL     1      -5.416  21.452  47.045  1.00  0.00     0.211 HD
ENDBRANCH  11  12
ENDBRANCH   9  11
ENDBRANCH   8   9
BRANCH   8  14
ATOM     14  O   UNL     1      -3.495  20.807  45.301  1.00  0.00    -0.382 OA
ATOM     15  H   UNL     1      -4.329  20.652  45.817  1.00  0.00     0.211 HD
ENDBRANCH   8  14
ENDBRANCH   1   8
BRANCH   1  16
ATOM     16  O   UNL     1      -0.503  19.505  46.230  1.00  0.00    -0.387 OA
ATOM     17  H   UNL     1      -0.012  19.115  47.001  1.00  0.00     0.211 HD
ENDBRANCH   1  16
TORSDOF 10
ENDMDL
MODEL 7
REMARK VINA RESULT:    -4.028      1.594      2.804
REMARK INTER + INTRA:          -6.844
REMARK INTER:                  -5.911
REMARK INTRA:                  -0.933
REMARK UNBOUND:                -1.050
REMARK SMILES O=C(CO)[C@H](O)[C@H](O)[C@H](O)CO
REMARK SMILES IDX 7 1 9 2 11 3 12 4 10 6 5 8 2 9 1 10 3 11 4 12 6 14 8 16
REMARK H PARENT 12 5 10 7 4 13 6 15 8 17
REMARK Flexibility Score: inf
ROOT
ATOM      1  C   UNL     1      -2.953  19.222  47.060  1.00  0.00     0.181 C 
ENDROOT
BRANCH   1   2
ATOM      2  C   UNL     1      -2.906  17.675  46.963  1.00  0.00     0.171 C 
BRANCH   2   3
ATOM      3  C   UNL     1      -2.655  17.201  45.520  1.00  0.00     0.190 C 
BRANCH   3   4
ATOM      4  O   UNL     1      -3.856  17.168  44.800  1.00  0.00    -0.394 OA
ATOM      5  H   UNL     1      -3.610  17.298  43.847  1.00  0.00     0.210 HD
ENDBRANCH   3   4
ENDBRANCH   2   3
BRANCH   2   6
ATOM      6  O   UNL     1      -1.873  17.184  47.780  1.00  0.00    -0.388 OA
ATOM      7  H   UNL     1      -2.290  16.565  48.435  1.00  0.00     0.211 HD
ENDBRANCH   2   6
ENDBRANCH   1   2
BRANCH   1   8
ATOM      8  C   UNL     1      -3.813  19.733  48.249  1.00  0.00     0.214 C 
BRANCH   8   9
ATOM      9  C   UNL     1      -4.202  21.187  48.089  1.00  0.00     0.189 C 
ATOM     10  O   UNL     1      -5.284  21.460  47.588  1.00  0.00    -0.294 OA
BRANCH   9  11
ATOM     11  C   UNL     1      -3.313  22.296  48.592  1.00  0.00     0.234 C 
BRANCH  11  12
ATOM     12  O   UNL     1      -3.531  22.522  49.957  1.00  0.00    -0.388 OA
ATOM     13  H   UNL     1      -2.743  22.145  50.429  1.00  0.00     0.211 HD
ENDBRANCH  11  12
ENDBRANCH   9  11
ENDBRANCH   8   9
BRANCH   8  14
ATOM     14  O   UNL     1      -3.142  19.532  49.469  1.00  0.00    -0.382 OA
ATOM     15  H   UNL     1      -3.244  18.572  49.701  1.00  0.00     0.211 HD
ENDBRANCH   8  14
ENDBRANCH   1   8
BRANCH   1  16
ATOM     16  O   UNL     1      -3.476  19.749  45.867  1.00  0.00    -0.387 OA
ATOM     17  H   UNL     1      -2.746  20.265  45.432  1.00  0.00     0.211 HD
ENDBRANCH   1  16
TORSDOF 10
ENDMDL
MODEL 8
REMARK VINA RESULT:    -3.996      1.755      2.351
REMARK INTER + INTRA:          -6.798
REMARK INTER:                  -5.533
REMARK INTRA:                  -1.265
REMARK UNBOUND:                -1.050
REMARK SMILES O=C(CO)[C@H](O)[C@H](O)[C@H](O)CO
REMARK SMILES IDX 7 1 9 2 11 3 12 4 10 6 5 8 2 9 1 10 3 11 4 12 6 14 8 16
REMARK H PARENT 12 5 10 7 4 13 6 15 8 17
REMARK Flexibility Score: inf
ROOT
ATOM      1  C   UNL     1      -2.390  20.774  46.305  1.00  0.00     0.181 C 
ENDROOT
BRANCH   1   2
ATOM      2  C   UNL     1      -1.844  19.343  46.553  1.00  0.00     0.171 C 
BRANCH   2   3
ATOM      3  C   UNL     1      -2.630  18.286  45.756  1.00  0.00     0.190 C 
BRANCH   3   4
ATOM      4  O   UNL     1      -3.869  18.038  46.362  1.00  0.00    -0.394 OA
ATOM      5  H   UNL     1      -4.338  18.912  46.399  1.00  0.00     0.210 HD
ENDBRANCH   3   4
ENDBRANCH   2   3
BRANCH   2   6
ATOM      6  O   UNL     1      -0.495  19.281  46.165  1.00  0.00    -0.388 OA
ATOM      7  H   UNL     1       0.049  19.363  46.992  1.00  0.00     0.211 HD
ENDBRANCH   2   6
ENDBRANCH   1   2
BRANCH   1   8
ATOM      8  C   UNL     1      -2.820  21.497  47.611  1.00  0.00     0.214 C 
BRANCH   8   9
ATOM      9  C   UNL     1      -4.286  21.284  47.925  1.00  0.00     0.189 C 
ATOM     10  O   UNL     1      -4.668  20.166  48.238  1.00  0.00    -0.294 OA
BRANCH   9  11
ATOM     11  C   UNL     1      -5.263  22.432  47.919  1.00  0.00     0.234 C 
BRANCH  11  12
ATOM     12  O   UNL     1      -5.300  23.042  46.659  1.00  0.00    -0.388 OA
ATOM     13  H   UNL     1      -6.216  22.892  46.306  1.00  0.00     0.211 HD
ENDBRANCH  11  12
ENDBRANCH   9  11
ENDBRANCH   8   9
BRANCH   8  14
ATOM     14  O   UNL     1      -2.525  22.870  47.538  1.00  0.00    -0.382 OA
ATOM     15  H   UNL     1      -2.910  23.293  48.350  1.00  0.00     0.211 HD
ENDBRANCH   8  14
ENDBRANCH   1   8
BRANCH   1  16
ATOM     16  O   UNL     1      -3.496  20.708  45.441  1.00  0.00    -0.387 OA
ATOM     17  H   UNL     1      -3.722  19.747  45.331  1.00  0.00     0.211 HD
ENDBRANCH   1  16
TORSDOF 10
ENDMDL
MODEL 9
REMARK VINA RESULT:    -3.957      1.334      2.582
REMARK INTER + INTRA:          -6.742
REMARK INTER:                  -5.742
REMARK INTRA:                  -1.000
REMARK UNBOUND:                -1.050
REMARK SMILES O=C(CO)[C@H](O)[C@H](O)[C@H](O)CO
REMARK SMILES IDX 7 1 9 2 11 3 12 4 10 6 5 8 2 9 1 10 3 11 4 12 6 14 8 16
REMARK H PARENT 12 5 10 7 4 13 6 15 8 17
REMARK Flexibility Score: inf
ROOT
ATOM      1  C   UNL     1      -3.023  20.313  46.748  1.00  0.00     0.181 C 
ENDROOT
BRANCH   1   2
ATOM      2  C   UNL     1      -2.779  18.839  46.328  1.00  0.00     0.171 C 
BRANCH   2   3
ATOM      3  C   UNL     1      -1.423  18.318  46.837  1.00  0.00     0.190 C 
BRANCH   3   4
ATOM      4  O   UNL     1      -1.548  17.826  48.142  1.00  0.00    -0.394 OA
ATOM      5  H   UNL     1      -1.771  16.863  48.054  1.00  0.00     0.210 HD
ENDBRANCH   3   4
ENDBRANCH   2   3
BRANCH   2   6
ATOM      6  O   UNL     1      -3.796  18.026  46.856  1.00  0.00    -0.388 OA
ATOM      7  H   UNL     1      -4.654  18.508  46.718  1.00  0.00     0.211 HD
ENDBRANCH   2   6
ENDBRANCH   1   2
BRANCH   1   8
ATOM      8  C   UNL     1      -3.965  20.448  47.976  1.00  0.00     0.214 C 
BRANCH   8   9
ATOM      9  C   UNL     1      -4.542  21.842  48.102  1.00  0.00     0.189 C 
ATOM     10  O   UNL     1      -5.683  22.048  47.712  1.00  0.00    -0.294 OA
BRANCH   9  11
ATOM     11  C   UNL     1      -3.765  22.957  48.753  1.00  0.00     0.234 C 
BRANCH  11  12
ATOM     12  O   UNL     1      -3.781  22.820  50.147  1.00  0.00    -0.388 OA
ATOM     13  H   UNL     1      -4.738  22.798  50.411  1.00  0.00     0.211 HD
ENDBRANCH  11  12
ENDBRANCH   9  11
ENDBRANCH   8   9
BRANCH   8  14
ATOM     14  O   UNL     1      -3.294  20.084  49.158  1.00  0.00    -0.382 OA
ATOM     15  H   UNL     1      -2.455  20.613  49.189  1.00  0.00     0.211 HD
ENDBRANCH   8  14
ENDBRANCH   1   8
BRANCH   1  16
ATOM     16  O   UNL     1      -3.585  21.018  45.670  1.00  0.00    -0.387 OA
ATOM     17  H   UNL     1      -2.910  21.021  44.940  1.00  0.00     0.211 HD
ENDBRANCH   1  16
TORSDOF 10
ENDMDL
