MODEL 1
REMARK VINA RESULT:    -4.529      0.000      0.000
REMARK INTER + INTRA:          -4.794
REMARK INTER:                  -4.794
REMARK INTRA:                   0.000
REMARK UNBOUND:                 0.000
REMARK SMILES Cc1cc(O)c(C)c(C)c1O
REMARK SMILES IDX 1 1 2 2 3 3 4 4 6 5 8 6 10 7 9 8 7 9 11 10 5 12
REMARK H PARENT 11 11 5 13
REMARK Flexibility Score: inf
ROOT
ATOM      1  C   UNL     1     166.996 178.711 180.425  1.00  0.00     0.048 C 
ATOM      2  C   UNL     1     165.568 179.043 180.087  1.00  0.00    -0.005 A 
ATOM      3  C   UNL     1     164.663 179.351 181.105  1.00  0.00     0.053 A 
ATOM      4  C   UNL     1     163.327 179.631 180.813  1.00  0.00     0.119 A 
ATOM      5  C   UNL     1     162.871 179.611 179.479  1.00  0.00    -0.003 A 
ATOM      6  C   UNL     1     163.793 179.343 178.430  1.00  0.00    -0.002 A 
ATOM      7  C   UNL     1     165.136 179.020 178.750  1.00  0.00     0.121 A 
ATOM      8  C   UNL     1     163.367 179.367 176.977  1.00  0.00     0.049 C 
ATOM      9  C   UNL     1     161.415 179.896 179.187  1.00  0.00     0.049 C 
ENDROOT
BRANCH   7  10
ATOM     10  O   UNL     1     166.064 178.667 177.761  1.00  0.00    -0.507 OA
ATOM     11  H   UNL     1     165.910 178.808 176.771  1.00  0.00     0.293 HD
ENDBRANCH   7  10
BRANCH   4  12
ATOM     12  O   UNL     1     162.448 179.930 181.857  1.00  0.00    -0.508 OA
ATOM     13  H   UNL     1     162.582 179.558 182.791  1.00  0.00     0.293 HD
ENDBRANCH   4  12
TORSDOF 2
ENDMDL
MODEL 2
REMARK VINA RESULT:    -4.389     12.985     13.302
REMARK INTER + INTRA:          -4.646
REMARK INTER:                  -4.646
REMARK INTRA:                   0.000
REMARK UNBOUND:                 0.000
REMARK SMILES Cc1cc(O)c(C)c(C)c1O
REMARK SMILES IDX 1 1 2 2 3 3 4 4 6 5 8 6 10 7 9 8 7 9 11 10 5 12
REMARK H PARENT 11 11 5 13
REMARK Flexibility Score: inf
ROOT
ATOM      1  C   UNL     1     177.425 174.407 180.351  1.00  0.00     0.048 C 
ATOM      2  C   UNL     1     177.311 175.879 180.064  1.00  0.00    -0.005 A 
ATOM      3  C   UNL     1     177.315 176.797 181.117  1.00  0.00     0.053 A 
ATOM      4  C   UNL     1     177.179 178.165 180.873  1.00  0.00     0.119 A 
ATOM      5  C   UNL     1     177.041 178.642 179.553  1.00  0.00    -0.003 A 
ATOM      6  C   UNL     1     177.080 177.721 178.470  1.00  0.00    -0.002 A 
ATOM      7  C   UNL     1     177.177 176.333 178.741  1.00  0.00     0.121 A 
ATOM      8  C   UNL     1     176.994 178.187 177.032  1.00  0.00     0.049 C 
ATOM      9  C   UNL     1     176.873 180.125 179.313  1.00  0.00     0.049 C 
ENDROOT
BRANCH   7  10
ATOM     10  O   UNL     1     177.137 175.379 177.716  1.00  0.00    -0.507 OA
ATOM     11  H   UNL     1     177.394 174.409 177.841  1.00  0.00     0.293 HD
ENDBRANCH   7  10
BRANCH   4  12
ATOM     12  O   UNL     1     177.182 179.054 181.950  1.00  0.00    -0.508 OA
ATOM     13  H   UNL     1     178.044 179.359 182.389  1.00  0.00     0.293 HD
ENDBRANCH   4  12
TORSDOF 2
ENDMDL
MODEL 3
REMARK VINA RESULT:    -4.262      2.186      3.595
REMARK INTER + INTRA:          -4.511
REMARK INTER:                  -4.511
REMARK INTRA:                   0.000
REMARK UNBOUND:                 0.000
REMARK SMILES Cc1cc(O)c(C)c(C)c1O
REMARK SMILES IDX 1 1 2 2 3 3 4 4 6 5 8 6 10 7 9 8 7 9 11 10 5 12
REMARK H PARENT 11 11 5 13
REMARK Flexibility Score: inf
ROOT
ATOM      1  C   UNL     1     163.117 178.088 175.518  1.00  0.00     0.048 C 
ATOM      2  C   UNL     1     162.986 178.055 177.016  1.00  0.00    -0.005 A 
ATOM      3  C   UNL     1     162.054 177.205 177.616  1.00  0.00     0.053 A 
ATOM      4  C   UNL     1     161.896 177.182 179.003  1.00  0.00     0.119 A 
ATOM      5  C   UNL     1     162.683 178.018 179.822  1.00  0.00    -0.003 A 
ATOM      6  C   UNL     1     163.667 178.854 179.226  1.00  0.00    -0.002 A 
ATOM      7  C   UNL     1     163.783 178.893 177.814  1.00  0.00     0.121 A 
ATOM      8  C   UNL     1     164.576 179.727 180.065  1.00  0.00     0.049 C 
ATOM      9  C   UNL     1     162.481 177.993 181.320  1.00  0.00     0.049 C 
ENDROOT
BRANCH   7  10
ATOM     10  O   UNL     1     164.678 179.760 177.173  1.00  0.00    -0.507 OA
ATOM     11  H   UNL     1     164.591 180.767 177.187  1.00  0.00     0.293 HD
ENDBRANCH   7  10
BRANCH   4  12
ATOM     12  O   UNL     1     160.950 176.324 179.568  1.00  0.00    -0.508 OA
ATOM     13  H   UNL     1     160.756 176.323 180.564  1.00  0.00     0.293 HD
ENDBRANCH   4  12
TORSDOF 2
ENDMDL
MODEL 4
REMARK VINA RESULT:    -4.248     10.266     11.984
REMARK INTER + INTRA:          -4.497
REMARK INTER:                  -4.497
REMARK INTRA:                   0.000
REMARK UNBOUND:                 0.000
REMARK SMILES Cc1cc(O)c(C)c(C)c1O
REMARK SMILES IDX 1 1 2 2 3 3 4 4 6 5 8 6 10 7 9 8 7 9 11 10 5 12
REMARK H PARENT 11 11 5 13
REMARK Flexibility Score: inf
ROOT
ATOM      1  C   UNL     1     175.737 178.283 175.351  1.00  0.00     0.048 C 
ATOM      2  C   UNL     1     175.612 178.410 176.844  1.00  0.00    -0.005 A 
ATOM      3  C   UNL     1     174.475 179.002 177.402  1.00  0.00     0.053 A 
ATOM      4  C   UNL     1     174.354 179.157 178.784  1.00  0.00     0.119 A 
ATOM      5  C   UNL     1     175.381 178.712 179.641  1.00  0.00    -0.003 A 
ATOM      6  C   UNL     1     176.523 178.068 179.089  1.00  0.00    -0.002 A 
ATOM      7  C   UNL     1     176.645 177.957 177.681  1.00  0.00     0.121 A 
ATOM      8  C   UNL     1     177.626 177.521 179.970  1.00  0.00     0.049 C 
ATOM      9  C   UNL     1     175.240 178.909 181.134  1.00  0.00     0.049 C 
ENDROOT
BRANCH   7  10
ATOM     10  O   UNL     1     177.786 177.407 177.083  1.00  0.00    -0.507 OA
ATOM     11  H   UNL     1     177.863 176.437 176.807  1.00  0.00     0.293 HD
ENDBRANCH   7  10
BRANCH   4  12
ATOM     12  O   UNL     1     173.207 179.757 179.306  1.00  0.00    -0.508 OA
ATOM     13  H   UNL     1     173.139 180.022 180.282  1.00  0.00     0.293 HD
ENDBRANCH   4  12
TORSDOF 2
ENDMDL
MODEL 5
REMARK VINA RESULT:    -4.246      2.405      4.496
REMARK INTER + INTRA:          -4.494
REMARK INTER:                  -4.494
REMARK INTRA:                   0.000
REMARK UNBOUND:                 0.000
REMARK SMILES Cc1cc(O)c(C)c(C)c1O
REMARK SMILES IDX 1 1 2 2 3 3 4 4 6 5 8 6 10 7 9 8 7 9 11 10 5 12
REMARK H PARENT 11 11 5 13
REMARK Flexibility Score: inf
ROOT
ATOM      1  C   UNL     1     161.111 176.334 176.723  1.00  0.00     0.048 C 
ATOM      2  C   UNL     1     161.969 177.232 177.572  1.00  0.00    -0.005 A 
ATOM      3  C   UNL     1     162.892 178.089 176.969  1.00  0.00     0.053 A 
ATOM      4  C   UNL     1     163.719 178.908 177.741  1.00  0.00     0.119 A 
ATOM      5  C   UNL     1     163.630 178.883 179.148  1.00  0.00    -0.003 A 
ATOM      6  C   UNL     1     162.663 178.047 179.772  1.00  0.00    -0.002 A 
ATOM      7  C   UNL     1     161.862 177.194 178.973  1.00  0.00     0.121 A 
ATOM      8  C   UNL     1     162.488 178.027 181.276  1.00  0.00     0.049 C 
ATOM      9  C   UNL     1     164.550 179.761 179.965  1.00  0.00     0.049 C 
ENDROOT
BRANCH   7  10
ATOM     10  O   UNL     1     160.953 176.292 179.542  1.00  0.00    -0.507 OA
ATOM     11  H   UNL     1     161.229 175.479 180.076  1.00  0.00     0.293 HD
ENDBRANCH   7  10
BRANCH   4  12
ATOM     12  O   UNL     1     164.634 179.748 177.104  1.00  0.00    -0.508 OA
ATOM     13  H   UNL     1     164.829 179.672 176.111  1.00  0.00     0.293 HD
ENDBRANCH   4  12
TORSDOF 2
ENDMDL
MODEL 6
REMARK VINA RESULT:    -4.245      9.890     12.205
REMARK INTER + INTRA:          -4.493
REMARK INTER:                  -4.493
REMARK INTRA:                   0.000
REMARK UNBOUND:                 0.000
REMARK SMILES Cc1cc(O)c(C)c(C)c1O
REMARK SMILES IDX 1 1 2 2 3 3 4 4 6 5 8 6 10 7 9 8 7 9 11 10 5 12
REMARK H PARENT 11 11 5 13
REMARK Flexibility Score: inf
ROOT
ATOM      1  C   UNL     1     173.471 179.647 176.591  1.00  0.00     0.048 C 
ATOM      2  C   UNL     1     174.550 179.109 177.491  1.00  0.00    -0.005 A 
ATOM      3  C   UNL     1     175.685 178.511 176.938  1.00  0.00     0.053 A 
ATOM      4  C   UNL     1     176.683 177.979 177.756  1.00  0.00     0.119 A 
ATOM      5  C   UNL     1     176.561 178.042 179.159  1.00  0.00    -0.003 A 
ATOM      6  C   UNL     1     175.431 178.688 179.734  1.00  0.00    -0.002 A 
ATOM      7  C   UNL     1     174.410 179.186 178.886  1.00  0.00     0.121 A 
ATOM      8  C   UNL     1     175.281 178.833 181.233  1.00  0.00     0.049 C 
ATOM      9  C   UNL     1     177.643 177.440 180.026  1.00  0.00     0.049 C 
ENDROOT
BRANCH   7  10
ATOM     10  O   UNL     1     173.239 179.756 179.403  1.00  0.00    -0.507 OA
ATOM     11  H   UNL     1     173.147 180.736 179.635  1.00  0.00     0.293 HD
ENDBRANCH   7  10
BRANCH   4  12
ATOM     12  O   UNL     1     177.802 177.384 177.169  1.00  0.00    -0.508 OA
ATOM     13  H   UNL     1     177.987 177.459 176.175  1.00  0.00     0.293 HD
ENDBRANCH   4  12
TORSDOF 2
ENDMDL
MODEL 7
REMARK VINA RESULT:    -4.220      9.661     11.890
REMARK INTER + INTRA:          -4.466
REMARK INTER:                  -4.466
REMARK INTRA:                   0.000
REMARK UNBOUND:                 0.000
REMARK SMILES Cc1cc(O)c(C)c(C)c1O
REMARK SMILES IDX 1 1 2 2 3 3 4 4 6 5 8 6 10 7 9 8 7 9 11 10 5 12
REMARK H PARENT 11 11 5 13
REMARK Flexibility Score: inf
ROOT
ATOM      1  C   UNL     1     175.924 178.985 181.262  1.00  0.00     0.048 C 
ATOM      2  C   UNL     1     175.808 178.768 179.779  1.00  0.00    -0.005 A 
ATOM      3  C   UNL     1     176.878 178.219 179.067  1.00  0.00     0.053 A 
ATOM      4  C   UNL     1     176.800 178.038 177.685  1.00  0.00     0.119 A 
ATOM      5  C   UNL     1     175.632 178.404 176.985  1.00  0.00    -0.003 A 
ATOM      6  C   UNL     1     174.520 178.922 177.704  1.00  0.00    -0.002 A 
ATOM      7  C   UNL     1     174.633 179.137 179.101  1.00  0.00     0.121 A 
ATOM      8  C   UNL     1     173.223 179.276 177.007  1.00  0.00     0.049 C 
ATOM      9  C   UNL     1     175.577 178.220 175.486  1.00  0.00     0.049 C 
ENDROOT
BRANCH   7  10
ATOM     10  O   UNL     1     173.598 179.721 179.842  1.00  0.00    -0.507 OA
ATOM     11  H   UNL     1     173.744 180.426 180.552  1.00  0.00     0.293 HD
ENDBRANCH   7  10
BRANCH   4  12
ATOM     12  O   UNL     1     177.891 177.492 177.006  1.00  0.00    -0.508 OA
ATOM     13  H   UNL     1     178.243 177.898 176.146  1.00  0.00     0.293 HD
ENDBRANCH   4  12
TORSDOF 2
ENDMDL
MODEL 8
REMARK VINA RESULT:    -4.187      2.318      3.910
REMARK INTER + INTRA:          -4.431
REMARK INTER:                  -4.431
REMARK INTRA:                   0.000
REMARK UNBOUND:                 0.000
REMARK SMILES Cc1cc(O)c(C)c(C)c1O
REMARK SMILES IDX 1 1 2 2 3 3 4 4 6 5 8 6 10 7 9 8 7 9 11 10 5 12
REMARK H PARENT 11 11 5 13
REMARK Flexibility Score: inf
ROOT
ATOM      1  C   UNL     1     162.525 178.529 181.384  1.00  0.00     0.048 C 
ATOM      2  C   UNL     1     162.685 178.359 179.898  1.00  0.00    -0.005 A 
ATOM      3  C   UNL     1     163.561 179.188 179.191  1.00  0.00     0.053 A 
ATOM      4  C   UNL     1     163.700 179.066 177.807  1.00  0.00     0.119 A 
ATOM      5  C   UNL     1     162.958 178.097 177.100  1.00  0.00    -0.003 A 
ATOM      6  C   UNL     1     162.097 177.219 177.814  1.00  0.00    -0.002 A 
ATOM      7  C   UNL     1     161.939 177.385 179.213  1.00  0.00     0.121 A 
ATOM      8  C   UNL     1     161.323 176.125 177.110  1.00  0.00     0.049 C 
ATOM      9  C   UNL     1     163.108 177.998 175.599  1.00  0.00     0.049 C 
ENDROOT
BRANCH   7  10
ATOM     10  O   UNL     1     161.041 176.601 179.950  1.00  0.00    -0.507 OA
ATOM     11  H   UNL     1     160.048 176.560 179.765  1.00  0.00     0.293 HD
ENDBRANCH   7  10
BRANCH   4  12
ATOM     12  O   UNL     1     164.580 179.915 177.133  1.00  0.00    -0.508 OA
ATOM     13  H   UNL     1     164.563 180.920 177.268  1.00  0.00     0.293 HD
ENDBRANCH   4  12
TORSDOF 2
ENDMDL
MODEL 9
REMARK VINA RESULT:    -4.099      2.135      4.256
REMARK INTER + INTRA:          -4.339
REMARK INTER:                  -4.339
REMARK INTRA:                   0.000
REMARK UNBOUND:                 0.000
REMARK SMILES Cc1cc(O)c(C)c(C)c1O
REMARK SMILES IDX 1 1 2 2 3 3 4 4 6 5 8 6 10 7 9 8 7 9 11 10 5 12
REMARK H PARENT 11 11 5 13
REMARK Flexibility Score: inf
ROOT
ATOM      1  C   UNL     1     161.855 180.075 181.321  1.00  0.00     0.048 C 
ATOM      2  C   UNL     1     163.099 179.266 181.074  1.00  0.00    -0.005 A 
ATOM      3  C   UNL     1     164.291 179.907 180.727  1.00  0.00     0.053 A 
ATOM      4  C   UNL     1     165.448 179.171 180.463  1.00  0.00     0.119 A 
ATOM      5  C   UNL     1     165.431 177.764 180.549  1.00  0.00    -0.003 A 
ATOM      6  C   UNL     1     164.235 177.102 180.945  1.00  0.00    -0.002 A 
ATOM      7  C   UNL     1     163.061 177.864 181.168  1.00  0.00     0.121 A 
ATOM      8  C   UNL     1     164.180 175.598 181.108  1.00  0.00     0.049 C 
ATOM      9  C   UNL     1     166.689 176.986 180.239  1.00  0.00     0.049 C 
ENDROOT
BRANCH   7  10
ATOM     10  O   UNL     1     161.837 177.256 181.478  1.00  0.00    -0.507 OA
ATOM     11  H   UNL     1     161.003 177.769 181.730  1.00  0.00     0.293 HD
ENDBRANCH   7  10
BRANCH   4  12
ATOM     12  O   UNL     1     166.620 179.845 180.114  1.00  0.00    -0.508 OA
ATOM     13  H   UNL     1     167.025 179.769 179.188  1.00  0.00     0.293 HD
ENDBRANCH   4  12
TORSDOF 2
ENDMDL
