MODEL 1
REMARK VINA RESULT:    -2.864      0.000      0.000
REMARK INTER + INTRA:          -4.640
REMARK INTER:                  -4.371
REMARK INTRA:                  -0.268
REMARK UNBOUND:                -0.268
REMARK SMILES CC1=CCC[C@H](C)C(=O)C[C@H](C(C)C)C(=O)C1
REMARK SMILES IDX 8 1 9 2 6 3 7 4 5 5 4 6 3 7 2 8 1 9 10 11 11 12 15 13 16 14
REMARK SMILES IDX 17 15 12 17 13 18 14 19
REMARK H PARENT
REMARK Flexibility Score: 70.00
ROOT
ATOM      1  C   UNL     1      27.329  25.414  26.557  1.00  0.00     0.136 C 
ATOM      2  O   UNL     1      27.236  24.862  25.470  1.00  0.00    -0.299 OA
ENDROOT
BRANCH   1   3
ATOM      3  C   UNL     1      26.442  24.907  27.682  1.00  0.00     0.053 C 
ATOM      4  C   UNL     1      25.328  23.931  27.264  1.00  0.00     0.016 C 
BRANCH   3   5
ATOM      5  C   UNL     1      27.270  24.463  28.912  1.00  0.00     0.015 C 
BRANCH   5   6
ATOM      6  C   UNL     1      27.173  25.255  30.241  1.00  0.00     0.028 C 
BRANCH   6   7
ATOM      7  C   UNL     1      26.289  26.479  30.308  1.00  0.00    -0.028 C 
ATOM      8  C   UNL     1      26.607  27.722  29.889  1.00  0.00    -0.070 CG0
ATOM      9  C   UNL     1      25.477  28.703  29.693  1.00  0.00     0.039 C 
ATOM     10  G   UNL     1      28.011  28.134  29.507  1.00  0.00     0.000 G0
ENDBRANCH   6   7
ENDBRANCH   5   6
ENDBRANCH   3   5
ENDBRANCH   1   3
BRANCH   1  11
ATOM     11  C   UNL     1      28.370  26.496  26.733  1.00  0.00     0.087 C 
BRANCH  11  12
ATOM     12  C   UNL     1      27.769  27.932  26.809  1.00  0.00     0.066 C 
BRANCH  12  13
ATOM     13  C   UNL     1      28.095  28.702  28.100  1.00  0.00     0.140 C 
ATOM     14  O   UNL     1      28.348  29.895  28.016  1.00  0.00    -0.299 OA
BRANCH  13  15
ATOM     15  C   UNL     1      28.015  28.116  29.498  1.00  0.00     0.106 CG0
ATOM     16  G   UNL     1      26.610  27.705  29.880  1.00  0.00     0.000 G0
ENDBRANCH  13  15
ENDBRANCH  12  13
BRANCH  12  17
ATOM     17  C   UNL     1      28.111  28.726  25.501  1.00  0.00    -0.006 C 
ATOM     18  C   UNL     1      26.875  29.135  24.689  1.00  0.00     0.008 C 
ATOM     19  C   UNL     1      29.123  27.994  24.600  1.00  0.00     0.008 C 
ENDBRANCH  12  17
ENDBRANCH  11  12
ENDBRANCH   1  11
TORSDOF 1
ENDMDL
MODEL 2
REMARK VINA RESULT:    -2.746     11.573     14.447
REMARK INTER + INTRA:          -4.459
REMARK INTER:                  -4.280
REMARK INTRA:                  -0.179
REMARK UNBOUND:                -0.268
REMARK SMILES CC1=CCC[C@H](C)C(=O)C[C@H](C(C)C)C(=O)C1
REMARK SMILES IDX 8 1 9 2 6 3 7 4 5 5 4 6 3 7 2 8 1 9 10 11 11 12 15 13 16 14
REMARK SMILES IDX 17 15 12 17 13 18 14 19
REMARK H PARENT
REMARK Flexibility Score: 70.00
ROOT
ATOM      1  C   UNL     1      26.002  37.411  20.959  1.00  0.00     0.136 C 
ATOM      2  O   UNL     1      25.120  36.679  20.531  1.00  0.00    -0.299 OA
ENDROOT
BRANCH   1   3
ATOM      3  C   UNL     1      27.191  36.755  21.640  1.00  0.00     0.053 C 
ATOM      4  C   UNL     1      26.922  36.176  23.040  1.00  0.00     0.016 C 
BRANCH   3   5
ATOM      5  C   UNL     1      27.955  35.811  20.680  1.00  0.00     0.015 C 
BRANCH   5   6
ATOM      6  C   UNL     1      29.067  36.374  19.759  1.00  0.00     0.028 C 
BRANCH   6   7
ATOM      7  C   UNL     1      28.698  36.888  18.385  1.00  0.00    -0.028 C 
ATOM      8  C   UNL     1      28.819  38.159  17.946  1.00  0.00    -0.070 CG0
ATOM      9  C   UNL     1      28.760  38.391  16.456  1.00  0.00     0.039 C 
ATOM     10  G   UNL     1      29.117  39.327  18.860  1.00  0.00     0.000 G0
ENDBRANCH   6   7
ENDBRANCH   5   6
ENDBRANCH   3   5
ENDBRANCH   1   3
BRANCH   1  11
ATOM     11  C   UNL     1      25.892  38.898  20.709  1.00  0.00     0.087 C 
BRANCH  11  12
ATOM     12  C   UNL     1      27.258  39.645  20.787  1.00  0.00     0.066 C 
BRANCH  12  13
ATOM     13  C   UNL     1      27.880  40.001  19.425  1.00  0.00     0.140 C 
ATOM     14  O   UNL     1      27.403  40.933  18.796  1.00  0.00    -0.299 OA
BRANCH  13  15
ATOM     15  C   UNL     1      29.124  39.349  18.848  1.00  0.00     0.106 CG0
ATOM     16  G   UNL     1      28.806  38.158  17.972  1.00  0.00     0.000 G0
ENDBRANCH  13  15
ENDBRANCH  12  13
BRANCH  12  17
ATOM     17  C   UNL     1      27.146  40.865  21.765  1.00  0.00    -0.006 C 
ATOM     18  C   UNL     1      26.028  41.849  21.393  1.00  0.00     0.008 C 
ATOM     19  C   UNL     1      28.478  41.615  21.948  1.00  0.00     0.008 C 
ENDBRANCH  12  17
ENDBRANCH  11  12
ENDBRANCH   1  11
TORSDOF 1
ENDMDL
MODEL 3
REMARK VINA RESULT:    -2.404      1.636      2.134
REMARK INTER + INTRA:          -3.938
REMARK INTER:                  -4.171
REMARK INTRA:                   0.233
REMARK UNBOUND:                -0.268
REMARK SMILES CC1=CCC[C@H](C)C(=O)C[C@H](C(C)C)C(=O)C1
REMARK SMILES IDX 8 1 9 2 6 3 7 4 5 5 4 6 3 7 2 8 1 9 10 11 11 12 15 13 16 14
REMARK SMILES IDX 17 15 12 17 13 18 14 19
REMARK H PARENT
REMARK Flexibility Score: 70.00
ROOT
ATOM      1  C   UNL     1      28.393  24.913  26.661  1.00  0.00     0.136 C 
ATOM      2  O   UNL     1      29.060  24.040  27.198  1.00  0.00    -0.299 OA
ENDROOT
BRANCH   1   3
ATOM      3  C   UNL     1      26.959  24.575  26.291  1.00  0.00     0.053 C 
ATOM      4  C   UNL     1      26.763  23.921  24.913  1.00  0.00     0.016 C 
BRANCH   3   5
ATOM      5  C   UNL     1      26.214  23.878  27.456  1.00  0.00     0.015 C 
BRANCH   5   6
ATOM      6  C   UNL     1      25.762  24.699  28.690  1.00  0.00     0.028 C 
BRANCH   6   7
ATOM      7  C   UNL     1      24.967  25.968  28.483  1.00  0.00    -0.028 C 
ATOM      8  C   UNL     1      25.399  27.229  28.695  1.00  0.00    -0.070 CG0
ATOM      9  C   UNL     1      24.604  28.353  28.078  1.00  0.00     0.039 C 
ATOM     10  G   UNL     1      26.688  27.552  29.420  1.00  0.00     0.000 G0
ENDBRANCH   6   7
ENDBRANCH   5   6
ENDBRANCH   3   5
ENDBRANCH   1   3
BRANCH   1  11
ATOM     11  C   UNL     1      29.006  26.283  26.480  1.00  0.00     0.087 C 
BRANCH  11  12
ATOM     12  C   UNL     1      28.223  27.418  27.206  1.00  0.00     0.066 C 
BRANCH  12  13
ATOM     13  C   UNL     1      27.954  27.163  28.700  1.00  0.00     0.140 C 
ATOM     14  O   UNL     1      28.850  26.683  29.377  1.00  0.00    -0.299 OA
BRANCH  13  15
ATOM     15  C   UNL     1      26.687  27.572  29.431  1.00  0.00     0.106 CG0
ATOM     16  G   UNL     1      25.432  27.228  28.659  1.00  0.00     0.000 G0
ENDBRANCH  13  15
ENDBRANCH  12  13
BRANCH  12  17
ATOM     17  C   UNL     1      28.895  28.804  26.916  1.00  0.00    -0.006 C 
ATOM     18  C   UNL     1      29.038  29.690  28.161  1.00  0.00     0.008 C 
ATOM     19  C   UNL     1      28.203  29.583  25.783  1.00  0.00     0.008 C 
ENDBRANCH  12  17
ENDBRANCH  11  12
ENDBRANCH   1  11
TORSDOF 1
ENDMDL
MODEL 4
REMARK VINA RESULT:    -2.279      2.042      3.373
REMARK INTER + INTRA:          -3.747
REMARK INTER:                  -4.313
REMARK INTRA:                   0.566
REMARK UNBOUND:                -0.268
REMARK SMILES CC1=CCC[C@H](C)C(=O)C[C@H](C(C)C)C(=O)C1
REMARK SMILES IDX 8 1 9 2 6 3 7 4 5 5 4 6 3 7 2 8 1 9 10 11 11 12 15 13 16 14
REMARK SMILES IDX 17 15 12 17 13 18 14 19
REMARK H PARENT
REMARK Flexibility Score: 70.00
ROOT
ATOM      1  C   UNL     1      25.661  27.113  28.817  1.00  0.00     0.136 C 
ATOM      2  O   UNL     1      26.077  27.247  29.959  1.00  0.00    -0.299 OA
ENDROOT
BRANCH   1   3
ATOM      3  C   UNL     1      24.467  26.198  28.605  1.00  0.00     0.053 C 
ATOM      4  C   UNL     1      23.119  26.903  28.376  1.00  0.00     0.016 C 
BRANCH   3   5
ATOM      5  C   UNL     1      24.785  25.060  27.605  1.00  0.00     0.015 C 
BRANCH   5   6
ATOM      6  C   UNL     1      25.687  23.876  28.037  1.00  0.00     0.028 C 
BRANCH   6   7
ATOM      7  C   UNL     1      26.728  24.094  29.111  1.00  0.00    -0.028 C 
ATOM      8  C   UNL     1      27.950  24.645  28.944  1.00  0.00    -0.070 CG0
ATOM      9  C   UNL     1      28.677  25.118  30.179  1.00  0.00     0.039 C 
ATOM     10  G   UNL     1      28.562  24.905  27.586  1.00  0.00     0.000 G0
ENDBRANCH   6   7
ENDBRANCH   5   6
ENDBRANCH   3   5
ENDBRANCH   1   3
BRANCH   1  11
ATOM     11  C   UNL     1      26.303  27.923  27.713  1.00  0.00     0.087 C 
BRANCH  11  12
ATOM     12  C   UNL     1      27.771  27.499  27.402  1.00  0.00     0.066 C 
BRANCH  12  13
ATOM     13  C   UNL     1      27.927  26.074  26.843  1.00  0.00     0.140 C 
ATOM     14  O   UNL     1      27.583  25.863  25.690  1.00  0.00    -0.299 OA
BRANCH  13  15
ATOM     15  C   UNL     1      28.587  24.924  27.583  1.00  0.00     0.106 CG0
ATOM     16  G   UNL     1      27.956  24.660  28.932  1.00  0.00     0.000 G0
ENDBRANCH  13  15
ENDBRANCH  12  13
BRANCH  12  17
ATOM     17  C   UNL     1      28.472  28.597  26.530  1.00  0.00    -0.006 C 
ATOM     18  C   UNL     1      29.031  29.768  27.349  1.00  0.00     0.008 C 
ATOM     19  C   UNL     1      27.580  29.120  25.390  1.00  0.00     0.008 C 
ENDBRANCH  12  17
ENDBRANCH  11  12
ENDBRANCH   1  11
TORSDOF 1
ENDMDL
MODEL 5
REMARK VINA RESULT:    -2.237      1.980      3.474
REMARK INTER + INTRA:          -3.683
REMARK INTER:                  -4.750
REMARK INTRA:                   1.067
REMARK UNBOUND:                -0.268
REMARK SMILES CC1=CCC[C@H](C)C(=O)C[C@H](C(C)C)C(=O)C1
REMARK SMILES IDX 8 1 9 2 6 3 7 4 5 5 4 6 3 7 2 8 1 9 10 11 11 12 15 13 16 14
REMARK SMILES IDX 17 15 12 17 13 18 14 19
REMARK H PARENT
REMARK Flexibility Score: 70.00
ROOT
ATOM      1  C   UNL     1      25.379  28.190  28.437  1.00  0.00     0.136 C 
ATOM      2  O   UNL     1      24.177  28.415  28.426  1.00  0.00    -0.299 OA
ENDROOT
BRANCH   1   3
ATOM      3  C   UNL     1      26.071  28.127  29.788  1.00  0.00     0.053 C 
ATOM      4  C   UNL     1      25.550  29.110  30.850  1.00  0.00     0.016 C 
BRANCH   3   5
ATOM      5  C   UNL     1      26.241  26.668  30.278  1.00  0.00     0.015 C 
BRANCH   5   6
ATOM      6  C   UNL     1      27.414  25.803  29.750  1.00  0.00     0.028 C 
BRANCH   6   7
ATOM      7  C   UNL     1      27.268  25.091  28.424  1.00  0.00    -0.028 C 
ATOM      8  C   UNL     1      28.062  25.240  27.342  1.00  0.00    -0.070 CG0
ATOM      9  C   UNL     1      27.986  24.182  26.269  1.00  0.00     0.039 C 
ATOM     10  G   UNL     1      29.088  26.345  27.213  1.00  0.00     0.000 G0
ENDBRANCH   6   7
ENDBRANCH   5   6
ENDBRANCH   3   5
ENDBRANCH   1   3
BRANCH   1  11
ATOM     11  C   UNL     1      26.075  27.909  27.124  1.00  0.00     0.087 C 
BRANCH  11  12
ATOM     12  C   UNL     1      27.497  28.539  27.025  1.00  0.00     0.066 C 
BRANCH  12  13
ATOM     13  C   UNL     1      28.619  27.707  27.670  1.00  0.00     0.140 C 
ATOM     14  O   UNL     1      29.115  28.109  28.711  1.00  0.00    -0.299 OA
BRANCH  13  15
ATOM     15  C   UNL     1      29.086  26.352  27.168  1.00  0.00     0.106 CG0
ATOM     16  G   UNL     1      28.053  25.265  27.374  1.00  0.00     0.000 G0
ENDBRANCH  13  15
ENDBRANCH  12  13
BRANCH  12  17
ATOM     17  C   UNL     1      27.796  28.957  25.544  1.00  0.00    -0.006 C 
ATOM     18  C   UNL     1      28.771  30.136  25.424  1.00  0.00     0.008 C 
ATOM     19  C   UNL     1      26.521  29.232  24.727  1.00  0.00     0.008 C 
ENDBRANCH  12  17
ENDBRANCH  11  12
ENDBRANCH   1  11
TORSDOF 1
ENDMDL
MODEL 6
REMARK VINA RESULT:    -1.547      2.015      4.069
REMARK INTER + INTRA:          -2.630
REMARK INTER:                  -3.322
REMARK INTRA:                   0.691
REMARK UNBOUND:                -0.268
REMARK SMILES CC1=CCC[C@H](C)C(=O)C[C@H](C(C)C)C(=O)C1
REMARK SMILES IDX 8 1 9 2 6 3 7 4 5 5 4 6 3 7 2 8 1 9 10 11 11 12 15 13 16 14
REMARK SMILES IDX 17 15 12 17 13 18 14 19
REMARK H PARENT
REMARK Flexibility Score: 70.00
ROOT
ATOM      1  C   UNL     1      24.061  25.693  28.194  1.00  0.00     0.136 C 
ATOM      2  O   UNL     1      23.358  24.860  27.638  1.00  0.00    -0.299 OA
ENDROOT
BRANCH   1   3
ATOM      3  C   UNL     1      23.539  27.118  28.268  1.00  0.00     0.053 C 
ATOM      4  C   UNL     1      22.038  27.294  27.982  1.00  0.00     0.016 C 
BRANCH   3   5
ATOM      5  C   UNL     1      24.053  27.853  29.530  1.00  0.00     0.015 C 
BRANCH   5   6
ATOM      6  C   UNL     1      25.205  28.883  29.413  1.00  0.00     0.028 C 
BRANCH   6   7
ATOM      7  C   UNL     1      26.637  28.402  29.480  1.00  0.00    -0.028 C 
ATOM      8  C   UNL     1      27.353  27.872  28.465  1.00  0.00    -0.070 CG0
ATOM      9  C   UNL     1      28.852  27.809  28.626  1.00  0.00     0.039 C 
ATOM     10  G   UNL     1      26.737  27.449  27.149  1.00  0.00     0.000 G0
ENDBRANCH   6   7
ENDBRANCH   5   6
ENDBRANCH   3   5
ENDBRANCH   1   3
BRANCH   1  11
ATOM     11  C   UNL     1      25.350  25.237  28.839  1.00  0.00     0.087 C 
BRANCH  11  12
ATOM     12  C   UNL     1      26.448  24.825  27.811  1.00  0.00     0.066 C 
BRANCH  12  13
ATOM     13  C   UNL     1      26.907  25.951  26.869  1.00  0.00     0.140 C 
ATOM     14  O   UNL     1      27.363  25.645  25.778  1.00  0.00    -0.299 OA
BRANCH  13  15
ATOM     15  C   UNL     1      26.730  27.433  27.146  1.00  0.00     0.106 CG0
ATOM     16  G   UNL     1      27.358  27.862  28.454  1.00  0.00     0.000 G0
ENDBRANCH  13  15
ENDBRANCH  12  13
BRANCH  12  17
ATOM     17  C   UNL     1      27.628  24.104  28.549  1.00  0.00    -0.006 C 
ATOM     18  C   UNL     1      27.938  24.692  29.933  1.00  0.00     0.008 C 
ATOM     19  C   UNL     1      28.911  24.026  27.702  1.00  0.00     0.008 C 
ENDBRANCH  12  17
ENDBRANCH  11  12
ENDBRANCH   1  11
TORSDOF 1
ENDMDL
MODEL 7
REMARK VINA RESULT:    -1.409     13.975     16.704
REMARK INTER + INTRA:          -2.419
REMARK INTER:                  -3.611
REMARK INTRA:                   1.192
REMARK UNBOUND:                -0.268
REMARK SMILES CC1=CCC[C@H](C)C(=O)C[C@H](C(C)C)C(=O)C1
REMARK SMILES IDX 8 1 9 2 6 3 7 4 5 5 4 6 3 7 2 8 1 9 10 11 11 12 15 13 16 14
REMARK SMILES IDX 17 15 12 17 13 18 14 19
REMARK H PARENT
REMARK Flexibility Score: 70.00
ROOT
ATOM      1  C   UNL     1      27.938  40.452  22.020  1.00  0.00     0.136 C 
ATOM      2  O   UNL     1      26.840  40.992  22.004  1.00  0.00    -0.299 OA
ENDROOT
BRANCH   1   3
ATOM      3  C   UNL     1      28.095  39.154  21.247  1.00  0.00     0.053 C 
ATOM      4  C   UNL     1      27.586  37.888  21.959  1.00  0.00     0.016 C 
BRANCH   3   5
ATOM      5  C   UNL     1      27.636  39.303  19.776  1.00  0.00     0.015 C 
BRANCH   5   6
ATOM      6  C   UNL     1      28.146  40.490  18.920  1.00  0.00     0.028 C 
BRANCH   6   7
ATOM      7  C   UNL     1      27.269  41.710  18.751  1.00  0.00    -0.028 C 
ATOM      8  C   UNL     1      27.518  42.949  19.227  1.00  0.00    -0.070 CG0
ATOM      9  C   UNL     1      26.729  44.093  18.640  1.00  0.00     0.039 C 
ATOM     10  G   UNL     1      28.613  43.248  20.226  1.00  0.00     0.000 G0
ENDBRANCH   6   7
ENDBRANCH   5   6
ENDBRANCH   3   5
ENDBRANCH   1   3
BRANCH   1  11
ATOM     11  C   UNL     1      29.076  41.149  22.732  1.00  0.00     0.087 C 
BRANCH  11  12
ATOM     12  C   UNL     1      28.892  42.693  22.839  1.00  0.00     0.066 C 
BRANCH  12  13
ATOM     13  C   UNL     1      28.154  43.339  21.654  1.00  0.00     0.140 C 
ATOM     14  O   UNL     1      27.171  44.026  21.888  1.00  0.00    -0.299 OA
BRANCH  13  15
ATOM     15  C   UNL     1      28.622  43.283  20.211  1.00  0.00     0.106 CG0
ATOM     16  G   UNL     1      27.503  42.958  19.246  1.00  0.00     0.000 G0
ENDBRANCH  13  15
ENDBRANCH  12  13
BRANCH  12  17
ATOM     17  C   UNL     1      28.284  43.063  24.236  1.00  0.00    -0.006 C 
ATOM     18  C   UNL     1      29.102  44.112  25.002  1.00  0.00     0.008 C 
ATOM     19  C   UNL     1      28.025  41.834  25.125  1.00  0.00     0.008 C 
ENDBRANCH  12  17
ENDBRANCH  11  12
ENDBRANCH   1  11
TORSDOF 1
ENDMDL
MODEL 8
REMARK VINA RESULT:    -1.348      1.920      2.791
REMARK INTER + INTRA:          -2.326
REMARK INTER:                  -3.810
REMARK INTRA:                   1.484
REMARK UNBOUND:                -0.268
REMARK SMILES CC1=CCC[C@H](C)C(=O)C[C@H](C(C)C)C(=O)C1
REMARK SMILES IDX 8 1 9 2 6 3 7 4 5 5 4 6 3 7 2 8 1 9 10 11 11 12 15 13 16 14
REMARK SMILES IDX 17 15 12 17 13 18 14 19
REMARK H PARENT
REMARK Flexibility Score: 70.00
ROOT
ATOM      1  C   UNL     1      24.727  27.668  27.977  1.00  0.00     0.136 C 
ATOM      2  O   UNL     1      24.279  28.757  28.308  1.00  0.00    -0.299 OA
ENDROOT
BRANCH   1   3
ATOM      3  C   UNL     1      23.999  26.429  28.470  1.00  0.00     0.053 C 
ATOM      4  C   UNL     1      22.463  26.487  28.403  1.00  0.00     0.016 C 
BRANCH   3   5
ATOM      5  C   UNL     1      24.627  25.131  27.904  1.00  0.00     0.015 C 
BRANCH   5   6
ATOM      6  C   UNL     1      26.159  25.042  27.685  1.00  0.00     0.028 C 
BRANCH   6   7
ATOM      7  C   UNL     1      27.058  24.751  28.866  1.00  0.00    -0.028 C 
ATOM      8  C   UNL     1      27.333  25.588  29.889  1.00  0.00    -0.070 CG0
ATOM      9  C   UNL     1      27.933  24.990  31.138  1.00  0.00     0.039 C 
ATOM     10  G   UNL     1      26.969  27.056  29.880  1.00  0.00     0.000 G0
ENDBRANCH   6   7
ENDBRANCH   5   6
ENDBRANCH   3   5
ENDBRANCH   1   3
BRANCH   1  11
ATOM     11  C   UNL     1      25.913  27.628  27.040  1.00  0.00     0.087 C 
BRANCH  11  12
ATOM     12  C   UNL     1      27.149  28.418  27.567  1.00  0.00     0.066 C 
BRANCH  12  13
ATOM     13  C   UNL     1      27.750  27.880  28.877  1.00  0.00     0.140 C 
ATOM     14  O   UNL     1      28.894  28.198  29.164  1.00  0.00    -0.299 OA
BRANCH  13  15
ATOM     15  C   UNL     1      26.986  27.069  29.907  1.00  0.00     0.106 CG0
ATOM     16  G   UNL     1      27.344  25.599  29.875  1.00  0.00     0.000 G0
ENDBRANCH  13  15
ENDBRANCH  12  13
BRANCH  12  17
ATOM     17  C   UNL     1      28.201  28.593  26.418  1.00  0.00    -0.006 C 
ATOM     18  C   UNL     1      27.726  29.513  25.285  1.00  0.00     0.008 C 
ATOM     19  C   UNL     1      28.696  27.252  25.845  1.00  0.00     0.008 C 
ENDBRANCH  12  17
ENDBRANCH  11  12
ENDBRANCH   1  11
TORSDOF 1
ENDMDL
MODEL 9
REMARK VINA RESULT:    -1.185     11.157     13.983
REMARK INTER + INTRA:          -2.077
REMARK INTER:                  -2.432
REMARK INTRA:                   0.355
REMARK UNBOUND:                -0.268
REMARK SMILES CC1=CCC[C@H](C)C(=O)C[C@H](C(C)C)C(=O)C1
REMARK SMILES IDX 8 1 9 2 6 3 7 4 5 5 4 6 3 7 2 8 1 9 10 11 11 12 15 13 16 14
REMARK SMILES IDX 17 15 12 17 13 18 14 19
REMARK H PARENT
REMARK Flexibility Score: 70.00
ROOT
ATOM      1  C   UNL     1      28.599  40.146  21.957  1.00  0.00     0.136 C 
ATOM      2  O   UNL     1      28.946  40.375  23.107  1.00  0.00    -0.299 OA
ENDROOT
BRANCH   1   3
ATOM      3  C   UNL     1      27.726  41.179  21.266  1.00  0.00     0.053 C 
ATOM      4  C   UNL     1      28.037  41.427  19.779  1.00  0.00     0.016 C 
BRANCH   3   5
ATOM      5  C   UNL     1      26.227  40.976  21.593  1.00  0.00     0.015 C 
BRANCH   5   6
ATOM      6  C   UNL     1      25.339  40.110  20.664  1.00  0.00     0.028 C 
BRANCH   6   7
ATOM      7  C   UNL     1      24.677  38.870  21.220  1.00  0.00    -0.028 C 
ATOM      8  C   UNL     1      24.964  37.592  20.891  1.00  0.00    -0.070 CG0
ATOM      9  C   UNL     1      24.473  36.506  21.815  1.00  0.00     0.039 C 
ATOM     10  G   UNL     1      25.838  37.216  19.714  1.00  0.00     0.000 G0
ENDBRANCH   6   7
ENDBRANCH   5   6
ENDBRANCH   3   5
ENDBRANCH   1   3
BRANCH   1  11
ATOM     11  C   UNL     1      29.125  38.901  21.277  1.00  0.00     0.087 C 
BRANCH  11  12
ATOM     12  C   UNL     1      28.072  37.757  21.171  1.00  0.00     0.066 C 
BRANCH  12  13
ATOM     13  C   UNL     1      27.265  37.740  19.861  1.00  0.00     0.140 C 
ATOM     14  O   UNL     1      27.819  38.101  18.834  1.00  0.00    -0.299 OA
BRANCH  13  15
ATOM     15  C   UNL     1      25.854  37.197  19.724  1.00  0.00     0.106 CG0
ATOM     16  G   UNL     1      24.965  37.580  20.887  1.00  0.00     0.000 G0
ENDBRANCH  13  15
ENDBRANCH  12  13
BRANCH  12  17
ATOM     17  C   UNL     1      28.740  36.382  21.516  1.00  0.00    -0.006 C 
ATOM     18  C   UNL     1      28.760  35.397  20.338  1.00  0.00     0.008 C 
ATOM     19  C   UNL     1      28.132  35.712  22.761  1.00  0.00     0.008 C 
ENDBRANCH  12  17
ENDBRANCH  11  12
ENDBRANCH   1  11
TORSDOF 1
ENDMDL
