MODEL 1
REMARK VINA RESULT:    -0.788      0.000      0.000
REMARK INTER + INTRA:          -0.399
REMARK INTER:                  -0.950
REMARK INTRA:                   0.551
REMARK UNBOUND:                 0.551
REMARK SMILES O=c1c(O)c(-c2ccc(O)c(O)c2)oc2cc(O)cc(O)c12
REMARK SMILES IDX 5 1 3 2 2 3 1 4 22 5 20 6 19 7 17 8 16 9 15 10 14 11 6 12
REMARK SMILES IDX 7 13 8 14 9 15 13 16 11 17 10 18 12 20 4 22 21 24 18 26
REMARK H PARENT 10 19 12 21 4 23 21 25 18 27
REMARK Flexibility Score: inf
ROOT
ATOM      1  C   UNL     1      15.681  27.926  40.116  1.00  0.00     0.180 A 
ATOM      2  C   UNL     1      16.758  27.938  39.215  1.00  0.00     0.208 A 
ATOM      3  C   UNL     1      16.493  27.941  37.836  1.00  0.00     0.238 A 
ATOM      4  O   UNL     1      17.461  27.876  37.035  1.00  0.00    -0.285 OA
ATOM      5  C   UNL     1      15.154  27.990  37.376  1.00  0.00     0.111 A 
ATOM      6  C   UNL     1      14.769  28.042  36.002  1.00  0.00     0.134 A 
ATOM      7  C   UNL     1      13.412  27.980  35.662  1.00  0.00     0.093 A 
ATOM      8  C   UNL     1      12.424  27.932  36.648  1.00  0.00     0.123 A 
ATOM      9  C   UNL     1      12.787  27.936  37.992  1.00  0.00     0.094 A 
ATOM     10  C   UNL     1      14.134  27.959  38.362  1.00  0.00     0.146 A 
ATOM     11  O   UNL     1      14.436  27.939  39.655  1.00  0.00    -0.452 OA
ENDROOT
BRANCH   1  12
ATOM     12  C   UNL     1      15.880  27.908  41.584  1.00  0.00     0.025 A 
ATOM     13  C   UNL     1      17.183  27.958  42.104  1.00  0.00     0.016 A 
ATOM     14  C   UNL     1      17.394  27.963  43.485  1.00  0.00     0.051 A 
ATOM     15  C   UNL     1      16.308  27.933  44.366  1.00  0.00     0.157 A 
ATOM     16  C   UNL     1      14.789  27.899  42.471  1.00  0.00     0.062 A 
ATOM     17  C   UNL     1      14.998  27.906  43.859  1.00  0.00     0.158 A 
BRANCH  15  18
ATOM     18  O   UNL     1      16.550  27.936  45.739  1.00  0.00    -0.504 OA
ATOM     19  H   UNL     1      16.753  28.788  46.248  1.00  0.00     0.293 HD
ENDBRANCH  15  18
BRANCH  17  20
ATOM     20  O   UNL     1      13.912  27.891  44.731  1.00  0.00    -0.504 OA
ATOM     21  H   UNL     1      13.064  28.408  44.532  1.00  0.00     0.293 HD
ENDBRANCH  17  20
ENDBRANCH   1  12
BRANCH   2  22
ATOM     22  O   UNL     1      18.073  27.966  39.690  1.00  0.00    -0.502 OA
ATOM     23  H   UNL     1      18.601  27.124  39.881  1.00  0.00     0.293 HD
ENDBRANCH   2  22
BRANCH   6  24
ATOM     24  O   UNL     1      15.670  28.180  34.941  1.00  0.00    -0.507 OA
ATOM     25  H   UNL     1      16.253  27.441  34.578  1.00  0.00     0.293 HD
ENDBRANCH   6  24
BRANCH   8  26
ATOM     26  O   UNL     1      11.075  27.888  36.301  1.00  0.00    -0.508 OA
ATOM     27  H   UNL     1      10.431  28.618  36.583  1.00  0.00     0.293 HD
ENDBRANCH   8  26
TORSDOF 6
ENDMDL
MODEL 2
REMARK VINA RESULT:     1.647      1.314      3.065
REMARK INTER + INTRA:           2.535
REMARK INTER:                   2.069
REMARK INTRA:                   0.466
REMARK UNBOUND:                 0.551
REMARK SMILES O=c1c(O)c(-c2ccc(O)c(O)c2)oc2cc(O)cc(O)c12
REMARK SMILES IDX 5 1 3 2 2 3 1 4 22 5 20 6 19 7 17 8 16 9 15 10 14 11 6 12
REMARK SMILES IDX 7 13 8 14 9 15 13 16 11 17 10 18 12 20 4 22 21 24 18 26
REMARK H PARENT 10 19 12 21 4 23 21 25 18 27
REMARK Flexibility Score: inf
ROOT
ATOM      1  C   UNL     1      15.749  28.049  39.749  1.00  0.00     0.180 A 
ATOM      2  C   UNL     1      14.466  28.090  39.180  1.00  0.00     0.208 A 
ATOM      3  C   UNL     1      14.341  28.099  37.782  1.00  0.00     0.238 A 
ATOM      4  O   UNL     1      13.193  28.211  37.279  1.00  0.00    -0.285 OA
ATOM      5  C   UNL     1      15.498  28.010  36.970  1.00  0.00     0.111 A 
ATOM      6  C   UNL     1      15.487  27.965  35.543  1.00  0.00     0.134 A 
ATOM      7  C   UNL     1      16.700  27.984  34.842  1.00  0.00     0.093 A 
ATOM      8  C   UNL     1      17.922  27.980  35.518  1.00  0.00     0.123 A 
ATOM      9  C   UNL     1      17.943  27.969  36.909  1.00  0.00     0.094 A 
ATOM     10  C   UNL     1      16.750  27.988  37.637  1.00  0.00     0.146 A 
ATOM     11  O   UNL     1      16.817  27.998  38.962  1.00  0.00    -0.452 OA
ENDROOT
BRANCH   1  12
ATOM     12  C   UNL     1      15.963  28.051  41.216  1.00  0.00     0.025 A 
ATOM     13  C   UNL     1      17.263  28.203  41.723  1.00  0.00     0.016 A 
ATOM     14  C   UNL     1      17.485  28.228  43.102  1.00  0.00     0.051 A 
ATOM     15  C   UNL     1      16.413  28.121  43.994  1.00  0.00     0.157 A 
ATOM     16  C   UNL     1      14.883  27.965  42.113  1.00  0.00     0.062 A 
ATOM     17  C   UNL     1      15.104  27.993  43.498  1.00  0.00     0.158 A 
BRANCH  15  18
ATOM     18  O   UNL     1      16.666  28.148  45.364  1.00  0.00    -0.504 OA
ATOM     19  H   UNL     1      15.922  28.093  46.050  1.00  0.00     0.293 HD
ENDBRANCH  15  18
BRANCH  17  20
ATOM     20  O   UNL     1      14.030  27.900  44.381  1.00  0.00    -0.504 OA
ATOM     21  H   UNL     1      13.165  28.403  44.220  1.00  0.00     0.293 HD
ENDBRANCH  17  20
ENDBRANCH   1  12
BRANCH   2  22
ATOM     22  O   UNL     1      13.333  28.101  39.999  1.00  0.00    -0.502 OA
ATOM     23  H   UNL     1      12.554  27.469  39.859  1.00  0.00     0.293 HD
ENDBRANCH   2  22
BRANCH   6  24
ATOM     24  O   UNL     1      14.325  27.877  34.770  1.00  0.00    -0.507 OA
ATOM     25  H   UNL     1      14.002  27.042  34.305  1.00  0.00     0.293 HD
ENDBRANCH   6  24
BRANCH   8  26
ATOM     26  O   UNL     1      19.124  27.982  34.812  1.00  0.00    -0.508 OA
ATOM     27  H   UNL     1      19.624  27.123  34.615  1.00  0.00     0.293 HD
ENDBRANCH   8  26
TORSDOF 6
ENDMDL
