MODEL 1
REMARK VINA RESULT:    -5.824      0.000      0.000
REMARK INTER + INTRA:          -5.824
REMARK INTER:                  -5.824
REMARK INTRA:                   0.000
REMARK UNBOUND:                 0.000
REMARK SMILES CC(C)=C1CC[C@@H](C)CC1=O
REMARK SMILES IDX 8 1 7 2 6 3 5 4 4 5 2 6 1 7 3 8 10 9 11 10 9 11
REMARK H PARENT
REMARK Flexibility Score: inf
ROOT
ATOM      1  C   UNL     1       2.259  15.476  -5.387  1.00  0.00     0.008 C 
ATOM      2  C   UNL     1       3.040  15.807  -6.669  1.00  0.00    -0.006 C 
ATOM      3  C   UNL     1       2.463  15.093  -7.904  1.00  0.00     0.008 C 
ATOM      4  C   UNL     1       2.634  13.566  -7.852  1.00  0.00     0.039 C 
ATOM      5  C   UNL     1       4.055  13.139  -7.508  1.00  0.00    -0.006 C 
ATOM      6  C   UNL     1       4.571  11.964  -7.974  1.00  0.00    -0.070 C 
ATOM      7  C   UNL     1       5.996  11.550  -7.690  1.00  0.00     0.039 C 
ATOM      8  C   UNL     1       3.747  11.031  -8.834  1.00  0.00     0.039 C 
ATOM      9  C   UNL     1       4.794  14.009  -6.548  1.00  0.00     0.159 C 
ATOM     10  O   UNL     1       5.633  13.530  -5.740  1.00  0.00    -0.295 OA
ATOM     11  C   UNL     1       4.536  15.489  -6.522  1.00  0.00     0.084 C 
ENDROOT
TORSDOF 0
ENDMDL
MODEL 2
REMARK VINA RESULT:    -5.391      1.497      4.253
REMARK INTER + INTRA:          -5.391
REMARK INTER:                  -5.391
REMARK INTRA:                   0.000
REMARK UNBOUND:                 0.000
REMARK SMILES CC(C)=C1CC[C@@H](C)CC1=O
REMARK SMILES IDX 8 1 7 2 6 3 5 4 4 5 2 6 1 7 3 8 10 9 11 10 9 11
REMARK H PARENT
REMARK Flexibility Score: inf
ROOT
ATOM      1  C   UNL     1       5.954  11.762  -7.713  1.00  0.00     0.008 C 
ATOM      2  C   UNL     1       5.041  12.503  -8.702  1.00  0.00    -0.006 C 
ATOM      3  C   UNL     1       5.460  13.971  -8.895  1.00  0.00     0.008 C 
ATOM      4  C   UNL     1       5.263  14.824  -7.631  1.00  0.00     0.039 C 
ATOM      5  C   UNL     1       3.882  14.660  -7.012  1.00  0.00    -0.006 C 
ATOM      6  C   UNL     1       3.293  15.680  -6.321  1.00  0.00    -0.070 C 
ATOM      7  C   UNL     1       1.900  15.554  -5.748  1.00  0.00     0.039 C 
ATOM      8  C   UNL     1       3.995  17.005  -6.128  1.00  0.00     0.039 C 
ATOM      9  C   UNL     1       3.274  13.301  -7.100  1.00  0.00     0.159 C 
ATOM     10  O   UNL     1       2.522  12.858  -6.191  1.00  0.00    -0.295 OA
ATOM     11  C   UNL     1       3.565  12.422  -8.283  1.00  0.00     0.084 C 
ENDROOT
TORSDOF 0
ENDMDL
MODEL 3
REMARK VINA RESULT:    -5.316      1.165      3.761
REMARK INTER + INTRA:          -5.316
REMARK INTER:                  -5.316
REMARK INTRA:                   0.000
REMARK UNBOUND:                 0.000
REMARK SMILES CC(C)=C1CC[C@@H](C)CC1=O
REMARK SMILES IDX 8 1 7 2 6 3 5 4 4 5 2 6 1 7 3 8 10 9 11 10 9 11
REMARK H PARENT
REMARK Flexibility Score: inf
ROOT
ATOM      1  C   UNL     1       6.748  12.867  -8.750  1.00  0.00     0.008 C 
ATOM      2  C   UNL     1       6.017  12.020  -7.697  1.00  0.00    -0.006 C 
ATOM      3  C   UNL     1       4.597  11.630  -8.145  1.00  0.00     0.008 C 
ATOM      4  C   UNL     1       3.647  12.835  -8.251  1.00  0.00     0.039 C 
ATOM      5  C   UNL     1       3.675  13.723  -7.015  1.00  0.00    -0.006 C 
ATOM      6  C   UNL     1       2.572  14.431  -6.630  1.00  0.00    -0.070 C 
ATOM      7  C   UNL     1       2.564  15.274  -5.375  1.00  0.00     0.039 C 
ATOM      8  C   UNL     1       1.287  14.375  -7.425  1.00  0.00     0.039 C 
ATOM      9  C   UNL     1       4.993  13.866  -6.331  1.00  0.00     0.159 C 
ATOM     10  O   UNL     1       5.320  14.938  -5.754  1.00  0.00    -0.295 OA
ATOM     11  C   UNL     1       5.969  12.724  -6.332  1.00  0.00     0.084 C 
ENDROOT
TORSDOF 0
ENDMDL
MODEL 4
REMARK VINA RESULT:    -5.143      1.877      4.258
REMARK INTER + INTRA:          -5.143
REMARK INTER:                  -5.143
REMARK INTRA:                   0.000
REMARK UNBOUND:                 0.000
REMARK SMILES CC(C)=C1CC[C@@H](C)CC1=O
REMARK SMILES IDX 8 1 7 2 6 3 5 4 4 5 2 6 1 7 3 8 10 9 11 10 9 11
REMARK H PARENT
REMARK Flexibility Score: inf
ROOT
ATOM      1  C   UNL     1       4.637  11.998  -9.123  1.00  0.00     0.008 C 
ATOM      2  C   UNL     1       5.788  12.741  -8.425  1.00  0.00    -0.006 C 
ATOM      3  C   UNL     1       5.790  12.514  -6.903  1.00  0.00     0.008 C 
ATOM      4  C   UNL     1       4.576  13.142  -6.199  1.00  0.00     0.039 C 
ATOM      5  C   UNL     1       4.342  14.593  -6.599  1.00  0.00    -0.006 C 
ATOM      6  C   UNL     1       3.774  15.481  -5.732  1.00  0.00    -0.070 C 
ATOM      7  C   UNL     1       3.585  16.937  -6.091  1.00  0.00     0.039 C 
ATOM      8  C   UNL     1       3.338  15.056  -4.347  1.00  0.00     0.039 C 
ATOM      9  C   UNL     1       4.654  14.948  -8.014  1.00  0.00     0.159 C 
ATOM     10  O   UNL     1       3.992  15.825  -8.631  1.00  0.00    -0.295 OA
ATOM     11  C   UNL     1       5.766  14.245  -8.738  1.00  0.00     0.084 C 
ENDROOT
TORSDOF 0
ENDMDL
MODEL 5
REMARK VINA RESULT:    -5.050      1.535      3.706
REMARK INTER + INTRA:          -5.050
REMARK INTER:                  -5.050
REMARK INTRA:                   0.000
REMARK UNBOUND:                 0.000
REMARK SMILES CC(C)=C1CC[C@@H](C)CC1=O
REMARK SMILES IDX 8 1 7 2 6 3 5 4 4 5 2 6 1 7 3 8 10 9 11 10 9 11
REMARK H PARENT
REMARK Flexibility Score: inf
ROOT
ATOM      1  C   UNL     1       6.388  14.516  -9.125  1.00  0.00     0.008 C 
ATOM      2  C   UNL     1       5.220  13.527  -8.980  1.00  0.00    -0.006 C 
ATOM      3  C   UNL     1       3.852  14.219  -9.107  1.00  0.00     0.008 C 
ATOM      4  C   UNL     1       3.554  15.183  -7.948  1.00  0.00     0.039 C 
ATOM      5  C   UNL     1       3.798  14.562  -6.580  1.00  0.00    -0.006 C 
ATOM      6  C   UNL     1       3.079  14.954  -5.488  1.00  0.00    -0.070 C 
ATOM      7  C   UNL     1       3.269  14.308  -4.134  1.00  0.00     0.039 C 
ATOM      8  C   UNL     1       2.024  16.033  -5.589  1.00  0.00     0.039 C 
ATOM      9  C   UNL     1       4.936  13.602  -6.483  1.00  0.00     0.159 C 
ATOM     10  O   UNL     1       5.618  13.497  -5.428  1.00  0.00    -0.295 OA
ATOM     11  C   UNL     1       5.299  12.744  -7.661  1.00  0.00     0.084 C 
ENDROOT
TORSDOF 0
ENDMDL
MODEL 6
REMARK VINA RESULT:    -5.013      1.415      3.906
REMARK INTER + INTRA:          -5.013
REMARK INTER:                  -5.013
REMARK INTRA:                   0.000
REMARK UNBOUND:                 0.000
REMARK SMILES CC(C)=C1CC[C@@H](C)CC1=O
REMARK SMILES IDX 8 1 7 2 6 3 5 4 4 5 2 6 1 7 3 8 10 9 11 10 9 11
REMARK H PARENT
REMARK Flexibility Score: inf
ROOT
ATOM      1  C   UNL     1       3.908  12.718  -9.121  1.00  0.00     0.008 C 
ATOM      2  C   UNL     1       2.706  12.950  -8.190  1.00  0.00    -0.006 C 
ATOM      3  C   UNL     1       2.073  14.338  -8.390  1.00  0.00     0.008 C 
ATOM      4  C   UNL     1       2.996  15.488  -7.955  1.00  0.00     0.039 C 
ATOM      5  C   UNL     1       3.591  15.282  -6.569  1.00  0.00    -0.006 C 
ATOM      6  C   UNL     1       3.905  16.345  -5.771  1.00  0.00    -0.070 C 
ATOM      7  C   UNL     1       4.443  16.159  -4.371  1.00  0.00     0.039 C 
ATOM      8  C   UNL     1       3.692  17.767  -6.239  1.00  0.00     0.039 C 
ATOM      9  C   UNL     1       3.917  13.877  -6.191  1.00  0.00     0.159 C 
ATOM     10  O   UNL     1       4.894  13.609  -5.442  1.00  0.00    -0.295 OA
ATOM     11  C   UNL     1       3.082  12.744  -6.714  1.00  0.00     0.084 C 
ENDROOT
TORSDOF 0
ENDMDL
MODEL 7
REMARK VINA RESULT:    -4.490      1.415      2.153
REMARK INTER + INTRA:          -4.490
REMARK INTER:                  -4.490
REMARK INTRA:                   0.000
REMARK UNBOUND:                 0.000
REMARK SMILES CC(C)=C1CC[C@@H](C)CC1=O
REMARK SMILES IDX 8 1 7 2 6 3 5 4 4 5 2 6 1 7 3 8 10 9 11 10 9 11
REMARK H PARENT
REMARK Flexibility Score: inf
ROOT
ATOM      1  C   UNL     1       3.672  15.391  -3.724  1.00  0.00     0.008 C 
ATOM      2  C   UNL     1       4.258  16.220  -4.877  1.00  0.00    -0.006 C 
ATOM      3  C   UNL     1       3.179  16.678  -5.874  1.00  0.00     0.008 C 
ATOM      4  C   UNL     1       2.547  15.513  -6.654  1.00  0.00     0.039 C 
ATOM      5  C   UNL     1       3.581  14.575  -7.262  1.00  0.00    -0.006 C 
ATOM      6  C   UNL     1       3.322  13.892  -8.415  1.00  0.00    -0.070 C 
ATOM      7  C   UNL     1       4.356  13.000  -9.062  1.00  0.00     0.039 C 
ATOM      8  C   UNL     1       1.993  14.026  -9.125  1.00  0.00     0.039 C 
ATOM      9  C   UNL     1       4.825  14.358  -6.468  1.00  0.00     0.159 C 
ATOM     10  O   UNL     1       5.431  13.253  -6.487  1.00  0.00    -0.295 OA
ATOM     11  C   UNL     1       5.375  15.463  -5.613  1.00  0.00     0.084 C 
ENDROOT
TORSDOF 0
ENDMDL
MODEL 8
REMARK VINA RESULT:    -3.301      2.014      2.747
REMARK INTER + INTRA:          -3.301
REMARK INTER:                  -3.301
REMARK INTRA:                   0.000
REMARK UNBOUND:                 0.000
REMARK SMILES CC(C)=C1CC[C@@H](C)CC1=O
REMARK SMILES IDX 8 1 7 2 6 3 5 4 4 5 2 6 1 7 3 8 10 9 11 10 9 11
REMARK H PARENT
REMARK Flexibility Score: inf
ROOT
ATOM      1  C   UNL     1       3.285  14.757  -3.784  1.00  0.00     0.008 C 
ATOM      2  C   UNL     1       2.465  14.454  -5.048  1.00  0.00    -0.006 C 
ATOM      3  C   UNL     1       2.897  13.140  -5.723  1.00  0.00     0.008 C 
ATOM      4  C   UNL     1       4.315  13.203  -6.311  1.00  0.00     0.039 C 
ATOM      5  C   UNL     1       4.547  14.437  -7.174  1.00  0.00    -0.006 C 
ATOM      6  C   UNL     1       5.424  14.412  -8.220  1.00  0.00    -0.070 C 
ATOM      7  C   UNL     1       5.624  15.609  -9.121  1.00  0.00     0.039 C 
ATOM      8  C   UNL     1       6.213  13.165  -8.552  1.00  0.00     0.039 C 
ATOM      9  C   UNL     1       3.860  15.687  -6.739  1.00  0.00     0.159 C 
ATOM     10  O   UNL     1       4.381  16.820  -6.921  1.00  0.00    -0.295 OA
ATOM     11  C   UNL     1       2.524  15.613  -6.055  1.00  0.00     0.084 C 
ENDROOT
TORSDOF 0
ENDMDL
