MODEL 1
REMARK VINA RESULT:    -4.759      0.000      0.000
REMARK INTER + INTRA:          -5.566
REMARK INTER:                  -5.454
REMARK INTRA:                  -0.112
REMARK UNBOUND:                -0.112
REMARK SMILES COc1ccc(C(C)=O)cc1O
REMARK SMILES IDX 6 1 10 2 11 3 3 4 4 5 5 6 7 7 8 8 9 9 12 10 2 12 1 13
REMARK H PARENT 12 11
REMARK Flexibility Score: inf
ROOT
ATOM      1  C   UNL     1      72.456  34.311  55.412  1.00  0.00     0.021 A 
ATOM      2  C   UNL     1      72.621  33.607  54.205  1.00  0.00     0.062 A 
ATOM      3  C   UNL     1      73.372  34.145  53.154  1.00  0.00     0.158 A 
ATOM      4  C   UNL     1      73.977  35.407  53.292  1.00  0.00     0.160 A 
ATOM      5  C   UNL     1      73.816  36.115  54.498  1.00  0.00     0.051 A 
ATOM      6  C   UNL     1      73.065  35.573  55.544  1.00  0.00     0.016 A 
ENDROOT
BRANCH   1   7
ATOM      7  C   UNL     1      71.654  33.719  56.516  1.00  0.00     0.159 C 
ATOM      8  C   UNL     1      70.268  34.195  56.832  1.00  0.00     0.093 C 
ATOM      9  O   UNL     1      72.141  32.789  57.215  1.00  0.00    -0.295 OA
ENDBRANCH   1   7
BRANCH   3  10
ATOM     10  O   UNL     1      73.505  33.409  51.977  1.00  0.00    -0.504 OA
ATOM     11  H   UNL     1      73.407  32.401  51.956  1.00  0.00     0.293 HD
ENDBRANCH   3  10
BRANCH   4  12
ATOM     12  O   UNL     1      74.724  35.923  52.222  1.00  0.00    -0.493 OA
ATOM     13  C   UNL     1      76.127  35.743  52.055  1.00  0.00     0.278 C 
ENDBRANCH   4  12
TORSDOF 3
ENDMDL
MODEL 2
REMARK VINA RESULT:    -4.127      1.288      4.774
REMARK INTER + INTRA:          -4.841
REMARK INTER:                  -4.799
REMARK INTRA:                  -0.043
REMARK UNBOUND:                -0.112
REMARK SMILES COc1ccc(C(C)=O)cc1O
REMARK SMILES IDX 6 1 10 2 11 3 3 4 4 5 5 6 7 7 8 8 9 9 12 10 2 12 1 13
REMARK H PARENT 12 11
REMARK Flexibility Score: inf
ROOT
ATOM      1  C   UNL     1      74.664  34.916  53.110  1.00  0.00     0.021 A 
ATOM      2  C   UNL     1      74.010  33.672  53.182  1.00  0.00     0.062 A 
ATOM      3  C   UNL     1      72.992  33.447  54.115  1.00  0.00     0.158 A 
ATOM      4  C   UNL     1      72.606  34.470  54.999  1.00  0.00     0.160 A 
ATOM      5  C   UNL     1      73.256  35.716  54.930  1.00  0.00     0.051 A 
ATOM      6  C   UNL     1      74.273  35.935  53.997  1.00  0.00     0.016 A 
ENDROOT
BRANCH   1   7
ATOM      7  C   UNL     1      75.744  35.133  52.109  1.00  0.00     0.159 C 
ATOM      8  C   UNL     1      76.913  34.203  51.990  1.00  0.00     0.093 C 
ATOM      9  O   UNL     1      75.687  36.125  51.332  1.00  0.00    -0.295 OA
ENDBRANCH   1   7
BRANCH   3  10
ATOM     10  O   UNL     1      72.375  32.197  54.147  1.00  0.00    -0.504 OA
ATOM     11  H   UNL     1      71.764  31.876  53.405  1.00  0.00     0.293 HD
ENDBRANCH   3  10
BRANCH   4  12
ATOM     12  O   UNL     1      71.582  34.216  55.925  1.00  0.00    -0.493 OA
ATOM     13  C   UNL     1      71.753  33.500  57.144  1.00  0.00     0.278 C 
ENDBRANCH   4  12
TORSDOF 3
ENDMDL
MODEL 3
REMARK VINA RESULT:    -4.020      2.543      4.286
REMARK INTER + INTRA:          -4.719
REMARK INTER:                  -4.621
REMARK INTRA:                  -0.099
REMARK UNBOUND:                -0.112
REMARK SMILES COc1ccc(C(C)=O)cc1O
REMARK SMILES IDX 6 1 10 2 11 3 3 4 4 5 5 6 7 7 8 8 9 9 12 10 2 12 1 13
REMARK H PARENT 12 11
REMARK Flexibility Score: inf
ROOT
ATOM      1  C   UNL     1      75.006  34.993  52.479  1.00  0.00     0.021 A 
ATOM      2  C   UNL     1      75.603  33.719  52.455  1.00  0.00     0.062 A 
ATOM      3  C   UNL     1      76.928  33.553  52.038  1.00  0.00     0.158 A 
ATOM      4  C   UNL     1      77.686  34.666  51.633  1.00  0.00     0.160 A 
ATOM      5  C   UNL     1      77.093  35.942  51.655  1.00  0.00     0.051 A 
ATOM      6  C   UNL     1      75.769  36.102  52.073  1.00  0.00     0.016 A 
ENDROOT
BRANCH   1   7
ATOM      7  C   UNL     1      73.596  35.146  52.927  1.00  0.00     0.159 C 
ATOM      8  C   UNL     1      73.122  34.619  54.249  1.00  0.00     0.093 C 
ATOM      9  O   UNL     1      72.763  35.735  52.185  1.00  0.00    -0.295 OA
ENDBRANCH   1   7
BRANCH   3  10
ATOM     10  O   UNL     1      77.475  32.270  52.032  1.00  0.00    -0.504 OA
ATOM     11  H   UNL     1      77.697  31.773  52.886  1.00  0.00     0.293 HD
ENDBRANCH   3  10
BRANCH   4  12
ATOM     12  O   UNL     1      79.013  34.470  51.219  1.00  0.00    -0.493 OA
ATOM     13  C   UNL     1      79.595  35.067  50.065  1.00  0.00     0.278 C 
ENDBRANCH   4  12
TORSDOF 3
ENDMDL
MODEL 4
REMARK VINA RESULT:    -3.924     16.378     17.020
REMARK INTER + INTRA:          -4.609
REMARK INTER:                  -4.514
REMARK INTRA:                  -0.094
REMARK UNBOUND:                -0.112
REMARK SMILES COc1ccc(C(C)=O)cc1O
REMARK SMILES IDX 6 1 10 2 11 3 3 4 4 5 5 6 7 7 8 8 9 9 12 10 2 12 1 13
REMARK H PARENT 12 11
REMARK Flexibility Score: inf
ROOT
ATOM      1  C   UNL     1      84.609  30.686  64.857  1.00  0.00     0.021 A 
ATOM      2  C   UNL     1      85.741  30.186  65.526  1.00  0.00     0.062 A 
ATOM      3  C   UNL     1      86.840  31.009  65.794  1.00  0.00     0.158 A 
ATOM      4  C   UNL     1      86.828  32.356  65.394  1.00  0.00     0.160 A 
ATOM      5  C   UNL     1      85.698  32.861  64.724  1.00  0.00     0.051 A 
ATOM      6  C   UNL     1      84.602  32.035  64.460  1.00  0.00     0.016 A 
ENDROOT
BRANCH   1   7
ATOM      7  C   UNL     1      83.450  29.793  64.584  1.00  0.00     0.159 C 
ATOM      8  C   UNL     1      83.606  28.307  64.458  1.00  0.00     0.093 C 
ATOM      9  O   UNL     1      82.297  30.287  64.453  1.00  0.00    -0.295 OA
ENDBRANCH   1   7
BRANCH   3  10
ATOM     10  O   UNL     1      87.940  30.466  66.460  1.00  0.00    -0.504 OA
ATOM     11  H   UNL     1      87.925  29.535  66.858  1.00  0.00     0.293 HD
ENDBRANCH   3  10
BRANCH   4  12
ATOM     12  O   UNL     1      87.946  33.158  65.674  1.00  0.00    -0.493 OA
ATOM     13  C   UNL     1      88.125  34.489  65.200  1.00  0.00     0.278 C 
ENDBRANCH   4  12
TORSDOF 3
ENDMDL
MODEL 5
REMARK VINA RESULT:    -3.919     16.226     17.163
REMARK INTER + INTRA:          -4.604
REMARK INTER:                  -4.499
REMARK INTRA:                  -0.105
REMARK UNBOUND:                -0.112
REMARK SMILES COc1ccc(C(C)=O)cc1O
REMARK SMILES IDX 6 1 10 2 11 3 3 4 4 5 5 6 7 7 8 8 9 9 12 10 2 12 1 13
REMARK H PARENT 12 11
REMARK Flexibility Score: inf
ROOT
ATOM      1  C   UNL     1      86.359  32.186  65.385  1.00  0.00     0.021 A 
ATOM      2  C   UNL     1      85.047  32.554  65.034  1.00  0.00     0.062 A 
ATOM      3  C   UNL     1      84.078  31.585  64.753  1.00  0.00     0.158 A 
ATOM      4  C   UNL     1      84.406  30.219  64.817  1.00  0.00     0.160 A 
ATOM      5  C   UNL     1      85.716  29.846  65.168  1.00  0.00     0.051 A 
ATOM      6  C   UNL     1      86.680  30.818  65.448  1.00  0.00     0.016 A 
ENDROOT
BRANCH   1   7
ATOM      7  C   UNL     1      87.373  33.233  65.681  1.00  0.00     0.159 C 
ATOM      8  C   UNL     1      88.124  33.266  66.978  1.00  0.00     0.093 C 
ATOM      9  O   UNL     1      87.619  34.127  64.824  1.00  0.00    -0.295 OA
ENDBRANCH   1   7
BRANCH   3  10
ATOM     10  O   UNL     1      82.792  32.000  64.409  1.00  0.00    -0.504 OA
ATOM     11  H   UNL     1      82.052  31.343  64.191  1.00  0.00     0.293 HD
ENDBRANCH   3  10
BRANCH   4  12
ATOM     12  O   UNL     1      83.414  29.268  64.529  1.00  0.00    -0.493 OA
ATOM     13  C   UNL     1      83.636  27.863  64.465  1.00  0.00     0.278 C 
ENDBRANCH   4  12
TORSDOF 3
ENDMDL
MODEL 6
REMARK VINA RESULT:    -3.742      1.552      2.358
REMARK INTER + INTRA:          -4.401
REMARK INTER:                  -4.283
REMARK INTRA:                  -0.118
REMARK UNBOUND:                -0.112
REMARK SMILES COc1ccc(C(C)=O)cc1O
REMARK SMILES IDX 6 1 10 2 11 3 3 4 4 5 5 6 7 7 8 8 9 9 12 10 2 12 1 13
REMARK H PARENT 12 11
REMARK Flexibility Score: inf
ROOT
ATOM      1  C   UNL     1      72.123  33.853  55.687  1.00  0.00     0.021 A 
ATOM      2  C   UNL     1      72.921  34.980  55.414  1.00  0.00     0.062 A 
ATOM      3  C   UNL     1      73.815  34.984  54.338  1.00  0.00     0.158 A 
ATOM      4  C   UNL     1      73.929  33.855  53.509  1.00  0.00     0.160 A 
ATOM      5  C   UNL     1      73.133  32.726  53.777  1.00  0.00     0.051 A 
ATOM      6  C   UNL     1      72.241  32.727  54.853  1.00  0.00     0.016 A 
ENDROOT
BRANCH   1   7
ATOM      7  C   UNL     1      71.178  33.870  56.835  1.00  0.00     0.159 C 
ATOM      8  C   UNL     1      71.385  33.010  58.046  1.00  0.00     0.093 C 
ATOM      9  O   UNL     1      70.168  34.626  56.805  1.00  0.00    -0.295 OA
ENDBRANCH   1   7
BRANCH   3  10
ATOM     10  O   UNL     1      74.585  36.125  54.110  1.00  0.00    -0.504 OA
ATOM     11  H   UNL     1      74.767  36.476  53.177  1.00  0.00     0.293 HD
ENDBRANCH   3  10
BRANCH   4  12
ATOM     12  O   UNL     1      74.835  33.888  52.437  1.00  0.00    -0.493 OA
ATOM     13  C   UNL     1      76.004  33.080  52.342  1.00  0.00     0.278 C 
ENDBRANCH   4  12
TORSDOF 3
ENDMDL
MODEL 7
REMARK VINA RESULT:    -3.296     16.880     17.785
REMARK INTER + INTRA:          -3.889
REMARK INTER:                  -3.792
REMARK INTRA:                  -0.097
REMARK UNBOUND:                -0.112
REMARK SMILES COc1ccc(C(C)=O)cc1O
REMARK SMILES IDX 6 1 10 2 11 3 3 4 4 5 5 6 7 7 8 8 9 9 12 10 2 12 1 13
REMARK H PARENT 12 11
REMARK Flexibility Score: inf
ROOT
ATOM      1  C   UNL     1      86.773  32.333  65.762  1.00  0.00     0.021 A 
ATOM      2  C   UNL     1      87.295  31.068  65.433  1.00  0.00     0.062 A 
ATOM      3  C   UNL     1      86.449  30.010  65.083  1.00  0.00     0.158 A 
ATOM      4  C   UNL     1      85.057  30.198  65.056  1.00  0.00     0.160 A 
ATOM      5  C   UNL     1      84.530  31.461  65.384  1.00  0.00     0.051 A 
ATOM      6  C   UNL     1      85.379  32.515  65.732  1.00  0.00     0.016 A 
ENDROOT
BRANCH   1   7
ATOM      7  C   UNL     1      87.691  33.444  66.130  1.00  0.00     0.159 C 
ATOM      8  C   UNL     1      88.125  34.477  65.134  1.00  0.00     0.093 C 
ATOM      9  O   UNL     1      88.124  33.534  67.312  1.00  0.00    -0.295 OA
ENDBRANCH   1   7
BRANCH   3  10
ATOM     10  O   UNL     1      87.014  28.775  64.766  1.00  0.00    -0.504 OA
ATOM     11  H   UNL     1      87.649  28.655  63.985  1.00  0.00     0.293 HD
ENDBRANCH   3  10
BRANCH   4  12
ATOM     12  O   UNL     1      84.232  29.118  64.702  1.00  0.00    -0.493 OA
ATOM     13  C   UNL     1      82.870  29.238  64.303  1.00  0.00     0.278 C 
ENDBRANCH   4  12
TORSDOF 3
ENDMDL
MODEL 8
REMARK VINA RESULT:    -2.798      2.750      6.357
REMARK INTER + INTRA:          -3.318
REMARK INTER:                  -3.205
REMARK INTRA:                  -0.113
REMARK UNBOUND:                -0.112
REMARK SMILES COc1ccc(C(C)=O)cc1O
REMARK SMILES IDX 6 1 10 2 11 3 3 4 4 5 5 6 7 7 8 8 9 9 12 10 2 12 1 13
REMARK H PARENT 12 11
REMARK Flexibility Score: inf
ROOT
ATOM      1  C   UNL     1      77.998  35.033  51.592  1.00  0.00     0.021 A 
ATOM      2  C   UNL     1      77.515  33.772  51.988  1.00  0.00     0.062 A 
ATOM      3  C   UNL     1      76.182  33.602  52.376  1.00  0.00     0.158 A 
ATOM      4  C   UNL     1      75.300  34.697  52.375  1.00  0.00     0.160 A 
ATOM      5  C   UNL     1      75.778  35.960  51.979  1.00  0.00     0.051 A 
ATOM      6  C   UNL     1      77.111  36.125  51.592  1.00  0.00     0.016 A 
ENDROOT
BRANCH   1   7
ATOM      7  C   UNL     1      79.419  35.191  51.182  1.00  0.00     0.159 C 
ATOM      8  C   UNL     1      79.875  34.919  49.780  1.00  0.00     0.093 C 
ATOM      9  O   UNL     1      80.277  35.565  52.028  1.00  0.00    -0.295 OA
ENDBRANCH   1   7
BRANCH   3  10
ATOM     10  O   UNL     1      75.750  32.333  52.761  1.00  0.00    -0.504 OA
ATOM     11  H   UNL     1      75.751  32.032  53.729  1.00  0.00     0.293 HD
ENDBRANCH   3  10
BRANCH   4  12
ATOM     12  O   UNL     1      73.968  34.498  52.770  1.00  0.00    -0.493 OA
ATOM     13  C   UNL     1      73.405  34.977  53.987  1.00  0.00     0.278 C 
ENDBRANCH   4  12
TORSDOF 3
ENDMDL
