MODEL 1
REMARK VINA RESULT:    -6.582      0.000      0.000
REMARK INTER + INTRA:          -7.000
REMARK INTER:                  -6.967
REMARK INTRA:                  -0.034
REMARK UNBOUND:                -0.034
REMARK SMILES COc1ccc2ccc(=O)oc2c1
REMARK SMILES IDX 3 1 13 2 12 3 6 4 5 5 4 6 7 7 8 8 9 9 10 10 11 11 2 12 1 13
REMARK H PARENT
REMARK Flexibility Score: inf
ROOT
ATOM      1  C   UNL     1     135.811 134.658 113.172  1.00  0.00     0.122 A 
ATOM      2  C   UNL     1     135.957 134.632 114.573  1.00  0.00     0.094 A 
ATOM      3  C   UNL     1     137.232 134.577 115.148  1.00  0.00     0.142 A 
ATOM      4  C   UNL     1     138.375 134.548 114.321  1.00  0.00     0.018 A 
ATOM      5  C   UNL     1     138.230 134.575 112.928  1.00  0.00     0.016 A 
ATOM      6  C   UNL     1     136.952 134.629 112.360  1.00  0.00     0.047 A 
ATOM      7  C   UNL     1     139.635 134.494 114.925  1.00  0.00     0.019 A 
ATOM      8  C   UNL     1     139.726 134.470 116.315  1.00  0.00     0.094 A 
ATOM      9  C   UNL     1     138.550 134.501 117.073  1.00  0.00     0.336 A 
ATOM     10  O   UNL     1     138.612 134.480 118.329  1.00  0.00    -0.246 OA
ATOM     11  O   UNL     1     137.363 134.553 116.472  1.00  0.00    -0.423 OA
ENDROOT
BRANCH   1  12
ATOM     12  O   UNL     1     134.555 134.713 112.549  1.00  0.00    -0.497 OA
ATOM     13  C   UNL     1     133.924 133.606 111.912  1.00  0.00     0.278 C 
ENDBRANCH   1  12
TORSDOF 1
ENDMDL
MODEL 2
REMARK VINA RESULT:    -6.485      5.715     10.262
REMARK INTER + INTRA:          -6.897
REMARK INTER:                  -6.864
REMARK INTRA:                  -0.034
REMARK UNBOUND:                -0.034
REMARK SMILES COc1ccc2ccc(=O)oc2c1
REMARK SMILES IDX 3 1 13 2 12 3 6 4 5 5 4 6 7 7 8 8 9 9 10 10 11 11 2 12 1 13
REMARK H PARENT
REMARK Flexibility Score: inf
ROOT
ATOM      1  C   UNL     1     131.042 134.443 111.164  1.00  0.00     0.122 A 
ATOM      2  C   UNL     1     130.588 135.086 109.995  1.00  0.00     0.094 A 
ATOM      3  C   UNL     1     129.907 134.361 109.011  1.00  0.00     0.142 A 
ATOM      4  C   UNL     1     129.672 132.981 109.190  1.00  0.00     0.018 A 
ATOM      5  C   UNL     1     130.122 132.342 110.353  1.00  0.00     0.016 A 
ATOM      6  C   UNL     1     130.803 133.072 111.332  1.00  0.00     0.047 A 
ATOM      7  C   UNL     1     128.987 132.285 108.189  1.00  0.00     0.019 A 
ATOM      8  C   UNL     1     128.560 132.967 107.052  1.00  0.00     0.094 A 
ATOM      9  C   UNL     1     128.828 134.336 106.941  1.00  0.00     0.336 A 
ATOM     10  O   UNL     1     128.451 134.970 105.922  1.00  0.00    -0.246 OA
ATOM     11  O   UNL     1     129.482 134.975 107.909  1.00  0.00    -0.423 OA
ENDROOT
BRANCH   1  12
ATOM     12  O   UNL     1     131.729 135.125 112.179  1.00  0.00    -0.497 OA
ATOM     13  C   UNL     1     133.132 135.029 112.405  1.00  0.00     0.278 C 
ENDBRANCH   1  12
TORSDOF 1
ENDMDL
MODEL 3
REMARK VINA RESULT:    -6.383      7.472      9.462
REMARK INTER + INTRA:          -6.789
REMARK INTER:                  -6.755
REMARK INTRA:                  -0.034
REMARK UNBOUND:                -0.034
REMARK SMILES COc1ccc2ccc(=O)oc2c1
REMARK SMILES IDX 3 1 13 2 12 3 6 4 5 5 4 6 7 7 8 8 9 9 10 10 11 11 2 12 1 13
REMARK H PARENT
REMARK Flexibility Score: inf
ROOT
ATOM      1  C   UNL     1     127.702 134.311 108.780  1.00  0.00     0.122 A 
ATOM      2  C   UNL     1     128.052 134.599 110.115  1.00  0.00     0.094 A 
ATOM      3  C   UNL     1     129.034 133.843 110.765  1.00  0.00     0.142 A 
ATOM      4  C   UNL     1     129.677 132.789 110.082  1.00  0.00     0.018 A 
ATOM      5  C   UNL     1     129.331 132.504 108.755  1.00  0.00     0.016 A 
ATOM      6  C   UNL     1     128.348 133.262 108.111  1.00  0.00     0.047 A 
ATOM      7  C   UNL     1     130.655 132.054 110.759  1.00  0.00     0.019 A 
ATOM      8  C   UNL     1     130.963 132.378 112.079  1.00  0.00     0.094 A 
ATOM      9  C   UNL     1     130.284 133.436 112.693  1.00  0.00     0.336 A 
ATOM     10  O   UNL     1     130.549 133.744 113.884  1.00  0.00    -0.246 OA
ATOM     11  O   UNL     1     129.358 134.120 112.026  1.00  0.00    -0.423 OA
ENDROOT
BRANCH   1  12
ATOM     12  O   UNL     1     126.725 135.039 108.085  1.00  0.00    -0.497 OA
ATOM     13  C   UNL     1     126.781 136.444 107.856  1.00  0.00     0.278 C 
ENDBRANCH   1  12
TORSDOF 1
ENDMDL
MODEL 4
REMARK VINA RESULT:    -6.241      6.140     10.092
REMARK INTER + INTRA:          -6.640
REMARK INTER:                  -6.604
REMARK INTRA:                  -0.036
REMARK UNBOUND:                -0.034
REMARK SMILES COc1ccc2ccc(=O)oc2c1
REMARK SMILES IDX 3 1 13 2 12 3 6 4 5 5 4 6 7 7 8 8 9 9 10 10 11 11 2 12 1 13
REMARK H PARENT
REMARK Flexibility Score: inf
ROOT
ATOM      1  C   UNL     1     130.357 133.486 112.623  1.00  0.00     0.122 A 
ATOM      2  C   UNL     1     129.322 134.186 111.972  1.00  0.00     0.094 A 
ATOM      3  C   UNL     1     128.939 133.833 110.674  1.00  0.00     0.142 A 
ATOM      4  C   UNL     1     129.591 132.770 110.013  1.00  0.00     0.018 A 
ATOM      5  C   UNL     1     130.620 132.073 110.660  1.00  0.00     0.016 A 
ATOM      6  C   UNL     1     130.998 132.432 111.958  1.00  0.00     0.047 A 
ATOM      7  C   UNL     1     129.185 132.440 108.716  1.00  0.00     0.019 A 
ATOM      8  C   UNL     1     128.156 133.164 108.117  1.00  0.00     0.094 A 
ATOM      9  C   UNL     1     127.554 134.206 108.831  1.00  0.00     0.336 A 
ATOM     10  O   UNL     1     126.624 134.872 108.307  1.00  0.00    -0.246 OA
ATOM     11  O   UNL     1     127.960 134.499 110.064  1.00  0.00    -0.423 OA
ENDROOT
BRANCH   1  12
ATOM     12  O   UNL     1     130.776 133.802 113.923  1.00  0.00    -0.497 OA
ATOM     13  C   UNL     1     132.138 133.866 114.335  1.00  0.00     0.278 C 
ENDBRANCH   1  12
TORSDOF 1
ENDMDL
MODEL 5
REMARK VINA RESULT:    -6.203      7.756     10.765
REMARK INTER + INTRA:          -6.599
REMARK INTER:                  -6.566
REMARK INTRA:                  -0.033
REMARK UNBOUND:                -0.034
REMARK SMILES COc1ccc2ccc(=O)oc2c1
REMARK SMILES IDX 3 1 13 2 12 3 6 4 5 5 4 6 7 7 8 8 9 9 10 10 11 11 2 12 1 13
REMARK H PARENT
REMARK Flexibility Score: inf
ROOT
ATOM      1  C   UNL     1     130.275 132.755 110.104  1.00  0.00     0.122 A 
ATOM      2  C   UNL     1     129.597 133.688 110.913  1.00  0.00     0.094 A 
ATOM      3  C   UNL     1     128.360 134.202 110.511  1.00  0.00     0.142 A 
ATOM      4  C   UNL     1     127.788 133.784 109.290  1.00  0.00     0.018 A 
ATOM      5  C   UNL     1     128.461 132.855 108.486  1.00  0.00     0.016 A 
ATOM      6  C   UNL     1     129.698 132.346 108.894  1.00  0.00     0.047 A 
ATOM      7  C   UNL     1     126.550 134.316 108.916  1.00  0.00     0.019 A 
ATOM      8  C   UNL     1     125.921 135.237 109.752  1.00  0.00     0.094 A 
ATOM      9  C   UNL     1     126.547 135.606 110.948  1.00  0.00     0.336 A 
ATOM     10  O   UNL     1     125.995 136.436 111.715  1.00  0.00    -0.246 OA
ATOM     11  O   UNL     1     127.725 135.085 111.280  1.00  0.00    -0.423 OA
ENDROOT
BRANCH   1  12
ATOM     12  O   UNL     1     131.517 132.210 110.464  1.00  0.00    -0.497 OA
ATOM     13  C   UNL     1     131.700 131.229 111.480  1.00  0.00     0.278 C 
ENDBRANCH   1  12
TORSDOF 1
ENDMDL
MODEL 6
REMARK VINA RESULT:    -6.153      9.983     11.339
REMARK INTER + INTRA:          -6.547
REMARK INTER:                  -6.514
REMARK INTRA:                  -0.033
REMARK UNBOUND:                -0.034
REMARK SMILES COc1ccc2ccc(=O)oc2c1
REMARK SMILES IDX 3 1 13 2 12 3 6 4 5 5 4 6 7 7 8 8 9 9 10 10 11 11 2 12 1 13
REMARK H PARENT
REMARK Flexibility Score: inf
ROOT
ATOM      1  C   UNL     1     126.530 135.451 111.231  1.00  0.00     0.122 A 
ATOM      2  C   UNL     1     126.514 134.796 109.983  1.00  0.00     0.094 A 
ATOM      3  C   UNL     1     127.583 133.976 109.604  1.00  0.00     0.142 A 
ATOM      4  C   UNL     1     128.680 133.804 110.475  1.00  0.00     0.018 A 
ATOM      5  C   UNL     1     128.696 134.454 111.715  1.00  0.00     0.016 A 
ATOM      6  C   UNL     1     127.624 135.272 112.087  1.00  0.00     0.047 A 
ATOM      7  C   UNL     1     129.733 132.978 110.067  1.00  0.00     0.019 A 
ATOM      8  C   UNL     1     129.669 132.354 108.823  1.00  0.00     0.094 A 
ATOM      9  C   UNL     1     128.550 132.570 108.011  1.00  0.00     0.336 A 
ATOM     10  O   UNL     1     128.475 132.015 106.884  1.00  0.00    -0.246 OA
ATOM     11  O   UNL     1     127.562 133.361 108.423  1.00  0.00    -0.423 OA
ENDROOT
BRANCH   1  12
ATOM     12  O   UNL     1     125.483 136.281 111.656  1.00  0.00    -0.497 OA
ATOM     13  C   UNL     1     124.283 135.814 112.265  1.00  0.00     0.278 C 
ENDBRANCH   1  12
TORSDOF 1
ENDMDL
MODEL 7
REMARK VINA RESULT:    -6.134      6.346     10.337
REMARK INTER + INTRA:          -6.526
REMARK INTER:                  -6.487
REMARK INTRA:                  -0.039
REMARK UNBOUND:                -0.034
REMARK SMILES COc1ccc2ccc(=O)oc2c1
REMARK SMILES IDX 3 1 13 2 12 3 6 4 5 5 4 6 7 7 8 8 9 9 10 10 11 11 2 12 1 13
REMARK H PARENT
REMARK Flexibility Score: inf
ROOT
ATOM      1  C   UNL     1     130.598 133.059 112.135  1.00  0.00     0.122 A 
ATOM      2  C   UNL     1     130.553 132.379 110.901  1.00  0.00     0.094 A 
ATOM      3  C   UNL     1     129.589 132.716 109.945  1.00  0.00     0.142 A 
ATOM      4  C   UNL     1     128.658 133.741 110.216  1.00  0.00     0.018 A 
ATOM      5  C   UNL     1     128.703 134.419 111.441  1.00  0.00     0.016 A 
ATOM      6  C   UNL     1     129.669 134.076 112.393  1.00  0.00     0.047 A 
ATOM      7  C   UNL     1     127.707 134.055 109.240  1.00  0.00     0.019 A 
ATOM      8  C   UNL     1     127.705 133.352 108.037  1.00  0.00     0.094 A 
ATOM      9  C   UNL     1     128.658 132.347 107.836  1.00  0.00     0.336 A 
ATOM     10  O   UNL     1     128.671 131.701 106.757  1.00  0.00    -0.246 OA
ATOM     11  O   UNL     1     129.551 132.068 108.782  1.00  0.00    -0.423 OA
ENDROOT
BRANCH   1  12
ATOM     12  O   UNL     1     131.545 132.758 113.125  1.00  0.00    -0.497 OA
ATOM     13  C   UNL     1     132.575 131.785 112.983  1.00  0.00     0.278 C 
ENDBRANCH   1  12
TORSDOF 1
ENDMDL
MODEL 8
REMARK VINA RESULT:    -6.081      1.241      4.693
REMARK INTER + INTRA:          -6.470
REMARK INTER:                  -6.432
REMARK INTRA:                  -0.038
REMARK UNBOUND:                -0.034
REMARK SMILES COc1ccc2ccc(=O)oc2c1
REMARK SMILES IDX 3 1 13 2 12 3 6 4 5 5 4 6 7 7 8 8 9 9 10 10 11 11 2 12 1 13
REMARK H PARENT
REMARK Flexibility Score: inf
ROOT
ATOM      1  C   UNL     1     138.542 134.615 115.888  1.00  0.00     0.122 A 
ATOM      2  C   UNL     1     137.134 134.653 115.890  1.00  0.00     0.094 A 
ATOM      3  C   UNL     1     136.428 134.697 114.682  1.00  0.00     0.142 A 
ATOM      4  C   UNL     1     137.129 134.702 113.458  1.00  0.00     0.018 A 
ATOM      5  C   UNL     1     138.530 134.663 113.455  1.00  0.00     0.016 A 
ATOM      6  C   UNL     1     139.229 134.620 114.666  1.00  0.00     0.047 A 
ATOM      7  C   UNL     1     136.396 134.746 112.268  1.00  0.00     0.019 A 
ATOM      8  C   UNL     1     135.004 134.783 112.325  1.00  0.00     0.094 A 
ATOM      9  C   UNL     1     134.375 134.775 113.575  1.00  0.00     0.336 A 
ATOM     10  O   UNL     1     133.119 134.809 113.646  1.00  0.00    -0.246 OA
ATOM     11  O   UNL     1     135.097 134.733 114.692  1.00  0.00    -0.423 OA
ENDROOT
BRANCH   1  12
ATOM     12  O   UNL     1     139.294 134.569 117.071  1.00  0.00    -0.497 OA
ATOM     13  C   UNL     1     138.780 134.163 118.336  1.00  0.00     0.278 C 
ENDBRANCH   1  12
TORSDOF 1
ENDMDL
MODEL 9
REMARK VINA RESULT:    -6.075      8.810     10.900
REMARK INTER + INTRA:          -6.464
REMARK INTER:                  -6.431
REMARK INTRA:                  -0.032
REMARK UNBOUND:                -0.034
REMARK SMILES COc1ccc2ccc(=O)oc2c1
REMARK SMILES IDX 3 1 13 2 12 3 6 4 5 5 4 6 7 7 8 8 9 9 10 10 11 11 2 12 1 13
REMARK H PARENT
REMARK Flexibility Score: inf
ROOT
ATOM      1  C   UNL     1     126.411 135.316 111.037  1.00  0.00     0.122 A 
ATOM      2  C   UNL     1     127.693 134.822 111.348  1.00  0.00     0.094 A 
ATOM      3  C   UNL     1     128.377 134.011 110.435  1.00  0.00     0.142 A 
ATOM      4  C   UNL     1     127.780 133.688 109.198  1.00  0.00     0.018 A 
ATOM      5  C   UNL     1     126.506 134.180 108.887  1.00  0.00     0.016 A 
ATOM      6  C   UNL     1     125.828 134.989 109.805  1.00  0.00     0.047 A 
ATOM      7  C   UNL     1     128.490 132.876 108.307  1.00  0.00     0.019 A 
ATOM      8  C   UNL     1     129.755 132.413 108.663  1.00  0.00     0.094 A 
ATOM      9  C   UNL     1     130.284 132.773 109.907  1.00  0.00     0.336 A 
ATOM     10  O   UNL     1     131.424 132.364 110.246  1.00  0.00    -0.246 OA
ATOM     11  O   UNL     1     129.588 133.547 110.736  1.00  0.00    -0.423 OA
ENDROOT
BRANCH   1  12
ATOM     12  O   UNL     1     125.685 136.132 111.917  1.00  0.00    -0.497 OA
ATOM     13  C   UNL     1     124.421 135.787 112.476  1.00  0.00     0.278 C 
ENDBRANCH   1  12
TORSDOF 1
ENDMDL
