MODEL 1
REMARK VINA RESULT:    -3.052      0.000      0.000
REMARK INTER + INTRA:          -3.319
REMARK INTER:                  -3.319
REMARK INTRA:                   0.000
REMARK UNBOUND:                 0.000
REMARK SMILES [NH3+]CC(=O)[O-]
REMARK SMILES IDX 2 1 1 2 3 6 4 7 5 8
REMARK H PARENT 1 3 1 4 1 5
REMARK Flexibility Score: inf
ROOT
ATOM      1  C   UNL     1     -28.050  57.547  13.484  1.00  0.00     0.312 C 
ENDROOT
BRANCH   1   2
ATOM      2  N   UNL     1     -29.125  57.190  12.560  1.00  0.00    -0.353 N 
ATOM      3  H   UNL     1     -30.001  57.019  13.105  1.00  0.00     0.344 HD
ATOM      4  H   UNL     1     -28.874  56.319  12.037  1.00  0.00     0.344 HD
ATOM      5  H   UNL     1     -29.293  57.972  11.885  1.00  0.00     0.344 HD
ENDBRANCH   1   2
BRANCH   1   6
ATOM      6  C   UNL     1     -27.243  56.339  13.849  1.00  0.00     0.096 C 
ATOM      7  O   UNL     1     -26.314  56.429  14.693  1.00  0.00    -0.544 OA
ATOM      8  O   UNL     1     -27.484  55.125  13.218  1.00  0.00    -0.544 OA
ENDBRANCH   1   6
TORSDOF 2
ENDMDL
MODEL 2
REMARK VINA RESULT:    -3.042     18.652     18.865
REMARK INTER + INTRA:          -3.308
REMARK INTER:                  -3.308
REMARK INTRA:                   0.000
REMARK UNBOUND:                 0.000
REMARK SMILES [NH3+]CC(=O)[O-]
REMARK SMILES IDX 2 1 1 2 3 6 4 7 5 8
REMARK H PARENT 1 3 1 4 1 5
REMARK Flexibility Score: inf
ROOT
ATOM      1  C   UNL     1     -21.742  68.034  -0.415  1.00  0.00     0.312 C 
ENDROOT
BRANCH   1   2
ATOM      2  N   UNL     1     -23.159  67.677  -0.450  1.00  0.00    -0.353 N 
ATOM      3  H   UNL     1     -23.341  67.080  -1.289  1.00  0.00     0.344 HD
ATOM      4  H   UNL     1     -23.746  68.541  -0.514  1.00  0.00     0.344 HD
ATOM      5  H   UNL     1     -23.415  67.139   0.411  1.00  0.00     0.344 HD
ENDBRANCH   1   2
BRANCH   1   6
ATOM      6  C   UNL     1     -21.447  68.911   0.763  1.00  0.00     0.096 C 
ATOM      7  O   UNL     1     -21.389  68.419   1.920  1.00  0.00    -0.544 OA
ATOM      8  O   UNL     1     -21.287  70.280   0.588  1.00  0.00    -0.544 OA
ENDBRANCH   1   6
TORSDOF 2
ENDMDL
MODEL 3
REMARK VINA RESULT:    -2.983      2.439      2.815
REMARK INTER + INTRA:          -3.244
REMARK INTER:                  -3.244
REMARK INTRA:                   0.000
REMARK UNBOUND:                 0.000
REMARK SMILES [NH3+]CC(=O)[O-]
REMARK SMILES IDX 2 1 1 2 3 6 4 7 5 8
REMARK H PARENT 1 3 1 4 1 5
REMARK Flexibility Score: inf
ROOT
ATOM      1  C   UNL     1     -27.276  56.000  13.720  1.00  0.00     0.312 C 
ENDROOT
BRANCH   1   2
ATOM      2  N   UNL     1     -26.559  55.835  14.983  1.00  0.00    -0.353 N 
ATOM      3  H   UNL     1     -26.946  55.005  15.489  1.00  0.00     0.344 HD
ATOM      4  H   UNL     1     -26.683  56.685  15.580  1.00  0.00     0.344 HD
ATOM      5  H   UNL     1     -25.541  55.676  14.799  1.00  0.00     0.344 HD
ENDBRANCH   1   2
BRANCH   1   6
ATOM      6  C   UNL     1     -27.617  57.441  13.490  1.00  0.00     0.096 C 
ATOM      7  O   UNL     1     -28.817  57.818  13.508  1.00  0.00    -0.544 OA
ATOM      8  O   UNL     1     -26.611  58.357  13.206  1.00  0.00    -0.544 OA
ENDBRANCH   1   6
TORSDOF 2
ENDMDL
MODEL 4
REMARK VINA RESULT:    -2.940     20.007     20.117
REMARK INTER + INTRA:          -3.198
REMARK INTER:                  -3.198
REMARK INTRA:                   0.000
REMARK UNBOUND:                 0.000
REMARK SMILES [NH3+]CC(=O)[O-]
REMARK SMILES IDX 2 1 1 2 3 6 4 7 5 8
REMARK H PARENT 1 3 1 4 1 5
REMARK Flexibility Score: inf
ROOT
ATOM      1  C   UNL     1     -19.280  68.833  -0.690  1.00  0.00     0.312 C 
ENDROOT
BRANCH   1   2
ATOM      2  N   UNL     1     -17.944  69.280  -1.079  1.00  0.00    -0.353 N 
ATOM      3  H   UNL     1     -17.517  69.812  -0.286  1.00  0.00     0.344 HD
ATOM      4  H   UNL     1     -18.004  69.906  -1.915  1.00  0.00     0.344 HD
ATOM      5  H   UNL     1     -17.339  68.455  -1.298  1.00  0.00     0.344 HD
ENDBRANCH   1   2
BRANCH   1   6
ATOM      6  C   UNL     1     -19.308  67.346  -0.508  1.00  0.00     0.096 C 
ATOM      7  O   UNL     1     -18.946  66.836   0.584  1.00  0.00    -0.544 OA
ATOM      8  O   UNL     1     -19.683  66.523  -1.562  1.00  0.00    -0.544 OA
ENDBRANCH   1   6
TORSDOF 2
ENDMDL
MODEL 5
REMARK VINA RESULT:    -2.928     18.311     18.505
REMARK INTER + INTRA:          -3.185
REMARK INTER:                  -3.185
REMARK INTRA:                   0.000
REMARK UNBOUND:                 0.000
REMARK SMILES [NH3+]CC(=O)[O-]
REMARK SMILES IDX 2 1 1 2 3 6 4 7 5 8
REMARK H PARENT 1 3 1 4 1 5
REMARK Flexibility Score: inf
ROOT
ATOM      1  C   UNL     1     -21.717  67.966  -0.534  1.00  0.00     0.312 C 
ENDROOT
BRANCH   1   2
ATOM      2  N   UNL     1     -23.112  67.714  -0.177  1.00  0.00    -0.353 N 
ATOM      3  H   UNL     1     -23.180  67.574   0.857  1.00  0.00     0.344 HD
ATOM      4  H   UNL     1     -23.456  66.852  -0.661  1.00  0.00     0.344 HD
ATOM      5  H   UNL     1     -23.705  68.532  -0.448  1.00  0.00     0.344 HD
ENDBRANCH   1   2
BRANCH   1   6
ATOM      6  C   UNL     1     -20.854  67.987   0.690  1.00  0.00     0.096 C 
ATOM      7  O   UNL     1     -19.682  67.528   0.646  1.00  0.00    -0.544 OA
ATOM      8  O   UNL     1     -21.362  68.464   1.892  1.00  0.00    -0.544 OA
ENDBRANCH   1   6
TORSDOF 2
ENDMDL
MODEL 6
REMARK VINA RESULT:    -2.928     20.071     20.223
REMARK INTER + INTRA:          -3.185
REMARK INTER:                  -3.185
REMARK INTRA:                   0.000
REMARK UNBOUND:                 0.000
REMARK SMILES [NH3+]CC(=O)[O-]
REMARK SMILES IDX 2 1 1 2 3 6 4 7 5 8
REMARK H PARENT 1 3 1 4 1 5
REMARK Flexibility Score: inf
ROOT
ATOM      1  C   UNL     1     -19.239  68.901  -0.727  1.00  0.00     0.312 C 
ENDROOT
BRANCH   1   2
ATOM      2  N   UNL     1     -17.899  69.354  -1.096  1.00  0.00    -0.353 N 
ATOM      3  H   UNL     1     -17.407  69.699  -0.240  1.00  0.00     0.344 HD
ATOM      4  H   UNL     1     -17.963  70.134  -1.790  1.00  0.00     0.344 HD
ATOM      5  H   UNL     1     -17.352  68.561  -1.505  1.00  0.00     0.344 HD
ENDBRANCH   1   2
BRANCH   1   6
ATOM      6  C   UNL     1     -19.272  67.410  -0.582  1.00  0.00     0.096 C 
ATOM      7  O   UNL     1     -19.649  66.689  -1.542  1.00  0.00    -0.544 OA
ATOM      8  O   UNL     1     -18.934  66.822   0.630  1.00  0.00    -0.544 OA
ENDBRANCH   1   6
TORSDOF 2
ENDMDL
MODEL 7
REMARK VINA RESULT:    -2.866     18.721     18.854
REMARK INTER + INTRA:          -3.118
REMARK INTER:                  -3.118
REMARK INTRA:                   0.000
REMARK UNBOUND:                 0.000
REMARK SMILES [NH3+]CC(=O)[O-]
REMARK SMILES IDX 2 1 1 2 3 6 4 7 5 8
REMARK H PARENT 1 3 1 4 1 5
REMARK Flexibility Score: inf
ROOT
ATOM      1  C   UNL     1     -22.277  67.975  -0.279  1.00  0.00     0.312 C 
ENDROOT
BRANCH   1   2
ATOM      2  N   UNL     1     -22.668  68.104   1.123  1.00  0.00    -0.353 N 
ATOM      3  H   UNL     1     -23.289  68.939   1.230  1.00  0.00     0.344 HD
ATOM      4  H   UNL     1     -21.820  68.232   1.722  1.00  0.00     0.344 HD
ATOM      5  H   UNL     1     -23.193  67.252   1.430  1.00  0.00     0.344 HD
ENDBRANCH   1   2
BRANCH   1   6
ATOM      6  C   UNL     1     -20.824  67.628  -0.393  1.00  0.00     0.096 C 
ATOM      7  O   UNL     1     -20.038  67.875   0.558  1.00  0.00    -0.544 OA
ATOM      8  O   UNL     1     -20.330  67.079  -1.570  1.00  0.00    -0.544 OA
ENDBRANCH   1   6
TORSDOF 2
ENDMDL
MODEL 8
REMARK VINA RESULT:    -2.847     19.473     19.634
REMARK INTER + INTRA:          -3.096
REMARK INTER:                  -3.096
REMARK INTRA:                   0.000
REMARK UNBOUND:                 0.000
REMARK SMILES [NH3+]CC(=O)[O-]
REMARK SMILES IDX 2 1 1 2 3 6 4 7 5 8
REMARK H PARENT 1 3 1 4 1 5
REMARK Flexibility Score: inf
ROOT
ATOM      1  C   UNL     1     -19.636  68.843  -0.737  1.00  0.00     0.312 C 
ENDROOT
BRANCH   1   2
ATOM      2  N   UNL     1     -18.228  68.841  -1.129  1.00  0.00    -0.353 N 
ATOM      3  H   UNL     1     -17.634  68.821  -0.269  1.00  0.00     0.344 HD
ATOM      4  H   UNL     1     -18.006  69.704  -1.676  1.00  0.00     0.344 HD
ATOM      5  H   UNL     1     -18.018  67.993  -1.706  1.00  0.00     0.344 HD
ENDBRANCH   1   2
BRANCH   1   6
ATOM      6  C   UNL     1     -19.882  67.849   0.356  1.00  0.00     0.096 C 
ATOM      7  O   UNL     1     -20.892  67.963   1.099  1.00  0.00    -0.544 OA
ATOM      8  O   UNL     1     -18.968  66.829   0.587  1.00  0.00    -0.544 OA
ENDBRANCH   1   6
TORSDOF 2
ENDMDL
MODEL 9
REMARK VINA RESULT:    -2.712     18.992     19.188
REMARK INTER + INTRA:          -2.950
REMARK INTER:                  -2.950
REMARK INTRA:                   0.000
REMARK UNBOUND:                 0.000
REMARK SMILES [NH3+]CC(=O)[O-]
REMARK SMILES IDX 2 1 1 2 3 6 4 7 5 8
REMARK H PARENT 1 3 1 4 1 5
REMARK Flexibility Score: inf
ROOT
ATOM      1  C   UNL     1     -20.849  68.990  -0.375  1.00  0.00     0.312 C 
ENDROOT
BRANCH   1   2
ATOM      2  N   UNL     1     -20.836  70.382   0.071  1.00  0.00    -0.353 N 
ATOM      3  H   UNL     1     -21.666  70.551   0.685  1.00  0.00     0.344 HD
ATOM      4  H   UNL     1     -20.887  71.023  -0.754  1.00  0.00     0.344 HD
ATOM      5  H   UNL     1     -19.965  70.576   0.617  1.00  0.00     0.344 HD
ENDBRANCH   1   2
BRANCH   1   6
ATOM      6  C   UNL     1     -22.051  68.274   0.161  1.00  0.00     0.096 C 
ATOM      7  O   UNL     1     -22.797  67.621  -0.615  1.00  0.00    -0.544 OA
ATOM      8  O   UNL     1     -22.376  68.371   1.508  1.00  0.00    -0.544 OA
ENDBRANCH   1   6
TORSDOF 2
ENDMDL
