MODEL 1
REMARK VINA RESULT:    -3.986      0.000      0.000
REMARK INTER + INTRA:          -4.493
REMARK INTER:                  -4.219
REMARK INTRA:                  -0.273
REMARK UNBOUND:                -0.273
REMARK SMILES C=C1CC[C@@H](C(C)C)[C@@H]2C=C(C)CC[C@H]12
REMARK SMILES IDX 12 1 11 2 10 3 9 4 15 5 14 6 13 7 2 8 1 9 3 10 4 11 5 12
REMARK SMILES IDX 6 13 7 14 8 15
REMARK H PARENT
REMARK Flexibility Score: inf
ROOT
ATOM      1  C   UNL     1      52.753  35.875  28.508  1.00  0.00     0.039 C 
ATOM      2  C   UNL     1      51.867  34.712  28.864  1.00  0.00    -0.077 C 
ATOM      3  C   UNL     1      51.225  34.056  27.874  1.00  0.00    -0.024 C 
ATOM      4  C   UNL     1      50.342  32.845  28.101  1.00  0.00     0.022 C 
ATOM      5  C   UNL     1      49.762  32.876  29.542  1.00  0.00     0.022 C 
ATOM      6  C   UNL     1      50.875  33.105  30.578  1.00  0.00     0.013 C 
ATOM      7  C   UNL     1      51.592  34.435  30.327  1.00  0.00     0.031 C 
ATOM      8  C   UNL     1      49.006  31.604  29.859  1.00  0.00    -0.074 C 
ATOM      9  C   UNL     1      47.875  31.645  30.581  1.00  0.00     0.008 C 
ATOM     10  C   UNL     1      49.631  30.282  29.500  1.00  0.00     0.031 C 
ATOM     11  C   UNL     1      50.126  30.307  28.054  1.00  0.00     0.009 C 
ATOM     12  C   UNL     1      51.079  31.497  27.780  1.00  0.00    -0.001 C 
ENDROOT
BRANCH  12  13
ATOM     13  C   UNL     1      51.670  31.362  26.330  1.00  0.00    -0.014 C 
ATOM     14  C   UNL     1      53.197  31.519  26.252  1.00  0.00     0.007 C 
ATOM     15  C   UNL     1      51.208  30.088  25.602  1.00  0.00     0.007 C 
ENDBRANCH  12  13
TORSDOF 1
ENDMDL
MODEL 2
REMARK VINA RESULT:    -3.715      3.802      6.805
REMARK INTER + INTRA:          -4.206
REMARK INTER:                  -3.929
REMARK INTRA:                  -0.277
REMARK UNBOUND:                -0.273
REMARK SMILES C=C1CC[C@@H](C(C)C)[C@@H]2C=C(C)CC[C@H]12
REMARK SMILES IDX 12 1 11 2 10 3 9 4 15 5 14 6 13 7 2 8 1 9 3 10 4 11 5 12
REMARK SMILES IDX 6 13 7 14 8 15
REMARK H PARENT
REMARK Flexibility Score: inf
ROOT
ATOM      1  C   UNL     1      50.348  27.268  26.675  1.00  0.00     0.039 C 
ATOM      2  C   UNL     1      51.820  27.576  26.729  1.00  0.00    -0.077 C 
ATOM      3  C   UNL     1      52.362  28.339  25.756  1.00  0.00    -0.024 C 
ATOM      4  C   UNL     1      53.819  28.754  25.724  1.00  0.00     0.022 C 
ATOM      5  C   UNL     1      54.681  27.716  26.493  1.00  0.00     0.022 C 
ATOM      6  C   UNL     1      54.090  27.431  27.884  1.00  0.00     0.013 C 
ATOM      7  C   UNL     1      52.668  26.875  27.770  1.00  0.00     0.031 C 
ATOM      8  C   UNL     1      56.118  28.177  26.620  1.00  0.00    -0.074 C 
ATOM      9  C   UNL     1      57.128  27.300  26.510  1.00  0.00     0.008 C 
ATOM     10  C   UNL     1      56.386  29.598  27.039  1.00  0.00     0.031 C 
ATOM     11  C   UNL     1      55.548  30.564  26.202  1.00  0.00     0.009 C 
ATOM     12  C   UNL     1      54.038  30.219  26.245  1.00  0.00    -0.001 C 
ENDROOT
BRANCH  12  13
ATOM     13  C   UNL     1      53.230  31.343  25.501  1.00  0.00    -0.014 C 
ATOM     14  C   UNL     1      52.847  32.539  26.388  1.00  0.00     0.007 C 
ATOM     15  C   UNL     1      53.901  31.813  24.200  1.00  0.00     0.007 C 
ENDBRANCH  12  13
TORSDOF 1
ENDMDL
MODEL 3
REMARK VINA RESULT:    -3.584      1.146      3.947
REMARK INTER + INTRA:          -4.067
REMARK INTER:                  -3.795
REMARK INTRA:                  -0.272
REMARK UNBOUND:                -0.273
REMARK SMILES C=C1CC[C@@H](C(C)C)[C@@H]2C=C(C)CC[C@H]12
REMARK SMILES IDX 12 1 11 2 10 3 9 4 15 5 14 6 13 7 2 8 1 9 3 10 4 11 5 12
REMARK SMILES IDX 6 13 7 14 8 15
REMARK H PARENT
REMARK Flexibility Score: inf
ROOT
ATOM      1  C   UNL     1      47.883  28.506  29.510  1.00  0.00     0.039 C 
ATOM      2  C   UNL     1      48.574  29.842  29.465  1.00  0.00    -0.077 C 
ATOM      3  C   UNL     1      49.825  29.913  28.963  1.00  0.00    -0.024 C 
ATOM      4  C   UNL     1      50.606  31.204  28.825  1.00  0.00     0.022 C 
ATOM      5  C   UNL     1      50.111  32.236  29.875  1.00  0.00     0.022 C 
ATOM      6  C   UNL     1      48.579  32.366  29.840  1.00  0.00     0.013 C 
ATOM      7  C   UNL     1      47.910  31.022  30.144  1.00  0.00     0.031 C 
ATOM      8  C   UNL     1      50.755  33.590  29.664  1.00  0.00    -0.074 C 
ATOM      9  C   UNL     1      51.122  34.342  30.714  1.00  0.00     0.008 C 
ATOM     10  C   UNL     1      50.820  34.150  28.267  1.00  0.00     0.031 C 
ATOM     11  C   UNL     1      51.369  33.100  27.302  1.00  0.00     0.009 C 
ATOM     12  C   UNL     1      50.570  31.773  27.362  1.00  0.00    -0.001 C 
ENDROOT
BRANCH  12  13
ATOM     13  C   UNL     1      51.086  30.808  26.234  1.00  0.00    -0.014 C 
ATOM     14  C   UNL     1      50.877  31.335  24.805  1.00  0.00     0.007 C 
ATOM     15  C   UNL     1      52.539  30.349  26.446  1.00  0.00     0.007 C 
ENDBRANCH  12  13
TORSDOF 1
ENDMDL
MODEL 4
REMARK VINA RESULT:    -3.540      1.410      2.232
REMARK INTER + INTRA:          -4.020
REMARK INTER:                  -3.745
REMARK INTRA:                  -0.275
REMARK UNBOUND:                -0.273
REMARK SMILES C=C1CC[C@@H](C(C)C)[C@@H]2C=C(C)CC[C@H]12
REMARK SMILES IDX 12 1 11 2 10 3 9 4 15 5 14 6 13 7 2 8 1 9 3 10 4 11 5 12
REMARK SMILES IDX 6 13 7 14 8 15
REMARK H PARENT
REMARK Flexibility Score: inf
ROOT
ATOM      1  C   UNL     1      51.169  34.379  30.641  1.00  0.00     0.039 C 
ATOM      2  C   UNL     1      50.723  33.099  29.988  1.00  0.00    -0.077 C 
ATOM      3  C   UNL     1      50.642  33.048  28.641  1.00  0.00    -0.024 C 
ATOM      4  C   UNL     1      50.249  31.806  27.867  1.00  0.00     0.022 C 
ATOM      5  C   UNL     1      49.360  30.890  28.753  1.00  0.00     0.022 C 
ATOM      6  C   UNL     1      50.010  30.653  30.126  1.00  0.00     0.013 C 
ATOM      7  C   UNL     1      50.216  31.977  30.869  1.00  0.00     0.031 C 
ATOM      8  C   UNL     1      49.081  29.567  28.072  1.00  0.00    -0.074 C 
ATOM      9  C   UNL     1      47.875  28.987  28.178  1.00  0.00     0.008 C 
ATOM     10  C   UNL     1      50.223  28.834  27.420  1.00  0.00     0.031 C 
ATOM     11  C   UNL     1      51.016  29.782  26.522  1.00  0.00     0.009 C 
ATOM     12  C   UNL     1      51.492  31.047  27.279  1.00  0.00    -0.001 C 
ENDROOT
BRANCH  12  13
ATOM     13  C   UNL     1      52.432  31.888  26.341  1.00  0.00    -0.014 C 
ATOM     14  C   UNL     1      53.881  31.381  26.278  1.00  0.00     0.007 C 
ATOM     15  C   UNL     1      51.856  32.092  24.929  1.00  0.00     0.007 C 
ENDBRANCH  12  13
TORSDOF 1
ENDMDL
MODEL 5
REMARK VINA RESULT:    -3.489      1.652      4.773
REMARK INTER + INTRA:          -3.966
REMARK INTER:                  -3.691
REMARK INTRA:                  -0.275
REMARK UNBOUND:                -0.273
REMARK SMILES C=C1CC[C@@H](C(C)C)[C@@H]2C=C(C)CC[C@H]12
REMARK SMILES IDX 12 1 11 2 10 3 9 4 15 5 14 6 13 7 2 8 1 9 3 10 4 11 5 12
REMARK SMILES IDX 6 13 7 14 8 15
REMARK H PARENT
REMARK Flexibility Score: inf
ROOT
ATOM      1  C   UNL     1      52.763  28.402  27.093  1.00  0.00     0.039 C 
ATOM      2  C   UNL     1      52.028  29.709  26.962  1.00  0.00    -0.077 C 
ATOM      3  C   UNL     1      50.914  29.906  27.698  1.00  0.00    -0.024 C 
ATOM      4  C   UNL     1      50.114  31.194  27.685  1.00  0.00     0.022 C 
ATOM      5  C   UNL     1      50.313  31.927  26.331  1.00  0.00     0.022 C 
ATOM      6  C   UNL     1      51.807  32.057  25.989  1.00  0.00     0.013 C 
ATOM      7  C   UNL     1      52.465  30.678  25.883  1.00  0.00     0.031 C 
ATOM      8  C   UNL     1      49.659  33.292  26.341  1.00  0.00    -0.074 C 
ATOM      9  C   UNL     1      49.033  33.757  25.248  1.00  0.00     0.008 C 
ATOM     10  C   UNL     1      49.869  34.185  27.535  1.00  0.00     0.031 C 
ATOM     11  C   UNL     1      49.599  33.413  28.827  1.00  0.00     0.009 C 
ATOM     12  C   UNL     1      50.436  32.112  28.917  1.00  0.00    -0.001 C 
ENDROOT
BRANCH  12  13
ATOM     13  C   UNL     1      50.230  31.463  30.333  1.00  0.00    -0.014 C 
ATOM     14  C   UNL     1      51.019  32.143  31.463  1.00  0.00     0.007 C 
ATOM     15  C   UNL     1      48.748  31.299  30.716  1.00  0.00     0.007 C 
ENDBRANCH  12  13
TORSDOF 1
ENDMDL
MODEL 6
REMARK VINA RESULT:    -3.357      3.072      5.302
REMARK INTER + INTRA:          -3.827
REMARK INTER:                  -3.533
REMARK INTRA:                  -0.294
REMARK UNBOUND:                -0.273
REMARK SMILES C=C1CC[C@@H](C(C)C)[C@@H]2C=C(C)CC[C@H]12
REMARK SMILES IDX 12 1 11 2 10 3 9 4 15 5 14 6 13 7 2 8 1 9 3 10 4 11 5 12
REMARK SMILES IDX 6 13 7 14 8 15
REMARK H PARENT
REMARK Flexibility Score: inf
ROOT
ATOM      1  C   UNL     1      53.307  33.336  26.520  1.00  0.00     0.039 C 
ATOM      2  C   UNL     1      53.074  31.850  26.504  1.00  0.00    -0.077 C 
ATOM      3  C   UNL     1      53.966  31.057  25.873  1.00  0.00    -0.024 C 
ATOM      4  C   UNL     1      53.864  29.545  25.826  1.00  0.00     0.022 C 
ATOM      5  C   UNL     1      52.381  29.110  25.977  1.00  0.00     0.022 C 
ATOM      6  C   UNL     1      51.727  29.795  27.190  1.00  0.00     0.013 C 
ATOM      7  C   UNL     1      51.762  31.319  27.042  1.00  0.00     0.031 C 
ATOM      8  C   UNL     1      52.256  27.606  26.096  1.00  0.00    -0.074 C 
ATOM      9  C   UNL     1      51.242  26.957  25.503  1.00  0.00     0.008 C 
ATOM     10  C   UNL     1      53.186  26.875  27.027  1.00  0.00     0.031 C 
ATOM     11  C   UNL     1      54.631  27.311  26.782  1.00  0.00     0.009 C 
ATOM     12  C   UNL     1      54.803  28.848  26.873  1.00  0.00    -0.001 C 
ENDROOT
BRANCH  12  13
ATOM     13  C   UNL     1      56.331  29.203  26.773  1.00  0.00    -0.014 C 
ATOM     14  C   UNL     1      56.870  30.019  27.960  1.00  0.00     0.007 C 
ATOM     15  C   UNL     1      57.221  27.980  26.493  1.00  0.00     0.007 C 
ENDBRANCH  12  13
TORSDOF 1
ENDMDL
MODEL 7
REMARK VINA RESULT:    -3.339      1.942      3.481
REMARK INTER + INTRA:          -3.808
REMARK INTER:                  -3.539
REMARK INTRA:                  -0.270
REMARK UNBOUND:                -0.273
REMARK SMILES C=C1CC[C@@H](C(C)C)[C@@H]2C=C(C)CC[C@H]12
REMARK SMILES IDX 12 1 11 2 10 3 9 4 15 5 14 6 13 7 2 8 1 9 3 10 4 11 5 12
REMARK SMILES IDX 6 13 7 14 8 15
REMARK H PARENT
REMARK Flexibility Score: inf
ROOT
ATOM      1  C   UNL     1      50.508  32.103  31.395  1.00  0.00     0.039 C 
ATOM      2  C   UNL     1      50.003  32.609  30.070  1.00  0.00    -0.077 C 
ATOM      3  C   UNL     1      50.896  32.895  29.099  1.00  0.00    -0.024 C 
ATOM      4  C   UNL     1      50.509  33.368  27.712  1.00  0.00     0.022 C 
ATOM      5  C   UNL     1      49.133  34.086  27.763  1.00  0.00     0.022 C 
ATOM      6  C   UNL     1      48.091  33.226  28.499  1.00  0.00     0.013 C 
ATOM      7  C   UNL     1      48.532  32.945  29.938  1.00  0.00     0.031 C 
ATOM      8  C   UNL     1      48.638  34.431  26.375  1.00  0.00    -0.074 C 
ATOM      9  C   UNL     1      48.002  35.590  26.146  1.00  0.00     0.008 C 
ATOM     10  C   UNL     1      48.722  33.383  25.296  1.00  0.00     0.031 C 
ATOM     11  C   UNL     1      50.119  32.763  25.268  1.00  0.00     0.009 C 
ATOM     12  C   UNL     1      50.544  32.211  26.652  1.00  0.00    -0.001 C 
ENDROOT
BRANCH  12  13
ATOM     13  C   UNL     1      51.911  31.450  26.507  1.00  0.00    -0.014 C 
ATOM     14  C   UNL     1      51.862  30.234  25.567  1.00  0.00     0.007 C 
ATOM     15  C   UNL     1      53.086  32.376  26.151  1.00  0.00     0.007 C 
ENDBRANCH  12  13
TORSDOF 1
ENDMDL
MODEL 8
REMARK VINA RESULT:    -3.301      1.622      5.221
REMARK INTER + INTRA:          -3.768
REMARK INTER:                  -3.484
REMARK INTRA:                  -0.283
REMARK UNBOUND:                -0.273
REMARK SMILES C=C1CC[C@@H](C(C)C)[C@@H]2C=C(C)CC[C@H]12
REMARK SMILES IDX 12 1 11 2 10 3 9 4 15 5 14 6 13 7 2 8 1 9 3 10 4 11 5 12
REMARK SMILES IDX 6 13 7 14 8 15
REMARK H PARENT
REMARK Flexibility Score: inf
ROOT
ATOM      1  C   UNL     1      47.887  28.320  29.430  1.00  0.00     0.039 C 
ATOM      2  C   UNL     1      48.617  29.325  28.580  1.00  0.00    -0.077 C 
ATOM      3  C   UNL     1      48.532  30.634  28.901  1.00  0.00    -0.024 C 
ATOM      4  C   UNL     1      49.257  31.733  28.151  1.00  0.00     0.022 C 
ATOM      5  C   UNL     1      49.520  31.289  26.686  1.00  0.00     0.022 C 
ATOM      6  C   UNL     1      50.174  29.897  26.642  1.00  0.00     0.013 C 
ATOM      7  C   UNL     1      49.272  28.849  27.300  1.00  0.00     0.031 C 
ATOM      8  C   UNL     1      50.381  32.294  25.951  1.00  0.00    -0.074 C 
ATOM      9  C   UNL     1      50.143  32.583  24.662  1.00  0.00     0.008 C 
ATOM     10  C   UNL     1      51.608  32.833  26.637  1.00  0.00     0.031 C 
ATOM     11  C   UNL     1      51.261  33.304  28.049  1.00  0.00     0.009 C 
ATOM     12  C   UNL     1      50.566  32.197  28.882  1.00  0.00    -0.001 C 
ENDROOT
BRANCH  12  13
ATOM     13  C   UNL     1      50.390  32.697  30.361  1.00  0.00    -0.014 C 
ATOM     14  C   UNL     1      50.919  31.723  31.426  1.00  0.00     0.007 C 
ATOM     15  C   UNL     1      50.937  34.116  30.591  1.00  0.00     0.007 C 
ENDBRANCH  12  13
TORSDOF 1
ENDMDL
MODEL 9
REMARK VINA RESULT:    -3.249      1.520      3.130
REMARK INTER + INTRA:          -3.713
REMARK INTER:                  -3.417
REMARK INTRA:                  -0.296
REMARK UNBOUND:                -0.273
REMARK SMILES C=C1CC[C@@H](C(C)C)[C@@H]2C=C(C)CC[C@H]12
REMARK SMILES IDX 12 1 11 2 10 3 9 4 15 5 14 6 13 7 2 8 1 9 3 10 4 11 5 12
REMARK SMILES IDX 6 13 7 14 8 15
REMARK H PARENT
REMARK Flexibility Score: inf
ROOT
ATOM      1  C   UNL     1      52.120  32.119  25.322  1.00  0.00     0.039 C 
ATOM      2  C   UNL     1      51.268  32.308  26.547  1.00  0.00    -0.077 C 
ATOM      3  C   UNL     1      50.163  31.547  26.697  1.00  0.00    -0.024 C 
ATOM      4  C   UNL     1      49.252  31.614  27.906  1.00  0.00     0.022 C 
ATOM      5  C   UNL     1      49.344  33.019  28.561  1.00  0.00     0.022 C 
ATOM      6  C   UNL     1      50.810  33.421  28.796  1.00  0.00     0.013 C 
ATOM      7  C   UNL     1      51.585  33.462  27.476  1.00  0.00     0.031 C 
ATOM      8  C   UNL     1      48.572  33.073  29.862  1.00  0.00    -0.074 C 
ATOM      9  C   UNL     1      47.875  34.170  30.196  1.00  0.00     0.008 C 
ATOM     10  C   UNL     1      48.737  31.947  30.848  1.00  0.00     0.031 C 
ATOM     11  C   UNL     1      48.576  30.600  30.144  1.00  0.00     0.009 C 
ATOM     12  C   UNL     1      49.528  30.456  28.930  1.00  0.00    -0.001 C 
ENDROOT
BRANCH  12  13
ATOM     13  C   UNL     1      49.423  28.994  28.361  1.00  0.00    -0.014 C 
ATOM     14  C   UNL     1      50.754  28.226  28.340  1.00  0.00     0.007 C 
ATOM     15  C   UNL     1      48.315  28.162  29.030  1.00  0.00     0.007 C 
ENDBRANCH  12  13
TORSDOF 1
ENDMDL
