MODEL 1
REMARK VINA RESULT:    -3.818      0.000      0.000
REMARK INTER + INTRA:          -7.323
REMARK INTER:                  -6.051
REMARK INTRA:                  -1.273
REMARK UNBOUND:                -1.273
REMARK SMILES CCCCCCCCCCCC(=O)[O-]
REMARK SMILES IDX 7 1 8 2 9 3 10 4 11 5 12 6 13 7 14 8 6 9 5 10 4 11 3 12 2 13
REMARK SMILES IDX 1 14
REMARK H PARENT
REMARK Flexibility Score: inf
ROOT
ATOM      1  C   UNL     1      -0.599   8.106  -8.322  1.00  0.00     0.000 C 
ENDROOT
BRANCH   1   2
ATOM      2  C   UNL     1      -0.912   6.852  -9.152  1.00  0.00     0.000 C 
BRANCH   2   3
ATOM      3  C   UNL     1      -2.201   6.993  -9.977  1.00  0.00     0.000 C 
BRANCH   3   4
ATOM      4  C   UNL     1      -2.615   8.464 -10.099  1.00  0.00     0.006 C 
BRANCH   4   5
ATOM      5  C   UNL     1      -3.868   8.612 -10.969  1.00  0.00     0.053 C 
BRANCH   5   6
ATOM      6  C   UNL     1      -4.588   9.881 -10.639  1.00  0.00     0.041 C 
ATOM      7  O   UNL     1      -5.844   9.888 -10.541  1.00  0.00    -0.550 OA
ATOM      8  O   UNL     1      -3.871  11.043 -10.390  1.00  0.00    -0.550 OA
ENDBRANCH   5   6
ENDBRANCH   4   5
ENDBRANCH   3   4
ENDBRANCH   2   3
ENDBRANCH   1   2
BRANCH   1   9
ATOM      9  C   UNL     1       0.787   8.048  -7.661  1.00  0.00     0.000 C 
BRANCH   9  10
ATOM     10  C   UNL     1       1.815   7.402  -8.599  1.00  0.00    -0.000 C 
BRANCH  10  11
ATOM     11  C   UNL     1       2.335   8.415  -9.626  1.00  0.00    -0.000 C 
BRANCH  11  12
ATOM     12  C   UNL     1       2.228   7.858 -11.051  1.00  0.00    -0.000 C 
BRANCH  12  13
ATOM     13  C   UNL     1       1.081   8.526 -11.818  1.00  0.00    -0.003 C 
ATOM     14  C   UNL     1       0.745   9.893 -11.228  1.00  0.00     0.004 C 
ENDBRANCH  12  13
ENDBRANCH  11  12
ENDBRANCH  10  11
ENDBRANCH   9  10
ENDBRANCH   1   9
TORSDOF 10
ENDMDL
MODEL 2
REMARK VINA RESULT:    -3.443     15.738     17.488
REMARK INTER + INTRA:          -6.728
REMARK INTER:                  -6.025
REMARK INTRA:                  -0.703
REMARK UNBOUND:                -1.273
REMARK SMILES CCCCCCCCCCCC(=O)[O-]
REMARK SMILES IDX 7 1 8 2 9 3 10 4 11 5 12 6 13 7 14 8 6 9 5 10 4 11 3 12 2 13
REMARK SMILES IDX 1 14
REMARK H PARENT
REMARK Flexibility Score: inf
ROOT
ATOM      1  C   UNL     1       2.025  13.414   4.700  1.00  0.00     0.000 C 
ENDROOT
BRANCH   1   2
ATOM      2  C   UNL     1       2.963  13.356   5.915  1.00  0.00     0.000 C 
BRANCH   2   3
ATOM      3  C   UNL     1       2.742  12.102   6.776  1.00  0.00     0.000 C 
BRANCH   3   4
ATOM      4  C   UNL     1       4.047  11.663   7.450  1.00  0.00     0.006 C 
BRANCH   4   5
ATOM      5  C   UNL     1       5.256  11.966   6.557  1.00  0.00     0.053 C 
BRANCH   5   6
ATOM      6  C   UNL     1       5.859  10.697   6.044  1.00  0.00     0.041 C 
ATOM      7  O   UNL     1       7.021  10.700   5.558  1.00  0.00    -0.550 OA
ATOM      8  O   UNL     1       5.159   9.503   6.147  1.00  0.00    -0.550 OA
ENDBRANCH   5   6
ENDBRANCH   4   5
ENDBRANCH   3   4
ENDBRANCH   2   3
ENDBRANCH   1   2
BRANCH   1   9
ATOM      9  C   UNL     1       0.595  13.831   5.076  1.00  0.00     0.000 C 
BRANCH   9  10
ATOM     10  C   UNL     1      -0.438  13.050   4.254  1.00  0.00    -0.000 C 
BRANCH  10  11
ATOM     11  C   UNL     1      -0.294  11.540   4.478  1.00  0.00    -0.000 C 
BRANCH  11  12
ATOM     12  C   UNL     1      -1.160  11.072   5.653  1.00  0.00    -0.000 C 
BRANCH  12  13
ATOM     13  C   UNL     1      -2.168  10.007   5.204  1.00  0.00    -0.003 C 
ATOM     14  C   UNL     1      -3.538  10.246   5.833  1.00  0.00     0.004 C 
ENDBRANCH  12  13
ENDBRANCH  11  12
ENDBRANCH  10  11
ENDBRANCH   9  10
ENDBRANCH   1   9
TORSDOF 10
ENDMDL
MODEL 3
REMARK VINA RESULT:    -3.390      3.141      5.381
REMARK INTER + INTRA:          -6.644
REMARK INTER:                  -5.829
REMARK INTRA:                  -0.815
REMARK UNBOUND:                -1.273
REMARK SMILES CCCCCCCCCCCC(=O)[O-]
REMARK SMILES IDX 7 1 8 2 9 3 10 4 11 5 12 6 13 7 14 8 6 9 5 10 4 11 3 12 2 13
REMARK SMILES IDX 1 14
REMARK H PARENT
REMARK Flexibility Score: inf
ROOT
ATOM      1  C   UNL     1      -0.680   7.950  -8.379  1.00  0.00     0.000 C 
ENDROOT
BRANCH   1   2
ATOM      2  C   UNL     1       0.709   8.262  -7.800  1.00  0.00     0.000 C 
BRANCH   2   3
ATOM      3  C   UNL     1       1.837   7.525  -8.538  1.00  0.00     0.000 C 
BRANCH   3   4
ATOM      4  C   UNL     1       2.351   8.353  -9.721  1.00  0.00     0.006 C 
BRANCH   4   5
ATOM      5  C   UNL     1       2.116   9.849  -9.487  1.00  0.00     0.053 C 
BRANCH   5   6
ATOM      6  C   UNL     1       2.834  10.660 -10.519  1.00  0.00     0.041 C 
ATOM      7  O   UNL     1       3.597  11.599 -10.168  1.00  0.00    -0.550 OA
ATOM      8  O   UNL     1       2.702  10.347 -11.865  1.00  0.00    -0.550 OA
ENDBRANCH   5   6
ENDBRANCH   4   5
ENDBRANCH   3   4
ENDBRANCH   2   3
ENDBRANCH   1   2
BRANCH   1   9
ATOM      9  C   UNL     1      -0.715   6.624  -9.153  1.00  0.00     0.000 C 
BRANCH   9  10
ATOM     10  C   UNL     1      -0.997   6.865 -10.642  1.00  0.00    -0.000 C 
BRANCH  10  11
ATOM     11  C   UNL     1      -1.938   8.060 -10.837  1.00  0.00    -0.000 C 
BRANCH  11  12
ATOM     12  C   UNL     1      -3.306   7.604 -11.360  1.00  0.00    -0.000 C 
BRANCH  12  13
ATOM     13  C   UNL     1      -4.356   8.708 -11.187  1.00  0.00    -0.003 C 
ATOM     14  C   UNL     1      -3.892   9.758 -10.181  1.00  0.00     0.004 C 
ENDBRANCH  12  13
ENDBRANCH  11  12
ENDBRANCH  10  11
ENDBRANCH   9  10
ENDBRANCH   1   9
TORSDOF 10
ENDMDL
MODEL 4
REMARK VINA RESULT:    -3.351      0.974      2.595
REMARK INTER + INTRA:          -6.584
REMARK INTER:                  -5.396
REMARK INTRA:                  -1.187
REMARK UNBOUND:                -1.273
REMARK SMILES CCCCCCCCCCCC(=O)[O-]
REMARK SMILES IDX 7 1 8 2 9 3 10 4 11 5 12 6 13 7 14 8 6 9 5 10 4 11 3 12 2 13
REMARK SMILES IDX 1 14
REMARK H PARENT
REMARK Flexibility Score: inf
ROOT
ATOM      1  C   UNL     1      -0.618   6.860 -11.445  1.00  0.00     0.000 C 
ENDROOT
BRANCH   1   2
ATOM      2  C   UNL     1      -1.382   6.841 -10.112  1.00  0.00     0.000 C 
BRANCH   2   3
ATOM      3  C   UNL     1      -2.739   7.556 -10.195  1.00  0.00     0.000 C 
BRANCH   3   4
ATOM      4  C   UNL     1      -2.598   8.923 -10.875  1.00  0.00     0.006 C 
BRANCH   4   5
ATOM      5  C   UNL     1      -3.903   9.329 -11.568  1.00  0.00     0.053 C 
BRANCH   5   6
ATOM      6  C   UNL     1      -4.724  10.199 -10.670  1.00  0.00     0.041 C 
ATOM      7  O   UNL     1      -4.189  11.160 -10.057  1.00  0.00    -0.550 OA
ATOM      8  O   UNL     1      -6.090   9.980 -10.550  1.00  0.00    -0.550 OA
ENDBRANCH   5   6
ENDBRANCH   4   5
ENDBRANCH   3   4
ENDBRANCH   2   3
ENDBRANCH   1   2
BRANCH   1   9
ATOM      9  C   UNL     1       0.848   7.287 -11.281  1.00  0.00     0.000 C 
BRANCH   9  10
ATOM     10  C   UNL     1       1.037   8.760 -11.666  1.00  0.00    -0.000 C 
BRANCH  10  11
ATOM     11  C   UNL     1       0.905   9.671 -10.440  1.00  0.00    -0.000 C 
BRANCH  11  12
ATOM     12  C   UNL     1       1.811   9.195  -9.298  1.00  0.00    -0.000 C 
BRANCH  12  13
ATOM     13  C   UNL     1       0.987   8.813  -8.064  1.00  0.00    -0.003 C 
ATOM     14  C   UNL     1       1.301   7.390  -7.610  1.00  0.00     0.004 C 
ENDBRANCH  12  13
ENDBRANCH  11  12
ENDBRANCH  10  11
ENDBRANCH   9  10
ENDBRANCH   1   9
TORSDOF 10
ENDMDL
MODEL 5
REMARK VINA RESULT:    -3.347      3.521      5.328
REMARK INTER + INTRA:          -6.577
REMARK INTER:                  -5.293
REMARK INTRA:                  -1.284
REMARK UNBOUND:                -1.273
REMARK SMILES CCCCCCCCCCCC(=O)[O-]
REMARK SMILES IDX 7 1 8 2 9 3 10 4 11 5 12 6 13 7 14 8 6 9 5 10 4 11 3 12 2 13
REMARK SMILES IDX 1 14
REMARK H PARENT
REMARK Flexibility Score: inf
ROOT
ATOM      1  C   UNL     1       1.856   7.775  -9.605  1.00  0.00     0.000 C 
ENDROOT
BRANCH   1   2
ATOM      2  C   UNL     1       1.695   7.652 -11.128  1.00  0.00     0.000 C 
BRANCH   2   3
ATOM      3  C   UNL     1       1.068   8.904 -11.761  1.00  0.00     0.000 C 
BRANCH   3   4
ATOM      4  C   UNL     1       1.073  10.078 -10.774  1.00  0.00     0.006 C 
BRANCH   4   5
ATOM      5  C   UNL     1       1.970  11.214 -11.276  1.00  0.00     0.053 C 
BRANCH   5   6
ATOM      6  C   UNL     1       3.327  11.125 -10.655  1.00  0.00     0.041 C 
ATOM      7  O   UNL     1       4.196  10.352 -11.140  1.00  0.00    -0.550 OA
ATOM      8  O   UNL     1       3.651  11.930  -9.572  1.00  0.00    -0.550 OA
ENDBRANCH   5   6
ENDBRANCH   4   5
ENDBRANCH   3   4
ENDBRANCH   2   3
ENDBRANCH   1   2
BRANCH   1   9
ATOM      9  C   UNL     1       0.737   7.062  -8.831  1.00  0.00     0.000 C 
BRANCH   9  10
ATOM     10  C   UNL     1      -0.103   8.065  -8.031  1.00  0.00    -0.000 C 
BRANCH  10  11
ATOM     11  C   UNL     1      -1.576   8.012  -8.454  1.00  0.00    -0.000 C 
BRANCH  11  12
ATOM     12  C   UNL     1      -1.792   6.984  -9.572  1.00  0.00    -0.000 C 
BRANCH  12  13
ATOM     13  C   UNL     1      -2.275   7.664 -10.858  1.00  0.00    -0.003 C 
ATOM     14  C   UNL     1      -2.857   6.646 -11.835  1.00  0.00     0.004 C 
ENDBRANCH  12  13
ENDBRANCH  11  12
ENDBRANCH  10  11
ENDBRANCH   9  10
ENDBRANCH   1   9
TORSDOF 10
ENDMDL
MODEL 6
REMARK VINA RESULT:    -3.343      2.217      3.735
REMARK INTER + INTRA:          -6.571
REMARK INTER:                  -5.199
REMARK INTRA:                  -1.372
REMARK UNBOUND:                -1.273
REMARK SMILES CCCCCCCCCCCC(=O)[O-]
REMARK SMILES IDX 7 1 8 2 9 3 10 4 11 5 12 6 13 7 14 8 6 9 5 10 4 11 3 12 2 13
REMARK SMILES IDX 1 14
REMARK H PARENT
REMARK Flexibility Score: inf
ROOT
ATOM      1  C   UNL     1       1.817   7.721 -10.625  1.00  0.00     0.000 C 
ENDROOT
BRANCH   1   2
ATOM      2  C   UNL     1       2.221   8.007  -9.171  1.00  0.00     0.000 C 
BRANCH   2   3
ATOM      3  C   UNL     1       1.027   7.969  -8.205  1.00  0.00     0.000 C 
BRANCH   3   4
ATOM      4  C   UNL     1      -0.109   7.111  -8.772  1.00  0.00     0.006 C 
BRANCH   4   5
ATOM      5  C   UNL     1      -1.442   7.866  -8.731  1.00  0.00     0.053 C 
BRANCH   5   6
ATOM      6  C   UNL     1      -2.251   7.567  -9.952  1.00  0.00     0.041 C 
ATOM      7  O   UNL     1      -3.051   8.427 -10.409  1.00  0.00    -0.550 OA
ATOM      8  O   UNL     1      -2.088   6.359 -10.616  1.00  0.00    -0.550 OA
ENDBRANCH   5   6
ENDBRANCH   4   5
ENDBRANCH   3   4
ENDBRANCH   2   3
ENDBRANCH   1   2
BRANCH   1   9
ATOM      9  C   UNL     1       1.933   8.959 -11.527  1.00  0.00     0.000 C 
BRANCH   9  10
ATOM     10  C   UNL     1       0.676   9.831 -11.427  1.00  0.00    -0.000 C 
BRANCH  10  11
ATOM     11  C   UNL     1       1.007  11.209 -10.841  1.00  0.00    -0.000 C 
BRANCH  11  12
ATOM     12  C   UNL     1       2.468  11.587 -11.111  1.00  0.00    -0.000 C 
BRANCH  12  13
ATOM     13  C   UNL     1       3.165  12.045  -9.824  1.00  0.00    -0.003 C 
ATOM     14  C   UNL     1       2.356  11.654  -8.590  1.00  0.00     0.004 C 
ENDBRANCH  12  13
ENDBRANCH  11  12
ENDBRANCH  10  11
ENDBRANCH   9  10
ENDBRANCH   1   9
TORSDOF 10
ENDMDL
MODEL 7
REMARK VINA RESULT:    -3.336      3.146      5.306
REMARK INTER + INTRA:          -6.558
REMARK INTER:                  -5.385
REMARK INTRA:                  -1.173
REMARK UNBOUND:                -1.273
REMARK SMILES CCCCCCCCCCCC(=O)[O-]
REMARK SMILES IDX 7 1 8 2 9 3 10 4 11 5 12 6 13 7 14 8 6 9 5 10 4 11 3 12 2 13
REMARK SMILES IDX 1 14
REMARK H PARENT
REMARK Flexibility Score: inf
ROOT
ATOM      1  C   UNL     1      -2.747   9.512 -10.637  1.00  0.00     0.000 C 
ENDROOT
BRANCH   1   2
ATOM      2  C   UNL     1      -2.157  10.389 -11.753  1.00  0.00     0.000 C 
BRANCH   2   3
ATOM      3  C   UNL     1      -0.797  10.995 -11.375  1.00  0.00     0.000 C 
BRANCH   3   4
ATOM      4  C   UNL     1       0.295   9.920 -11.356  1.00  0.00     0.006 C 
BRANCH   4   5
ATOM      5  C   UNL     1       1.690  10.553 -11.381  1.00  0.00     0.053 C 
BRANCH   5   6
ATOM      6  C   UNL     1       2.511  10.059 -10.232  1.00  0.00     0.041 C 
ATOM      7  O   UNL     1       3.138   8.971 -10.324  1.00  0.00    -0.550 OA
ATOM      8  O   UNL     1       2.624  10.824  -9.079  1.00  0.00    -0.550 OA
ENDBRANCH   5   6
ENDBRANCH   4   5
ENDBRANCH   3   4
ENDBRANCH   2   3
ENDBRANCH   1   2
BRANCH   1   9
ATOM      9  C   UNL     1      -3.369   8.214 -11.172  1.00  0.00     0.000 C 
BRANCH   9  10
ATOM     10  C   UNL     1      -2.479   7.006 -10.853  1.00  0.00    -0.000 C 
BRANCH  10  11
ATOM     11  C   UNL     1      -2.012   7.036  -9.393  1.00  0.00    -0.000 C 
BRANCH  11  12
ATOM     12  C   UNL     1      -0.484   6.942  -9.301  1.00  0.00    -0.000 C 
BRANCH  12  13
ATOM     13  C   UNL     1       0.068   7.942  -8.279  1.00  0.00    -0.003 C 
ATOM     14  C   UNL     1       1.381   7.448  -7.678  1.00  0.00     0.004 C 
ENDBRANCH  12  13
ENDBRANCH  11  12
ENDBRANCH  10  11
ENDBRANCH   9  10
ENDBRANCH   1   9
TORSDOF 10
ENDMDL
MODEL 8
REMARK VINA RESULT:    -3.320      3.790      5.989
REMARK INTER + INTRA:          -6.533
REMARK INTER:                  -5.692
REMARK INTRA:                  -0.841
REMARK UNBOUND:                -1.273
REMARK SMILES CCCCCCCCCCCC(=O)[O-]
REMARK SMILES IDX 7 1 8 2 9 3 10 4 11 5 12 6 13 7 14 8 6 9 5 10 4 11 3 12 2 13
REMARK SMILES IDX 1 14
REMARK H PARENT
REMARK Flexibility Score: inf
ROOT
ATOM      1  C   UNL     1       1.320   7.452  -8.007  1.00  0.00     0.000 C 
ENDROOT
BRANCH   1   2
ATOM      2  C   UNL     1       2.237   7.818  -9.185  1.00  0.00     0.000 C 
BRANCH   2   3
ATOM      3  C   UNL     1       2.085   9.283  -9.621  1.00  0.00     0.000 C 
BRANCH   3   4
ATOM      4  C   UNL     1       2.192   9.415 -11.144  1.00  0.00     0.006 C 
BRANCH   4   5
ATOM      5  C   UNL     1       3.201   8.413 -11.713  1.00  0.00     0.053 C 
BRANCH   5   6
ATOM      6  C   UNL     1       4.568   9.019 -11.767  1.00  0.00     0.041 C 
ATOM      7  O   UNL     1       4.739  10.225 -11.445  1.00  0.00    -0.550 OA
ATOM      8  O   UNL     1       5.660   8.241 -12.124  1.00  0.00    -0.550 OA
ENDBRANCH   5   6
ENDBRANCH   4   5
ENDBRANCH   3   4
ENDBRANCH   2   3
ENDBRANCH   1   2
BRANCH   1   9
ATOM      9  C   UNL     1      -0.158   7.761  -8.290  1.00  0.00     0.000 C 
BRANCH   9  10
ATOM     10  C   UNL     1      -0.765   6.719  -9.239  1.00  0.00    -0.000 C 
BRANCH  10  11
ATOM     11  C   UNL     1      -1.313   7.384 -10.507  1.00  0.00    -0.000 C 
BRANCH  11  12
ATOM     12  C   UNL     1      -2.144   8.626 -10.164  1.00  0.00    -0.000 C 
BRANCH  12  13
ATOM     13  C   UNL     1      -3.525   8.564 -10.825  1.00  0.00    -0.003 C 
ATOM     14  C   UNL     1      -3.758   9.772 -11.729  1.00  0.00     0.004 C 
ENDBRANCH  12  13
ENDBRANCH  11  12
ENDBRANCH  10  11
ENDBRANCH   9  10
ENDBRANCH   1   9
TORSDOF 10
ENDMDL
MODEL 9
REMARK VINA RESULT:    -3.293      1.711      2.285
REMARK INTER + INTRA:          -6.491
REMARK INTER:                  -5.464
REMARK INTRA:                  -1.027
REMARK UNBOUND:                -1.273
REMARK SMILES CCCCCCCCCCCC(=O)[O-]
REMARK SMILES IDX 7 1 8 2 9 3 10 4 11 5 12 6 13 7 14 8 6 9 5 10 4 11 3 12 2 13
REMARK SMILES IDX 1 14
REMARK H PARENT
REMARK Flexibility Score: inf
ROOT
ATOM      1  C   UNL     1       0.858   7.093  -8.585  1.00  0.00     0.000 C 
ENDROOT
BRANCH   1   2
ATOM      2  C   UNL     1      -0.277   8.081  -8.275  1.00  0.00     0.000 C 
BRANCH   2   3
ATOM      3  C   UNL     1      -1.582   7.734  -9.008  1.00  0.00     0.000 C 
BRANCH   3   4
ATOM      4  C   UNL     1      -1.699   8.520 -10.319  1.00  0.00     0.006 C 
BRANCH   4   5
ATOM      5  C   UNL     1      -2.988   9.349 -10.350  1.00  0.00     0.053 C 
BRANCH   5   6
ATOM      6  C   UNL     1      -4.088   8.581 -11.011  1.00  0.00     0.041 C 
ATOM      7  O   UNL     1      -5.284   8.959 -10.893  1.00  0.00    -0.550 OA
ATOM      8  O   UNL     1      -3.790   7.477 -11.799  1.00  0.00    -0.550 OA
ENDBRANCH   5   6
ENDBRANCH   4   5
ENDBRANCH   3   4
ENDBRANCH   2   3
ENDBRANCH   1   2
BRANCH   1   9
ATOM      9  C   UNL     1       2.065   7.770  -9.252  1.00  0.00     0.000 C 
BRANCH   9  10
ATOM     10  C   UNL     1       1.906   7.796 -10.778  1.00  0.00    -0.000 C 
BRANCH  10  11
ATOM     11  C   UNL     1       1.809   9.235 -11.298  1.00  0.00    -0.000 C 
BRANCH  11  12
ATOM     12  C   UNL     1       2.698  10.178 -10.479  1.00  0.00    -0.000 C 
BRANCH  12  13
ATOM     13  C   UNL     1       1.886  11.350  -9.916  1.00  0.00    -0.003 C 
ATOM     14  C   UNL     1       2.427  11.795  -8.560  1.00  0.00     0.004 C 
ENDBRANCH  12  13
ENDBRANCH  11  12
ENDBRANCH  10  11
ENDBRANCH   9  10
ENDBRANCH   1   9
TORSDOF 10
ENDMDL
