MODEL 1
REMARK VINA RESULT:    -4.767      0.000      0.000
REMARK INTER + INTRA:          -6.772
REMARK INTER:                  -6.161
REMARK INTRA:                  -0.611
REMARK UNBOUND:                -0.611
REMARK SMILES CO[C@@]1(CO)O[C@@H](CO)[C@H](O)[C@H]1O
REMARK SMILES IDX 3 1 12 2 10 3 7 4 6 5 2 6 1 7 4 8 5 9 13 11 11 13 8 15 9 16
REMARK H PARENT 5 10 13 12 11 14 9 17
REMARK Flexibility Score: inf
ROOT
ATOM      1  C   UNL     1     149.017 153.991 127.962  1.00  0.00     0.221 C 
ATOM      2  C   UNL     1     149.617 155.335 128.417  1.00  0.00     0.207 C 
ATOM      3  C   UNL     1     148.659 155.765 129.501  1.00  0.00     0.180 C 
ATOM      4  C   UNL     1     147.337 155.182 129.001  1.00  0.00     0.179 C 
ATOM      5  O   UNL     1     147.611 154.070 128.171  1.00  0.00    -0.337 OA
ENDROOT
BRANCH   1   6
ATOM      6  O   UNL     1     149.596 152.939 128.735  1.00  0.00    -0.349 OA
ATOM      7  C   UNL     1     148.764 151.801 128.834  1.00  0.00     0.198 C 
ENDBRANCH   1   6
BRANCH   1   8
ATOM      8  C   UNL     1     149.296 153.762 126.459  1.00  0.00     0.224 C 
BRANCH   8   9
ATOM      9  O   UNL     1     150.676 153.705 126.210  1.00  0.00    -0.391 OA
ATOM     10  H   UNL     1     150.919 152.745 126.156  1.00  0.00     0.210 HD
ENDBRANCH   8   9
ENDBRANCH   1   8
BRANCH   2  11
ATOM     11  O   UNL     1     150.952 155.238 128.858  1.00  0.00    -0.385 OA
ATOM     12  H   UNL     1     151.420 156.089 128.658  1.00  0.00     0.211 HD
ENDBRANCH   2  11
BRANCH   3  13
ATOM     13  O   UNL     1     148.614 157.163 129.666  1.00  0.00    -0.387 OA
ATOM     14  H   UNL     1     149.447 157.452 130.122  1.00  0.00     0.211 HD
ENDBRANCH   3  13
BRANCH   4  15
ATOM     15  C   UNL     1     146.423 154.760 130.159  1.00  0.00     0.191 C 
BRANCH  15  16
ATOM     16  O   UNL     1     146.645 155.573 131.278  1.00  0.00    -0.394 OA
ATOM     17  H   UNL     1     147.502 156.050 131.119  1.00  0.00     0.210 HD
ENDBRANCH  15  16
ENDBRANCH   4  15
TORSDOF 7
ENDMDL
MODEL 2
REMARK VINA RESULT:    -4.717      1.701      3.018
REMARK INTER + INTRA:          -6.708
REMARK INTER:                  -6.092
REMARK INTRA:                  -0.616
REMARK UNBOUND:                -0.611
REMARK SMILES CO[C@@]1(CO)O[C@@H](CO)[C@H](O)[C@H]1O
REMARK SMILES IDX 3 1 12 2 10 3 7 4 6 5 2 6 1 7 4 8 5 9 13 11 11 13 8 15 9 16
REMARK H PARENT 5 10 13 12 11 14 9 17
REMARK Flexibility Score: inf
ROOT
ATOM      1  C   UNL     1     148.643 154.679 127.415  1.00  0.00     0.221 C 
ATOM      2  C   UNL     1     147.275 153.970 127.392  1.00  0.00     0.207 C 
ATOM      3  C   UNL     1     146.680 154.376 128.718  1.00  0.00     0.180 C 
ATOM      4  C   UNL     1     147.925 154.492 129.599  1.00  0.00     0.179 C 
ATOM      5  O   UNL     1     149.042 154.771 128.777  1.00  0.00    -0.337 OA
ENDROOT
BRANCH   1   6
ATOM      6  O   UNL     1     148.503 155.974 126.828  1.00  0.00    -0.349 OA
ATOM      7  C   UNL     1     149.517 156.875 127.226  1.00  0.00     0.198 C 
ENDBRANCH   1   6
BRANCH   1   8
ATOM      8  C   UNL     1     149.688 153.852 126.632  1.00  0.00     0.224 C 
BRANCH   8   9
ATOM      9  O   UNL     1     149.256 153.614 125.319  1.00  0.00    -0.391 OA
ATOM     10  H   UNL     1     148.431 153.068 125.381  1.00  0.00     0.210 HD
ENDBRANCH   8   9
ENDBRANCH   1   8
BRANCH   2  11
ATOM     11  O   UNL     1     146.473 154.324 126.288  1.00  0.00    -0.385 OA
ATOM     12  H   UNL     1     145.799 153.611 126.138  1.00  0.00     0.211 HD
ENDBRANCH   2  11
BRANCH   3  13
ATOM     13  O   UNL     1     145.748 153.439 129.207  1.00  0.00    -0.387 OA
ATOM     14  H   UNL     1     144.981 153.402 128.578  1.00  0.00     0.211 HD
ENDBRANCH   3  13
BRANCH   4  15
ATOM     15  C   UNL     1     147.771 155.584 130.665  1.00  0.00     0.191 C 
BRANCH  15  16
ATOM     16  O   UNL     1     146.520 155.485 131.290  1.00  0.00    -0.394 OA
ATOM     17  H   UNL     1     146.062 156.354 131.149  1.00  0.00     0.210 HD
ENDBRANCH  15  16
ENDBRANCH   4  15
TORSDOF 7
ENDMDL
MODEL 3
REMARK VINA RESULT:    -4.674      1.257      4.019
REMARK INTER + INTRA:          -6.651
REMARK INTER:                  -6.027
REMARK INTRA:                  -0.624
REMARK UNBOUND:                -0.611
REMARK SMILES CO[C@@]1(CO)O[C@@H](CO)[C@H](O)[C@H]1O
REMARK SMILES IDX 3 1 12 2 10 3 7 4 6 5 2 6 1 7 4 8 5 9 13 11 11 13 8 15 9 16
REMARK H PARENT 5 10 13 12 11 14 9 17
REMARK Flexibility Score: inf
ROOT
ATOM      1  C   UNL     1     147.335 154.251 129.500  1.00  0.00     0.221 C 
ATOM      2  C   UNL     1     148.662 154.977 129.791  1.00  0.00     0.207 C 
ATOM      3  C   UNL     1     149.647 154.193 128.956  1.00  0.00     0.180 C 
ATOM      4  C   UNL     1     149.046 152.788 128.998  1.00  0.00     0.179 C 
ATOM      5  O   UNL     1     147.654 152.892 129.225  1.00  0.00    -0.337 OA
ENDROOT
BRANCH   1   6
ATOM      6  O   UNL     1     146.704 154.872 128.378  1.00  0.00    -0.349 OA
ATOM      7  C   UNL     1     145.683 154.078 127.808  1.00  0.00     0.198 C 
ENDBRANCH   1   6
BRANCH   1   8
ATOM      8  C   UNL     1     146.407 154.318 130.734  1.00  0.00     0.224 C 
BRANCH   8   9
ATOM      9  O   UNL     1     146.522 155.557 131.380  1.00  0.00    -0.391 OA
ATOM     10  H   UNL     1     145.922 156.187 130.904  1.00  0.00     0.210 HD
ENDBRANCH   8   9
ENDBRANCH   1   8
BRANCH   2  11
ATOM     11  O   UNL     1     148.636 156.351 129.480  1.00  0.00    -0.385 OA
ATOM     12  H   UNL     1     149.550 156.640 129.221  1.00  0.00     0.211 HD
ENDBRANCH   2  11
BRANCH   3  13
ATOM     13  O   UNL     1     150.958 154.245 129.469  1.00  0.00    -0.387 OA
ATOM     14  H   UNL     1     151.519 154.775 128.844  1.00  0.00     0.211 HD
ENDBRANCH   3  13
BRANCH   4  15
ATOM     15  C   UNL     1     149.310 152.014 127.700  1.00  0.00     0.191 C 
BRANCH  15  16
ATOM     16  O   UNL     1     150.447 152.518 127.053  1.00  0.00    -0.394 OA
ATOM     17  H   UNL     1     151.129 152.674 127.757  1.00  0.00     0.210 HD
ENDBRANCH  15  16
ENDBRANCH   4  15
TORSDOF 7
ENDMDL
MODEL 4
REMARK VINA RESULT:    -4.650      1.916      3.241
REMARK INTER + INTRA:          -6.620
REMARK INTER:                  -6.030
REMARK INTRA:                  -0.591
REMARK UNBOUND:                -0.611
REMARK SMILES CO[C@@]1(CO)O[C@@H](CO)[C@H](O)[C@H]1O
REMARK SMILES IDX 3 1 12 2 10 3 7 4 6 5 2 6 1 7 4 8 5 9 13 11 11 13 8 15 9 16
REMARK H PARENT 5 10 13 12 11 14 9 17
REMARK Flexibility Score: inf
ROOT
ATOM      1  C   UNL     1     148.350 154.097 129.487  1.00  0.00     0.221 C 
ATOM      2  C   UNL     1     148.939 155.082 128.460  1.00  0.00     0.207 C 
ATOM      3  C   UNL     1     147.960 154.977 127.315  1.00  0.00     0.180 C 
ATOM      4  C   UNL     1     147.514 153.518 127.417  1.00  0.00     0.179 C 
ATOM      5  O   UNL     1     147.676 153.081 128.752  1.00  0.00    -0.337 OA
ENDROOT
BRANCH   1   6
ATOM      6  O   UNL     1     147.448 154.802 130.342  1.00  0.00    -0.349 OA
ATOM      7  C   UNL     1     146.579 153.947 131.056  1.00  0.00     0.198 C 
ENDBRANCH   1   6
BRANCH   1   8
ATOM      8  C   UNL     1     149.481 153.455 130.323  1.00  0.00     0.224 C 
BRANCH   8   9
ATOM      9  O   UNL     1     150.738 153.901 129.889  1.00  0.00    -0.391 OA
ATOM     10  H   UNL     1     151.355 153.127 129.950  1.00  0.00     0.210 HD
ENDBRANCH   8   9
ENDBRANCH   1   8
BRANCH   2  11
ATOM     11  O   UNL     1     149.083 156.395 128.953  1.00  0.00    -0.385 OA
ATOM     12  H   UNL     1     148.221 156.687 129.348  1.00  0.00     0.211 HD
ENDBRANCH   2  11
BRANCH   3  13
ATOM     13  O   UNL     1     148.542 155.287 126.071  1.00  0.00    -0.387 OA
ATOM     14  H   UNL     1     149.137 154.537 125.805  1.00  0.00     0.211 HD
ENDBRANCH   3  13
BRANCH   4  15
ATOM     15  C   UNL     1     146.056 153.334 126.977  1.00  0.00     0.191 C 
BRANCH  15  16
ATOM     16  O   UNL     1     145.822 154.002 125.767  1.00  0.00    -0.394 OA
ATOM     17  H   UNL     1     145.693 153.301 125.076  1.00  0.00     0.210 HD
ENDBRANCH  15  16
ENDBRANCH   4  15
TORSDOF 7
ENDMDL
MODEL 5
REMARK VINA RESULT:    -4.602      1.713      2.410
REMARK INTER + INTRA:          -6.559
REMARK INTER:                  -6.014
REMARK INTRA:                  -0.544
REMARK UNBOUND:                -0.611
REMARK SMILES CO[C@@]1(CO)O[C@@H](CO)[C@H](O)[C@H]1O
REMARK SMILES IDX 3 1 12 2 10 3 7 4 6 5 2 6 1 7 4 8 5 9 13 11 11 13 8 15 9 16
REMARK H PARENT 5 10 13 12 11 14 9 17
REMARK Flexibility Score: inf
ROOT
ATOM      1  C   UNL     1     148.325 153.729 128.752  1.00  0.00     0.221 C 
ATOM      2  C   UNL     1     148.171 154.024 130.256  1.00  0.00     0.207 C 
ATOM      3  C   UNL     1     146.752 154.535 130.340  1.00  0.00     0.180 C 
ATOM      4  C   UNL     1     146.587 155.227 128.987  1.00  0.00     0.179 C 
ATOM      5  O   UNL     1     147.477 154.639 128.059  1.00  0.00    -0.337 OA
ENDROOT
BRANCH   1   6
ATOM      6  O   UNL     1     147.943 152.375 128.504  1.00  0.00    -0.349 OA
ATOM      7  C   UNL     1     148.817 151.708 127.616  1.00  0.00     0.198 C 
ENDBRANCH   1   6
BRANCH   1   8
ATOM      8  C   UNL     1     149.788 153.958 128.309  1.00  0.00     0.224 C 
BRANCH   8   9
ATOM      9  O   UNL     1     150.635 154.074 129.421  1.00  0.00    -0.391 OA
ATOM     10  H   UNL     1     150.872 153.152 129.700  1.00  0.00     0.210 HD
ENDBRANCH   8   9
ENDBRANCH   1   8
BRANCH   2  11
ATOM     11  O   UNL     1     148.412 152.907 131.080  1.00  0.00    -0.385 OA
ATOM     12  H   UNL     1     147.618 152.753 131.655  1.00  0.00     0.211 HD
ENDBRANCH   2  11
BRANCH   3  13
ATOM     13  O   UNL     1     146.550 155.403 131.430  1.00  0.00    -0.387 OA
ATOM     14  H   UNL     1     146.521 154.862 132.262  1.00  0.00     0.211 HD
ENDBRANCH   3  13
BRANCH   4  15
ATOM     15  C   UNL     1     145.147 155.131 128.468  1.00  0.00     0.191 C 
BRANCH  15  16
ATOM     16  O   UNL     1     144.286 155.897 129.266  1.00  0.00    -0.394 OA
ATOM     17  H   UNL     1     144.352 156.832 128.940  1.00  0.00     0.210 HD
ENDBRANCH  15  16
ENDBRANCH   4  15
TORSDOF 7
ENDMDL
MODEL 6
REMARK VINA RESULT:    -4.589      1.891      4.209
REMARK INTER + INTRA:          -6.542
REMARK INTER:                  -6.125
REMARK INTRA:                  -0.417
REMARK UNBOUND:                -0.611
REMARK SMILES CO[C@@]1(CO)O[C@@H](CO)[C@H](O)[C@H]1O
REMARK SMILES IDX 3 1 12 2 10 3 7 4 6 5 2 6 1 7 4 8 5 9 13 11 11 13 8 15 9 16
REMARK H PARENT 5 10 13 12 11 14 9 17
REMARK Flexibility Score: inf
ROOT
ATOM      1  C   UNL     1     147.258 154.033 129.615  1.00  0.00     0.221 C 
ATOM      2  C   UNL     1     146.360 153.508 128.479  1.00  0.00     0.207 C 
ATOM      3  C   UNL     1     147.066 154.022 127.248  1.00  0.00     0.180 C 
ATOM      4  C   UNL     1     147.667 155.333 127.755  1.00  0.00     0.179 C 
ATOM      5  O   UNL     1     147.851 155.242 129.154  1.00  0.00    -0.337 OA
ENDROOT
BRANCH   1   6
ATOM      6  O   UNL     1     148.252 153.050 129.912  1.00  0.00    -0.349 OA
ATOM      7  C   UNL     1     149.483 153.613 130.319  1.00  0.00     0.198 C 
ENDBRANCH   1   6
BRANCH   1   8
ATOM      8  C   UNL     1     146.411 154.329 130.874  1.00  0.00     0.224 C 
BRANCH   8   9
ATOM      9  O   UNL     1     146.696 155.605 131.381  1.00  0.00    -0.391 OA
ATOM     10  H   UNL     1     147.668 155.755 131.252  1.00  0.00     0.210 HD
ENDBRANCH   8   9
ENDBRANCH   1   8
BRANCH   2  11
ATOM     11  O   UNL     1     146.198 152.108 128.486  1.00  0.00    -0.385 OA
ATOM     12  H   UNL     1     147.042 151.688 128.797  1.00  0.00     0.211 HD
ENDBRANCH   2  11
BRANCH   3  13
ATOM     13  O   UNL     1     146.194 154.204 126.156  1.00  0.00    -0.387 OA
ATOM     14  H   UNL     1     146.736 154.258 125.326  1.00  0.00     0.211 HD
ENDBRANCH   3  13
BRANCH   4  15
ATOM     15  C   UNL     1     149.002 155.652 127.070  1.00  0.00     0.191 C 
BRANCH  15  16
ATOM     16  O   UNL     1     149.108 154.958 125.857  1.00  0.00    -0.394 OA
ATOM     17  H   UNL     1     148.182 154.810 125.532  1.00  0.00     0.210 HD
ENDBRANCH  15  16
ENDBRANCH   4  15
TORSDOF 7
ENDMDL
MODEL 7
REMARK VINA RESULT:    -4.568      1.596      4.078
REMARK INTER + INTRA:          -6.514
REMARK INTER:                  -5.994
REMARK INTRA:                  -0.520
REMARK UNBOUND:                -0.611
REMARK SMILES CO[C@@]1(CO)O[C@@H](CO)[C@H](O)[C@H]1O
REMARK SMILES IDX 3 1 12 2 10 3 7 4 6 5 2 6 1 7 4 8 5 9 13 11 11 13 8 15 9 16
REMARK H PARENT 5 10 13 12 11 14 9 17
REMARK Flexibility Score: inf
ROOT
ATOM      1  C   UNL     1     147.138 153.953 129.535  1.00  0.00     0.221 C 
ATOM      2  C   UNL     1     146.950 155.231 128.694  1.00  0.00     0.207 C 
ATOM      3  C   UNL     1     148.022 155.083 127.641  1.00  0.00     0.180 C 
ATOM      4  C   UNL     1     149.113 154.334 128.407  1.00  0.00     0.179 C 
ATOM      5  O   UNL     1     148.515 153.603 129.459  1.00  0.00    -0.337 OA
ENDROOT
BRANCH   1   6
ATOM      6  O   UNL     1     146.310 152.920 128.999  1.00  0.00    -0.349 OA
ATOM      7  C   UNL     1     145.764 152.077 129.993  1.00  0.00     0.198 C 
ENDBRANCH   1   6
BRANCH   1   8
ATOM      8  C   UNL     1     146.762 154.224 131.009  1.00  0.00     0.224 C 
BRANCH   8   9
ATOM      9  O   UNL     1     146.535 155.591 131.226  1.00  0.00    -0.391 OA
ATOM     10  H   UNL     1     145.756 155.661 131.836  1.00  0.00     0.210 HD
ENDBRANCH   8   9
ENDBRANCH   1   8
BRANCH   2  11
ATOM     11  O   UNL     1     145.654 155.369 128.156  1.00  0.00    -0.385 OA
ATOM     12  H   UNL     1     145.430 156.334 128.100  1.00  0.00     0.211 HD
ENDBRANCH   2  11
BRANCH   3  13
ATOM     13  O   UNL     1     148.459 156.321 127.132  1.00  0.00    -0.387 OA
ATOM     14  H   UNL     1     148.433 156.281 126.140  1.00  0.00     0.211 HD
ENDBRANCH   3  13
BRANCH   4  15
ATOM     15  C   UNL     1     149.906 153.390 127.494  1.00  0.00     0.191 C 
BRANCH  15  16
ATOM     16  O   UNL     1     150.636 154.121 126.548  1.00  0.00    -0.394 OA
ATOM     17  H   UNL     1     151.336 153.512 126.195  1.00  0.00     0.210 HD
ENDBRANCH  15  16
ENDBRANCH   4  15
TORSDOF 7
ENDMDL
MODEL 8
REMARK VINA RESULT:    -4.522      1.771      2.156
REMARK INTER + INTRA:          -6.455
REMARK INTER:                  -6.062
REMARK INTRA:                  -0.393
REMARK UNBOUND:                -0.611
REMARK SMILES CO[C@@]1(CO)O[C@@H](CO)[C@H](O)[C@H]1O
REMARK SMILES IDX 3 1 12 2 10 3 7 4 6 5 2 6 1 7 4 8 5 9 13 11 11 13 8 15 9 16
REMARK H PARENT 5 10 13 12 11 14 9 17
REMARK Flexibility Score: inf
ROOT
ATOM      1  C   UNL     1     147.314 153.850 127.449  1.00  0.00     0.221 C 
ATOM      2  C   UNL     1     148.135 154.998 126.831  1.00  0.00     0.207 C 
ATOM      3  C   UNL     1     148.574 155.772 128.051  1.00  0.00     0.180 C 
ATOM      4  C   UNL     1     147.397 155.552 129.003  1.00  0.00     0.179 C 
ATOM      5  O   UNL     1     146.748 154.344 128.657  1.00  0.00    -0.337 OA
ENDROOT
BRANCH   1   6
ATOM      6  O   UNL     1     148.182 152.743 127.699  1.00  0.00    -0.349 OA
ATOM      7  C   UNL     1     147.706 151.885 128.716  1.00  0.00     0.198 C 
ENDBRANCH   1   6
BRANCH   1   8
ATOM      8  C   UNL     1     146.179 153.428 126.489  1.00  0.00     0.224 C 
BRANCH   8   9
ATOM      9  O   UNL     1     146.695 153.036 125.244  1.00  0.00    -0.391 OA
ATOM     10  H   UNL     1     146.188 153.534 124.552  1.00  0.00     0.210 HD
ENDBRANCH   8   9
ENDBRANCH   1   8
BRANCH   2  11
ATOM     11  O   UNL     1     149.210 154.560 126.031  1.00  0.00    -0.385 OA
ATOM     12  H   UNL     1     149.565 153.713 126.406  1.00  0.00     0.211 HD
ENDBRANCH   2  11
BRANCH   3  13
ATOM     13  O   UNL     1     148.811 157.133 127.777  1.00  0.00    -0.387 OA
ATOM     14  H   UNL     1     148.488 157.670 128.547  1.00  0.00     0.211 HD
ENDBRANCH   3  13
BRANCH   4  15
ATOM     15  C   UNL     1     147.848 155.506 130.468  1.00  0.00     0.191 C 
BRANCH  15  16
ATOM     16  O   UNL     1     146.762 155.739 131.322  1.00  0.00    -0.394 OA
ATOM     17  H   UNL     1     147.015 156.504 131.902  1.00  0.00     0.210 HD
ENDBRANCH  15  16
ENDBRANCH   4  15
TORSDOF 7
ENDMDL
MODEL 9
REMARK VINA RESULT:    -4.492      1.749      2.138
REMARK INTER + INTRA:          -6.416
REMARK INTER:                  -5.837
REMARK INTRA:                  -0.579
REMARK UNBOUND:                -0.611
REMARK SMILES CO[C@@]1(CO)O[C@@H](CO)[C@H](O)[C@H]1O
REMARK SMILES IDX 3 1 12 2 10 3 7 4 6 5 2 6 1 7 4 8 5 9 13 11 11 13 8 15 9 16
REMARK H PARENT 5 10 13 12 11 14 9 17
REMARK Flexibility Score: inf
ROOT
ATOM      1  C   UNL     1     147.414 153.904 128.485  1.00  0.00     0.221 C 
ATOM      2  C   UNL     1     147.919 155.062 129.367  1.00  0.00     0.207 C 
ATOM      3  C   UNL     1     147.129 154.867 130.638  1.00  0.00     0.180 C 
ATOM      4  C   UNL     1     145.819 154.284 130.107  1.00  0.00     0.179 C 
ATOM      5  O   UNL     1     146.071 153.639 128.874  1.00  0.00    -0.337 OA
ENDROOT
BRANCH   1   6
ATOM      6  O   UNL     1     148.248 152.764 128.695  1.00  0.00    -0.349 OA
ATOM      7  C   UNL     1     148.468 152.015 127.517  1.00  0.00     0.198 C 
ENDBRANCH   1   6
BRANCH   1   8
ATOM      8  C   UNL     1     147.441 154.315 126.995  1.00  0.00     0.224 C 
BRANCH   8   9
ATOM      9  O   UNL     1     147.840 155.652 126.852  1.00  0.00    -0.391 OA
ATOM     10  H   UNL     1     148.603 155.659 126.218  1.00  0.00     0.210 HD
ENDBRANCH   8   9
ENDBRANCH   1   8
BRANCH   2  11
ATOM     11  O   UNL     1     149.314 155.052 129.569  1.00  0.00    -0.385 OA
ATOM     12  H   UNL     1     149.524 154.460 130.337  1.00  0.00     0.211 HD
ENDBRANCH   2  11
BRANCH   3  13
ATOM     13  O   UNL     1     146.946 156.065 131.355  1.00  0.00    -0.387 OA
ATOM     14  H   UNL     1     147.551 156.057 132.142  1.00  0.00     0.211 HD
ENDBRANCH   3  13
BRANCH   4  15
ATOM     15  C   UNL     1     145.189 153.296 131.098  1.00  0.00     0.191 C 
BRANCH  15  16
ATOM     16  O   UNL     1     145.392 153.729 132.416  1.00  0.00    -0.394 OA
ATOM     17  H   UNL     1     146.287 153.397 132.690  1.00  0.00     0.210 HD
ENDBRANCH  15  16
ENDBRANCH   4  15
TORSDOF 7
ENDMDL
