MODEL 1
REMARK VINA RESULT:    -2.691      0.000      0.000
REMARK INTER + INTRA:          -4.295
REMARK INTER:                  -3.871
REMARK INTRA:                  -0.424
REMARK UNBOUND:                -0.424
REMARK SMILES CCCCCCCCCO
REMARK SMILES IDX 6 1 5 2 4 3 3 4 2 5 1 6 7 7 8 8 9 9 10 10
REMARK H PARENT 10 11
REMARK Flexibility Score: inf
ROOT
ATOM      1  C   UNL     1     122.090 121.050 117.950  1.00  0.00     0.000 C 
ENDROOT
BRANCH   1   2
ATOM      2  C   UNL     1     123.440 121.097 118.690  1.00  0.00     0.000 C 
BRANCH   2   3
ATOM      3  C   UNL     1     124.678 120.820 117.817  1.00  0.00    -0.000 C 
BRANCH   3   4
ATOM      4  C   UNL     1     125.177 122.065 117.068  1.00  0.00    -0.000 C 
BRANCH   4   5
ATOM      5  C   UNL     1     125.408 121.756 115.584  1.00  0.00    -0.003 C 
ATOM      6  C   UNL     1     124.693 120.474 115.169  1.00  0.00     0.004 C 
ENDBRANCH   4   5
ENDBRANCH   3   4
ENDBRANCH   2   3
ENDBRANCH   1   2
BRANCH   1   7
ATOM      7  C   UNL     1     121.367 122.408 117.934  1.00  0.00     0.002 C 
BRANCH   7   8
ATOM      8  C   UNL     1     120.451 122.583 116.711  1.00  0.00     0.028 C 
BRANCH   8   9
ATOM      9  C   UNL     1     120.371 124.031 116.201  1.00  0.00     0.156 C 
BRANCH   9  10
ATOM     10  O   UNL     1     120.045 124.072 114.838  1.00  0.00    -0.396 OA
ATOM     11  H   UNL     1     120.146 123.146 114.493  1.00  0.00     0.210 HD
ENDBRANCH   9  10
ENDBRANCH   8   9
ENDBRANCH   7   8
ENDBRANCH   1   7
TORSDOF 8
ENDMDL
MODEL 2
REMARK VINA RESULT:    -2.619     15.824     17.320
REMARK INTER + INTRA:          -4.191
REMARK INTER:                  -3.676
REMARK INTRA:                  -0.515
REMARK UNBOUND:                -0.424
REMARK SMILES CCCCCCCCCO
REMARK SMILES IDX 6 1 5 2 4 3 3 4 2 5 1 6 7 7 8 8 9 9 10 10
REMARK H PARENT 10 11
REMARK Flexibility Score: inf
ROOT
ATOM      1  C   UNL     1     110.750 111.633 118.047  1.00  0.00     0.000 C 
ENDROOT
BRANCH   1   2
ATOM      2  C   UNL     1     109.947 112.923 117.797  1.00  0.00     0.000 C 
BRANCH   2   3
ATOM      3  C   UNL     1     108.525 112.716 117.243  1.00  0.00    -0.000 C 
BRANCH   3   4
ATOM      4  C   UNL     1     108.478 112.683 115.708  1.00  0.00    -0.000 C 
BRANCH   4   5
ATOM      5  C   UNL     1     107.687 111.467 115.210  1.00  0.00    -0.003 C 
ATOM      6  C   UNL     1     107.135 110.653 116.376  1.00  0.00     0.004 C 
ENDBRANCH   4   5
ENDBRANCH   3   4
ENDBRANCH   2   3
ENDBRANCH   1   2
BRANCH   1   7
ATOM      7  C   UNL     1     111.607 111.217 116.841  1.00  0.00     0.002 C 
BRANCH   7   8
ATOM      8  C   UNL     1     111.573 109.702 116.576  1.00  0.00     0.028 C 
BRANCH   8   9
ATOM      9  C   UNL     1     112.870 109.152 115.960  1.00  0.00     0.156 C 
BRANCH   9  10
ATOM     10  O   UNL     1     112.912 109.382 114.578  1.00  0.00    -0.396 OA
ATOM     11  H   UNL     1     113.179 110.331 114.455  1.00  0.00     0.210 HD
ENDBRANCH   9  10
ENDBRANCH   8   9
ENDBRANCH   7   8
ENDBRANCH   1   7
TORSDOF 8
ENDMDL
MODEL 3
REMARK VINA RESULT:    -2.563      8.449      9.646
REMARK INTER + INTRA:          -4.111
REMARK INTER:                  -3.823
REMARK INTRA:                  -0.289
REMARK UNBOUND:                -0.424
REMARK SMILES CCCCCCCCCO
REMARK SMILES IDX 6 1 5 2 4 3 3 4 2 5 1 6 7 7 8 8 9 9 10 10
REMARK H PARENT 10 11
REMARK Flexibility Score: inf
ROOT
ATOM      1  C   UNL     1     119.908 113.308 116.411  1.00  0.00     0.000 C 
ENDROOT
BRANCH   1   2
ATOM      2  C   UNL     1     120.051 113.144 114.887  1.00  0.00     0.000 C 
BRANCH   2   3
ATOM      3  C   UNL     1     119.433 114.275 114.043  1.00  0.00    -0.000 C 
BRANCH   3   4
ATOM      4  C   UNL     1     120.098 114.431 112.667  1.00  0.00    -0.000 C 
BRANCH   4   5
ATOM      5  C   UNL     1     119.537 115.647 111.921  1.00  0.00    -0.003 C 
ATOM      6  C   UNL     1     118.875 116.627 112.884  1.00  0.00     0.004 C 
ENDBRANCH   4   5
ENDBRANCH   3   4
ENDBRANCH   2   3
ENDBRANCH   1   2
BRANCH   1   7
ATOM      7  C   UNL     1     121.251 113.562 117.116  1.00  0.00     0.002 C 
BRANCH   7   8
ATOM      8  C   UNL     1     122.316 112.507 116.771  1.00  0.00     0.028 C 
BRANCH   8   9
ATOM      9  C   UNL     1     123.676 113.107 116.383  1.00  0.00     0.156 C 
BRANCH   9  10
ATOM     10  O   UNL     1     123.818 113.185 114.990  1.00  0.00    -0.396 OA
ATOM     11  H   UNL     1     122.903 113.289 114.616  1.00  0.00     0.210 HD
ENDBRANCH   9  10
ENDBRANCH   8   9
ENDBRANCH   7   8
ENDBRANCH   1   7
TORSDOF 8
ENDMDL
MODEL 4
REMARK VINA RESULT:    -2.540      1.286      1.863
REMARK INTER + INTRA:          -4.078
REMARK INTER:                  -3.465
REMARK INTRA:                  -0.613
REMARK UNBOUND:                -0.424
REMARK SMILES CCCCCCCCCO
REMARK SMILES IDX 6 1 5 2 4 3 3 4 2 5 1 6 7 7 8 8 9 9 10 10
REMARK H PARENT 10 11
REMARK Flexibility Score: inf
ROOT
ATOM      1  C   UNL     1     122.192 121.974 117.143  1.00  0.00     0.000 C 
ENDROOT
BRANCH   1   2
ATOM      2  C   UNL     1     123.470 121.113 117.163  1.00  0.00     0.000 C 
BRANCH   2   3
ATOM      3  C   UNL     1     124.793 121.897 117.071  1.00  0.00    -0.000 C 
BRANCH   3   4
ATOM      4  C   UNL     1     125.418 121.858 115.669  1.00  0.00    -0.000 C 
BRANCH   4   5
ATOM      5  C   UNL     1     125.840 123.261 115.218  1.00  0.00    -0.003 C 
ATOM      6  C   UNL     1     125.811 124.247 116.381  1.00  0.00     0.004 C 
ENDBRANCH   4   5
ENDBRANCH   3   4
ENDBRANCH   2   3
ENDBRANCH   1   2
BRANCH   1   7
ATOM      7  C   UNL     1     122.436 123.420 117.603  1.00  0.00     0.002 C 
BRANCH   7   8
ATOM      8  C   UNL     1     121.750 124.459 116.701  1.00  0.00     0.028 C 
BRANCH   8   9
ATOM      9  C   UNL     1     120.308 124.089 116.319  1.00  0.00     0.156 C 
BRANCH   9  10
ATOM     10  O   UNL     1     120.137 124.080 114.928  1.00  0.00    -0.396 OA
ATOM     11  H   UNL     1     119.812 124.983 114.674  1.00  0.00     0.210 HD
ENDBRANCH   9  10
ENDBRANCH   8   9
ENDBRANCH   7   8
ENDBRANCH   1   7
TORSDOF 8
ENDMDL
MODEL 5
REMARK VINA RESULT:    -2.537     11.127     13.005
REMARK INTER + INTRA:          -4.073
REMARK INTER:                  -3.460
REMARK INTRA:                  -0.613
REMARK UNBOUND:                -0.424
REMARK SMILES CCCCCCCCCO
REMARK SMILES IDX 6 1 5 2 4 3 3 4 2 5 1 6 7 7 8 8 9 9 10 10
REMARK H PARENT 10 11
REMARK Flexibility Score: inf
ROOT
ATOM      1  C   UNL     1     110.638 126.312 116.268  1.00  0.00     0.000 C 
ENDROOT
BRANCH   1   2
ATOM      2  C   UNL     1     111.491 125.589 115.208  1.00  0.00     0.000 C 
BRANCH   2   3
ATOM      3  C   UNL     1     112.805 124.975 115.728  1.00  0.00    -0.000 C 
BRANCH   3   4
ATOM      4  C   UNL     1     112.627 124.198 117.040  1.00  0.00    -0.000 C 
BRANCH   4   5
ATOM      5  C   UNL     1     111.967 122.837 116.787  1.00  0.00    -0.003 C 
ATOM      6  C   UNL     1     110.615 122.741 117.487  1.00  0.00     0.004 C 
ENDBRANCH   4   5
ENDBRANCH   3   4
ENDBRANCH   2   3
ENDBRANCH   1   2
BRANCH   1   7
ATOM      7  C   UNL     1     109.128 126.087 116.077  1.00  0.00     0.002 C 
BRANCH   7   8
ATOM      8  C   UNL     1     108.792 125.374 114.757  1.00  0.00     0.028 C 
BRANCH   8   9
ATOM      9  C   UNL     1     107.491 124.555 114.811  1.00  0.00     0.156 C 
BRANCH   9  10
ATOM     10  O   UNL     1     107.619 123.352 114.104  1.00  0.00    -0.396 OA
ATOM     11  H   UNL     1     106.740 122.893 114.162  1.00  0.00     0.210 HD
ENDBRANCH   9  10
ENDBRANCH   8   9
ENDBRANCH   7   8
ENDBRANCH   1   7
TORSDOF 8
ENDMDL
MODEL 6
REMARK VINA RESULT:    -2.524      6.100      8.325
REMARK INTER + INTRA:          -4.054
REMARK INTER:                  -3.793
REMARK INTRA:                  -0.261
REMARK UNBOUND:                -0.424
REMARK SMILES CCCCCCCCCO
REMARK SMILES IDX 6 1 5 2 4 3 3 4 2 5 1 6 7 7 8 8 9 9 10 10
REMARK H PARENT 10 11
REMARK Flexibility Score: inf
ROOT
ATOM      1  C   UNL     1     118.793 120.060 112.952  1.00  0.00     0.000 C 
ENDROOT
BRANCH   1   2
ATOM      2  C   UNL     1     117.678 119.640 111.977  1.00  0.00     0.000 C 
BRANCH   2   3
ATOM      3  C   UNL     1     116.403 119.081 112.636  1.00  0.00    -0.000 C 
BRANCH   3   4
ATOM      4  C   UNL     1     115.121 119.451 111.876  1.00  0.00    -0.000 C 
BRANCH   4   5
ATOM      5  C   UNL     1     113.882 118.894 112.586  1.00  0.00    -0.003 C 
ATOM      6  C   UNL     1     114.217 117.629 113.370  1.00  0.00     0.004 C 
ENDBRANCH   4   5
ENDBRANCH   3   4
ENDBRANCH   2   3
ENDBRANCH   1   2
BRANCH   1   7
ATOM      7  C   UNL     1     119.113 118.979 113.998  1.00  0.00     0.002 C 
BRANCH   7   8
ATOM      8  C   UNL     1     119.323 119.555 115.409  1.00  0.00     0.028 C 
BRANCH   8   9
ATOM      9  C   UNL     1     120.252 120.779 115.445  1.00  0.00     0.156 C 
BRANCH   9  10
ATOM     10  O   UNL     1     121.577 120.419 115.160  1.00  0.00    -0.396 OA
ATOM     11  H   UNL     1     122.156 120.977 115.743  1.00  0.00     0.210 HD
ENDBRANCH   9  10
ENDBRANCH   8   9
ENDBRANCH   7   8
ENDBRANCH   1   7
TORSDOF 8
ENDMDL
MODEL 7
REMARK VINA RESULT:    -2.522     10.846     12.162
REMARK INTER + INTRA:          -4.051
REMARK INTER:                  -3.401
REMARK INTRA:                  -0.650
REMARK UNBOUND:                -0.424
REMARK SMILES CCCCCCCCCO
REMARK SMILES IDX 6 1 5 2 4 3 3 4 2 5 1 6 7 7 8 8 9 9 10 10
REMARK H PARENT 10 11
REMARK Flexibility Score: inf
ROOT
ATOM      1  C   UNL     1     112.949 124.722 116.053  1.00  0.00     0.000 C 
ENDROOT
BRANCH   1   2
ATOM      2  C   UNL     1     112.444 124.889 117.498  1.00  0.00     0.000 C 
BRANCH   2   3
ATOM      3  C   UNL     1     111.962 123.594 118.180  1.00  0.00    -0.000 C 
BRANCH   3   4
ATOM      4  C   UNL     1     112.117 122.352 117.290  1.00  0.00    -0.000 C 
BRANCH   4   5
ATOM      5  C   UNL     1     110.781 121.613 117.143  1.00  0.00    -0.003 C 
ATOM      6  C   UNL     1     109.608 122.586 117.155  1.00  0.00     0.004 C 
ENDBRANCH   4   5
ENDBRANCH   3   4
ENDBRANCH   2   3
ENDBRANCH   1   2
BRANCH   1   7
ATOM      7  C   UNL     1     111.998 125.335 115.011  1.00  0.00     0.002 C 
BRANCH   7   8
ATOM      8  C   UNL     1     110.781 126.029 115.646  1.00  0.00     0.028 C 
BRANCH   8   9
ATOM      9  C   UNL     1     109.444 125.653 114.989  1.00  0.00     0.156 C 
BRANCH   9  10
ATOM     10  O   UNL     1     109.545 125.663 113.591  1.00  0.00    -0.396 OA
ATOM     11  H   UNL     1     109.000 126.429 113.271  1.00  0.00     0.210 HD
ENDBRANCH   9  10
ENDBRANCH   8   9
ENDBRANCH   7   8
ENDBRANCH   1   7
TORSDOF 8
ENDMDL
MODEL 8
REMARK VINA RESULT:    -2.521     15.826     17.453
REMARK INTER + INTRA:          -4.050
REMARK INTER:                  -3.299
REMARK INTRA:                  -0.751
REMARK UNBOUND:                -0.424
REMARK SMILES CCCCCCCCCO
REMARK SMILES IDX 6 1 5 2 4 3 3 4 2 5 1 6 7 7 8 8 9 9 10 10
REMARK H PARENT 10 11
REMARK Flexibility Score: inf
ROOT
ATOM      1  C   UNL     1     108.795 112.770 117.134  1.00  0.00     0.000 C 
ENDROOT
BRANCH   1   2
ATOM      2  C   UNL     1     108.610 112.553 115.621  1.00  0.00     0.000 C 
BRANCH   2   3
ATOM      3  C   UNL     1     107.627 111.432 115.233  1.00  0.00    -0.000 C 
BRANCH   3   4
ATOM      4  C   UNL     1     107.335 110.462 116.388  1.00  0.00    -0.000 C 
BRANCH   4   5
ATOM      5  C   UNL     1     108.222 109.215 116.296  1.00  0.00    -0.003 C 
ATOM      6  C   UNL     1     108.853 108.887 117.645  1.00  0.00     0.004 C 
ENDBRANCH   4   5
ENDBRANCH   3   4
ENDBRANCH   2   3
ENDBRANCH   1   2
BRANCH   1   7
ATOM      7  C   UNL     1     110.269 112.719 117.571  1.00  0.00     0.002 C 
BRANCH   7   8
ATOM      8  C   UNL     1     111.107 111.736 116.737  1.00  0.00     0.028 C 
BRANCH   8   9
ATOM      9  C   UNL     1     112.319 112.385 116.050  1.00  0.00     0.156 C 
BRANCH   9  10
ATOM     10  O   UNL     1     112.002 112.805 114.751  1.00  0.00    -0.396 OA
ATOM     11  H   UNL     1     112.825 112.693 114.206  1.00  0.00     0.210 HD
ENDBRANCH   9  10
ENDBRANCH   8   9
ENDBRANCH   7   8
ENDBRANCH   1   7
TORSDOF 8
ENDMDL
MODEL 9
REMARK VINA RESULT:    -2.520      2.378      4.246
REMARK INTER + INTRA:          -4.048
REMARK INTER:                  -3.278
REMARK INTRA:                  -0.770
REMARK UNBOUND:                -0.424
REMARK SMILES CCCCCCCCCO
REMARK SMILES IDX 6 1 5 2 4 3 3 4 2 5 1 6 7 7 8 8 9 9 10 10
REMARK H PARENT 10 11
REMARK Flexibility Score: inf
ROOT
ATOM      1  C   UNL     1     124.433 120.704 116.748  1.00  0.00     0.000 C 
ENDROOT
BRANCH   1   2
ATOM      2  C   UNL     1     124.889 121.061 118.175  1.00  0.00     0.000 C 
BRANCH   2   3
ATOM      3  C   UNL     1     123.761 121.447 119.149  1.00  0.00    -0.000 C 
BRANCH   3   4
ATOM      4  C   UNL     1     122.731 122.402 118.528  1.00  0.00    -0.000 C 
BRANCH   4   5
ATOM      5  C   UNL     1     123.305 123.818 118.396  1.00  0.00    -0.003 C 
ATOM      6  C   UNL     1     122.958 124.429 117.042  1.00  0.00     0.004 C 
ENDBRANCH   4   5
ENDBRANCH   3   4
ENDBRANCH   2   3
ENDBRANCH   1   2
BRANCH   1   7
ATOM      7  C   UNL     1     125.235 121.437 115.660  1.00  0.00     0.002 C 
BRANCH   7   8
ATOM      8  C   UNL     1     126.107 122.572 116.223  1.00  0.00     0.028 C 
BRANCH   8   9
ATOM      9  C   UNL     1     126.289 123.751 115.252  1.00  0.00     0.156 C 
BRANCH   9  10
ATOM     10  O   UNL     1     125.585 123.538 114.059  1.00  0.00    -0.396 OA
ATOM     11  H   UNL     1     124.845 124.201 114.042  1.00  0.00     0.210 HD
ENDBRANCH   9  10
ENDBRANCH   8   9
ENDBRANCH   7   8
ENDBRANCH   1   7
TORSDOF 8
ENDMDL
