MODEL 1
REMARK VINA RESULT:    -4.965      0.000      0.000
REMARK INTER + INTRA:          -6.653
REMARK INTER:                  -6.417
REMARK INTRA:                  -0.236
REMARK UNBOUND:                -0.236
REMARK SMILES CCO[C@H]1O[C@@H](CO)[C@@H](O)[C@H](O)[C@H]1O
REMARK SMILES IDX 4 1 13 2 11 3 9 4 6 5 5 6 3 7 2 8 1 9 14 10 12 12 7 14 8 15
REMARK SMILES IDX 10 17
REMARK H PARENT 14 11 12 13 8 16 10 18
REMARK Flexibility Score: inf
ROOT
ATOM      1  C   UNL     1      -2.384   3.498  21.266  1.00  0.00     0.281 C 
ATOM      2  C   UNL     1      -3.649   4.408  21.384  1.00  0.00     0.202 C 
ATOM      3  C   UNL     1      -3.476   5.443  22.512  1.00  0.00     0.179 C 
ATOM      4  C   UNL     1      -3.146   4.740  23.856  1.00  0.00     0.177 C 
ATOM      5  C   UNL     1      -2.456   3.369  23.607  1.00  0.00     0.178 C 
ATOM      6  O   UNL     1      -1.619   3.461  22.470  1.00  0.00    -0.341 OA
ENDROOT
BRANCH   1   7
ATOM      7  O   UNL     1      -1.556   3.978  20.223  1.00  0.00    -0.350 OA
BRANCH   7   8
ATOM      8  C   UNL     1      -0.852   2.912  19.620  1.00  0.00     0.160 C 
ATOM      9  C   UNL     1      -1.585   1.609  19.899  1.00  0.00     0.035 C 
ENDBRANCH   7   8
ENDBRANCH   1   7
BRANCH   2  10
ATOM     10  O   UNL     1      -3.971   5.020  20.158  1.00  0.00    -0.385 OA
ATOM     11  H   UNL     1      -4.832   4.640  19.841  1.00  0.00     0.211 HD
ENDBRANCH   2  10
BRANCH   3  12
ATOM     12  O   UNL     1      -4.653   6.198  22.636  1.00  0.00    -0.387 OA
ATOM     13  H   UNL     1      -4.486   7.065  22.182  1.00  0.00     0.211 HD
ENDBRANCH   3  12
BRANCH   5  14
ATOM     14  C   UNL     1      -1.627   2.879  24.804  1.00  0.00     0.191 C 
BRANCH  14  15
ATOM     15  O   UNL     1      -0.449   3.629  24.933  1.00  0.00    -0.394 OA
ATOM     16  H   UNL     1      -0.288   4.066  24.056  1.00  0.00     0.210 HD
ENDBRANCH  14  15
ENDBRANCH   5  14
BRANCH   4  17
ATOM     17  O   UNL     1      -2.318   5.579  24.620  1.00  0.00    -0.387 OA
ATOM     18  H   UNL     1      -2.274   5.189  25.532  1.00  0.00     0.211 HD
ENDBRANCH   4  17
TORSDOF 7
ENDMDL
MODEL 2
REMARK VINA RESULT:    -4.735     13.548     15.267
REMARK INTER + INTRA:          -6.355
REMARK INTER:                  -5.843
REMARK INTRA:                  -0.511
REMARK UNBOUND:                -0.236
REMARK SMILES CCO[C@H]1O[C@@H](CO)[C@@H](O)[C@H](O)[C@H]1O
REMARK SMILES IDX 4 1 13 2 11 3 9 4 6 5 5 6 3 7 2 8 1 9 14 10 12 12 7 14 8 15
REMARK SMILES IDX 10 17
REMARK H PARENT 14 11 12 13 8 16 10 18
REMARK Flexibility Score: inf
ROOT
ATOM      1  C   UNL     1       0.839  -3.598   8.991  1.00  0.00     0.281 C 
ATOM      2  C   UNL     1      -0.664  -3.313   9.305  1.00  0.00     0.202 C 
ATOM      3  C   UNL     1      -1.050  -1.881   8.885  1.00  0.00     0.179 C 
ATOM      4  C   UNL     1      -0.114  -0.842   9.558  1.00  0.00     0.177 C 
ATOM      5  C   UNL     1       1.265  -1.476   9.894  1.00  0.00     0.178 C 
ATOM      6  O   UNL     1       1.616  -2.406   8.887  1.00  0.00    -0.341 OA
ENDROOT
BRANCH   1   7
ATOM      7  O   UNL     1       0.937  -4.306   7.768  1.00  0.00    -0.350 OA
BRANCH   7   8
ATOM      8  C   UNL     1       1.413  -3.458   6.743  1.00  0.00     0.160 C 
ATOM      9  C   UNL     1       0.443  -3.497   5.573  1.00  0.00     0.035 C 
ENDBRANCH   7   8
ENDBRANCH   1   7
BRANCH   2  10
ATOM     10  O   UNL     1      -1.514  -4.274   8.724  1.00  0.00    -0.385 OA
ATOM     11  H   UNL     1      -1.989  -3.846   7.965  1.00  0.00     0.211 HD
ENDBRANCH   2  10
BRANCH   3  12
ATOM     12  O   UNL     1      -2.385  -1.634   9.242  1.00  0.00    -0.387 OA
ATOM     13  H   UNL     1      -2.918  -1.683   8.405  1.00  0.00     0.211 HD
ENDBRANCH   3  12
BRANCH   5  14
ATOM     14  C   UNL     1       2.392  -0.441  10.038  1.00  0.00     0.191 C 
BRANCH  14  15
ATOM     15  O   UNL     1       1.976   0.639  10.830  1.00  0.00    -0.394 OA
ATOM     16  H   UNL     1       2.504   0.601  11.670  1.00  0.00     0.210 HD
ENDBRANCH  14  15
ENDBRANCH   5  14
BRANCH   4  17
ATOM     17  O   UNL     1       0.044   0.257   8.696  1.00  0.00    -0.387 OA
ATOM     18  H   UNL     1      -0.691   0.892   8.901  1.00  0.00     0.211 HD
ENDBRANCH   4  17
TORSDOF 7
ENDMDL
MODEL 3
REMARK VINA RESULT:    -4.715      1.804      3.344
REMARK INTER + INTRA:          -6.329
REMARK INTER:                  -6.130
REMARK INTRA:                  -0.199
REMARK UNBOUND:                -0.236
REMARK SMILES CCO[C@H]1O[C@@H](CO)[C@@H](O)[C@H](O)[C@H]1O
REMARK SMILES IDX 4 1 13 2 11 3 9 4 6 5 5 6 3 7 2 8 1 9 14 10 12 12 7 14 8 15
REMARK SMILES IDX 10 17
REMARK H PARENT 14 11 12 13 8 16 10 18
REMARK Flexibility Score: inf
ROOT
ATOM      1  C   UNL     1      -2.321   4.261  21.593  1.00  0.00     0.281 C 
ATOM      2  C   UNL     1      -2.138   2.712  21.498  1.00  0.00     0.202 C 
ATOM      3  C   UNL     1      -2.633   2.022  22.784  1.00  0.00     0.179 C 
ATOM      4  C   UNL     1      -1.921   2.611  24.031  1.00  0.00     0.177 C 
ATOM      5  C   UNL     1      -1.456   4.069  23.764  1.00  0.00     0.178 C 
ATOM      6  O   UNL     1      -2.401   4.724  22.940  1.00  0.00    -0.341 OA
ENDROOT
BRANCH   1   7
ATOM      7  O   UNL     1      -3.509   4.635  20.919  1.00  0.00    -0.350 OA
BRANCH   7   8
ATOM      8  C   UNL     1      -4.129   5.722  21.575  1.00  0.00     0.160 C 
ATOM      9  C   UNL     1      -4.639   6.708  20.537  1.00  0.00     0.035 C 
ENDBRANCH   7   8
ENDBRANCH   1   7
BRANCH   2  10
ATOM     10  O   UNL     1      -2.753   2.180  20.349  1.00  0.00    -0.385 OA
ATOM     11  H   UNL     1      -3.418   1.504  20.641  1.00  0.00     0.211 HD
ENDBRANCH   2  10
BRANCH   3  12
ATOM     12  O   UNL     1      -2.392   0.642  22.694  1.00  0.00    -0.387 OA
ATOM     13  H   UNL     1      -3.059   0.276  22.055  1.00  0.00     0.211 HD
ENDBRANCH   3  12
BRANCH   5  14
ATOM     14  C   UNL     1      -1.255   4.888  25.049  1.00  0.00     0.191 C 
BRANCH  14  15
ATOM     15  O   UNL     1      -0.510   6.048  24.788  1.00  0.00    -0.394 OA
ATOM     16  H   UNL     1      -0.821   6.399  23.913  1.00  0.00     0.210 HD
ENDBRANCH  14  15
ENDBRANCH   5  14
BRANCH   4  17
ATOM     17  O   UNL     1      -2.802   2.564  25.125  1.00  0.00    -0.387 OA
ATOM     18  H   UNL     1      -2.250   2.398  25.933  1.00  0.00     0.211 HD
ENDBRANCH   4  17
TORSDOF 7
ENDMDL
MODEL 4
REMARK VINA RESULT:    -4.686     13.680     16.231
REMARK INTER + INTRA:          -6.292
REMARK INTER:                  -5.836
REMARK INTRA:                  -0.456
REMARK UNBOUND:                -0.236
REMARK SMILES CCO[C@H]1O[C@@H](CO)[C@@H](O)[C@H](O)[C@H]1O
REMARK SMILES IDX 4 1 13 2 11 3 9 4 6 5 5 6 3 7 2 8 1 9 14 10 12 12 7 14 8 15
REMARK SMILES IDX 10 17
REMARK H PARENT 14 11 12 13 8 16 10 18
REMARK Flexibility Score: inf
ROOT
ATOM      1  C   UNL     1       0.282  -1.101   8.317  1.00  0.00     0.281 C 
ATOM      2  C   UNL     1      -0.879  -2.023   8.812  1.00  0.00     0.202 C 
ATOM      3  C   UNL     1      -0.426  -3.496   8.858  1.00  0.00     0.179 C 
ATOM      4  C   UNL     1       0.116  -3.946   7.475  1.00  0.00     0.177 C 
ATOM      5  C   UNL     1       0.660  -2.731   6.673  1.00  0.00     0.178 C 
ATOM      6  O   UNL     1       1.263  -1.809   7.561  1.00  0.00    -0.341 OA
ENDROOT
BRANCH   1   7
ATOM      7  O   UNL     1       0.918  -0.506   9.433  1.00  0.00    -0.350 OA
BRANCH   7   8
ATOM      8  C   UNL     1       2.226  -1.015   9.586  1.00  0.00     0.160 C 
ATOM      9  C   UNL     1       2.844  -0.434  10.848  1.00  0.00     0.035 C 
ENDBRANCH   7   8
ENDBRANCH   1   7
BRANCH   2  10
ATOM     10  O   UNL     1      -1.396  -1.596  10.050  1.00  0.00    -0.385 OA
ATOM     11  H   UNL     1      -0.916  -0.769  10.315  1.00  0.00     0.211 HD
ENDBRANCH   2  10
BRANCH   3  12
ATOM     12  O   UNL     1      -1.509  -4.304   9.241  1.00  0.00    -0.387 OA
ATOM     13  H   UNL     1      -1.779  -4.008  10.149  1.00  0.00     0.211 HD
ENDBRANCH   3  12
BRANCH   5  14
ATOM     14  C   UNL     1       1.676  -3.123   5.589  1.00  0.00     0.191 C 
BRANCH  14  15
ATOM     15  O   UNL     1       2.977  -3.151   6.114  1.00  0.00    -0.394 OA
ATOM     16  H   UNL     1       2.968  -2.595   6.936  1.00  0.00     0.210 HD
ENDBRANCH  14  15
ENDBRANCH   5  14
BRANCH   4  17
ATOM     17  O   UNL     1       1.128  -4.902   7.670  1.00  0.00    -0.387 OA
ATOM     18  H   UNL     1       1.538  -4.713   8.555  1.00  0.00     0.211 HD
ENDBRANCH   4  17
TORSDOF 7
ENDMDL
MODEL 5
REMARK VINA RESULT:    -4.543     14.066     16.119
REMARK INTER + INTRA:          -6.107
REMARK INTER:                  -5.735
REMARK INTRA:                  -0.372
REMARK UNBOUND:                -0.236
REMARK SMILES CCO[C@H]1O[C@@H](CO)[C@@H](O)[C@H](O)[C@H]1O
REMARK SMILES IDX 4 1 13 2 11 3 9 4 6 5 5 6 3 7 2 8 1 9 14 10 12 12 7 14 8 15
REMARK SMILES IDX 10 17
REMARK H PARENT 14 11 12 13 8 16 10 18
REMARK Flexibility Score: inf
ROOT
ATOM      1  C   UNL     1       0.386  -2.410   7.338  1.00  0.00     0.281 C 
ATOM      2  C   UNL     1       0.177  -2.879   8.813  1.00  0.00     0.202 C 
ATOM      3  C   UNL     1      -1.204  -2.438   9.338  1.00  0.00     0.179 C 
ATOM      4  C   UNL     1      -1.380  -0.903   9.192  1.00  0.00     0.177 C 
ATOM      5  C   UNL     1      -0.499  -0.353   8.036  1.00  0.00     0.178 C 
ATOM      6  O   UNL     1      -0.445  -1.303   6.989  1.00  0.00    -0.341 OA
ENDROOT
BRANCH   1   7
ATOM      7  O   UNL     1       0.098  -3.482   6.459  1.00  0.00    -0.350 OA
BRANCH   7   8
ATOM      8  C   UNL     1       0.517  -3.170   5.146  1.00  0.00     0.160 C 
ATOM      9  C   UNL     1       2.033  -3.062   5.117  1.00  0.00     0.035 C 
ENDBRANCH   7   8
ENDBRANCH   1   7
BRANCH   2  10
ATOM     10  O   UNL     1       0.371  -4.267   8.955  1.00  0.00    -0.385 OA
ATOM     11  H   UNL     1       0.524  -4.459   9.917  1.00  0.00     0.211 HD
ENDBRANCH   2  10
BRANCH   3  12
ATOM     12  O   UNL     1      -1.333  -2.815  10.684  1.00  0.00    -0.387 OA
ATOM     13  H   UNL     1      -2.305  -2.837  10.883  1.00  0.00     0.211 HD
ENDBRANCH   3  12
BRANCH   5  14
ATOM     14  C   UNL     1      -1.000   0.987   7.473  1.00  0.00     0.191 C 
BRANCH  14  15
ATOM     15  O   UNL     1      -1.742   0.786   6.300  1.00  0.00    -0.394 OA
ATOM     16  H   UNL     1      -1.326   0.021   5.823  1.00  0.00     0.210 HD
ENDBRANCH  14  15
ENDBRANCH   5  14
BRANCH   4  17
ATOM     17  O   UNL     1      -2.737  -0.619   8.958  1.00  0.00    -0.387 OA
ATOM     18  H   UNL     1      -3.010   0.059   9.630  1.00  0.00     0.211 HD
ENDBRANCH   4  17
TORSDOF 7
ENDMDL
MODEL 6
REMARK VINA RESULT:    -4.471     12.335     14.382
REMARK INTER + INTRA:          -6.014
REMARK INTER:                  -5.566
REMARK INTRA:                  -0.448
REMARK UNBOUND:                -0.236
REMARK SMILES CCO[C@H]1O[C@@H](CO)[C@@H](O)[C@H](O)[C@H]1O
REMARK SMILES IDX 4 1 13 2 11 3 9 4 6 5 5 6 3 7 2 8 1 9 14 10 12 12 7 14 8 15
REMARK SMILES IDX 10 17
REMARK H PARENT 14 11 12 13 8 16 10 18
REMARK Flexibility Score: inf
ROOT
ATOM      1  C   UNL     1       1.071  -1.405   8.478  1.00  0.00     0.281 C 
ATOM      2  C   UNL     1       2.007  -0.723   9.526  1.00  0.00     0.202 C 
ATOM      3  C   UNL     1       1.272  -0.519  10.866  1.00  0.00     0.179 C 
ATOM      4  C   UNL     1      -0.039   0.285  10.655  1.00  0.00     0.177 C 
ATOM      5  C   UNL     1      -0.577   0.096   9.209  1.00  0.00     0.178 C 
ATOM      6  O   UNL     1      -0.313  -1.225   8.775  1.00  0.00    -0.341 OA
ENDROOT
BRANCH   1   7
ATOM      7  O   UNL     1       1.344  -2.794   8.438  1.00  0.00    -0.350 OA
BRANCH   7   8
ATOM      8  C   UNL     1       0.195  -3.535   8.793  1.00  0.00     0.160 C 
ATOM      9  C   UNL     1       0.384  -4.983   8.371  1.00  0.00     0.035 C 
ENDBRANCH   7   8
ENDBRANCH   1   7
BRANCH   2  10
ATOM     10  O   UNL     1       3.212  -1.431   9.694  1.00  0.00    -0.385 OA
ATOM     11  H   UNL     1       2.987  -2.374   9.912  1.00  0.00     0.211 HD
ENDBRANCH   2  10
BRANCH   3  12
ATOM     12  O   UNL     1       2.115   0.155  11.762  1.00  0.00    -0.387 OA
ATOM     13  H   UNL     1       2.835   0.571  11.219  1.00  0.00     0.211 HD
ENDBRANCH   3  12
BRANCH   5  14
ATOM     14  C   UNL     1      -2.082   0.377   9.077  1.00  0.00     0.191 C 
BRANCH  14  15
ATOM     15  O   UNL     1      -2.822  -0.806   9.211  1.00  0.00    -0.394 OA
ATOM     16  H   UNL     1      -2.417  -1.471   8.595  1.00  0.00     0.210 HD
ENDBRANCH  14  15
ENDBRANCH   5  14
BRANCH   4  17
ATOM     17  O   UNL     1      -0.993  -0.140  11.596  1.00  0.00    -0.387 OA
ATOM     18  H   UNL     1      -0.809   0.356  12.437  1.00  0.00     0.211 HD
ENDBRANCH   4  17
TORSDOF 7
ENDMDL
MODEL 7
REMARK VINA RESULT:    -4.460     12.558     15.340
REMARK INTER + INTRA:          -5.999
REMARK INTER:                  -5.571
REMARK INTRA:                  -0.428
REMARK UNBOUND:                -0.236
REMARK SMILES CCO[C@H]1O[C@@H](CO)[C@@H](O)[C@H](O)[C@H]1O
REMARK SMILES IDX 4 1 13 2 11 3 9 4 6 5 5 6 3 7 2 8 1 9 14 10 12 12 7 14 8 15
REMARK SMILES IDX 10 17
REMARK H PARENT 14 11 12 13 8 16 10 18
REMARK Flexibility Score: inf
ROOT
ATOM      1  C   UNL     1       1.276  -1.142   9.604  1.00  0.00     0.281 C 
ATOM      2  C   UNL     1      -0.248  -1.391   9.838  1.00  0.00     0.202 C 
ATOM      3  C   UNL     1      -0.611  -2.865   9.570  1.00  0.00     0.179 C 
ATOM      4  C   UNL     1      -0.171  -3.286   8.142  1.00  0.00     0.177 C 
ATOM      5  C   UNL     1       1.022  -2.418   7.653  1.00  0.00     0.178 C 
ATOM      6  O   UNL     1       1.868  -2.117   8.746  1.00  0.00    -0.341 OA
ENDROOT
BRANCH   1   7
ATOM      7  O   UNL     1       1.953  -1.170  10.848  1.00  0.00    -0.350 OA
BRANCH   7   8
ATOM      8  C   UNL     1       2.877  -0.106  10.932  1.00  0.00     0.160 C 
ATOM      9  C   UNL     1       2.147   1.157  11.359  1.00  0.00     0.035 C 
ENDBRANCH   7   8
ENDBRANCH   1   7
BRANCH   2  10
ATOM     10  O   UNL     1      -0.657  -0.977  11.120  1.00  0.00    -0.385 OA
ATOM     11  H   UNL     1      -1.479  -1.482  11.359  1.00  0.00     0.211 HD
ENDBRANCH   2  10
BRANCH   3  12
ATOM     12  O   UNL     1      -1.995  -3.040   9.723  1.00  0.00    -0.387 OA
ATOM     13  H   UNL     1      -2.339  -3.372   8.852  1.00  0.00     0.211 HD
ENDBRANCH   3  12
BRANCH   5  14
ATOM     14  C   UNL     1       1.850  -3.090   6.546  1.00  0.00     0.191 C 
BRANCH  14  15
ATOM     15  O   UNL     1       2.897  -3.842   7.097  1.00  0.00    -0.394 OA
ATOM     16  H   UNL     1       3.306  -4.356   6.352  1.00  0.00     0.210 HD
ENDBRANCH  14  15
ENDBRANCH   5  14
BRANCH   4  17
ATOM     17  O   UNL     1       0.180  -4.647   8.155  1.00  0.00    -0.387 OA
ATOM     18  H   UNL     1       0.815  -4.775   8.908  1.00  0.00     0.211 HD
ENDBRANCH   4  17
TORSDOF 7
ENDMDL
MODEL 8
REMARK VINA RESULT:    -4.417      8.641     10.442
REMARK INTER + INTRA:          -5.945
REMARK INTER:                  -5.508
REMARK INTRA:                  -0.436
REMARK UNBOUND:                -0.236
REMARK SMILES CCO[C@H]1O[C@@H](CO)[C@@H](O)[C@H](O)[C@H]1O
REMARK SMILES IDX 4 1 13 2 11 3 9 4 6 5 5 6 3 7 2 8 1 9 14 10 12 12 7 14 8 15
REMARK SMILES IDX 10 17
REMARK H PARENT 14 11 12 13 8 16 10 18
REMARK Flexibility Score: inf
ROOT
ATOM      1  C   UNL     1       4.081   2.783  16.357  1.00  0.00     0.281 C 
ATOM      2  C   UNL     1       4.304   1.844  17.586  1.00  0.00     0.202 C 
ATOM      3  C   UNL     1       5.001   0.538  17.158  1.00  0.00     0.179 C 
ATOM      4  C   UNL     1       4.199  -0.168  16.032  1.00  0.00     0.177 C 
ATOM      5  C   UNL     1       3.363   0.861  15.221  1.00  0.00     0.178 C 
ATOM      6  O   UNL     1       4.079   2.076  15.118  1.00  0.00    -0.341 OA
ENDROOT
BRANCH   1   7
ATOM      7  O   UNL     1       5.109   3.756  16.318  1.00  0.00    -0.350 OA
BRANCH   7   8
ATOM      8  C   UNL     1       4.571   5.032  16.037  1.00  0.00     0.160 C 
ATOM      9  C   UNL     1       3.928   5.590  17.297  1.00  0.00     0.035 C 
ENDBRANCH   7   8
ENDBRANCH   1   7
BRANCH   2  10
ATOM     10  O   UNL     1       5.000   2.493  18.623  1.00  0.00    -0.385 OA
ATOM     11  H   UNL     1       4.765   2.045  19.478  1.00  0.00     0.211 HD
ENDBRANCH   2  10
BRANCH   3  12
ATOM     12  O   UNL     1       5.125  -0.310  18.270  1.00  0.00    -0.387 OA
ATOM     13  H   UNL     1       4.217  -0.403  18.661  1.00  0.00     0.211 HD
ENDBRANCH   3  12
BRANCH   5  14
ATOM     14  C   UNL     1       2.996   0.371  13.811  1.00  0.00     0.191 C 
BRANCH  14  15
ATOM     15  O   UNL     1       4.017   0.676  12.899  1.00  0.00    -0.394 OA
ATOM     16  H   UNL     1       4.800   0.117  13.144  1.00  0.00     0.210 HD
ENDBRANCH  14  15
ENDBRANCH   5  14
BRANCH   4  17
ATOM     17  O   UNL     1       5.096  -0.849  15.190  1.00  0.00    -0.387 OA
ATOM     18  H   UNL     1       5.933  -0.316  15.168  1.00  0.00     0.211 HD
ENDBRANCH   4  17
TORSDOF 7
ENDMDL
MODEL 9
REMARK VINA RESULT:    -4.348     12.805     14.496
REMARK INTER + INTRA:          -5.855
REMARK INTER:                  -5.452
REMARK INTRA:                  -0.403
REMARK UNBOUND:                -0.236
REMARK SMILES CCO[C@H]1O[C@@H](CO)[C@@H](O)[C@H](O)[C@H]1O
REMARK SMILES IDX 4 1 13 2 11 3 9 4 6 5 5 6 3 7 2 8 1 9 14 10 12 12 7 14 8 15
REMARK SMILES IDX 10 17
REMARK H PARENT 14 11 12 13 8 16 10 18
REMARK Flexibility Score: inf
ROOT
ATOM      1  C   UNL     1       1.266  -0.510   9.324  1.00  0.00     0.281 C 
ATOM      2  C   UNL     1      -0.122   0.073   8.908  1.00  0.00     0.202 C 
ATOM      3  C   UNL     1      -1.269  -0.793   9.464  1.00  0.00     0.179 C 
ATOM      4  C   UNL     1      -1.107  -2.270   9.017  1.00  0.00     0.177 C 
ATOM      5  C   UNL     1       0.386  -2.602   8.736  1.00  0.00     0.178 C 
ATOM      6  O   UNL     1       1.206  -1.898   9.648  1.00  0.00    -0.341 OA
ENDROOT
BRANCH   1   7
ATOM      7  O   UNL     1       1.751   0.194  10.453  1.00  0.00    -0.350 OA
BRANCH   7   8
ATOM      8  C   UNL     1       2.466  -0.675  11.308  1.00  0.00     0.160 C 
ATOM      9  C   UNL     1       3.290   0.151  12.283  1.00  0.00     0.035 C 
ENDBRANCH   7   8
ENDBRANCH   1   7
BRANCH   2  10
ATOM     10  O   UNL     1      -0.258   1.424   9.282  1.00  0.00    -0.385 OA
ATOM     11  H   UNL     1      -0.082   1.492  10.257  1.00  0.00     0.211 HD
ENDBRANCH   2  10
BRANCH   3  12
ATOM     12  O   UNL     1      -2.498  -0.283   9.017  1.00  0.00    -0.387 OA
ATOM     13  H   UNL     1      -2.831  -0.908   8.322  1.00  0.00     0.211 HD
ENDBRANCH   3  12
BRANCH   5  14
ATOM     14  C   UNL     1       0.703  -4.103   8.828  1.00  0.00     0.191 C 
BRANCH  14  15
ATOM     15  O   UNL     1      -0.214  -4.852   8.077  1.00  0.00    -0.394 OA
ATOM     16  H   UNL     1      -0.761  -5.371   8.722  1.00  0.00     0.210 HD
ENDBRANCH  14  15
ENDBRANCH   5  14
BRANCH   4  17
ATOM     17  O   UNL     1      -1.620  -3.111  10.019  1.00  0.00    -0.387 OA
ATOM     18  H   UNL     1      -1.716  -4.014   9.618  1.00  0.00     0.211 HD
ENDBRANCH   4  17
TORSDOF 7
ENDMDL
