MODEL 1
REMARK VINA RESULT:    -4.532      0.000      0.000
REMARK INTER + INTRA:          -5.734
REMARK INTER:                  -5.592
REMARK INTRA:                  -0.142
REMARK UNBOUND:                -0.142
REMARK SMILES CCCCC=CC(C)=O
REMARK SMILES IDX 4 1 3 2 2 3 1 4 5 5 6 6 7 7 9 8 8 9
REMARK H PARENT
REMARK Flexibility Score: inf
ROOT
ATOM      1  C   UNL     1     -26.571  20.401 -34.259  1.00  0.00     0.027 C 
ENDROOT
BRANCH   1   2
ATOM      2  C   UNL     1     -27.707  20.546 -33.236  1.00  0.00     0.004 C 
BRANCH   2   3
ATOM      3  C   UNL     1     -28.395  19.208 -32.926  1.00  0.00    -0.003 C 
ATOM      4  C   UNL     1     -29.909  19.259 -33.128  1.00  0.00     0.004 C 
ENDBRANCH   2   3
ENDBRANCH   1   2
BRANCH   1   5
ATOM      5  C   UNL     1     -25.231  20.379 -33.581  1.00  0.00    -0.023 C 
ATOM      6  C   UNL     1     -24.773  19.278 -32.975  1.00  0.00     0.042 C 
BRANCH   6   7
ATOM      7  C   UNL     1     -23.469  19.213 -32.284  1.00  0.00     0.152 C 
ATOM      8  O   UNL     1     -23.048  18.092 -31.892  1.00  0.00    -0.295 OA
ATOM      9  C   UNL     1     -22.631  20.430 -32.034  1.00  0.00     0.093 C 
ENDBRANCH   6   7
ENDBRANCH   1   5
TORSDOF 4
ENDMDL
MODEL 2
REMARK VINA RESULT:    -4.479      2.321      5.074
REMARK INTER + INTRA:          -5.669
REMARK INTER:                  -5.473
REMARK INTRA:                  -0.196
REMARK UNBOUND:                -0.142
REMARK SMILES CCCCC=CC(C)=O
REMARK SMILES IDX 4 1 3 2 2 3 1 4 5 5 6 6 7 7 9 8 8 9
REMARK H PARENT
REMARK Flexibility Score: inf
ROOT
ATOM      1  C   UNL     1     -23.824  19.648 -34.225  1.00  0.00     0.027 C 
ENDROOT
BRANCH   1   2
ATOM      2  C   UNL     1     -22.613  20.353 -33.594  1.00  0.00     0.004 C 
BRANCH   2   3
ATOM      3  C   UNL     1     -23.009  21.274 -32.430  1.00  0.00    -0.003 C 
ATOM      4  C   UNL     1     -22.422  20.823 -31.093  1.00  0.00     0.004 C 
ENDBRANCH   2   3
ENDBRANCH   1   2
BRANCH   1   5
ATOM      5  C   UNL     1     -25.102  20.060 -33.551  1.00  0.00    -0.023 C 
ATOM      6  C   UNL     1     -26.133  20.549 -34.249  1.00  0.00     0.042 C 
BRANCH   6   7
ATOM      7  C   UNL     1     -27.403  20.979 -33.629  1.00  0.00     0.152 C 
ATOM      8  O   UNL     1     -27.511  22.173 -33.240  1.00  0.00    -0.295 OA
ATOM      9  C   UNL     1     -28.564  20.049 -33.447  1.00  0.00     0.093 C 
ENDBRANCH   6   7
ENDBRANCH   1   5
TORSDOF 4
ENDMDL
MODEL 3
REMARK VINA RESULT:    -4.403      1.838      4.947
REMARK INTER + INTRA:          -5.575
REMARK INTER:                  -5.413
REMARK INTRA:                  -0.162
REMARK UNBOUND:                -0.142
REMARK SMILES CCCCC=CC(C)=O
REMARK SMILES IDX 4 1 3 2 2 3 1 4 5 5 6 6 7 7 9 8 8 9
REMARK H PARENT
REMARK Flexibility Score: inf
ROOT
ATOM      1  C   UNL     1     -24.891  20.344 -34.213  1.00  0.00     0.027 C 
ENDROOT
BRANCH   1   2
ATOM      2  C   UNL     1     -23.465  19.819 -33.983  1.00  0.00     0.004 C 
BRANCH   2   3
ATOM      3  C   UNL     1     -22.628  20.756 -33.099  1.00  0.00    -0.003 C 
ATOM      4  C   UNL     1     -22.618  20.333 -31.631  1.00  0.00     0.004 C 
ENDBRANCH   2   3
ENDBRANCH   1   2
BRANCH   1   5
ATOM      5  C   UNL     1     -25.901  19.500 -33.491  1.00  0.00    -0.023 C 
ATOM      6  C   UNL     1     -27.206  19.796 -33.520  1.00  0.00     0.042 C 
BRANCH   6   7
ATOM      7  C   UNL     1     -28.234  19.003 -32.814  1.00  0.00     0.152 C 
ATOM      8  O   UNL     1     -27.860  18.074 -32.051  1.00  0.00    -0.295 OA
ATOM      9  C   UNL     1     -29.701  19.266 -32.974  1.00  0.00     0.093 C 
ENDBRANCH   6   7
ENDBRANCH   1   5
TORSDOF 4
ENDMDL
MODEL 4
REMARK VINA RESULT:    -4.179      1.606      2.196
REMARK INTER + INTRA:          -5.298
REMARK INTER:                  -5.435
REMARK INTRA:                   0.136
REMARK UNBOUND:                -0.142
REMARK SMILES CCCCC=CC(C)=O
REMARK SMILES IDX 4 1 3 2 2 3 1 4 5 5 6 6 7 7 9 8 8 9
REMARK H PARENT
REMARK Flexibility Score: inf
ROOT
ATOM      1  C   UNL     1     -27.269  19.196 -33.378  1.00  0.00     0.027 C 
ENDROOT
BRANCH   1   2
ATOM      2  C   UNL     1     -28.102  20.483 -33.280  1.00  0.00     0.004 C 
BRANCH   2   3
ATOM      3  C   UNL     1     -27.235  21.751 -33.330  1.00  0.00    -0.003 C 
ATOM      4  C   UNL     1     -27.952  22.981 -32.776  1.00  0.00     0.004 C 
ENDBRANCH   2   3
ENDBRANCH   1   2
BRANCH   1   5
ATOM      5  C   UNL     1     -25.827  19.458 -33.051  1.00  0.00    -0.023 C 
ATOM      6  C   UNL     1     -24.939  19.766 -34.003  1.00  0.00     0.042 C 
BRANCH   6   7
ATOM      7  C   UNL     1     -23.509  20.019 -33.731  1.00  0.00     0.152 C 
ATOM      8  O   UNL     1     -22.647  19.416 -34.424  1.00  0.00    -0.295 OA
ATOM      9  C   UNL     1     -23.050  20.965 -32.663  1.00  0.00     0.093 C 
ENDBRANCH   6   7
ENDBRANCH   1   5
TORSDOF 4
ENDMDL
MODEL 5
REMARK VINA RESULT:    -4.154      6.873      7.525
REMARK INTER + INTRA:          -5.267
REMARK INTER:                  -5.066
REMARK INTRA:                  -0.202
REMARK UNBOUND:                -0.142
REMARK SMILES CCCCC=CC(C)=O
REMARK SMILES IDX 4 1 3 2 2 3 1 4 5 5 6 6 7 7 9 8 8 9
REMARK H PARENT
REMARK Flexibility Score: inf
ROOT
ATOM      1  C   UNL     1     -26.984  12.044 -29.306  1.00  0.00     0.027 C 
ENDROOT
BRANCH   1   2
ATOM      2  C   UNL     1     -27.814  12.288 -28.037  1.00  0.00     0.004 C 
BRANCH   2   3
ATOM      3  C   UNL     1     -29.324  12.147 -28.285  1.00  0.00    -0.003 C 
ATOM      4  C   UNL     1     -29.684  12.161 -29.770  1.00  0.00     0.004 C 
ENDBRANCH   2   3
ENDBRANCH   1   2
BRANCH   1   5
ATOM      5  C   UNL     1     -25.796  12.961 -29.361  1.00  0.00    -0.023 C 
ATOM      6  C   UNL     1     -25.585  13.769 -30.406  1.00  0.00     0.042 C 
BRANCH   6   7
ATOM      7  C   UNL     1     -24.425  14.677 -30.510  1.00  0.00     0.152 C 
ATOM      8  O   UNL     1     -24.634  15.902 -30.718  1.00  0.00    -0.295 OA
ATOM      9  C   UNL     1     -23.012  14.196 -30.375  1.00  0.00     0.093 C 
ENDBRANCH   6   7
ENDBRANCH   1   5
TORSDOF 4
ENDMDL
MODEL 6
REMARK VINA RESULT:    -4.064      6.397      7.075
REMARK INTER + INTRA:          -5.157
REMARK INTER:                  -4.982
REMARK INTRA:                  -0.175
REMARK UNBOUND:                -0.142
REMARK SMILES CCCCC=CC(C)=O
REMARK SMILES IDX 4 1 3 2 2 3 1 4 5 5 6 6 7 7 9 8 8 9
REMARK H PARENT
REMARK Flexibility Score: inf
ROOT
ATOM      1  C   UNL     1     -25.722  12.219 -29.600  1.00  0.00     0.027 C 
ENDROOT
BRANCH   1   2
ATOM      2  C   UNL     1     -27.252  12.359 -29.622  1.00  0.00     0.004 C 
BRANCH   2   3
ATOM      3  C   UNL     1     -27.873  12.253 -28.221  1.00  0.00    -0.003 C 
ATOM      4  C   UNL     1     -29.400  12.247 -28.249  1.00  0.00     0.004 C 
ENDBRANCH   2   3
ENDBRANCH   1   2
BRANCH   1   5
ATOM      5  C   UNL     1     -25.055  13.493 -30.032  1.00  0.00    -0.023 C 
ATOM      6  C   UNL     1     -25.731  14.645 -30.106  1.00  0.00     0.042 C 
BRANCH   6   7
ATOM      7  C   UNL     1     -25.121  15.919 -30.538  1.00  0.00     0.152 C 
ATOM      8  O   UNL     1     -23.968  15.894 -31.045  1.00  0.00    -0.295 OA
ATOM      9  C   UNL     1     -25.823  17.235 -30.396  1.00  0.00     0.093 C 
ENDBRANCH   6   7
ENDBRANCH   1   5
TORSDOF 4
ENDMDL
MODEL 7
REMARK VINA RESULT:    -3.951     11.087     13.976
REMARK INTER + INTRA:          -5.017
REMARK INTER:                  -4.849
REMARK INTRA:                  -0.168
REMARK UNBOUND:                -0.142
REMARK SMILES CCCCC=CC(C)=O
REMARK SMILES IDX 4 1 3 2 2 3 1 4 5 5 6 6 7 7 9 8 8 9
REMARK H PARENT
REMARK Flexibility Score: inf
ROOT
ATOM      1  C   UNL     1     -12.862  13.494 -31.711  1.00  0.00     0.027 C 
ENDROOT
BRANCH   1   2
ATOM      2  C   UNL     1     -12.182  14.703 -32.371  1.00  0.00     0.004 C 
BRANCH   2   3
ATOM      3  C   UNL     1     -10.820  14.348 -32.988  1.00  0.00    -0.003 C 
ATOM      4  C   UNL     1     -10.810  12.969 -33.646  1.00  0.00     0.004 C 
ENDBRANCH   2   3
ENDBRANCH   1   2
BRANCH   1   5
ATOM      5  C   UNL     1     -14.308  13.779 -31.419  1.00  0.00    -0.023 C 
ATOM      6  C   UNL     1     -15.285  13.310 -32.204  1.00  0.00     0.042 C 
BRANCH   6   7
ATOM      7  C   UNL     1     -16.718  13.576 -31.964  1.00  0.00     0.152 C 
ATOM      8  O   UNL     1     -17.316  14.388 -32.719  1.00  0.00    -0.295 OA
ATOM      9  C   UNL     1     -17.484  12.914 -30.859  1.00  0.00     0.093 C 
ENDBRANCH   6   7
ENDBRANCH   1   5
TORSDOF 4
ENDMDL
MODEL 8
REMARK VINA RESULT:    -3.797     11.358     12.653
REMARK INTER + INTRA:          -4.828
REMARK INTER:                  -4.588
REMARK INTRA:                  -0.240
REMARK UNBOUND:                -0.142
REMARK SMILES CCCCC=CC(C)=O
REMARK SMILES IDX 4 1 3 2 2 3 1 4 5 5 6 6 7 7 9 8 8 9
REMARK H PARENT
REMARK Flexibility Score: inf
ROOT
ATOM      1  C   UNL     1     -16.980  13.154 -28.214  1.00  0.00     0.027 C 
ENDROOT
BRANCH   1   2
ATOM      2  C   UNL     1     -17.131  11.627 -28.288  1.00  0.00     0.004 C 
BRANCH   2   3
ATOM      3  C   UNL     1     -16.318  10.903 -27.204  1.00  0.00    -0.003 C 
ATOM      4  C   UNL     1     -15.079  11.685 -26.770  1.00  0.00     0.004 C 
ENDBRANCH   2   3
ENDBRANCH   1   2
BRANCH   1   5
ATOM      5  C   UNL     1     -16.584  13.724 -29.546  1.00  0.00    -0.023 C 
ATOM      6  C   UNL     1     -16.841  13.074 -30.688  1.00  0.00     0.042 C 
BRANCH   6   7
ATOM      7  C   UNL     1     -16.460  13.588 -32.019  1.00  0.00     0.152 C 
ATOM      8  O   UNL     1     -17.278  14.317 -32.641  1.00  0.00    -0.295 OA
ATOM      9  C   UNL     1     -15.138  13.276 -32.653  1.00  0.00     0.093 C 
ENDBRANCH   6   7
ENDBRANCH   1   5
TORSDOF 4
ENDMDL
MODEL 9
REMARK VINA RESULT:    -3.722     10.598     11.705
REMARK INTER + INTRA:          -4.735
REMARK INTER:                  -4.454
REMARK INTRA:                  -0.281
REMARK UNBOUND:                -0.142
REMARK SMILES CCCCC=CC(C)=O
REMARK SMILES IDX 4 1 3 2 2 3 1 4 5 5 6 6 7 7 9 8 8 9
REMARK H PARENT
REMARK Flexibility Score: inf
ROOT
ATOM      1  C   UNL     1     -17.328  13.542 -28.648  1.00  0.00     0.027 C 
ENDROOT
BRANCH   1   2
ATOM      2  C   UNL     1     -17.149  12.047 -28.954  1.00  0.00     0.004 C 
BRANCH   2   3
ATOM      3  C   UNL     1     -18.406  11.417 -29.572  1.00  0.00    -0.003 C 
ATOM      4  C   UNL     1     -19.562  12.407 -29.700  1.00  0.00     0.004 C 
ENDBRANCH   2   3
ENDBRANCH   1   2
BRANCH   1   5
ATOM      5  C   UNL     1     -16.292  14.367 -29.355  1.00  0.00    -0.023 C 
ATOM      6  C   UNL     1     -15.775  13.984 -30.528  1.00  0.00     0.042 C 
BRANCH   6   7
ATOM      7  C   UNL     1     -14.745  14.756 -31.253  1.00  0.00     0.152 C 
ATOM      8  O   UNL     1     -14.428  14.395 -32.418  1.00  0.00    -0.295 OA
ATOM      9  C   UNL     1     -14.066  15.950 -30.654  1.00  0.00     0.093 C 
ENDBRANCH   6   7
ENDBRANCH   1   5
TORSDOF 4
ENDMDL
