MODEL 1
REMARK VINA RESULT:    -5.412      0.000      0.000
REMARK INTER + INTRA:         -12.647
REMARK INTER:                 -10.475
REMARK INTRA:                  -2.172
REMARK UNBOUND:                -2.172
REMARK SMILES CCCCCCCCCCCCCCCCCC(=O)[O-]
REMARK SMILES IDX 10 1 11 2 12 3 13 4 14 5 15 6 16 7 17 8 18 9 19 10 20 11
REMARK SMILES IDX 9 12 8 13 7 14 6 15 5 16 4 17 3 18 2 19 1 20
REMARK H PARENT
REMARK Flexibility Score: inf
ROOT
ATOM      1  C   UNL     1     -19.071  44.738  -6.475  1.00  0.00     0.000 C 
ENDROOT
BRANCH   1   2
ATOM      2  C   UNL     1     -19.386  44.313  -7.918  1.00  0.00     0.000 C 
BRANCH   2   3
ATOM      3  C   UNL     1     -19.219  42.803  -8.143  1.00  0.00     0.000 C 
BRANCH   3   4
ATOM      4  C   UNL     1     -18.457  42.153  -6.977  1.00  0.00     0.000 C 
BRANCH   4   5
ATOM      5  C   UNL     1     -18.049  40.696  -7.280  1.00  0.00     0.000 C 
BRANCH   5   6
ATOM      6  C   UNL     1     -17.456  39.952  -6.068  1.00  0.00     0.000 C 
BRANCH   6   7
ATOM      7  C   UNL     1     -17.952  40.445  -4.695  1.00  0.00     0.006 C 
BRANCH   7   8
ATOM      8  C   UNL     1     -16.842  40.977  -3.775  1.00  0.00     0.053 C 
BRANCH   8   9
ATOM      9  C   UNL     1     -16.941  42.458  -3.576  1.00  0.00     0.041 C 
ATOM     10  O   UNL     1     -17.786  42.934  -2.773  1.00  0.00    -0.550 OA
ATOM     11  O   UNL     1     -16.123  43.313  -4.303  1.00  0.00    -0.550 OA
ENDBRANCH   8   9
ENDBRANCH   7   8
ENDBRANCH   6   7
ENDBRANCH   5   6
ENDBRANCH   4   5
ENDBRANCH   3   4
ENDBRANCH   2   3
ENDBRANCH   1   2
BRANCH   1  12
ATOM     12  C   UNL     1     -19.374  46.225  -6.216  1.00  0.00     0.000 C 
BRANCH  12  13
ATOM     13  C   UNL     1     -20.664  46.692  -6.910  1.00  0.00    -0.000 C 
BRANCH  13  14
ATOM     14  C   UNL     1     -21.917  46.455  -6.048  1.00  0.00    -0.000 C 
BRANCH  14  15
ATOM     15  C   UNL     1     -22.812  45.335  -6.602  1.00  0.00    -0.000 C 
BRANCH  15  16
ATOM     16  C   UNL     1     -23.084  44.227  -5.575  1.00  0.00    -0.000 C 
BRANCH  16  17
ATOM     17  C   UNL     1     -22.439  42.903  -6.014  1.00  0.00    -0.000 C 
BRANCH  17  18
ATOM     18  C   UNL     1     -23.458  41.912  -6.601  1.00  0.00    -0.000 C 
BRANCH  18  19
ATOM     19  C   UNL     1     -22.994  40.452  -6.493  1.00  0.00    -0.003 C 
ATOM     20  C   UNL     1     -21.518  40.373  -6.115  1.00  0.00     0.004 C 
ENDBRANCH  18  19
ENDBRANCH  17  18
ENDBRANCH  16  17
ENDBRANCH  15  16
ENDBRANCH  14  15
ENDBRANCH  13  14
ENDBRANCH  12  13
ENDBRANCH   1  12
TORSDOF 16
ENDMDL
MODEL 2
REMARK VINA RESULT:    -5.408      2.828      5.850
REMARK INTER + INTRA:         -12.640
REMARK INTER:                  -9.982
REMARK INTRA:                  -2.658
REMARK UNBOUND:                -2.172
REMARK SMILES CCCCCCCCCCCCCCCCCC(=O)[O-]
REMARK SMILES IDX 10 1 11 2 12 3 13 4 14 5 15 6 16 7 17 8 18 9 19 10 20 11
REMARK SMILES IDX 9 12 8 13 7 14 6 15 5 16 4 17 3 18 2 19 1 20
REMARK H PARENT
REMARK Flexibility Score: inf
ROOT
ATOM      1  C   UNL     1     -16.071  41.141  -3.896  1.00  0.00     0.000 C 
ENDROOT
BRANCH   1   2
ATOM      2  C   UNL     1     -16.324  42.657  -3.877  1.00  0.00     0.000 C 
BRANCH   2   3
ATOM      3  C   UNL     1     -17.784  43.020  -4.183  1.00  0.00     0.000 C 
BRANCH   3   4
ATOM      4  C   UNL     1     -17.892  43.815  -5.494  1.00  0.00     0.000 C 
BRANCH   4   5
ATOM      5  C   UNL     1     -19.300  43.729  -6.121  1.00  0.00     0.000 C 
BRANCH   5   6
ATOM      6  C   UNL     1     -19.289  43.554  -7.652  1.00  0.00     0.000 C 
BRANCH   6   7
ATOM      7  C   UNL     1     -20.484  44.188  -8.388  1.00  0.00     0.006 C 
BRANCH   7   8
ATOM      8  C   UNL     1     -21.642  44.608  -7.470  1.00  0.00     0.053 C 
BRANCH   8   9
ATOM      9  C   UNL     1     -22.924  43.926  -7.836  1.00  0.00     0.041 C 
ATOM     10  O   UNL     1     -23.341  43.956  -9.024  1.00  0.00    -0.550 OA
ATOM     11  O   UNL     1     -23.675  43.285  -6.859  1.00  0.00    -0.550 OA
ENDBRANCH   8   9
ENDBRANCH   7   8
ENDBRANCH   6   7
ENDBRANCH   5   6
ENDBRANCH   4   5
ENDBRANCH   3   4
ENDBRANCH   2   3
ENDBRANCH   1   2
BRANCH   1  12
ATOM     12  C   UNL     1     -17.327  40.336  -4.272  1.00  0.00     0.000 C 
BRANCH  12  13
ATOM     13  C   UNL     1     -17.156  39.556  -5.586  1.00  0.00    -0.000 C 
BRANCH  13  14
ATOM     14  C   UNL     1     -17.622  40.360  -6.814  1.00  0.00    -0.000 C 
BRANCH  14  15
ATOM     15  C   UNL     1     -18.070  39.458  -7.975  1.00  0.00    -0.000 C 
BRANCH  15  16
ATOM     16  C   UNL     1     -19.111  40.129  -8.882  1.00  0.00    -0.000 C 
BRANCH  16  17
ATOM     17  C   UNL     1     -20.494  39.485  -8.699  1.00  0.00    -0.000 C 
BRANCH  17  18
ATOM     18  C   UNL     1     -21.557  40.487  -8.217  1.00  0.00    -0.000 C 
BRANCH  18  19
ATOM     19  C   UNL     1     -22.046  40.191  -6.792  1.00  0.00    -0.003 C 
ATOM     20  C   UNL     1     -21.093  40.771  -5.753  1.00  0.00     0.004 C 
ENDBRANCH  18  19
ENDBRANCH  17  18
ENDBRANCH  16  17
ENDBRANCH  15  16
ENDBRANCH  14  15
ENDBRANCH  13  14
ENDBRANCH  12  13
ENDBRANCH   1  12
TORSDOF 16
ENDMDL
MODEL 3
REMARK VINA RESULT:    -5.399      3.440      6.738
REMARK INTER + INTRA:         -12.622
REMARK INTER:                 -10.708
REMARK INTRA:                  -1.914
REMARK UNBOUND:                -2.172
REMARK SMILES CCCCCCCCCCCCCCCCCC(=O)[O-]
REMARK SMILES IDX 10 1 11 2 12 3 13 4 14 5 15 6 16 7 17 8 18 9 19 10 20 11
REMARK SMILES IDX 9 12 8 13 7 14 6 15 5 16 4 17 3 18 2 19 1 20
REMARK H PARENT
REMARK Flexibility Score: inf
ROOT
ATOM      1  C   UNL     1     -21.573  41.064  -8.679  1.00  0.00     0.000 C 
ENDROOT
BRANCH   1   2
ATOM      2  C   UNL     1     -21.558  40.072  -7.504  1.00  0.00     0.000 C 
BRANCH   2   3
ATOM      3  C   UNL     1     -22.692  40.324  -6.500  1.00  0.00     0.000 C 
BRANCH   3   4
ATOM      4  C   UNL     1     -23.259  41.744  -6.652  1.00  0.00     0.000 C 
BRANCH   4   5
ATOM      5  C   UNL     1     -22.632  42.738  -5.651  1.00  0.00     0.000 C 
BRANCH   5   6
ATOM      6  C   UNL     1     -22.354  44.130  -6.250  1.00  0.00     0.000 C 
BRANCH   6   7
ATOM      7  C   UNL     1     -23.203  45.274  -5.662  1.00  0.00     0.006 C 
BRANCH   7   8
ATOM      8  C   UNL     1     -23.877  46.167  -6.715  1.00  0.00     0.053 C 
BRANCH   8   9
ATOM      9  C   UNL     1     -25.190  45.607  -7.167  1.00  0.00     0.041 C 
ATOM     10  O   UNL     1     -25.246  44.860  -8.179  1.00  0.00    -0.550 OA
ATOM     11  O   UNL     1     -26.358  45.939  -6.491  1.00  0.00    -0.550 OA
ENDBRANCH   8   9
ENDBRANCH   7   8
ENDBRANCH   6   7
ENDBRANCH   5   6
ENDBRANCH   4   5
ENDBRANCH   3   4
ENDBRANCH   2   3
ENDBRANCH   1   2
BRANCH   1  12
ATOM     12  C   UNL     1     -20.306  41.935  -8.733  1.00  0.00     0.000 C 
BRANCH  12  13
ATOM     13  C   UNL     1     -19.018  41.113  -8.565  1.00  0.00    -0.000 C 
BRANCH  13  14
ATOM     14  C   UNL     1     -18.249  41.476  -7.282  1.00  0.00    -0.000 C 
BRANCH  14  15
ATOM     15  C   UNL     1     -18.577  42.891  -6.778  1.00  0.00    -0.000 C 
BRANCH  15  16
ATOM     16  C   UNL     1     -18.623  42.982  -5.245  1.00  0.00    -0.000 C 
BRANCH  16  17
ATOM     17  C   UNL     1     -17.244  43.350  -4.677  1.00  0.00    -0.000 C 
BRANCH  17  18
ATOM     18  C   UNL     1     -16.832  42.456  -3.495  1.00  0.00    -0.000 C 
BRANCH  18  19
ATOM     19  C   UNL     1     -15.938  41.284  -3.924  1.00  0.00    -0.003 C 
ATOM     20  C   UNL     1     -16.757  40.011  -4.114  1.00  0.00     0.004 C 
ENDBRANCH  18  19
ENDBRANCH  17  18
ENDBRANCH  16  17
ENDBRANCH  15  16
ENDBRANCH  14  15
ENDBRANCH  13  14
ENDBRANCH  12  13
ENDBRANCH   1  12
TORSDOF 16
ENDMDL
MODEL 4
REMARK VINA RESULT:    -5.396      3.390      7.241
REMARK INTER + INTRA:         -12.615
REMARK INTER:                 -10.598
REMARK INTRA:                  -2.017
REMARK UNBOUND:                -2.172
REMARK SMILES CCCCCCCCCCCCCCCCCC(=O)[O-]
REMARK SMILES IDX 10 1 11 2 12 3 13 4 14 5 15 6 16 7 17 8 18 9 19 10 20 11
REMARK SMILES IDX 9 12 8 13 7 14 6 15 5 16 4 17 3 18 2 19 1 20
REMARK H PARENT
REMARK Flexibility Score: inf
ROOT
ATOM      1  C   UNL     1     -21.444  40.509  -6.198  1.00  0.00     0.000 C 
ENDROOT
BRANCH   1   2
ATOM      2  C   UNL     1     -22.960  40.482  -6.457  1.00  0.00     0.000 C 
BRANCH   2   3
ATOM      3  C   UNL     1     -23.533  41.870  -6.780  1.00  0.00     0.000 C 
BRANCH   3   4
ATOM      4  C   UNL     1     -23.237  42.865  -5.647  1.00  0.00     0.000 C 
BRANCH   4   5
ATOM      5  C   UNL     1     -22.387  44.063  -6.123  1.00  0.00     0.000 C 
BRANCH   5   6
ATOM      6  C   UNL     1     -22.486  44.332  -7.637  1.00  0.00     0.000 C 
BRANCH   6   7
ATOM      7  C   UNL     1     -23.330  45.561  -8.025  1.00  0.00     0.006 C 
BRANCH   7   8
ATOM      8  C   UNL     1     -24.747  45.225  -8.518  1.00  0.00     0.053 C 
BRANCH   8   9
ATOM      9  C   UNL     1     -25.797  45.663  -7.545  1.00  0.00     0.041 C 
ATOM     10  O   UNL     1     -26.828  46.261  -7.952  1.00  0.00    -0.550 OA
ATOM     11  O   UNL     1     -25.621  45.442  -6.185  1.00  0.00    -0.550 OA
ENDBRANCH   8   9
ENDBRANCH   7   8
ENDBRANCH   6   7
ENDBRANCH   5   6
ENDBRANCH   4   5
ENDBRANCH   3   4
ENDBRANCH   2   3
ENDBRANCH   1   2
BRANCH   1  12
ATOM     12  C   UNL     1     -20.623  40.597  -7.497  1.00  0.00     0.000 C 
BRANCH  12  13
ATOM     13  C   UNL     1     -19.750  41.861  -7.557  1.00  0.00    -0.000 C 
BRANCH  13  14
ATOM     14  C   UNL     1     -18.281  41.582  -7.188  1.00  0.00    -0.000 C 
BRANCH  14  15
ATOM     15  C   UNL     1     -17.950  40.080  -7.183  1.00  0.00    -0.000 C 
BRANCH  15  16
ATOM     16  C   UNL     1     -17.158  39.650  -5.939  1.00  0.00    -0.000 C 
BRANCH  16  17
ATOM     17  C   UNL     1     -17.585  40.465  -4.709  1.00  0.00    -0.000 C 
BRANCH  17  18
ATOM     18  C   UNL     1     -16.398  40.848  -3.809  1.00  0.00    -0.000 C 
BRANCH  18  19
ATOM     19  C   UNL     1     -16.371  42.344  -3.469  1.00  0.00    -0.003 C 
ATOM     20  C   UNL     1     -17.637  43.041  -3.959  1.00  0.00     0.004 C 
ENDBRANCH  18  19
ENDBRANCH  17  18
ENDBRANCH  16  17
ENDBRANCH  15  16
ENDBRANCH  14  15
ENDBRANCH  13  14
ENDBRANCH  12  13
ENDBRANCH   1  12
TORSDOF 16
ENDMDL
MODEL 5
REMARK VINA RESULT:    -5.377     11.779     14.239
REMARK INTER + INTRA:         -12.578
REMARK INTER:                 -10.616
REMARK INTRA:                  -1.962
REMARK UNBOUND:                -2.172
REMARK SMILES CCCCCCCCCCCCCCCCCC(=O)[O-]
REMARK SMILES IDX 10 1 11 2 12 3 13 4 14 5 15 6 16 7 17 8 18 9 19 10 20 11
REMARK SMILES IDX 9 12 8 13 7 14 6 15 5 16 4 17 3 18 2 19 1 20
REMARK H PARENT
REMARK Flexibility Score: inf
ROOT
ATOM      1  C   UNL     1     -22.354  36.143   5.968  1.00  0.00     0.000 C 
ENDROOT
BRANCH   1   2
ATOM      2  C   UNL     1     -22.167  37.409   5.116  1.00  0.00     0.000 C 
BRANCH   2   3
ATOM      3  C   UNL     1     -22.764  38.662   5.773  1.00  0.00     0.000 C 
BRANCH   3   4
ATOM      4  C   UNL     1     -21.669  39.511   6.438  1.00  0.00     0.000 C 
BRANCH   4   5
ATOM      5  C   UNL     1     -20.640  40.047   5.419  1.00  0.00     0.000 C 
BRANCH   5   6
ATOM      6  C   UNL     1     -21.278  40.729   4.193  1.00  0.00     0.000 C 
BRANCH   6   7
ATOM      7  C   UNL     1     -20.443  41.865   3.573  1.00  0.00     0.006 C 
BRANCH   7   8
ATOM      8  C   UNL     1     -19.247  42.312   4.429  1.00  0.00     0.053 C 
BRANCH   8   9
ATOM      9  C   UNL     1     -18.964  43.774   4.277  1.00  0.00     0.041 C 
ATOM     10  O   UNL     1     -18.483  44.430   5.239  1.00  0.00    -0.550 OA
ATOM     11  O   UNL     1     -19.264  44.421   3.084  1.00  0.00    -0.550 OA
ENDBRANCH   8   9
ENDBRANCH   7   8
ENDBRANCH   6   7
ENDBRANCH   5   6
ENDBRANCH   4   5
ENDBRANCH   3   4
ENDBRANCH   2   3
ENDBRANCH   1   2
BRANCH   1  12
ATOM     12  C   UNL     1     -21.018  35.472   6.332  1.00  0.00     0.000 C 
BRANCH  12  13
ATOM     13  C   UNL     1     -19.816  36.413   6.146  1.00  0.00    -0.000 C 
BRANCH  13  14
ATOM     14  C   UNL     1     -19.078  36.695   7.467  1.00  0.00    -0.000 C 
BRANCH  14  15
ATOM     15  C   UNL     1     -19.724  35.985   8.667  1.00  0.00    -0.000 C 
BRANCH  15  16
ATOM     16  C   UNL     1     -20.478  36.950   9.595  1.00  0.00    -0.000 C 
BRANCH  16  17
ATOM     17  C   UNL     1     -21.975  36.608   9.640  1.00  0.00    -0.000 C 
BRANCH  17  18
ATOM     18  C   UNL     1     -22.862  37.758   9.135  1.00  0.00    -0.000 C 
BRANCH  18  19
ATOM     19  C   UNL     1     -24.261  37.286   8.715  1.00  0.00    -0.003 C 
ATOM     20  C   UNL     1     -25.257  37.435   9.860  1.00  0.00     0.004 C 
ENDBRANCH  18  19
ENDBRANCH  17  18
ENDBRANCH  16  17
ENDBRANCH  15  16
ENDBRANCH  14  15
ENDBRANCH  13  14
ENDBRANCH  12  13
ENDBRANCH   1  12
TORSDOF 16
ENDMDL
MODEL 6
REMARK VINA RESULT:    -5.325      1.237      3.531
REMARK INTER + INTRA:         -12.479
REMARK INTER:                  -9.984
REMARK INTRA:                  -2.494
REMARK UNBOUND:                -2.172
REMARK SMILES CCCCCCCCCCCCCCCCCC(=O)[O-]
REMARK SMILES IDX 10 1 11 2 12 3 13 4 14 5 15 6 16 7 17 8 18 9 19 10 20 11
REMARK SMILES IDX 9 12 8 13 7 14 6 15 5 16 4 17 3 18 2 19 1 20
REMARK H PARENT
REMARK Flexibility Score: inf
ROOT
ATOM      1  C   UNL     1     -21.280  40.464  -6.844  1.00  0.00     0.000 C 
ENDROOT
BRANCH   1   2
ATOM      2  C   UNL     1     -21.005  40.304  -8.348  1.00  0.00     0.000 C 
BRANCH   2   3
ATOM      3  C   UNL     1     -19.759  39.454  -8.638  1.00  0.00     0.000 C 
BRANCH   3   4
ATOM      4  C   UNL     1     -18.473  40.246  -8.356  1.00  0.00     0.000 C 
BRANCH   4   5
ATOM      5  C   UNL     1     -17.680  39.676  -7.161  1.00  0.00     0.000 C 
BRANCH   5   6
ATOM      6  C   UNL     1     -17.417  40.704  -6.043  1.00  0.00     0.000 C 
BRANCH   6   7
ATOM      7  C   UNL     1     -17.378  40.121  -4.618  1.00  0.00     0.006 C 
BRANCH   7   8
ATOM      8  C   UNL     1     -16.349  40.786  -3.690  1.00  0.00     0.053 C 
BRANCH   8   9
ATOM      9  C   UNL     1     -16.586  42.258  -3.554  1.00  0.00     0.041 C 
ATOM     10  O   UNL     1     -15.753  43.080  -4.020  1.00  0.00    -0.550 OA
ATOM     11  O   UNL     1     -17.710  42.723  -2.882  1.00  0.00    -0.550 OA
ENDBRANCH   8   9
ENDBRANCH   7   8
ENDBRANCH   6   7
ENDBRANCH   5   6
ENDBRANCH   4   5
ENDBRANCH   3   4
ENDBRANCH   2   3
ENDBRANCH   1   2
BRANCH   1  12
ATOM     12  C   UNL     1     -22.783  40.532  -6.521  1.00  0.00     0.000 C 
BRANCH  12  13
ATOM     13  C   UNL     1     -23.246  41.955  -6.171  1.00  0.00    -0.000 C 
BRANCH  13  14
ATOM     14  C   UNL     1     -23.699  42.750  -7.410  1.00  0.00    -0.000 C 
BRANCH  14  15
ATOM     15  C   UNL     1     -23.361  44.246  -7.306  1.00  0.00    -0.000 C 
BRANCH  15  16
ATOM     16  C   UNL     1     -21.865  44.504  -7.071  1.00  0.00    -0.000 C 
BRANCH  16  17
ATOM     17  C   UNL     1     -21.046  44.156  -8.324  1.00  0.00    -0.000 C 
BRANCH  17  18
ATOM     18  C   UNL     1     -19.600  43.750  -7.993  1.00  0.00    -0.000 C 
BRANCH  18  19
ATOM     19  C   UNL     1     -19.383  43.502  -6.494  1.00  0.00    -0.003 C 
ATOM     20  C   UNL     1     -18.401  44.511  -5.907  1.00  0.00     0.004 C 
ENDBRANCH  18  19
ENDBRANCH  17  18
ENDBRANCH  16  17
ENDBRANCH  15  16
ENDBRANCH  14  15
ENDBRANCH  13  14
ENDBRANCH  12  13
ENDBRANCH   1  12
TORSDOF 16
ENDMDL
MODEL 7
REMARK VINA RESULT:    -5.317      1.989      3.963
REMARK INTER + INTRA:         -12.463
REMARK INTER:                  -9.934
REMARK INTRA:                  -2.530
REMARK UNBOUND:                -2.172
REMARK SMILES CCCCCCCCCCCCCCCCCC(=O)[O-]
REMARK SMILES IDX 10 1 11 2 12 3 13 4 14 5 15 6 16 7 17 8 18 9 19 10 20 11
REMARK SMILES IDX 9 12 8 13 7 14 6 15 5 16 4 17 3 18 2 19 1 20
REMARK H PARENT
REMARK Flexibility Score: inf
ROOT
ATOM      1  C   UNL     1     -21.721  40.553  -6.378  1.00  0.00     0.000 C 
ENDROOT
BRANCH   1   2
ATOM      2  C   UNL     1     -20.932  40.315  -7.676  1.00  0.00     0.000 C 
BRANCH   2   3
ATOM      3  C   UNL     1     -20.467  41.620  -8.337  1.00  0.00     0.000 C 
BRANCH   3   4
ATOM      4  C   UNL     1     -18.980  41.883  -8.052  1.00  0.00     0.000 C 
BRANCH   4   5
ATOM      5  C   UNL     1     -18.767  43.034  -7.046  1.00  0.00     0.000 C 
BRANCH   5   6
ATOM      6  C   UNL     1     -17.997  42.617  -5.778  1.00  0.00     0.000 C 
BRANCH   6   7
ATOM      7  C   UNL     1     -18.881  42.218  -4.581  1.00  0.00     0.006 C 
BRANCH   7   8
ATOM      8  C   UNL     1     -18.845  40.720  -4.240  1.00  0.00     0.053 C 
BRANCH   8   9
ATOM      9  C   UNL     1     -17.578  40.070  -4.703  1.00  0.00     0.041 C 
ATOM     10  O   UNL     1     -16.573  40.026  -3.945  1.00  0.00    -0.550 OA
ATOM     11  O   UNL     1     -17.495  39.543  -5.986  1.00  0.00    -0.550 OA
ENDBRANCH   8   9
ENDBRANCH   7   8
ENDBRANCH   6   7
ENDBRANCH   5   6
ENDBRANCH   4   5
ENDBRANCH   3   4
ENDBRANCH   2   3
ENDBRANCH   1   2
BRANCH   1  12
ATOM     12  C   UNL     1     -23.204  40.873  -6.638  1.00  0.00     0.000 C 
BRANCH  12  13
ATOM     13  C   UNL     1     -23.573  42.313  -6.246  1.00  0.00    -0.000 C 
BRANCH  13  14
ATOM     14  C   UNL     1     -22.402  43.063  -5.586  1.00  0.00    -0.000 C 
BRANCH  14  15
ATOM     15  C   UNL     1     -22.151  44.440  -6.221  1.00  0.00    -0.000 C 
BRANCH  15  16
ATOM     16  C   UNL     1     -22.616  44.516  -7.683  1.00  0.00    -0.000 C 
BRANCH  16  17
ATOM     17  C   UNL     1     -23.647  45.639  -7.872  1.00  0.00    -0.000 C 
BRANCH  17  18
ATOM     18  C   UNL     1     -25.055  45.106  -8.189  1.00  0.00    -0.000 C 
BRANCH  18  19
ATOM     19  C   UNL     1     -26.088  45.493  -7.121  1.00  0.00    -0.003 C 
ATOM     20  C   UNL     1     -25.536  46.564  -6.186  1.00  0.00     0.004 C 
ENDBRANCH  18  19
ENDBRANCH  17  18
ENDBRANCH  16  17
ENDBRANCH  15  16
ENDBRANCH  14  15
ENDBRANCH  13  14
ENDBRANCH  12  13
ENDBRANCH   1  12
TORSDOF 16
ENDMDL
MODEL 8
REMARK VINA RESULT:    -5.269      1.381      3.346
REMARK INTER + INTRA:         -12.370
REMARK INTER:                  -9.951
REMARK INTRA:                  -2.419
REMARK UNBOUND:                -2.172
REMARK SMILES CCCCCCCCCCCCCCCCCC(=O)[O-]
REMARK SMILES IDX 10 1 11 2 12 3 13 4 14 5 15 6 16 7 17 8 18 9 19 10 20 11
REMARK SMILES IDX 9 12 8 13 7 14 6 15 5 16 4 17 3 18 2 19 1 20
REMARK H PARENT
REMARK Flexibility Score: inf
ROOT
ATOM      1  C   UNL     1     -20.257  42.607  -6.265  1.00  0.00     0.000 C 
ENDROOT
BRANCH   1   2
ATOM      2  C   UNL     1     -19.813  42.197  -7.678  1.00  0.00     0.000 C 
BRANCH   2   3
ATOM      3  C   UNL     1     -18.370  41.672  -7.719  1.00  0.00     0.000 C 
BRANCH   3   4
ATOM      4  C   UNL     1     -18.342  40.136  -7.698  1.00  0.00     0.000 C 
BRANCH   4   5
ATOM      5  C   UNL     1     -17.359  39.579  -6.646  1.00  0.00     0.000 C 
BRANCH   5   6
ATOM      6  C   UNL     1     -17.525  40.206  -5.248  1.00  0.00     0.000 C 
BRANCH   6   7
ATOM      7  C   UNL     1     -16.207  40.515  -4.513  1.00  0.00     0.006 C 
BRANCH   7   8
ATOM      8  C   UNL     1     -16.314  41.632  -3.464  1.00  0.00     0.053 C 
BRANCH   8   9
ATOM      9  C   UNL     1     -17.364  42.639  -3.822  1.00  0.00     0.041 C 
ATOM     10  O   UNL     1     -17.166  43.453  -4.763  1.00  0.00    -0.550 OA
ATOM     11  O   UNL     1     -18.546  42.700  -3.096  1.00  0.00    -0.550 OA
ENDBRANCH   8   9
ENDBRANCH   7   8
ENDBRANCH   6   7
ENDBRANCH   5   6
ENDBRANCH   4   5
ENDBRANCH   3   4
ENDBRANCH   2   3
ENDBRANCH   1   2
BRANCH   1  12
ATOM     12  C   UNL     1     -21.058  41.503  -5.552  1.00  0.00     0.000 C 
BRANCH  12  13
ATOM     13  C   UNL     1     -21.896  40.661  -6.527  1.00  0.00    -0.000 C 
BRANCH  13  14
ATOM     14  C   UNL     1     -23.355  41.144  -6.620  1.00  0.00    -0.000 C 
BRANCH  14  15
ATOM     15  C   UNL     1     -23.560  42.527  -5.981  1.00  0.00    -0.000 C 
BRANCH  15  16
ATOM     16  C   UNL     1     -24.009  43.591  -6.994  1.00  0.00    -0.000 C 
BRANCH  16  17
ATOM     17  C   UNL     1     -23.537  43.231  -8.411  1.00  0.00    -0.000 C 
BRANCH  17  18
ATOM     18  C   UNL     1     -22.554  44.263  -8.990  1.00  0.00    -0.000 C 
BRANCH  18  19
ATOM     19  C   UNL     1     -22.338  45.462  -8.055  1.00  0.00    -0.003 C 
ATOM     20  C   UNL     1     -20.861  45.834  -7.973  1.00  0.00     0.004 C 
ENDBRANCH  18  19
ENDBRANCH  17  18
ENDBRANCH  16  17
ENDBRANCH  15  16
ENDBRANCH  14  15
ENDBRANCH  13  14
ENDBRANCH  12  13
ENDBRANCH   1  12
TORSDOF 16
ENDMDL
MODEL 9
REMARK VINA RESULT:    -5.152      1.168      3.220
REMARK INTER + INTRA:         -12.142
REMARK INTER:                  -9.769
REMARK INTRA:                  -2.374
REMARK UNBOUND:                -2.172
REMARK SMILES CCCCCCCCCCCCCCCCCC(=O)[O-]
REMARK SMILES IDX 10 1 11 2 12 3 13 4 14 5 15 6 16 7 17 8 18 9 19 10 20 11
REMARK SMILES IDX 9 12 8 13 7 14 6 15 5 16 4 17 3 18 2 19 1 20
REMARK H PARENT
REMARK Flexibility Score: inf
ROOT
ATOM      1  C   UNL     1     -21.107  42.563  -5.749  1.00  0.00     0.000 C 
ENDROOT
BRANCH   1   2
ATOM      2  C   UNL     1     -20.586  41.117  -5.731  1.00  0.00     0.000 C 
BRANCH   2   3
ATOM      3  C   UNL     1     -19.837  40.739  -7.017  1.00  0.00     0.000 C 
BRANCH   3   4
ATOM      4  C   UNL     1     -18.344  41.089  -6.908  1.00  0.00     0.000 C 
BRANCH   4   5
ATOM      5  C   UNL     1     -17.502  39.914  -6.367  1.00  0.00     0.000 C 
BRANCH   5   6
ATOM      6  C   UNL     1     -17.177  40.023  -4.865  1.00  0.00     0.000 C 
BRANCH   6   7
ATOM      7  C   UNL     1     -16.005  40.960  -4.518  1.00  0.00     0.006 C 
BRANCH   7   8
ATOM      8  C   UNL     1     -16.335  42.020  -3.455  1.00  0.00     0.053 C 
BRANCH   8   9
ATOM      9  C   UNL     1     -17.569  42.794  -3.800  1.00  0.00     0.041 C 
ATOM     10  O   UNL     1     -18.627  42.632  -3.135  1.00  0.00    -0.550 OA
ATOM     11  O   UNL     1     -17.562  43.670  -4.879  1.00  0.00    -0.550 OA
ENDBRANCH   8   9
ENDBRANCH   7   8
ENDBRANCH   6   7
ENDBRANCH   5   6
ENDBRANCH   4   5
ENDBRANCH   3   4
ENDBRANCH   2   3
ENDBRANCH   1   2
BRANCH   1  12
ATOM     12  C   UNL     1     -22.645  42.638  -5.760  1.00  0.00     0.000 C 
BRANCH  12  13
ATOM     13  C   UNL     1     -23.191  43.350  -7.008  1.00  0.00    -0.000 C 
BRANCH  13  14
ATOM     14  C   UNL     1     -23.990  44.619  -6.660  1.00  0.00    -0.000 C 
BRANCH  14  15
ATOM     15  C   UNL     1     -23.133  45.680  -5.951  1.00  0.00    -0.000 C 
BRANCH  15  16
ATOM     16  C   UNL     1     -22.082  46.312  -6.875  1.00  0.00    -0.000 C 
BRANCH  16  17
ATOM     17  C   UNL     1     -20.695  46.305  -6.213  1.00  0.00    -0.000 C 
BRANCH  17  18
ATOM     18  C   UNL     1     -19.604  45.725  -7.127  1.00  0.00    -0.000 C 
BRANCH  18  19
ATOM     19  C   UNL     1     -20.126  45.388  -8.531  1.00  0.00    -0.003 C 
ATOM     20  C   UNL     1     -19.809  43.943  -8.902  1.00  0.00     0.004 C 
ENDBRANCH  18  19
ENDBRANCH  17  18
ENDBRANCH  16  17
ENDBRANCH  15  16
ENDBRANCH  14  15
ENDBRANCH  13  14
ENDBRANCH  12  13
ENDBRANCH   1  12
TORSDOF 16
ENDMDL
