MODEL 1
REMARK VINA RESULT:    -3.045      0.000      0.000
REMARK INTER + INTRA:          -3.134
REMARK INTER:                  -3.134
REMARK INTRA:                   0.000
REMARK UNBOUND:                 0.000
REMARK SMILES Nc1ncnc2nc[nH]c12
REMARK SMILES IDX 8 1 7 2 6 3 5 4 4 5 3 6 2 7 10 8 9 9 1 11
REMARK H PARENT 9 10 1 12 1 13
REMARK Flexibility Score: inf
ROOT
ATOM      1  C   UNL     1      19.833  12.252  36.363  1.00  0.00     0.199 A 
ATOM      2  N   UNL     1      19.871  11.354  35.339  1.00  0.00    -0.217 NA
ATOM      3  C   UNL     1      19.561  10.203  35.957  1.00  0.00     0.182 A 
ATOM      4  N   UNL     1      19.458   8.980  35.385  1.00  0.00    -0.215 NA
ATOM      5  C   UNL     1      19.130   7.919  36.181  1.00  0.00     0.226 A 
ATOM      6  N   UNL     1      18.909   8.099  37.524  1.00  0.00    -0.217 NA
ATOM      7  C   UNL     1      19.011   9.331  38.104  1.00  0.00     0.152 A 
ATOM      8  C   UNL     1      19.347  10.401  37.279  1.00  0.00     0.127 A 
ATOM      9  N   UNL     1      19.516  11.699  37.561  1.00  0.00    -0.340 N 
ATOM     10  H   UNL     1      19.427  12.184  38.481  1.00  0.00     0.168 HD
ENDROOT
BRANCH   7  11
ATOM     11  N   UNL     1      18.778   9.494  39.503  1.00  0.00    -0.382 N 
ATOM     12  H   UNL     1      17.818   9.647  39.881  1.00  0.00     0.158 HD
ATOM     13  H   UNL     1      19.579   9.461  40.172  1.00  0.00     0.158 HD
ENDBRANCH   7  11
TORSDOF 1
ENDMDL
MODEL 2
REMARK VINA RESULT:    -3.007      7.641      9.276
REMARK INTER + INTRA:          -3.095
REMARK INTER:                  -3.095
REMARK INTRA:                   0.000
REMARK UNBOUND:                 0.000
REMARK SMILES Nc1ncnc2nc[nH]c12
REMARK SMILES IDX 8 1 7 2 6 3 5 4 4 5 3 6 2 7 10 8 9 9 1 11
REMARK H PARENT 9 10 1 12 1 13
REMARK Flexibility Score: inf
ROOT
ATOM      1  C   UNL     1      22.408   4.472  35.361  1.00  0.00     0.199 A 
ATOM      2  N   UNL     1      22.935   3.756  36.393  1.00  0.00    -0.217 NA
ATOM      3  C   UNL     1      23.793   2.936  35.763  1.00  0.00     0.182 A 
ATOM      4  N   UNL     1      24.588   2.003  36.337  1.00  0.00    -0.215 NA
ATOM      5  C   UNL     1      25.400   1.259  35.526  1.00  0.00     0.226 A 
ATOM      6  N   UNL     1      25.403   1.462  34.169  1.00  0.00    -0.217 NA
ATOM      7  C   UNL     1      24.602   2.403  33.588  1.00  0.00     0.152 A 
ATOM      8  C   UNL     1      23.780   3.152  34.427  1.00  0.00     0.127 A 
ATOM      9  N   UNL     1      22.905   4.126  34.147  1.00  0.00    -0.340 N 
ATOM     10  H   UNL     1      22.655   4.532  33.218  1.00  0.00     0.168 HD
ENDROOT
BRANCH   7  11
ATOM     11  N   UNL     1      24.621   2.596  32.173  1.00  0.00    -0.382 N 
ATOM     12  H   UNL     1      23.740   2.723  31.629  1.00  0.00     0.158 HD
ATOM     13  H   UNL     1      25.530   2.613  31.661  1.00  0.00     0.158 HD
ENDBRANCH   7  11
TORSDOF 1
ENDMDL
MODEL 3
REMARK VINA RESULT:    -3.006      1.331      2.039
REMARK INTER + INTRA:          -3.093
REMARK INTER:                  -3.093
REMARK INTRA:                   0.000
REMARK UNBOUND:                 0.000
REMARK SMILES Nc1ncnc2nc[nH]c12
REMARK SMILES IDX 8 1 7 2 6 3 5 4 4 5 3 6 2 7 10 8 9 9 1 11
REMARK H PARENT 9 10 1 12 1 13
REMARK Flexibility Score: inf
ROOT
ATOM      1  C   UNL     1      19.619  11.923  39.501  1.00  0.00     0.199 A 
ATOM      2  N   UNL     1      20.172  12.112  38.270  1.00  0.00    -0.217 NA
ATOM      3  C   UNL     1      19.802  10.997  37.617  1.00  0.00     0.182 A 
ATOM      4  N   UNL     1      20.095  10.678  36.335  1.00  0.00    -0.215 NA
ATOM      5  C   UNL     1      19.627   9.491  35.841  1.00  0.00     0.226 A 
ATOM      6  N   UNL     1      18.880   8.655  36.633  1.00  0.00    -0.217 NA
ATOM      7  C   UNL     1      18.583   8.976  37.927  1.00  0.00     0.152 A 
ATOM      8  C   UNL     1      19.067  10.187  38.414  1.00  0.00     0.127 A 
ATOM      9  N   UNL     1      18.938  10.755  39.619  1.00  0.00    -0.340 N 
ATOM     10  H   UNL     1      18.434  10.395  40.460  1.00  0.00     0.168 HD
ENDROOT
BRANCH   7  11
ATOM     11  N   UNL     1      17.805   8.089  38.732  1.00  0.00    -0.382 N 
ATOM     12  H   UNL     1      16.877   8.374  39.114  1.00  0.00     0.158 HD
ATOM     13  H   UNL     1      18.162   7.133  38.949  1.00  0.00     0.158 HD
ENDBRANCH   7  11
TORSDOF 1
ENDMDL
MODEL 4
REMARK VINA RESULT:    -2.968      1.087      2.582
REMARK INTER + INTRA:          -3.055
REMARK INTER:                  -3.055
REMARK INTRA:                   0.000
REMARK UNBOUND:                 0.000
REMARK SMILES Nc1ncnc2nc[nH]c12
REMARK SMILES IDX 8 1 7 2 6 3 5 4 4 5 3 6 2 7 10 8 9 9 1 11
REMARK H PARENT 9 10 1 12 1 13
REMARK Flexibility Score: inf
ROOT
ATOM      1  C   UNL     1      19.541   9.682  34.800  1.00  0.00     0.199 A 
ATOM      2  N   UNL     1      20.044  10.885  35.192  1.00  0.00    -0.217 NA
ATOM      3  C   UNL     1      19.762  10.898  36.505  1.00  0.00     0.182 A 
ATOM      4  N   UNL     1      20.053  11.884  37.385  1.00  0.00    -0.215 NA
ATOM      5  C   UNL     1      19.684  11.717  38.691  1.00  0.00     0.226 A 
ATOM      6  N   UNL     1      19.039  10.573  39.089  1.00  0.00    -0.217 NA
ATOM      7  C   UNL     1      18.744   9.576  38.204  1.00  0.00     0.152 A 
ATOM      8  C   UNL     1      19.125   9.763  36.878  1.00  0.00     0.127 A 
ATOM      9  N   UNL     1      18.973   8.973  35.808  1.00  0.00    -0.340 N 
ATOM     10  H   UNL     1      18.525   8.031  35.750  1.00  0.00     0.168 HD
ENDROOT
BRANCH   7  11
ATOM     11  N   UNL     1      18.070   8.395  38.641  1.00  0.00    -0.382 N 
ATOM     12  H   UNL     1      17.481   7.832  37.991  1.00  0.00     0.158 HD
ATOM     13  H   UNL     1      18.162   8.078  39.632  1.00  0.00     0.158 HD
ENDBRANCH   7  11
TORSDOF 1
ENDMDL
MODEL 5
REMARK VINA RESULT:    -2.965      7.851      9.786
REMARK INTER + INTRA:          -3.052
REMARK INTER:                  -3.052
REMARK INTRA:                   0.000
REMARK UNBOUND:                 0.000
REMARK SMILES Nc1ncnc2nc[nH]c12
REMARK SMILES IDX 8 1 7 2 6 3 5 4 4 5 3 6 2 7 10 8 9 9 1 11
REMARK H PARENT 9 10 1 12 1 13
REMARK Flexibility Score: inf
ROOT
ATOM      1  C   UNL     1      24.529  -0.088  35.336  1.00  0.00     0.199 A 
ATOM      2  N   UNL     1      24.216   0.234  36.622  1.00  0.00    -0.217 NA
ATOM      3  C   UNL     1      23.861   1.525  36.514  1.00  0.00     0.182 A 
ATOM      4  N   UNL     1      23.453   2.338  37.517  1.00  0.00    -0.215 NA
ATOM      5  C   UNL     1      23.131   3.631  37.212  1.00  0.00     0.226 A 
ATOM      6  N   UNL     1      23.218   4.082  35.919  1.00  0.00    -0.217 NA
ATOM      7  C   UNL     1      23.629   3.264  34.905  1.00  0.00     0.152 A 
ATOM      8  C   UNL     1      23.954   1.951  35.233  1.00  0.00     0.127 A 
ATOM      9  N   UNL     1      24.378   0.940  34.464  1.00  0.00    -0.340 N 
ATOM     10  H   UNL     1      24.556   0.933  33.435  1.00  0.00     0.168 HD
ENDROOT
BRANCH   7  11
ATOM     11  N   UNL     1      23.713   3.757  33.567  1.00  0.00    -0.382 N 
ATOM     12  H   UNL     1      23.306   4.680  33.300  1.00  0.00     0.158 HD
ATOM     13  H   UNL     1      24.191   3.190  32.832  1.00  0.00     0.158 HD
ENDBRANCH   7  11
TORSDOF 1
ENDMDL
MODEL 6
REMARK VINA RESULT:    -2.918      0.681      2.869
REMARK INTER + INTRA:          -3.004
REMARK INTER:                  -3.004
REMARK INTRA:                   0.000
REMARK UNBOUND:                 0.000
REMARK SMILES Nc1ncnc2nc[nH]c12
REMARK SMILES IDX 8 1 7 2 6 3 5 4 4 5 3 6 2 7 10 8 9 9 1 11
REMARK H PARENT 9 10 1 12 1 13
REMARK Flexibility Score: inf
ROOT
ATOM      1  C   UNL     1      19.109   7.714  36.629  1.00  0.00     0.199 A 
ATOM      2  N   UNL     1      19.395   8.552  35.595  1.00  0.00    -0.217 NA
ATOM      3  C   UNL     1      19.413   9.753  36.197  1.00  0.00     0.182 A 
ATOM      4  N   UNL     1      19.656  10.948  35.609  1.00  0.00    -0.215 NA
ATOM      5  C   UNL     1      19.632  12.070  36.391  1.00  0.00     0.226 A 
ATOM      6  N   UNL     1      19.371  11.975  37.735  1.00  0.00    -0.217 NA
ATOM      7  C   UNL     1      19.126  10.770  38.330  1.00  0.00     0.152 A 
ATOM      8  C   UNL     1      19.153   9.638  37.520  1.00  0.00     0.127 A 
ATOM      9  N   UNL     1      18.956   8.348  37.819  1.00  0.00    -0.340 N 
ATOM     10  H   UNL     1      18.735   7.919  38.744  1.00  0.00     0.168 HD
ENDROOT
BRANCH   7  11
ATOM     11  N   UNL     1      18.856  10.696  39.730  1.00  0.00    -0.382 N 
ATOM     12  H   UNL     1      19.504  10.208  40.385  1.00  0.00     0.158 HD
ATOM     13  H   UNL     1      17.993  11.137  40.119  1.00  0.00     0.158 HD
ENDBRANCH   7  11
TORSDOF 1
ENDMDL
MODEL 7
REMARK VINA RESULT:    -2.846      9.135     10.876
REMARK INTER + INTRA:          -2.929
REMARK INTER:                  -2.929
REMARK INTRA:                   0.000
REMARK UNBOUND:                 0.000
REMARK SMILES Nc1ncnc2nc[nH]c12
REMARK SMILES IDX 8 1 7 2 6 3 5 4 4 5 3 6 2 7 10 8 9 9 1 11
REMARK H PARENT 9 10 1 12 1 13
REMARK Flexibility Score: inf
ROOT
ATOM      1  C   UNL     1      19.377  12.345  28.338  1.00  0.00     0.199 A 
ATOM      2  N   UNL     1      20.511  11.932  28.969  1.00  0.00    -0.217 NA
ATOM      3  C   UNL     1      21.432  12.031  27.996  1.00  0.00     0.182 A 
ATOM      4  N   UNL     1      22.750  11.737  28.097  1.00  0.00    -0.215 NA
ATOM      5  C   UNL     1      23.536  11.902  26.990  1.00  0.00     0.226 A 
ATOM      6  N   UNL     1      22.994  12.357  25.814  1.00  0.00    -0.217 NA
ATOM      7  C   UNL     1      21.665  12.655  25.710  1.00  0.00     0.152 A 
ATOM      8  C   UNL     1      20.878  12.480  26.845  1.00  0.00     0.127 A 
ATOM      9  N   UNL     1      19.570  12.686  27.039  1.00  0.00    -0.340 N 
ATOM     10  H   UNL     1      18.855  13.029  26.359  1.00  0.00     0.168 HD
ENDROOT
BRANCH   7  11
ATOM     11  N   UNL     1      21.123  13.125  24.475  1.00  0.00    -0.382 N 
ATOM     12  H   UNL     1      20.355  13.831  24.451  1.00  0.00     0.158 HD
ATOM     13  H   UNL     1      21.496  12.762  23.570  1.00  0.00     0.158 HD
ENDBRANCH   7  11
TORSDOF 1
ENDMDL
MODEL 8
REMARK VINA RESULT:    -2.826      1.078      3.049
REMARK INTER + INTRA:          -2.909
REMARK INTER:                  -2.909
REMARK INTRA:                   0.000
REMARK UNBOUND:                 0.000
REMARK SMILES Nc1ncnc2nc[nH]c12
REMARK SMILES IDX 8 1 7 2 6 3 5 4 4 5 3 6 2 7 10 8 9 9 1 11
REMARK H PARENT 9 10 1 12 1 13
REMARK Flexibility Score: inf
ROOT
ATOM      1  C   UNL     1      19.125   9.527  40.237  1.00  0.00     0.199 A 
ATOM      2  N   UNL     1      19.109   8.311  39.623  1.00  0.00    -0.217 NA
ATOM      3  C   UNL     1      19.116   8.648  38.322  1.00  0.00     0.182 A 
ATOM      4  N   UNL     1      19.107   7.799  37.268  1.00  0.00    -0.215 NA
ATOM      5  C   UNL     1      19.116   8.332  36.009  1.00  0.00     0.226 A 
ATOM      6  N   UNL     1      19.137   9.693  35.830  1.00  0.00    -0.217 NA
ATOM      7  C   UNL     1      19.147  10.551  36.892  1.00  0.00     0.152 A 
ATOM      8  C   UNL     1      19.136   9.992  38.167  1.00  0.00     0.127 A 
ATOM      9  N   UNL     1      19.142  10.574  39.373  1.00  0.00    -0.340 N 
ATOM     10  H   UNL     1      19.156  11.591  39.608  1.00  0.00     0.168 HD
ENDROOT
BRANCH   7  11
ATOM     11  N   UNL     1      19.168  11.963  36.681  1.00  0.00    -0.382 N 
ATOM     12  H   UNL     1      18.484  12.429  36.047  1.00  0.00     0.158 HD
ATOM     13  H   UNL     1      19.879  12.553  37.168  1.00  0.00     0.158 HD
ENDBRANCH   7  11
TORSDOF 1
ENDMDL
