MODEL 1
REMARK VINA RESULT:    -5.514      0.000      0.000
REMARK INTER + INTRA:         -11.156
REMARK INTER:                 -10.027
REMARK INTRA:                  -1.130
REMARK UNBOUND:                -1.130
REMARK SMILES CCCCCC=CCC=CCCCCCCCC(=O)[O-]
REMARK SMILES IDX 11 1 12 2 13 3 14 4 15 5 16 6 17 7 18 8 19 9 20 10 10 11
REMARK SMILES IDX 9 12 8 13 7 14 6 15 5 16 4 17 3 18 2 19 1 20
REMARK H PARENT
REMARK Flexibility Score: inf
ROOT
ATOM      1  C   UNL     1      36.171  41.875  39.147  1.00  0.00     0.027 C 
ENDROOT
BRANCH   1   2
ATOM      2  C   UNL     1      34.998  42.356  40.006  1.00  0.00     0.004 C 
BRANCH   2   3
ATOM      3  C   UNL     1      34.987  43.885  40.117  1.00  0.00     0.000 C 
BRANCH   3   4
ATOM      4  C   UNL     1      35.065  44.331  41.585  1.00  0.00     0.000 C 
BRANCH   4   5
ATOM      5  C   UNL     1      33.693  44.714  42.163  1.00  0.00     0.000 C 
BRANCH   5   6
ATOM      6  C   UNL     1      33.028  43.555  42.925  1.00  0.00     0.006 C 
BRANCH   6   7
ATOM      7  C   UNL     1      31.541  43.412  42.575  1.00  0.00     0.053 C 
BRANCH   7   8
ATOM      8  C   UNL     1      31.337  43.106  41.123  1.00  0.00     0.041 C 
ATOM      9  O   UNL     1      31.621  41.966  40.670  1.00  0.00    -0.550 OA
ATOM     10  O   UNL     1      30.862  44.089  40.265  1.00  0.00    -0.550 OA
ENDBRANCH   7   8
ENDBRANCH   6   7
ENDBRANCH   5   6
ENDBRANCH   4   5
ENDBRANCH   3   4
ENDBRANCH   2   3
ENDBRANCH   1   2
BRANCH   1  11
ATOM     11  C   UNL     1      36.128  42.522  37.790  1.00  0.00    -0.031 C 
ATOM     12  C   UNL     1      36.932  43.548  37.472  1.00  0.00    -0.027 C 
BRANCH  12  13
ATOM     13  C   UNL     1      36.840  44.236  36.139  1.00  0.00     0.054 C 
BRANCH  13  14
ATOM     14  C   UNL     1      35.416  44.322  35.647  1.00  0.00    -0.027 C 
ATOM     15  C   UNL     1      35.036  44.874  34.478  1.00  0.00    -0.031 C 
BRANCH  15  16
ATOM     16  C   UNL     1      35.966  45.552  33.500  1.00  0.00     0.027 C 
BRANCH  16  17
ATOM     17  C   UNL     1      35.235  46.602  32.649  1.00  0.00     0.004 C 
BRANCH  17  18
ATOM     18  C   UNL     1      35.917  47.980  32.709  1.00  0.00     0.000 C 
BRANCH  18  19
ATOM     19  C   UNL     1      36.546  48.265  34.081  1.00  0.00    -0.003 C 
ATOM     20  C   UNL     1      35.504  48.545  35.164  1.00  0.00     0.004 C 
ENDBRANCH  18  19
ENDBRANCH  17  18
ENDBRANCH  16  17
ENDBRANCH  15  16
ENDBRANCH  13  14
ENDBRANCH  12  13
ENDBRANCH   1  11
TORSDOF 14
ENDMDL
MODEL 2
REMARK VINA RESULT:    -4.879     10.163     12.317
REMARK INTER + INTRA:         -10.001
REMARK INTER:                  -9.210
REMARK INTRA:                  -0.791
REMARK UNBOUND:                -1.130
REMARK SMILES CCCCCC=CCC=CCCCCCCCC(=O)[O-]
REMARK SMILES IDX 11 1 12 2 13 3 14 4 15 5 16 6 17 7 18 8 19 9 20 10 10 11
REMARK SMILES IDX 9 12 8 13 7 14 6 15 5 16 4 17 3 18 2 19 1 20
REMARK H PARENT
REMARK Flexibility Score: inf
ROOT
ATOM      1  C   UNL     1      29.569  48.567  36.481  1.00  0.00     0.027 C 
ENDROOT
BRANCH   1   2
ATOM      2  C   UNL     1      29.551  49.530  37.672  1.00  0.00     0.004 C 
BRANCH   2   3
ATOM      3  C   UNL     1      30.823  49.384  38.517  1.00  0.00     0.000 C 
BRANCH   3   4
ATOM      4  C   UNL     1      31.035  50.618  39.408  1.00  0.00     0.000 C 
BRANCH   4   5
ATOM      5  C   UNL     1      30.004  51.727  39.141  1.00  0.00     0.000 C 
BRANCH   5   6
ATOM      6  C   UNL     1      30.633  53.131  39.138  1.00  0.00     0.006 C 
BRANCH   6   7
ATOM      7  C   UNL     1      29.621  54.217  38.748  1.00  0.00     0.053 C 
BRANCH   7   8
ATOM      8  C   UNL     1      29.823  55.475  39.536  1.00  0.00     0.041 C 
ATOM      9  O   UNL     1      28.922  56.353  39.570  1.00  0.00    -0.550 OA
ATOM     10  O   UNL     1      31.019  55.688  40.210  1.00  0.00    -0.550 OA
ENDBRANCH   7   8
ENDBRANCH   6   7
ENDBRANCH   5   6
ENDBRANCH   4   5
ENDBRANCH   3   4
ENDBRANCH   2   3
ENDBRANCH   1   2
BRANCH   1  11
ATOM     11  C   UNL     1      28.166  48.215  36.069  1.00  0.00    -0.031 C 
ATOM     12  C   UNL     1      27.115  48.967  36.429  1.00  0.00    -0.027 C 
BRANCH  12  13
ATOM     13  C   UNL     1      25.708  48.576  36.073  1.00  0.00     0.054 C 
BRANCH  13  14
ATOM     14  C   UNL     1      24.703  49.596  36.548  1.00  0.00    -0.027 C 
ATOM     15  C   UNL     1      23.399  49.609  36.210  1.00  0.00    -0.031 C 
BRANCH  15  16
ATOM     16  C   UNL     1      22.745  48.642  35.251  1.00  0.00     0.027 C 
BRANCH  16  17
ATOM     17  C   UNL     1      21.221  48.594  35.437  1.00  0.00     0.004 C 
BRANCH  17  18
ATOM     18  C   UNL     1      20.814  48.523  36.919  1.00  0.00     0.000 C 
BRANCH  18  19
ATOM     19  C   UNL     1      19.396  49.061  37.166  1.00  0.00    -0.003 C 
ATOM     20  C   UNL     1      18.334  48.328  36.347  1.00  0.00     0.004 C 
ENDBRANCH  18  19
ENDBRANCH  17  18
ENDBRANCH  16  17
ENDBRANCH  15  16
ENDBRANCH  13  14
ENDBRANCH  12  13
ENDBRANCH   1  11
TORSDOF 14
ENDMDL
MODEL 3
REMARK VINA RESULT:    -4.822     12.005     14.637
REMARK INTER + INTRA:          -9.899
REMARK INTER:                  -9.038
REMARK INTRA:                  -0.861
REMARK UNBOUND:                -1.130
REMARK SMILES CCCCCC=CCC=CCCCCCCCC(=O)[O-]
REMARK SMILES IDX 11 1 12 2 13 3 14 4 15 5 16 6 17 7 18 8 19 9 20 10 10 11
REMARK SMILES IDX 9 12 8 13 7 14 6 15 5 16 4 17 3 18 2 19 1 20
REMARK H PARENT
REMARK Flexibility Score: inf
ROOT
ATOM      1  C   UNL     1      25.605  51.016  36.923  1.00  0.00     0.027 C 
ENDROOT
BRANCH   1   2
ATOM      2  C   UNL     1      25.083  52.445  37.094  1.00  0.00     0.004 C 
BRANCH   2   3
ATOM      3  C   UNL     1      25.729  53.125  38.307  1.00  0.00     0.000 C 
BRANCH   3   4
ATOM      4  C   UNL     1      27.033  53.834  37.911  1.00  0.00     0.000 C 
BRANCH   4   5
ATOM      5  C   UNL     1      28.277  53.177  38.532  1.00  0.00     0.000 C 
BRANCH   5   6
ATOM      6  C   UNL     1      29.407  54.186  38.800  1.00  0.00     0.006 C 
BRANCH   6   7
ATOM      7  C   UNL     1      28.868  55.575  39.164  1.00  0.00     0.053 C 
BRANCH   7   8
ATOM      8  C   UNL     1      29.872  56.378  39.935  1.00  0.00     0.041 C 
ATOM      9  O   UNL     1      29.645  57.586  40.204  1.00  0.00    -0.550 OA
ATOM     10  O   UNL     1      31.070  55.797  40.329  1.00  0.00    -0.550 OA
ENDBRANCH   7   8
ENDBRANCH   6   7
ENDBRANCH   5   6
ENDBRANCH   4   5
ENDBRANCH   3   4
ENDBRANCH   2   3
ENDBRANCH   1   2
BRANCH   1  11
ATOM     11  C   UNL     1      24.474  50.080  36.589  1.00  0.00    -0.031 C 
ATOM     12  C   UNL     1      24.696  48.860  36.078  1.00  0.00    -0.027 C 
BRANCH  12  13
ATOM     13  C   UNL     1      23.564  47.955  35.683  1.00  0.00     0.054 C 
BRANCH  13  14
ATOM     14  C   UNL     1      22.419  48.721  35.066  1.00  0.00    -0.027 C 
ATOM     15  C   UNL     1      21.208  48.885  35.631  1.00  0.00    -0.031 C 
BRANCH  15  16
ATOM     16  C   UNL     1      20.777  48.277  36.944  1.00  0.00     0.027 C 
BRANCH  16  17
ATOM     17  C   UNL     1      19.474  48.902  37.466  1.00  0.00     0.004 C 
BRANCH  17  18
ATOM     18  C   UNL     1      18.371  48.933  36.394  1.00  0.00     0.000 C 
BRANCH  18  19
ATOM     19  C   UNL     1      17.066  48.281  36.875  1.00  0.00    -0.003 C 
ATOM     20  C   UNL     1      17.034  46.772  36.634  1.00  0.00     0.004 C 
ENDBRANCH  18  19
ENDBRANCH  17  18
ENDBRANCH  16  17
ENDBRANCH  15  16
ENDBRANCH  13  14
ENDBRANCH  12  13
ENDBRANCH   1  11
TORSDOF 14
ENDMDL
MODEL 4
REMARK VINA RESULT:    -4.676     11.042     13.612
REMARK INTER + INTRA:          -9.633
REMARK INTER:                  -8.860
REMARK INTRA:                  -0.773
REMARK UNBOUND:                -1.130
REMARK SMILES CCCCCC=CCC=CCCCCCCCC(=O)[O-]
REMARK SMILES IDX 11 1 12 2 13 3 14 4 15 5 16 6 17 7 18 8 19 9 20 10 10 11
REMARK SMILES IDX 9 12 8 13 7 14 6 15 5 16 4 17 3 18 2 19 1 20
REMARK H PARENT
REMARK Flexibility Score: inf
ROOT
ATOM      1  C   UNL     1      25.132  52.741  37.080  1.00  0.00     0.027 C 
ENDROOT
BRANCH   1   2
ATOM      2  C   UNL     1      26.367  52.890  37.974  1.00  0.00     0.004 C 
BRANCH   2   3
ATOM      3  C   UNL     1      27.031  54.256  37.771  1.00  0.00     0.000 C 
BRANCH   3   4
ATOM      4  C   UNL     1      28.138  54.490  38.812  1.00  0.00     0.000 C 
BRANCH   4   5
ATOM      5  C   UNL     1      29.525  54.056  38.312  1.00  0.00     0.000 C 
BRANCH   5   6
ATOM      6  C   UNL     1      30.160  52.970  39.196  1.00  0.00     0.006 C 
BRANCH   6   7
ATOM      7  C   UNL     1      29.467  51.611  39.031  1.00  0.00     0.053 C 
BRANCH   7   8
ATOM      8  C   UNL     1      30.457  50.493  38.903  1.00  0.00     0.041 C 
ATOM      9  O   UNL     1      31.530  50.519  39.560  1.00  0.00    -0.550 OA
ATOM     10  O   UNL     1      30.206  49.439  38.034  1.00  0.00    -0.550 OA
ENDBRANCH   7   8
ENDBRANCH   6   7
ENDBRANCH   5   6
ENDBRANCH   4   5
ENDBRANCH   3   4
ENDBRANCH   2   3
ENDBRANCH   1   2
BRANCH   1  11
ATOM     11  C   UNL     1      24.526  51.374  37.246  1.00  0.00    -0.031 C 
ATOM     12  C   UNL     1      24.907  50.336  36.486  1.00  0.00    -0.027 C 
BRANCH  12  13
ATOM     13  C   UNL     1      24.252  48.989  36.608  1.00  0.00     0.054 C 
BRANCH  13  14
ATOM     14  C   UNL     1      23.477  48.626  35.365  1.00  0.00    -0.027 C 
ATOM     15  C   UNL     1      22.136  48.523  35.294  1.00  0.00    -0.031 C 
BRANCH  15  16
ATOM     16  C   UNL     1      21.194  48.693  36.462  1.00  0.00     0.027 C 
BRANCH  16  17
ATOM     17  C   UNL     1      19.723  48.676  36.019  1.00  0.00     0.004 C 
BRANCH  17  18
ATOM     18  C   UNL     1      18.763  49.038  37.166  1.00  0.00     0.000 C 
BRANCH  18  19
ATOM     19  C   UNL     1      17.311  48.635  36.866  1.00  0.00    -0.003 C 
ATOM     20  C   UNL     1      17.175  47.167  36.463  1.00  0.00     0.004 C 
ENDBRANCH  18  19
ENDBRANCH  17  18
ENDBRANCH  16  17
ENDBRANCH  15  16
ENDBRANCH  13  14
ENDBRANCH  12  13
ENDBRANCH   1  11
TORSDOF 14
ENDMDL
MODEL 5
REMARK VINA RESULT:    -4.516      2.892      8.498
REMARK INTER + INTRA:          -9.341
REMARK INTER:                  -8.497
REMARK INTRA:                  -0.844
REMARK UNBOUND:                -1.130
REMARK SMILES CCCCCC=CCC=CCCCCCCCC(=O)[O-]
REMARK SMILES IDX 11 1 12 2 13 3 14 4 15 5 16 6 17 7 18 8 19 9 20 10 10 11
REMARK SMILES IDX 9 12 8 13 7 14 6 15 5 16 4 17 3 18 2 19 1 20
REMARK H PARENT
REMARK Flexibility Score: inf
ROOT
ATOM      1  C   UNL     1      36.565  44.956  35.774  1.00  0.00     0.027 C 
ENDROOT
BRANCH   1   2
ATOM      2  C   UNL     1      36.437  44.954  34.248  1.00  0.00     0.004 C 
BRANCH   2   3
ATOM      3  C   UNL     1      34.984  45.185  33.817  1.00  0.00     0.000 C 
BRANCH   3   4
ATOM      4  C   UNL     1      34.891  46.315  32.780  1.00  0.00     0.000 C 
BRANCH   4   5
ATOM      5  C   UNL     1      36.235  46.599  32.090  1.00  0.00     0.000 C 
BRANCH   5   6
ATOM      6  C   UNL     1      36.648  48.077  32.186  1.00  0.00     0.006 C 
BRANCH   6   7
ATOM      7  C   UNL     1      35.703  48.884  33.087  1.00  0.00     0.053 C 
BRANCH   7   8
ATOM      8  C   UNL     1      35.972  48.635  34.540  1.00  0.00     0.041 C 
ATOM      9  O   UNL     1      37.125  48.306  34.924  1.00  0.00    -0.550 OA
ATOM     10  O   UNL     1      34.942  48.739  35.465  1.00  0.00    -0.550 OA
ENDBRANCH   7   8
ENDBRANCH   6   7
ENDBRANCH   5   6
ENDBRANCH   4   5
ENDBRANCH   3   4
ENDBRANCH   2   3
ENDBRANCH   1   2
BRANCH   1  11
ATOM     11  C   UNL     1      36.147  43.626  36.339  1.00  0.00    -0.031 C 
ATOM     12  C   UNL     1      36.012  43.431  37.659  1.00  0.00    -0.027 C 
BRANCH  12  13
ATOM     13  C   UNL     1      35.660  42.083  38.224  1.00  0.00     0.054 C 
BRANCH  13  14
ATOM     14  C   UNL     1      36.067  41.956  39.671  1.00  0.00    -0.027 C 
ATOM     15  C   UNL     1      35.225  42.044  40.719  1.00  0.00    -0.031 C 
BRANCH  15  16
ATOM     16  C   UNL     1      33.749  42.346  40.619  1.00  0.00     0.027 C 
BRANCH  16  17
ATOM     17  C   UNL     1      33.424  43.775  41.079  1.00  0.00     0.004 C 
BRANCH  17  18
ATOM     18  C   UNL     1      32.193  43.826  42.001  1.00  0.00     0.000 C 
BRANCH  18  19
ATOM     19  C   UNL     1      32.048  42.560  42.858  1.00  0.00    -0.003 C 
ATOM     20  C   UNL     1      33.012  42.534  44.045  1.00  0.00     0.004 C 
ENDBRANCH  18  19
ENDBRANCH  17  18
ENDBRANCH  16  17
ENDBRANCH  15  16
ENDBRANCH  13  14
ENDBRANCH  12  13
ENDBRANCH   1  11
TORSDOF 14
ENDMDL
MODEL 6
REMARK VINA RESULT:    -4.462      9.865     11.857
REMARK INTER + INTRA:          -9.244
REMARK INTER:                  -8.591
REMARK INTRA:                  -0.653
REMARK UNBOUND:                -1.130
REMARK SMILES CCCCCC=CCC=CCCCCCCCC(=O)[O-]
REMARK SMILES IDX 11 1 12 2 13 3 14 4 15 5 16 6 17 7 18 8 19 9 20 10 10 11
REMARK SMILES IDX 9 12 8 13 7 14 6 15 5 16 4 17 3 18 2 19 1 20
REMARK H PARENT
REMARK Flexibility Score: inf
ROOT
ATOM      1  C   UNL     1      30.747  50.496  39.491  1.00  0.00     0.027 C 
ENDROOT
BRANCH   1   2
ATOM      2  C   UNL     1      30.821  49.642  38.223  1.00  0.00     0.004 C 
BRANCH   2   3
ATOM      3  C   UNL     1      29.434  49.469  37.594  1.00  0.00     0.000 C 
BRANCH   3   4
ATOM      4  C   UNL     1      29.486  48.495  36.406  1.00  0.00     0.000 C 
BRANCH   4   5
ATOM      5  C   UNL     1      28.105  47.926  36.044  1.00  0.00     0.000 C 
BRANCH   5   6
ATOM      6  C   UNL     1      26.992  48.985  36.112  1.00  0.00     0.006 C 
BRANCH   6   7
ATOM      7  C   UNL     1      25.595  48.353  36.164  1.00  0.00     0.053 C 
BRANCH   7   8
ATOM      8  C   UNL     1      24.523  49.387  36.332  1.00  0.00     0.041 C 
ATOM      9  O   UNL     1      24.764  50.455  36.952  1.00  0.00    -0.550 OA
ATOM     10  O   UNL     1      23.250  49.155  35.827  1.00  0.00    -0.550 OA
ENDBRANCH   7   8
ENDBRANCH   6   7
ENDBRANCH   5   6
ENDBRANCH   4   5
ENDBRANCH   3   4
ENDBRANCH   2   3
ENDBRANCH   1   2
BRANCH   1  11
ATOM     11  C   UNL     1      30.771  51.959  39.141  1.00  0.00    -0.031 C 
ATOM     12  C   UNL     1      29.658  52.708  39.163  1.00  0.00    -0.027 C 
BRANCH  12  13
ATOM     13  C   UNL     1      29.672  54.152  38.747  1.00  0.00     0.054 C 
BRANCH  13  14
ATOM     14  C   UNL     1      30.502  54.998  39.682  1.00  0.00    -0.027 C 
ATOM     15  C   UNL     1      30.257  56.290  39.974  1.00  0.00    -0.031 C 
BRANCH  15  16
ATOM     16  C   UNL     1      29.151  57.119  39.367  1.00  0.00     0.027 C 
BRANCH  16  17
ATOM     17  C   UNL     1      29.333  58.617  39.655  1.00  0.00     0.004 C 
BRANCH  17  18
ATOM     18  C   UNL     1      29.602  59.429  38.376  1.00  0.00     0.000 C 
BRANCH  18  19
ATOM     19  C   UNL     1      29.059  60.864  38.466  1.00  0.00    -0.003 C 
ATOM     20  C   UNL     1      30.154  61.896  38.735  1.00  0.00     0.004 C 
ENDBRANCH  18  19
ENDBRANCH  17  18
ENDBRANCH  16  17
ENDBRANCH  15  16
ENDBRANCH  13  14
ENDBRANCH  12  13
ENDBRANCH   1  11
TORSDOF 14
ENDMDL
MODEL 7
REMARK VINA RESULT:    -4.402      9.223     11.394
REMARK INTER + INTRA:          -9.134
REMARK INTER:                  -8.468
REMARK INTRA:                  -0.666
REMARK UNBOUND:                -1.130
REMARK SMILES CCCCCC=CCC=CCCCCCCCC(=O)[O-]
REMARK SMILES IDX 11 1 12 2 13 3 14 4 15 5 16 6 17 7 18 8 19 9 20 10 10 11
REMARK SMILES IDX 9 12 8 13 7 14 6 15 5 16 4 17 3 18 2 19 1 20
REMARK H PARENT
REMARK Flexibility Score: inf
ROOT
ATOM      1  C   UNL     1      24.169  49.795  36.383  1.00  0.00     0.027 C 
ENDROOT
BRANCH   1   2
ATOM      2  C   UNL     1      25.089  48.603  36.105  1.00  0.00     0.004 C 
BRANCH   2   3
ATOM      3  C   UNL     1      26.563  49.021  36.153  1.00  0.00     0.000 C 
BRANCH   3   4
ATOM      4  C   UNL     1      27.485  47.796  36.046  1.00  0.00     0.000 C 
BRANCH   4   5
ATOM      5  C   UNL     1      28.976  48.175  36.042  1.00  0.00     0.000 C 
BRANCH   5   6
ATOM      6  C   UNL     1      29.305  49.292  37.046  1.00  0.00     0.006 C 
BRANCH   6   7
ATOM      7  C   UNL     1      30.494  48.929  37.945  1.00  0.00     0.053 C 
BRANCH   7   8
ATOM      8  C   UNL     1      30.821  50.031  38.906  1.00  0.00     0.041 C 
ATOM      9  O   UNL     1      31.887  49.992  39.576  1.00  0.00    -0.550 OA
ATOM     10  O   UNL     1      29.935  51.085  39.082  1.00  0.00    -0.550 OA
ENDBRANCH   7   8
ENDBRANCH   6   7
ENDBRANCH   5   6
ENDBRANCH   4   5
ENDBRANCH   3   4
ENDBRANCH   2   3
ENDBRANCH   1   2
BRANCH   1  11
ATOM     11  C   UNL     1      24.751  50.666  37.464  1.00  0.00    -0.031 C 
ATOM     12  C   UNL     1      24.971  51.975  37.272  1.00  0.00    -0.027 C 
BRANCH  12  13
ATOM     13  C   UNL     1      25.614  52.827  38.330  1.00  0.00     0.054 C 
BRANCH  13  14
ATOM     14  C   UNL     1      26.205  54.090  37.753  1.00  0.00    -0.027 C 
ATOM     15  C   UNL     1      27.513  54.411  37.777  1.00  0.00    -0.031 C 
BRANCH  15  16
ATOM     16  C   UNL     1      28.592  53.589  38.441  1.00  0.00     0.027 C 
BRANCH  16  17
ATOM     17  C   UNL     1      29.671  54.472  39.085  1.00  0.00     0.004 C 
BRANCH  17  18
ATOM     18  C   UNL     1      29.196  55.922  39.286  1.00  0.00     0.000 C 
BRANCH  18  19
ATOM     19  C   UNL     1      30.066  56.691  40.293  1.00  0.00    -0.003 C 
ATOM     20  C   UNL     1      31.381  55.977  40.606  1.00  0.00     0.004 C 
ENDBRANCH  18  19
ENDBRANCH  17  18
ENDBRANCH  16  17
ENDBRANCH  15  16
ENDBRANCH  13  14
ENDBRANCH  12  13
ENDBRANCH   1  11
TORSDOF 14
ENDMDL
MODEL 8
REMARK VINA RESULT:    -4.384      1.128      2.094
REMARK INTER + INTRA:          -9.103
REMARK INTER:                  -8.032
REMARK INTRA:                  -1.070
REMARK UNBOUND:                -1.130
REMARK SMILES CCCCCC=CCC=CCCCCCCCC(=O)[O-]
REMARK SMILES IDX 11 1 12 2 13 3 14 4 15 5 16 6 17 7 18 8 19 9 20 10 10 11
REMARK SMILES IDX 9 12 8 13 7 14 6 15 5 16 4 17 3 18 2 19 1 20
REMARK H PARENT
REMARK Flexibility Score: inf
ROOT
ATOM      1  C   UNL     1      35.256  44.929  40.543  1.00  0.00     0.027 C 
ENDROOT
BRANCH   1   2
ATOM      2  C   UNL     1      34.600  44.166  41.697  1.00  0.00     0.004 C 
BRANCH   2   3
ATOM      3  C   UNL     1      34.700  42.651  41.482  1.00  0.00     0.000 C 
BRANCH   3   4
ATOM      4  C   UNL     1      34.098  41.886  42.671  1.00  0.00     0.000 C 
BRANCH   4   5
ATOM      5  C   UNL     1      33.214  42.774  43.561  1.00  0.00     0.000 C 
BRANCH   5   6
ATOM      6  C   UNL     1      31.718  42.439  43.432  1.00  0.00     0.006 C 
BRANCH   6   7
ATOM      7  C   UNL     1      30.968  43.465  42.572  1.00  0.00     0.053 C 
BRANCH   7   8
ATOM      8  C   UNL     1      31.201  43.241  41.109  1.00  0.00     0.041 C 
ATOM      9  O   UNL     1      31.120  44.202  40.300  1.00  0.00    -0.550 OA
ATOM     10  O   UNL     1      31.477  41.964  40.637  1.00  0.00    -0.550 OA
ENDBRANCH   7   8
ENDBRANCH   6   7
ENDBRANCH   5   6
ENDBRANCH   4   5
ENDBRANCH   3   4
ENDBRANCH   2   3
ENDBRANCH   1   2
BRANCH   1  11
ATOM     11  C   UNL     1      35.633  43.984  39.435  1.00  0.00    -0.031 C 
ATOM     12  C   UNL     1      36.373  44.383  38.389  1.00  0.00    -0.027 C 
BRANCH  12  13
ATOM     13  C   UNL     1      36.691  43.455  37.251  1.00  0.00     0.054 C 
BRANCH  13  14
ATOM     14  C   UNL     1      35.655  43.530  36.157  1.00  0.00    -0.027 C 
ATOM     15  C   UNL     1      35.667  44.415  35.142  1.00  0.00    -0.031 C 
BRANCH  15  16
ATOM     16  C   UNL     1      36.685  45.516  34.969  1.00  0.00     0.027 C 
BRANCH  16  17
ATOM     17  C   UNL     1      36.019  46.883  34.749  1.00  0.00     0.004 C 
BRANCH  17  18
ATOM     18  C   UNL     1      36.939  47.869  34.009  1.00  0.00     0.000 C 
BRANCH  18  19
ATOM     19  C   UNL     1      36.286  48.445  32.743  1.00  0.00    -0.003 C 
ATOM     20  C   UNL     1      36.254  47.446  31.586  1.00  0.00     0.004 C 
ENDBRANCH  18  19
ENDBRANCH  17  18
ENDBRANCH  16  17
ENDBRANCH  15  16
ENDBRANCH  13  14
ENDBRANCH  12  13
ENDBRANCH   1  11
TORSDOF 14
ENDMDL
MODEL 9
REMARK VINA RESULT:    -4.370     12.103     13.974
REMARK INTER + INTRA:          -9.076
REMARK INTER:                  -8.437
REMARK INTRA:                  -0.639
REMARK UNBOUND:                -1.130
REMARK SMILES CCCCCC=CCC=CCCCCCCCC(=O)[O-]
REMARK SMILES IDX 11 1 12 2 13 3 14 4 15 5 16 6 17 7 18 8 19 9 20 10 10 11
REMARK SMILES IDX 9 12 8 13 7 14 6 15 5 16 4 17 3 18 2 19 1 20
REMARK H PARENT
REMARK Flexibility Score: inf
ROOT
ATOM      1  C   UNL     1      24.773  51.746  37.191  1.00  0.00     0.027 C 
ENDROOT
BRANCH   1   2
ATOM      2  C   UNL     1      25.466  50.381  37.218  1.00  0.00     0.004 C 
BRANCH   2   3
ATOM      3  C   UNL     1      24.722  49.368  36.340  1.00  0.00     0.000 C 
BRANCH   3   4
ATOM      4  C   UNL     1      23.237  49.743  36.205  1.00  0.00     0.000 C 
BRANCH   4   5
ATOM      5  C   UNL     1      22.381  48.588  35.661  1.00  0.00     0.000 C 
BRANCH   5   6
ATOM      6  C   UNL     1      20.879  48.920  35.650  1.00  0.00     0.006 C 
BRANCH   6   7
ATOM      7  C   UNL     1      20.182  48.486  36.947  1.00  0.00     0.053 C 
BRANCH   7   8
ATOM      8  C   UNL     1      18.693  48.447  36.792  1.00  0.00     0.041 C 
ATOM      9  O   UNL     1      18.022  49.511  36.840  1.00  0.00    -0.550 OA
ATOM     10  O   UNL     1      18.044  47.230  36.624  1.00  0.00    -0.550 OA
ENDBRANCH   7   8
ENDBRANCH   6   7
ENDBRANCH   5   6
ENDBRANCH   4   5
ENDBRANCH   3   4
ENDBRANCH   2   3
ENDBRANCH   1   2
BRANCH   1  11
ATOM     11  C   UNL     1      25.536  52.740  38.023  1.00  0.00    -0.031 C 
ATOM     12  C   UNL     1      26.387  53.617  37.469  1.00  0.00    -0.027 C 
BRANCH  12  13
ATOM     13  C   UNL     1      27.199  54.563  38.309  1.00  0.00     0.054 C 
BRANCH  13  14
ATOM     14  C   UNL     1      28.620  54.087  38.478  1.00  0.00    -0.027 C 
ATOM     15  C   UNL     1      29.579  54.748  39.155  1.00  0.00    -0.031 C 
BRANCH  15  16
ATOM     16  C   UNL     1      29.405  56.101  39.802  1.00  0.00     0.027 C 
BRANCH  16  17
ATOM     17  C   UNL     1      29.831  57.242  38.867  1.00  0.00     0.004 C 
BRANCH  17  18
ATOM     18  C   UNL     1      29.247  58.599  39.297  1.00  0.00     0.000 C 
BRANCH  18  19
ATOM     19  C   UNL     1      29.269  59.634  38.161  1.00  0.00    -0.003 C 
ATOM     20  C   UNL     1      29.539  61.054  38.660  1.00  0.00     0.004 C 
ENDBRANCH  18  19
ENDBRANCH  17  18
ENDBRANCH  16  17
ENDBRANCH  15  16
ENDBRANCH  13  14
ENDBRANCH  12  13
ENDBRANCH   1  11
TORSDOF 14
ENDMDL
