MODEL 1
REMARK VINA RESULT:    -4.039      0.000      0.000
REMARK INTER + INTRA:          -4.548
REMARK INTER:                  -4.747
REMARK INTRA:                   0.199
REMARK UNBOUND:                 0.199
REMARK SMILES O=c1c(O)c(-c2ccc(O)cc2)oc2cc(O)cc(O)c12
REMARK SMILES IDX 5 1 3 2 2 3 1 4 21 5 19 6 18 7 16 8 15 9 14 10 13 11 6 12
REMARK SMILES IDX 7 13 8 14 9 15 12 16 11 17 10 18 4 20 20 22 17 24
REMARK H PARENT 10 19 4 21 20 23 17 25
REMARK Flexibility Score: inf
ROOT
ATOM      1  C   UNL     1     -31.640 -21.943 -34.260  1.00  0.00     0.180 A 
ATOM      2  C   UNL     1     -32.547 -21.021 -34.811  1.00  0.00     0.208 A 
ATOM      3  C   UNL     1     -33.037 -21.241 -36.108  1.00  0.00     0.238 A 
ATOM      4  O   UNL     1     -33.807 -20.383 -36.616  1.00  0.00    -0.285 OA
ATOM      5  C   UNL     1     -32.629 -22.386 -36.831  1.00  0.00     0.111 A 
ATOM      6  C   UNL     1     -33.094 -22.729 -38.136  1.00  0.00     0.134 A 
ATOM      7  C   UNL     1     -32.522 -23.816 -38.810  1.00  0.00     0.093 A 
ATOM      8  C   UNL     1     -31.549 -24.611 -38.199  1.00  0.00     0.123 A 
ATOM      9  C   UNL     1     -31.133 -24.320 -36.903  1.00  0.00     0.094 A 
ATOM     10  C   UNL     1     -31.658 -23.221 -36.218  1.00  0.00     0.146 A 
ATOM     11  O   UNL     1     -31.224 -22.973 -34.988  1.00  0.00    -0.452 OA
ENDROOT
BRANCH   1  12
ATOM     12  C   UNL     1     -31.098 -21.794 -32.890  1.00  0.00     0.021 A 
ATOM     13  C   UNL     1     -30.922 -22.905 -32.045  1.00  0.00     0.016 A 
ATOM     14  C   UNL     1     -30.386 -22.742 -30.765  1.00  0.00     0.047 A 
ATOM     15  C   UNL     1     -30.006 -21.470 -30.317  1.00  0.00     0.115 A 
ATOM     16  C   UNL     1     -30.695 -20.525 -32.440  1.00  0.00     0.016 A 
ATOM     17  C   UNL     1     -30.160 -20.364 -31.159  1.00  0.00     0.047 A 
BRANCH  15  18
ATOM     18  O   UNL     1     -29.472 -21.295 -29.042  1.00  0.00    -0.508 OA
ATOM     19  H   UNL     1     -28.923 -22.020 -28.594  1.00  0.00     0.293 HD
ENDBRANCH  15  18
ENDBRANCH   1  12
BRANCH   2  20
ATOM     20  O   UNL     1     -32.921 -19.885 -34.087  1.00  0.00    -0.502 OA
ATOM     21  H   UNL     1     -33.886 -19.682 -33.854  1.00  0.00     0.293 HD
ENDBRANCH   2  20
BRANCH   6  22
ATOM     22  O   UNL     1     -34.125 -22.057 -38.799  1.00  0.00    -0.507 OA
ATOM     23  H   UNL     1     -34.727 -21.368 -38.376  1.00  0.00     0.293 HD
ENDBRANCH   6  22
BRANCH   8  24
ATOM     24  O   UNL     1     -30.997 -25.701 -38.870  1.00  0.00    -0.508 OA
ATOM     25  H   UNL     1     -31.172 -25.860 -39.855  1.00  0.00     0.293 HD
ENDBRANCH   8  24
TORSDOF 5
ENDMDL
MODEL 2
REMARK VINA RESULT:    -3.801      0.110      1.058
REMARK INTER + INTRA:          -4.268
REMARK INTER:                  -4.550
REMARK INTRA:                   0.282
REMARK UNBOUND:                 0.199
REMARK SMILES O=c1c(O)c(-c2ccc(O)cc2)oc2cc(O)cc(O)c12
REMARK SMILES IDX 5 1 3 2 2 3 1 4 21 5 19 6 18 7 16 8 15 9 14 10 13 11 6 12
REMARK SMILES IDX 7 13 8 14 9 15 12 16 11 17 10 18 4 20 20 22 17 24
REMARK H PARENT 10 19 4 21 20 23 17 25
REMARK Flexibility Score: inf
ROOT
ATOM      1  C   UNL     1     -31.653 -21.922 -34.256  1.00  0.00     0.180 A 
ATOM      2  C   UNL     1     -32.568 -21.016 -34.821  1.00  0.00     0.208 A 
ATOM      3  C   UNL     1     -33.053 -21.257 -36.116  1.00  0.00     0.238 A 
ATOM      4  O   UNL     1     -33.830 -20.414 -36.637  1.00  0.00    -0.285 OA
ATOM      5  C   UNL     1     -32.631 -22.408 -36.823  1.00  0.00     0.111 A 
ATOM      6  C   UNL     1     -33.089 -22.771 -38.126  1.00  0.00     0.134 A 
ATOM      7  C   UNL     1     -32.505 -23.861 -38.784  1.00  0.00     0.093 A 
ATOM      8  C   UNL     1     -31.526 -24.639 -38.160  1.00  0.00     0.123 A 
ATOM      9  C   UNL     1     -31.115 -24.327 -36.867  1.00  0.00     0.094 A 
ATOM     10  C   UNL     1     -31.653 -23.224 -36.198  1.00  0.00     0.146 A 
ATOM     11  O   UNL     1     -31.225 -22.956 -34.970  1.00  0.00    -0.452 OA
ENDROOT
BRANCH   1  12
ATOM     12  C   UNL     1     -31.116 -21.750 -32.887  1.00  0.00     0.021 A 
ATOM     13  C   UNL     1     -30.909 -20.472 -32.336  1.00  0.00     0.016 A 
ATOM     14  C   UNL     1     -30.424 -20.334 -31.032  1.00  0.00     0.047 A 
ATOM     15  C   UNL     1     -30.154 -21.469 -30.257  1.00  0.00     0.115 A 
ATOM     16  C   UNL     1     -30.862 -22.882 -32.095  1.00  0.00     0.016 A 
ATOM     17  C   UNL     1     -30.377 -22.742 -30.792  1.00  0.00     0.047 A 
BRANCH  15  18
ATOM     18  O   UNL     1     -29.669 -21.344 -28.957  1.00  0.00    -0.508 OA
ATOM     19  H   UNL     1     -28.818 -21.808 -28.663  1.00  0.00     0.293 HD
ENDBRANCH  15  18
ENDBRANCH   1  12
BRANCH   2  20
ATOM     20  O   UNL     1     -32.955 -19.875 -34.112  1.00  0.00    -0.502 OA
ATOM     21  H   UNL     1     -33.320 -19.048 -34.571  1.00  0.00     0.293 HD
ENDBRANCH   2  20
BRANCH   6  22
ATOM     22  O   UNL     1     -34.125 -22.118 -38.800  1.00  0.00    -0.507 OA
ATOM     23  H   UNL     1     -34.531 -22.428 -39.669  1.00  0.00     0.293 HD
ENDBRANCH   6  22
BRANCH   8  24
ATOM     24  O   UNL     1     -30.961 -25.731 -38.817  1.00  0.00    -0.508 OA
ATOM     25  H   UNL     1     -29.958 -25.860 -38.864  1.00  0.00     0.293 HD
ENDBRANCH   8  24
TORSDOF 5
ENDMDL
