MODEL 1
REMARK VINA RESULT:    -3.452      0.000      0.000
REMARK INTER + INTRA:          -5.371
REMARK INTER:                  -5.268
REMARK INTRA:                  -0.103
REMARK UNBOUND:                -0.103
REMARK SMILES CC1=CCC[C@H](C)C(=O)C[C@H](C(C)C)C(=O)C1
REMARK SMILES IDX 8 1 9 2 6 3 7 4 5 5 4 6 3 7 2 8 1 9 10 11 11 12 15 13 16 14
REMARK SMILES IDX 17 15 12 17 13 18 14 19
REMARK H PARENT
REMARK Flexibility Score: 70.00
ROOT
ATOM      1  C   UNL     1       5.579  25.077  67.174  1.00  0.00     0.136 C 
ATOM      2  O   UNL     1       6.462  24.304  67.515  1.00  0.00    -0.299 OA
ENDROOT
BRANCH   1   3
ATOM      3  C   UNL     1       5.671  25.792  65.834  1.00  0.00     0.053 C 
ATOM      4  C   UNL     1       5.575  24.789  64.676  1.00  0.00     0.016 C 
BRANCH   3   5
ATOM      5  C   UNL     1       4.573  26.878  65.716  1.00  0.00     0.015 C 
BRANCH   5   6
ATOM      6  C   UNL     1       5.110  28.293  66.014  1.00  0.00     0.028 C 
BRANCH   6   7
ATOM      7  C   UNL     1       4.018  29.197  66.527  1.00  0.00    -0.028 C 
ATOM      8  C   UNL     1       3.708  29.367  67.834  1.00  0.00    -0.070 CG0
ATOM      9  C   UNL     1       2.551  30.272  68.175  1.00  0.00     0.039 C 
ATOM     10  G   UNL     1       4.472  28.687  68.962  1.00  0.00     0.000 G0
ENDBRANCH   6   7
ENDBRANCH   5   6
ENDBRANCH   3   5
ENDBRANCH   1   3
BRANCH   1  11
ATOM     11  C   UNL     1       4.395  25.294  68.089  1.00  0.00     0.087 C 
BRANCH  11  12
ATOM     12  C   UNL     1       4.723  26.112  69.371  1.00  0.00     0.066 C 
BRANCH  12  13
ATOM     13  C   UNL     1       3.888  27.386  69.419  1.00  0.00     0.140 C 
ATOM     14  O   UNL     1       2.744  27.345  69.851  1.00  0.00    -0.299 OA
BRANCH  13  15
ATOM     15  C   UNL     1       4.478  28.709  69.001  1.00  0.00     0.106 CG0
ATOM     16  G   UNL     1       3.710  29.343  67.848  1.00  0.00     0.000 G0
ENDBRANCH  13  15
ENDBRANCH  12  13
BRANCH  12  17
ATOM     17  C   UNL     1       4.608  25.304  70.708  1.00  0.00    -0.006 C 
ATOM     18  C   UNL     1       3.681  24.080  70.585  1.00  0.00     0.008 C 
ATOM     19  C   UNL     1       5.995  24.826  71.179  1.00  0.00     0.008 C 
ENDBRANCH  12  17
ENDBRANCH  11  12
ENDBRANCH   1  11
TORSDOF 1
ENDMDL
MODEL 2
REMARK VINA RESULT:    -3.192      6.659      9.055
REMARK INTER + INTRA:          -4.975
REMARK INTER:                  -4.800
REMARK INTRA:                  -0.175
REMARK UNBOUND:                -0.103
REMARK SMILES CC1=CCC[C@H](C)C(=O)C[C@H](C(C)C)C(=O)C1
REMARK SMILES IDX 8 1 9 2 6 3 7 4 5 5 4 6 3 7 2 8 1 9 10 11 11 12 15 13 16 14
REMARK SMILES IDX 17 15 12 17 13 18 14 19
REMARK H PARENT
REMARK Flexibility Score: 70.00
ROOT
ATOM      1  C   UNL     1       7.230  35.464  67.250  1.00  0.00     0.136 C 
ATOM      2  O   UNL     1       8.242  35.533  66.567  1.00  0.00    -0.299 OA
ENDROOT
BRANCH   1   3
ATOM      3  C   UNL     1       7.295  35.776  68.738  1.00  0.00     0.053 C 
ATOM      4  C   UNL     1       8.743  35.708  69.244  1.00  0.00     0.016 C 
BRANCH   3   5
ATOM      5  C   UNL     1       6.671  37.161  69.035  1.00  0.00     0.015 C 
BRANCH   5   6
ATOM      6  C   UNL     1       5.465  37.070  69.994  1.00  0.00     0.028 C 
BRANCH   6   7
ATOM      7  C   UNL     1       4.195  37.531  69.324  1.00  0.00    -0.028 C 
ATOM      8  C   UNL     1       3.241  36.706  68.830  1.00  0.00    -0.070 CG0
ATOM      9  C   UNL     1       2.053  37.330  68.143  1.00  0.00     0.039 C 
ATOM     10  G   UNL     1       3.321  35.189  68.938  1.00  0.00     0.000 G0
ENDBRANCH   6   7
ENDBRANCH   5   6
ENDBRANCH   3   5
ENDBRANCH   1   3
BRANCH   1  11
ATOM     11  C   UNL     1       5.922  35.087  66.592  1.00  0.00     0.087 C 
BRANCH  11  12
ATOM     12  C   UNL     1       5.100  34.023  67.374  1.00  0.00     0.066 C 
BRANCH  12  13
ATOM     13  C   UNL     1       3.684  34.524  67.627  1.00  0.00     0.140 C 
ATOM     14  O   UNL     1       2.817  34.348  66.780  1.00  0.00    -0.299 OA
BRANCH  13  15
ATOM     15  C   UNL     1       3.319  35.175  68.937  1.00  0.00     0.106 CG0
ATOM     16  G   UNL     1       3.243  36.692  68.824  1.00  0.00     0.000 G0
ENDBRANCH  13  15
ENDBRANCH  12  13
BRANCH  12  17
ATOM     17  C   UNL     1       5.094  32.597  66.725  1.00  0.00    -0.006 C 
ATOM     18  C   UNL     1       5.117  32.645  65.186  1.00  0.00     0.008 C 
ATOM     19  C   UNL     1       6.300  31.771  67.211  1.00  0.00     0.008 C 
ENDBRANCH  12  17
ENDBRANCH  11  12
ENDBRANCH   1  11
TORSDOF 1
ENDMDL
MODEL 3
REMARK VINA RESULT:    -3.160      2.132      4.715
REMARK INTER + INTRA:          -4.925
REMARK INTER:                  -4.719
REMARK INTRA:                  -0.206
REMARK UNBOUND:                -0.103
REMARK SMILES CC1=CCC[C@H](C)C(=O)C[C@H](C(C)C)C(=O)C1
REMARK SMILES IDX 8 1 9 2 6 3 7 4 5 5 4 6 3 7 2 8 1 9 10 11 11 12 15 13 16 14
REMARK SMILES IDX 17 15 12 17 13 18 14 19
REMARK H PARENT
REMARK Flexibility Score: 70.00
ROOT
ATOM      1  C   UNL     1       3.959  25.450  70.201  1.00  0.00     0.136 C 
ATOM      2  O   UNL     1       3.356  24.975  71.153  1.00  0.00    -0.299 OA
ENDROOT
BRANCH   1   3
ATOM      3  C   UNL     1       5.439  25.153  70.016  1.00  0.00     0.053 C 
ATOM      4  C   UNL     1       6.138  25.001  71.374  1.00  0.00     0.016 C 
BRANCH   3   5
ATOM      5  C   UNL     1       5.640  23.886  69.148  1.00  0.00     0.015 C 
BRANCH   5   6
ATOM      6  C   UNL     1       6.562  24.142  67.938  1.00  0.00     0.028 C 
BRANCH   6   7
ATOM      7  C   UNL     1       5.894  23.748  66.645  1.00  0.00    -0.028 C 
ATOM      8  C   UNL     1       5.276  24.610  65.803  1.00  0.00    -0.070 CG0
ATOM      9  C   UNL     1       4.611  24.045  64.573  1.00  0.00     0.039 C 
ATOM     10  G   UNL     1       5.225  26.113  66.046  1.00  0.00     0.000 G0
ENDBRANCH   6   7
ENDBRANCH   5   6
ENDBRANCH   3   5
ENDBRANCH   1   3
BRANCH   1  11
ATOM     11  C   UNL     1       3.210  26.313  69.211  1.00  0.00     0.087 C 
BRANCH  11  12
ATOM     12  C   UNL     1       4.127  27.101  68.233  1.00  0.00     0.066 C 
BRANCH  12  13
ATOM     13  C   UNL     1       3.997  26.548  66.819  1.00  0.00     0.140 C 
ATOM     14  O   UNL     1       2.897  26.506  66.283  1.00  0.00    -0.299 OA
BRANCH  13  15
ATOM     15  C   UNL     1       5.216  26.113  66.046  1.00  0.00     0.106 CG0
ATOM     16  G   UNL     1       5.242  24.608  65.811  1.00  0.00     0.000 G0
ENDBRANCH  13  15
ENDBRANCH  12  13
BRANCH  12  17
ATOM     17  C   UNL     1       3.928  28.655  68.259  1.00  0.00    -0.006 C 
ATOM     18  C   UNL     1       2.498  29.063  68.658  1.00  0.00     0.008 C 
ATOM     19  C   UNL     1       4.920  29.316  69.234  1.00  0.00     0.008 C 
ENDBRANCH  12  17
ENDBRANCH  11  12
ENDBRANCH   1  11
TORSDOF 1
ENDMDL
MODEL 4
REMARK VINA RESULT:    -3.137      7.141      9.928
REMARK INTER + INTRA:          -4.890
REMARK INTER:                  -4.741
REMARK INTRA:                  -0.150
REMARK UNBOUND:                -0.103
REMARK SMILES CC1=CCC[C@H](C)C(=O)C[C@H](C(C)C)C(=O)C1
REMARK SMILES IDX 8 1 9 2 6 3 7 4 5 5 4 6 3 7 2 8 1 9 10 11 11 12 15 13 16 14
REMARK SMILES IDX 17 15 12 17 13 18 14 19
REMARK H PARENT
REMARK Flexibility Score: 70.00
ROOT
ATOM      1  C   UNL     1       5.256  37.454  69.022  1.00  0.00     0.136 C 
ATOM      2  O   UNL     1       5.495  38.461  69.672  1.00  0.00    -0.299 OA
ENDROOT
BRANCH   1   3
ATOM      3  C   UNL     1       4.005  36.639  69.315  1.00  0.00     0.053 C 
ATOM      4  C   UNL     1       2.867  37.547  69.803  1.00  0.00     0.016 C 
BRANCH   3   5
ATOM      5  C   UNL     1       3.571  35.834  68.066  1.00  0.00     0.015 C 
BRANCH   5   6
ATOM      6  C   UNL     1       3.593  34.311  68.310  1.00  0.00     0.028 C 
BRANCH   6   7
ATOM      7  C   UNL     1       3.965  33.559  67.057  1.00  0.00    -0.028 C 
ATOM      8  C   UNL     1       5.226  33.200  66.719  1.00  0.00    -0.070 CG0
ATOM      9  C   UNL     1       5.432  32.495  65.402  1.00  0.00     0.039 C 
ATOM     10  G   UNL     1       6.432  33.478  67.605  1.00  0.00     0.000 G0
ENDBRANCH   6   7
ENDBRANCH   5   6
ENDBRANCH   3   5
ENDBRANCH   1   3
BRANCH   1  11
ATOM     11  C   UNL     1       6.207  37.047  67.919  1.00  0.00     0.087 C 
BRANCH  11  12
ATOM     12  C   UNL     1       7.179  35.897  68.309  1.00  0.00     0.066 C 
BRANCH  12  13
ATOM     13  C   UNL     1       7.125  34.780  67.274  1.00  0.00     0.140 C 
ATOM     14  O   UNL     1       7.672  34.931  66.189  1.00  0.00    -0.299 OA
BRANCH  13  15
ATOM     15  C   UNL     1       6.462  33.464  67.594  1.00  0.00     0.106 CG0
ATOM     16  G   UNL     1       5.239  33.209  66.723  1.00  0.00     0.000 G0
ENDBRANCH  13  15
ENDBRANCH  12  13
BRANCH  12  17
ATOM     17  C   UNL     1       8.653  36.353  68.581  1.00  0.00    -0.006 C 
ATOM     18  C   UNL     1       8.952  37.757  68.026  1.00  0.00     0.008 C 
ATOM     19  C   UNL     1       8.957  36.344  70.091  1.00  0.00     0.008 C 
ENDBRANCH  12  17
ENDBRANCH  11  12
ENDBRANCH   1  11
TORSDOF 1
ENDMDL
MODEL 5
REMARK VINA RESULT:    -3.096      7.534      9.274
REMARK INTER + INTRA:          -4.829
REMARK INTER:                  -5.932
REMARK INTRA:                   1.104
REMARK UNBOUND:                -0.103
REMARK SMILES CC1=CCC[C@H](C)C(=O)C[C@H](C(C)C)C(=O)C1
REMARK SMILES IDX 8 1 9 2 6 3 7 4 5 5 4 6 3 7 2 8 1 9 10 11 11 12 15 13 16 14
REMARK SMILES IDX 17 15 12 17 13 18 14 19
REMARK H PARENT
REMARK Flexibility Score: 70.00
ROOT
ATOM      1  C   UNL     1       9.910  30.970  74.752  1.00  0.00     0.136 C 
ATOM      2  O   UNL     1       8.688  30.995  74.752  1.00  0.00    -0.299 OA
ENDROOT
BRANCH   1   3
ATOM      3  C   UNL     1      10.696  32.273  74.744  1.00  0.00     0.053 C 
ATOM      4  C   UNL     1      11.239  32.588  76.145  1.00  0.00     0.016 C 
BRANCH   3   5
ATOM      5  C   UNL     1      11.845  32.213  73.707  1.00  0.00     0.015 C 
BRANCH   5   6
ATOM      6  C   UNL     1      11.402  32.693  72.310  1.00  0.00     0.028 C 
BRANCH   6   7
ATOM      7  C   UNL     1      10.118  32.029  71.882  1.00  0.00    -0.028 C 
ATOM      8  C   UNL     1      10.029  30.771  71.387  1.00  0.00    -0.070 CG0
ATOM      9  C   UNL     1       8.672  30.274  70.958  1.00  0.00     0.039 C 
ATOM     10  G   UNL     1      11.232  29.848  71.247  1.00  0.00     0.000 G0
ENDBRANCH   6   7
ENDBRANCH   5   6
ENDBRANCH   3   5
ENDBRANCH   1   3
BRANCH   1  11
ATOM     11  C   UNL     1      10.620  29.635  74.778  1.00  0.00     0.087 C 
BRANCH  11  12
ATOM     12  C   UNL     1      10.410  28.777  73.498  1.00  0.00     0.066 C 
BRANCH  12  13
ATOM     13  C   UNL     1      11.514  29.052  72.485  1.00  0.00     0.140 C 
ATOM     14  O   UNL     1      12.631  28.585  72.663  1.00  0.00    -0.299 OA
BRANCH  13  15
ATOM     15  C   UNL     1      11.231  29.840  71.231  1.00  0.00     0.106 CG0
ATOM     16  G   UNL     1      10.032  30.765  71.391  1.00  0.00     0.000 G0
ENDBRANCH  13  15
ENDBRANCH  12  13
BRANCH  12  17
ATOM     17  C   UNL     1      10.246  27.242  73.761  1.00  0.00    -0.006 C 
ATOM     18  C   UNL     1      10.524  26.857  75.226  1.00  0.00     0.008 C 
ATOM     19  C   UNL     1       8.827  26.772  73.389  1.00  0.00     0.008 C 
ENDBRANCH  12  17
ENDBRANCH  11  12
ENDBRANCH   1  11
TORSDOF 1
ENDMDL
MODEL 6
REMARK VINA RESULT:    -3.092      2.022      4.172
REMARK INTER + INTRA:          -4.821
REMARK INTER:                  -4.657
REMARK INTRA:                  -0.164
REMARK UNBOUND:                -0.103
REMARK SMILES CC1=CCC[C@H](C)C(=O)C[C@H](C(C)C)C(=O)C1
REMARK SMILES IDX 8 1 9 2 6 3 7 4 5 5 4 6 3 7 2 8 1 9 10 11 11 12 15 13 16 14
REMARK SMILES IDX 17 15 12 17 13 18 14 19
REMARK H PARENT
REMARK Flexibility Score: 70.00
ROOT
ATOM      1  C   UNL     1       4.353  28.159  69.244  1.00  0.00     0.136 C 
ATOM      2  O   UNL     1       5.027  29.160  69.437  1.00  0.00    -0.299 OA
ENDROOT
BRANCH   1   3
ATOM      3  C   UNL     1       3.120  28.232  68.355  1.00  0.00     0.053 C 
ATOM      4  C   UNL     1       2.292  29.485  68.677  1.00  0.00     0.016 C 
BRANCH   3   5
ATOM      5  C   UNL     1       3.521  28.206  66.859  1.00  0.00     0.015 C 
BRANCH   5   6
ATOM      6  C   UNL     1       2.860  27.042  66.093  1.00  0.00     0.028 C 
BRANCH   6   7
ATOM      7  C   UNL     1       3.890  26.183  65.404  1.00  0.00    -0.028 C 
ATOM      8  C   UNL     1       4.349  25.000  65.877  1.00  0.00    -0.070 CG0
ATOM      9  C   UNL     1       5.419  24.290  65.088  1.00  0.00     0.039 C 
ATOM     10  G   UNL     1       3.834  24.366  67.162  1.00  0.00     0.000 G0
ENDBRANCH   6   7
ENDBRANCH   5   6
ENDBRANCH   3   5
ENDBRANCH   1   3
BRANCH   1  11
ATOM     11  C   UNL     1       4.772  26.853  69.883  1.00  0.00     0.087 C 
BRANCH  11  12
ATOM     12  C   UNL     1       3.899  25.634  69.470  1.00  0.00     0.066 C 
BRANCH  12  13
ATOM     13  C   UNL     1       4.598  24.820  68.389  1.00  0.00     0.140 C 
ATOM     14  O   UNL     1       5.772  24.502  68.532  1.00  0.00    -0.299 OA
BRANCH  13  15
ATOM     15  C   UNL     1       3.844  24.345  67.172  1.00  0.00     0.106 CG0
ATOM     16  G   UNL     1       4.342  25.004  65.893  1.00  0.00     0.000 G0
ENDBRANCH  13  15
ENDBRANCH  12  13
BRANCH  12  17
ATOM     17  C   UNL     1       3.440  24.726  70.661  1.00  0.00    -0.006 C 
ATOM     18  C   UNL     1       4.559  24.490  71.692  1.00  0.00     0.008 C 
ATOM     19  C   UNL     1       2.227  25.343  71.383  1.00  0.00     0.008 C 
ENDBRANCH  12  17
ENDBRANCH  11  12
ENDBRANCH   1  11
TORSDOF 1
ENDMDL
MODEL 7
REMARK VINA RESULT:    -3.075      3.243      5.207
REMARK INTER + INTRA:          -4.796
REMARK INTER:                  -4.397
REMARK INTRA:                  -0.398
REMARK UNBOUND:                -0.103
REMARK SMILES CC1=CCC[C@H](C)C(=O)C[C@H](C(C)C)C(=O)C1
REMARK SMILES IDX 8 1 9 2 6 3 7 4 5 5 4 6 3 7 2 8 1 9 10 11 11 12 15 13 16 14
REMARK SMILES IDX 17 15 12 17 13 18 14 19
REMARK H PARENT
REMARK Flexibility Score: 70.00
ROOT
ATOM      1  C   UNL     1       4.303  25.801  70.014  1.00  0.00     0.136 C 
ATOM      2  O   UNL     1       4.132  26.916  69.545  1.00  0.00    -0.299 OA
ENDROOT
BRANCH   1   3
ATOM      3  C   UNL     1       3.106  24.912  70.316  1.00  0.00     0.053 C 
ATOM      4  C   UNL     1       2.339  25.432  71.541  1.00  0.00     0.016 C 
BRANCH   3   5
ATOM      5  C   UNL     1       2.174  24.810  69.084  1.00  0.00     0.015 C 
BRANCH   5   6
ATOM      6  C   UNL     1       2.441  23.542  68.247  1.00  0.00     0.028 C 
BRANCH   6   7
ATOM      7  C   UNL     1       3.320  23.842  67.060  1.00  0.00    -0.028 C 
ATOM      8  C   UNL     1       4.603  23.432  66.927  1.00  0.00    -0.070 CG0
ATOM      9  C   UNL     1       5.361  23.862  65.697  1.00  0.00     0.039 C 
ATOM     10  G   UNL     1       5.306  22.563  67.962  1.00  0.00     0.000 G0
ENDBRANCH   6   7
ENDBRANCH   5   6
ENDBRANCH   3   5
ENDBRANCH   1   3
BRANCH   1  11
ATOM     11  C   UNL     1       5.713  25.317  70.268  1.00  0.00     0.087 C 
BRANCH  11  12
ATOM     12  C   UNL     1       5.873  23.770  70.225  1.00  0.00     0.066 C 
BRANCH  12  13
ATOM     13  C   UNL     1       6.279  23.315  68.829  1.00  0.00     0.140 C 
ATOM     14  O   UNL     1       7.417  23.522  68.430  1.00  0.00    -0.299 OA
BRANCH  13  15
ATOM     15  C   UNL     1       5.314  22.553  67.955  1.00  0.00     0.106 CG0
ATOM     16  G   UNL     1       4.630  23.452  66.934  1.00  0.00     0.000 G0
ENDBRANCH  13  15
ENDBRANCH  12  13
BRANCH  12  17
ATOM     17  C   UNL     1       6.828  23.181  71.318  1.00  0.00    -0.006 C 
ATOM     18  C   UNL     1       7.777  24.240  71.910  1.00  0.00     0.008 C 
ATOM     19  C   UNL     1       6.020  22.547  72.466  1.00  0.00     0.008 C 
ENDBRANCH  12  17
ENDBRANCH  11  12
ENDBRANCH   1  11
TORSDOF 1
ENDMDL
MODEL 8
REMARK VINA RESULT:    -3.016      6.519      9.522
REMARK INTER + INTRA:          -4.706
REMARK INTER:                  -4.541
REMARK INTRA:                  -0.165
REMARK UNBOUND:                -0.103
REMARK SMILES CC1=CCC[C@H](C)C(=O)C[C@H](C(C)C)C(=O)C1
REMARK SMILES IDX 8 1 9 2 6 3 7 4 5 5 4 6 3 7 2 8 1 9 10 11 11 12 15 13 16 14
REMARK SMILES IDX 17 15 12 17 13 18 14 19
REMARK H PARENT
REMARK Flexibility Score: 70.00
ROOT
ATOM      1  C   UNL     1       6.316  36.428  69.150  1.00  0.00     0.136 C 
ATOM      2  O   UNL     1       7.119  36.738  70.018  1.00  0.00    -0.299 OA
ENDROOT
BRANCH   1   3
ATOM      3  C   UNL     1       6.788  36.209  67.721  1.00  0.00     0.053 C 
ATOM      4  C   UNL     1       7.848  37.251  67.333  1.00  0.00     0.016 C 
BRANCH   3   5
ATOM      5  C   UNL     1       7.336  34.772  67.539  1.00  0.00     0.015 C 
BRANCH   5   6
ATOM      6  C   UNL     1       6.691  34.043  66.341  1.00  0.00     0.028 C 
BRANCH   6   7
ATOM      7  C   UNL     1       5.783  32.931  66.800  1.00  0.00    -0.028 C 
ATOM      8  C   UNL     1       4.448  33.055  66.991  1.00  0.00    -0.070 CG0
ATOM      9  C   UNL     1       3.691  31.855  67.502  1.00  0.00     0.039 C 
ATOM     10  G   UNL     1       3.688  34.345  66.714  1.00  0.00     0.000 G0
ENDBRANCH   6   7
ENDBRANCH   5   6
ENDBRANCH   3   5
ENDBRANCH   1   3
BRANCH   1  11
ATOM     11  C   UNL     1       4.861  36.250  69.522  1.00  0.00     0.087 C 
BRANCH  11  12
ATOM     12  C   UNL     1       3.874  36.412  68.330  1.00  0.00     0.066 C 
BRANCH  12  13
ATOM     13  C   UNL     1       3.255  35.070  67.965  1.00  0.00     0.140 C 
ATOM     14  O   UNL     1       2.375  34.595  68.671  1.00  0.00    -0.299 OA
BRANCH  13  15
ATOM     15  C   UNL     1       3.665  34.348  66.706  1.00  0.00     0.106 CG0
ATOM     16  G   UNL     1       4.432  33.066  67.002  1.00  0.00     0.000 G0
ENDBRANCH  13  15
ENDBRANCH  12  13
BRANCH  12  17
ATOM     17  C   UNL     1       2.777  37.511  68.536  1.00  0.00    -0.006 C 
ATOM     18  C   UNL     1       2.650  37.955  70.005  1.00  0.00     0.008 C 
ATOM     19  C   UNL     1       3.075  38.750  67.670  1.00  0.00     0.008 C 
ENDBRANCH  12  17
ENDBRANCH  11  12
ENDBRANCH   1  11
TORSDOF 1
ENDMDL
MODEL 9
REMARK VINA RESULT:    -2.836      6.873      8.795
REMARK INTER + INTRA:          -4.432
REMARK INTER:                  -4.415
REMARK INTRA:                  -0.017
REMARK UNBOUND:                -0.103
REMARK SMILES CC1=CCC[C@H](C)C(=O)C[C@H](C(C)C)C(=O)C1
REMARK SMILES IDX 8 1 9 2 6 3 7 4 5 5 4 6 3 7 2 8 1 9 10 11 11 12 15 13 16 14
REMARK SMILES IDX 17 15 12 17 13 18 14 19
REMARK H PARENT
REMARK Flexibility Score: 70.00
ROOT
ATOM      1  C   UNL     1       6.932  34.260  66.139  1.00  0.00     0.136 C 
ATOM      2  O   UNL     1       7.760  34.953  65.566  1.00  0.00    -0.299 OA
ENDROOT
BRANCH   1   3
ATOM      3  C   UNL     1       6.127  33.233  65.357  1.00  0.00     0.053 C 
ATOM      4  C   UNL     1       6.007  31.921  66.146  1.00  0.00     0.016 C 
BRANCH   3   5
ATOM      5  C   UNL     1       4.728  33.790  64.998  1.00  0.00     0.015 C 
BRANCH   5   6
ATOM      6  C   UNL     1       3.718  33.634  66.154  1.00  0.00     0.028 C 
BRANCH   6   7
ATOM      7  C   UNL     1       3.059  34.948  66.488  1.00  0.00    -0.028 C 
ATOM      8  C   UNL     1       3.212  35.612  67.659  1.00  0.00    -0.070 CG0
ATOM      9  C   UNL     1       2.440  36.892  67.853  1.00  0.00     0.039 C 
ATOM     10  G   UNL     1       4.122  35.121  68.777  1.00  0.00     0.000 G0
ENDBRANCH   6   7
ENDBRANCH   5   6
ENDBRANCH   3   5
ENDBRANCH   1   3
BRANCH   1  11
ATOM     11  C   UNL     1       6.736  34.427  67.630  1.00  0.00     0.087 C 
BRANCH  11  12
ATOM     12  C   UNL     1       6.537  35.902  68.084  1.00  0.00     0.066 C 
BRANCH  12  13
ATOM     13  C   UNL     1       5.319  36.020  68.991  1.00  0.00     0.140 C 
ATOM     14  O   UNL     1       5.293  36.880  69.862  1.00  0.00    -0.299 OA
BRANCH  13  15
ATOM     15  C   UNL     1       4.117  35.133  68.788  1.00  0.00     0.106 CG0
ATOM     16  G   UNL     1       3.220  35.629  67.662  1.00  0.00     0.000 G0
ENDBRANCH  13  15
ENDBRANCH  12  13
BRANCH  12  17
ATOM     17  C   UNL     1       7.801  36.560  68.735  1.00  0.00    -0.006 C 
ATOM     18  C   UNL     1       8.655  35.552  69.525  1.00  0.00     0.008 C 
ATOM     19  C   UNL     1       8.686  37.222  67.661  1.00  0.00     0.008 C 
ENDBRANCH  12  17
ENDBRANCH  11  12
ENDBRANCH   1  11
TORSDOF 1
ENDMDL
