MODEL 1
REMARK VINA RESULT:    -6.502      0.000      0.000
REMARK INTER + INTRA:          -7.496
REMARK INTER:                  -7.263
REMARK INTRA:                  -0.233
REMARK UNBOUND:                -0.233
REMARK SMILES CC=C(C)C=CC=C(C)C
REMARK SMILES IDX 5 1 6 2 3 3 1 4 2 5 4 6 7 7 8 8 9 9 10 10
REMARK H PARENT
REMARK Flexibility Score: inf
ROOT
ATOM      1  C   UNL     1       4.379   8.472  11.771  1.00  0.00     0.003 C 
ATOM      2  C   UNL     1       4.724   7.677  12.792  1.00  0.00     0.000 C 
ENDROOT
BRANCH   1   3
ATOM      3  C   UNL     1       3.629   9.743  11.940  1.00  0.00    -0.055 C 
ATOM      4  C   UNL     1       2.852  11.901  10.908  1.00  0.00     0.036 C 
ATOM      5  C   UNL     1       3.525  10.562  10.875  1.00  0.00    -0.027 C 
ATOM      6  C   UNL     1       3.063  10.124  13.290  1.00  0.00     0.044 C 
ENDBRANCH   1   3
BRANCH   2   7
ATOM      7  C   UNL     1       5.478   6.428  12.554  1.00  0.00    -0.001 C 
ATOM      8  C   UNL     1       6.711   6.191  13.041  1.00  0.00    -0.076 C 
ATOM      9  C   UNL     1       7.442   7.202  13.888  1.00  0.00     0.039 C 
ATOM     10  C   UNL     1       7.367   4.875  12.726  1.00  0.00     0.039 C 
ENDBRANCH   2   7
TORSDOF 2
ENDMDL
MODEL 2
REMARK VINA RESULT:    -6.145      0.941      5.443
REMARK INTER + INTRA:          -7.097
REMARK INTER:                  -6.955
REMARK INTRA:                  -0.143
REMARK UNBOUND:                -0.233
REMARK SMILES CC=C(C)C=CC=C(C)C
REMARK SMILES IDX 5 1 6 2 3 3 1 4 2 5 4 6 7 7 8 8 9 9 10 10
REMARK H PARENT
REMARK Flexibility Score: inf
ROOT
ATOM      1  C   UNL     1       4.666   7.773  12.894  1.00  0.00     0.003 C 
ATOM      2  C   UNL     1       4.395   8.980  13.407  1.00  0.00     0.000 C 
ENDROOT
BRANCH   1   3
ATOM      3  C   UNL     1       5.914   7.021  13.186  1.00  0.00    -0.055 C 
ATOM      4  C   UNL     1       7.308   4.974  12.753  1.00  0.00     0.036 C 
ATOM      5  C   UNL     1       6.127   5.869  12.523  1.00  0.00    -0.027 C 
ATOM      6  C   UNL     1       6.873   7.513  14.249  1.00  0.00     0.044 C 
ENDBRANCH   1   3
BRANCH   2   7
ATOM      7  C   UNL     1       3.128   9.671  13.080  1.00  0.00    -0.001 C 
ATOM      8  C   UNL     1       2.919  10.354  11.940  1.00  0.00    -0.076 C 
ATOM      9  C   UNL     1       3.980  10.475  10.875  1.00  0.00     0.039 C 
ATOM     10  C   UNL     1       1.581  11.010  11.730  1.00  0.00     0.039 C 
ENDBRANCH   2   7
TORSDOF 2
ENDMDL
MODEL 3
REMARK VINA RESULT:    -6.088      0.825      1.413
REMARK INTER + INTRA:          -7.033
REMARK INTER:                  -6.884
REMARK INTRA:                  -0.149
REMARK UNBOUND:                -0.233
REMARK SMILES CC=C(C)C=CC=C(C)C
REMARK SMILES IDX 5 1 6 2 3 3 1 4 2 5 4 6 7 7 8 8 9 9 10 10
REMARK H PARENT
REMARK Flexibility Score: inf
ROOT
ATOM      1  C   UNL     1       4.427   8.757  12.228  1.00  0.00     0.003 C 
ATOM      2  C   UNL     1       4.771   8.095  13.340  1.00  0.00     0.000 C 
ENDROOT
BRANCH   1   3
ATOM      3  C   UNL     1       3.363   9.794  12.188  1.00  0.00    -0.055 C 
ATOM      4  C   UNL     1       2.212  11.603  10.875  1.00  0.00     0.036 C 
ATOM      5  C   UNL     1       3.201  10.489  11.046  1.00  0.00    -0.027 C 
ATOM      6  C   UNL     1       2.542  10.095  13.423  1.00  0.00     0.044 C 
ENDBRANCH   1   3
BRANCH   2   7
ATOM      7  C   UNL     1       5.846   7.080  13.311  1.00  0.00    -0.001 C 
ATOM      8  C   UNL     1       5.671   5.815  12.887  1.00  0.00    -0.076 C 
ATOM      9  C   UNL     1       4.336   5.315  12.394  1.00  0.00     0.039 C 
ATOM     10  C   UNL     1       6.850   4.881  12.907  1.00  0.00     0.039 C 
ENDBRANCH   2   7
TORSDOF 2
ENDMDL
MODEL 4
REMARK VINA RESULT:    -5.880      1.550      2.512
REMARK INTER + INTRA:          -6.800
REMARK INTER:                  -6.545
REMARK INTRA:                  -0.255
REMARK UNBOUND:                -0.233
REMARK SMILES CC=C(C)C=CC=C(C)C
REMARK SMILES IDX 5 1 6 2 3 3 1 4 2 5 4 6 7 7 8 8 9 9 10 10
REMARK H PARENT
REMARK Flexibility Score: inf
ROOT
ATOM      1  C   UNL     1       3.660   9.824  12.772  1.00  0.00     0.003 C 
ATOM      2  C   UNL     1       3.779   8.894  13.727  1.00  0.00     0.000 C 
ENDROOT
BRANCH   1   3
ATOM      3  C   UNL     1       2.353  10.368  12.318  1.00  0.00    -0.055 C 
ATOM      4  C   UNL     1      -0.123  10.550  12.716  1.00  0.00     0.036 C 
ATOM      5  C   UNL     1       1.268  10.119  13.074  1.00  0.00    -0.027 C 
ATOM      6  C   UNL     1       2.251  11.119  11.008  1.00  0.00     0.044 C 
ENDBRANCH   1   3
BRANCH   2   7
ATOM      7  C   UNL     1       5.111   8.401  14.138  1.00  0.00    -0.001 C 
ATOM      8  C   UNL     1       5.710   7.321  13.601  1.00  0.00    -0.076 C 
ATOM      9  C   UNL     1       5.059   6.506  12.512  1.00  0.00     0.039 C 
ATOM     10  C   UNL     1       7.070   6.927  14.108  1.00  0.00     0.039 C 
ENDBRANCH   2   7
TORSDOF 2
ENDMDL
MODEL 5
REMARK VINA RESULT:    -5.633      0.906      5.358
REMARK INTER + INTRA:          -6.525
REMARK INTER:                  -6.394
REMARK INTRA:                  -0.131
REMARK UNBOUND:                -0.233
REMARK SMILES CC=C(C)C=CC=C(C)C
REMARK SMILES IDX 5 1 6 2 3 3 1 4 2 5 4 6 7 7 8 8 9 9 10 10
REMARK H PARENT
REMARK Flexibility Score: inf
ROOT
ATOM      1  C   UNL     1       4.345   7.341  11.935  1.00  0.00     0.003 C 
ATOM      2  C   UNL     1       4.775   8.442  11.306  1.00  0.00     0.000 C 
ENDROOT
BRANCH   1   3
ATOM      3  C   UNL     1       5.247   6.244  12.375  1.00  0.00    -0.055 C 
ATOM      4  C   UNL     1       7.605   5.472  12.784  1.00  0.00     0.036 C 
ATOM      5  C   UNL     1       6.570   6.494  12.419  1.00  0.00    -0.027 C 
ATOM      6  C   UNL     1       4.687   4.875  12.693  1.00  0.00     0.044 C 
ENDBRANCH   1   3
BRANCH   2   7
ATOM      7  C   UNL     1       3.824   9.500  10.902  1.00  0.00    -0.001 C 
ATOM      8  C   UNL     1       3.244  10.356  11.764  1.00  0.00    -0.076 C 
ATOM      9  C   UNL     1       3.522  10.309  13.245  1.00  0.00     0.039 C 
ATOM     10  C   UNL     1       2.294  11.389  11.221  1.00  0.00     0.039 C 
ENDBRANCH   2   7
TORSDOF 2
ENDMDL
MODEL 6
REMARK VINA RESULT:    -3.746      1.522      2.136
REMARK INTER + INTRA:          -4.417
REMARK INTER:                  -4.404
REMARK INTRA:                  -0.013
REMARK UNBOUND:                -0.233
REMARK SMILES CC=C(C)C=CC=C(C)C
REMARK SMILES IDX 5 1 6 2 3 3 1 4 2 5 4 6 7 7 8 8 9 9 10 10
REMARK H PARENT
REMARK Flexibility Score: inf
ROOT
ATOM      1  C   UNL     1       5.114   8.045  13.207  1.00  0.00     0.003 C 
ATOM      2  C   UNL     1       6.201   7.645  13.878  1.00  0.00     0.000 C 
ENDROOT
BRANCH   1   3
ATOM      3  C   UNL     1       4.027   8.855  13.818  1.00  0.00    -0.055 C 
ATOM      4  C   UNL     1       2.354  10.712  13.542  1.00  0.00     0.036 C 
ATOM      5  C   UNL     1       3.423   9.782  13.050  1.00  0.00    -0.027 C 
ATOM      6  C   UNL     1       3.668   8.678  15.277  1.00  0.00     0.044 C 
ENDBRANCH   1   3
BRANCH   2   7
ATOM      7  C   UNL     1       7.250   6.847  13.207  1.00  0.00    -0.001 C 
ATOM      8  C   UNL     1       7.066   5.591  12.761  1.00  0.00    -0.076 C 
ATOM      9  C   UNL     1       5.747   4.875  12.910  1.00  0.00     0.039 C 
ATOM     10  C   UNL     1       8.218   4.890  12.093  1.00  0.00     0.039 C 
ENDBRANCH   2   7
TORSDOF 2
ENDMDL
