MODEL 1
REMARK VINA RESULT:    -7.434      0.000      0.000
REMARK INTER + INTRA:          -9.513
REMARK INTER:                  -9.172
REMARK INTRA:                  -0.341
REMARK UNBOUND:                -0.341
REMARK SMILES COc1cc(-c2[o+]c3cc(O)cc(O)c3cc2O)ccc1O
REMARK SMILES IDX 6 1 7 2 8 3 9 4 10 5 12 6 13 7 15 8 16 9 17 10 5 11 3 12
REMARK SMILES IDX 21 13 4 14 20 15 19 16 2 17 1 18 22 19 18 21 11 23 14 25
REMARK H PARENT 22 20 18 22 11 24 14 26
REMARK Flexibility Score: inf
ROOT
ATOM      1  C   UNL     1     -17.879  12.156 -35.204  1.00  0.00     0.402 A 
ATOM      2  O   UNL     1     -18.927  11.346 -35.075  1.00  0.00    -0.202 OA
ATOM      3  C   UNL     1     -19.634  10.899 -36.108  1.00  0.00     0.368 A 
ATOM      4  C   UNL     1     -20.717  10.047 -35.873  1.00  0.00     0.162 A 
ATOM      5  C   UNL     1     -21.476   9.560 -36.940  1.00  0.00     0.128 A 
ATOM      6  C   UNL     1     -21.150   9.926 -38.249  1.00  0.00     0.093 A 
ATOM      7  C   UNL     1     -20.069  10.776 -38.511  1.00  0.00     0.136 A 
ATOM      8  C   UNL     1     -19.297  11.276 -37.430  1.00  0.00     0.125 A 
ATOM      9  C   UNL     1     -18.207  12.145 -37.598  1.00  0.00     0.078 A 
ATOM     10  C   UNL     1     -17.496  12.600 -36.483  1.00  0.00     0.223 A 
ENDROOT
BRANCH   1  11
ATOM     11  C   UNL     1     -17.165  12.579 -33.977  1.00  0.00     0.087 A 
ATOM     12  C   UNL     1     -16.616  14.265 -32.291  1.00  0.00     0.161 A 
ATOM     13  C   UNL     1     -15.743  13.351 -31.675  1.00  0.00     0.157 A 
ATOM     14  C   UNL     1     -17.319  13.872 -33.448  1.00  0.00     0.068 A 
ATOM     15  C   UNL     1     -15.574  12.072 -32.213  1.00  0.00     0.051 A 
ATOM     16  C   UNL     1     -16.272  11.690 -33.360  1.00  0.00     0.022 A 
BRANCH  12  17
ATOM     17  O   UNL     1     -16.758  15.547 -31.735  1.00  0.00    -0.493 OA
ATOM     18  C   UNL     1     -15.949  16.669 -32.073  1.00  0.00     0.278 C 
ENDBRANCH  12  17
BRANCH  13  19
ATOM     19  O   UNL     1     -15.031  13.696 -30.526  1.00  0.00    -0.504 OA
ATOM     20  H   UNL     1     -14.446  13.032 -30.034  1.00  0.00     0.293 HD
ENDBRANCH  13  19
ENDBRANCH   1  11
BRANCH  10  21
ATOM     21  O   UNL     1     -16.444  13.502 -36.644  1.00  0.00    -0.500 OA
ATOM     22  H   UNL     1     -15.478  13.218 -36.532  1.00  0.00     0.294 HD
ENDBRANCH  10  21
BRANCH   5  23
ATOM     23  O   UNL     1     -22.557   8.711 -36.714  1.00  0.00    -0.507 OA
ATOM     24  H   UNL     1     -23.261   8.925 -36.016  1.00  0.00     0.293 HD
ENDBRANCH   5  23
BRANCH   7  25
ATOM     25  O   UNL     1     -19.807  11.092 -39.848  1.00  0.00    -0.507 OA
ATOM     26  H   UNL     1     -19.519  10.422 -40.546  1.00  0.00     0.293 HD
ENDBRANCH   7  25
TORSDOF 6
ENDMDL
MODEL 2
REMARK VINA RESULT:    -6.817      7.033     10.044
REMARK INTER + INTRA:          -8.753
REMARK INTER:                  -8.329
REMARK INTRA:                  -0.424
REMARK UNBOUND:                -0.341
REMARK SMILES COc1cc(-c2[o+]c3cc(O)cc(O)c3cc2O)ccc1O
REMARK SMILES IDX 6 1 7 2 8 3 9 4 10 5 12 6 13 7 15 8 16 9 17 10 5 11 3 12
REMARK SMILES IDX 21 13 4 14 20 15 19 16 2 17 1 18 22 19 18 21 11 23 14 25
REMARK H PARENT 22 20 18 22 11 24 14 26
REMARK Flexibility Score: inf
ROOT
ATOM      1  C   UNL     1     -24.216  15.104 -38.947  1.00  0.00     0.402 A 
ATOM      2  O   UNL     1     -24.267  16.004 -39.925  1.00  0.00    -0.202 OA
ATOM      3  C   UNL     1     -24.514  17.293 -39.717  1.00  0.00     0.368 A 
ATOM      4  C   UNL     1     -24.544  18.165 -40.809  1.00  0.00     0.162 A 
ATOM      5  C   UNL     1     -24.800  19.525 -40.619  1.00  0.00     0.128 A 
ATOM      6  C   UNL     1     -25.025  20.017 -39.331  1.00  0.00     0.093 A 
ATOM      7  C   UNL     1     -24.998  19.165 -38.220  1.00  0.00     0.136 A 
ATOM      8  C   UNL     1     -24.743  17.782 -38.408  1.00  0.00     0.125 A 
ATOM      9  C   UNL     1     -24.713  16.853 -37.355  1.00  0.00     0.078 A 
ATOM     10  C   UNL     1     -24.459  15.504 -37.619  1.00  0.00     0.223 A 
ENDROOT
BRANCH   1  11
ATOM     11  C   UNL     1     -23.922  13.697 -39.304  1.00  0.00     0.087 A 
ATOM     12  C   UNL     1     -22.347  11.849 -39.609  1.00  0.00     0.161 A 
ATOM     13  C   UNL     1     -23.405  11.032 -40.046  1.00  0.00     0.157 A 
ATOM     14  C   UNL     1     -22.614  13.184 -39.246  1.00  0.00     0.068 A 
ATOM     15  C   UNL     1     -24.702  11.548 -40.124  1.00  0.00     0.051 A 
ATOM     16  C   UNL     1     -24.958  12.872 -39.764  1.00  0.00     0.022 A 
BRANCH  12  17
ATOM     17  O   UNL     1     -21.053  11.307 -39.551  1.00  0.00    -0.493 OA
ATOM     18  C   UNL     1     -20.084  11.415 -40.589  1.00  0.00     0.278 C 
ENDBRANCH  12  17
BRANCH  13  19
ATOM     19  O   UNL     1     -23.188   9.703 -40.410  1.00  0.00    -0.504 OA
ATOM     20  H   UNL     1     -23.934   9.018 -40.425  1.00  0.00     0.293 HD
ENDBRANCH  13  19
ENDBRANCH   1  11
BRANCH  10  21
ATOM     21  O   UNL     1     -24.478  14.572 -36.582  1.00  0.00    -0.500 OA
ATOM     22  H   UNL     1     -23.796  14.595 -35.834  1.00  0.00     0.294 HD
ENDBRANCH  10  21
BRANCH   5  23
ATOM     23  O   UNL     1     -24.832  20.401 -41.703  1.00  0.00    -0.507 OA
ATOM     24  H   UNL     1     -25.147  21.359 -41.600  1.00  0.00     0.293 HD
ENDBRANCH   5  23
BRANCH   7  25
ATOM     25  O   UNL     1     -25.230  19.736 -36.965  1.00  0.00    -0.507 OA
ATOM     26  H   UNL     1     -25.678  19.261 -36.196  1.00  0.00     0.293 HD
ENDBRANCH   7  25
TORSDOF 6
ENDMDL
MODEL 3
REMARK VINA RESULT:    -6.792      1.465      2.634
REMARK INTER + INTRA:          -8.722
REMARK INTER:                  -8.304
REMARK INTRA:                  -0.418
REMARK UNBOUND:                -0.341
REMARK SMILES COc1cc(-c2[o+]c3cc(O)cc(O)c3cc2O)ccc1O
REMARK SMILES IDX 6 1 7 2 8 3 9 4 10 5 12 6 13 7 15 8 16 9 17 10 5 11 3 12
REMARK SMILES IDX 21 13 4 14 20 15 19 16 2 17 1 18 22 19 18 21 11 23 14 25
REMARK H PARENT 22 20 18 22 11 24 14 26
REMARK Flexibility Score: inf
ROOT
ATOM      1  C   UNL     1     -19.022  12.507 -34.384  1.00  0.00     0.402 A 
ATOM      2  O   UNL     1     -18.675  12.311 -35.654  1.00  0.00    -0.202 OA
ATOM      3  C   UNL     1     -19.542  11.978 -36.604  1.00  0.00     0.368 A 
ATOM      4  C   UNL     1     -19.083  11.798 -37.912  1.00  0.00     0.162 A 
ATOM      5  C   UNL     1     -19.974  11.449 -38.930  1.00  0.00     0.128 A 
ATOM      6  C   UNL     1     -21.330  11.282 -38.641  1.00  0.00     0.093 A 
ATOM      7  C   UNL     1     -21.816  11.458 -37.340  1.00  0.00     0.136 A 
ATOM      8  C   UNL     1     -20.915  11.809 -36.301  1.00  0.00     0.125 A 
ATOM      9  C   UNL     1     -21.310  11.991 -34.965  1.00  0.00     0.078 A 
ATOM     10  C   UNL     1     -20.364  12.331 -33.995  1.00  0.00     0.223 A 
ENDROOT
BRANCH   1  11
ATOM     11  C   UNL     1     -17.965  12.885 -33.419  1.00  0.00     0.087 A 
ATOM     12  C   UNL     1     -16.732  14.571 -32.145  1.00  0.00     0.161 A 
ATOM     13  C   UNL     1     -15.907  13.559 -31.622  1.00  0.00     0.157 A 
ATOM     14  C   UNL     1     -17.756  14.226 -33.050  1.00  0.00     0.068 A 
ATOM     15  C   UNL     1     -16.101  12.230 -32.006  1.00  0.00     0.051 A 
ATOM     16  C   UNL     1     -17.117  11.894 -32.904  1.00  0.00     0.022 A 
BRANCH  12  17
ATOM     17  O   UNL     1     -16.506  15.900 -31.750  1.00  0.00    -0.493 OA
ATOM     18  C   UNL     1     -15.718  16.837 -32.478  1.00  0.00     0.278 C 
ENDBRANCH  12  17
BRANCH  13  19
ATOM     19  O   UNL     1     -14.885  13.856 -30.721  1.00  0.00    -0.504 OA
ATOM     20  H   UNL     1     -14.918  13.564 -29.751  1.00  0.00     0.293 HD
ENDBRANCH  13  19
ENDBRANCH   1  11
BRANCH  10  21
ATOM     21  O   UNL     1     -20.746  12.464 -32.660  1.00  0.00    -0.500 OA
ATOM     22  H   UNL     1     -20.284  13.115 -32.037  1.00  0.00     0.294 HD
ENDBRANCH  10  21
BRANCH   5  23
ATOM     23  O   UNL     1     -19.523  11.268 -40.236  1.00  0.00    -0.507 OA
ATOM     24  H   UNL     1     -18.600  11.573 -40.525  1.00  0.00     0.293 HD
ENDBRANCH   5  23
BRANCH   7  25
ATOM     25  O   UNL     1     -23.186  11.275 -37.134  1.00  0.00    -0.507 OA
ATOM     26  H   UNL     1     -23.644  11.348 -36.237  1.00  0.00     0.293 HD
ENDBRANCH   7  25
TORSDOF 6
ENDMDL
MODEL 4
REMARK VINA RESULT:    -6.770      8.769     11.328
REMARK INTER + INTRA:          -8.695
REMARK INTER:                  -8.327
REMARK INTRA:                  -0.368
REMARK UNBOUND:                -0.341
REMARK SMILES COc1cc(-c2[o+]c3cc(O)cc(O)c3cc2O)ccc1O
REMARK SMILES IDX 6 1 7 2 8 3 9 4 10 5 12 6 13 7 15 8 16 9 17 10 5 11 3 12
REMARK SMILES IDX 21 13 4 14 20 15 19 16 2 17 1 18 22 19 18 21 11 23 14 25
REMARK H PARENT 22 20 18 22 11 24 14 26
REMARK Flexibility Score: inf
ROOT
ATOM      1  C   UNL     1     -24.778  17.752 -38.366  1.00  0.00     0.402 A 
ATOM      2  O   UNL     1     -24.743  18.299 -39.579  1.00  0.00    -0.202 OA
ATOM      3  C   UNL     1     -24.093  19.425 -39.852  1.00  0.00     0.368 A 
ATOM      4  C   UNL     1     -24.110  19.919 -41.159  1.00  0.00     0.162 A 
ATOM      5  C   UNL     1     -23.434  21.101 -41.475  1.00  0.00     0.128 A 
ATOM      6  C   UNL     1     -22.736  21.790 -40.481  1.00  0.00     0.093 A 
ATOM      7  C   UNL     1     -22.703  21.315 -39.164  1.00  0.00     0.136 A 
ATOM      8  C   UNL     1     -23.391  20.118 -38.837  1.00  0.00     0.125 A 
ATOM      9  C   UNL     1     -23.424  19.576 -37.541  1.00  0.00     0.078 A 
ATOM     10  C   UNL     1     -24.128  18.394 -37.295  1.00  0.00     0.223 A 
ENDROOT
BRANCH   1  11
ATOM     11  C   UNL     1     -25.528  16.488 -38.188  1.00  0.00     0.087 A 
ATOM     12  C   UNL     1     -25.731  14.063 -38.448  1.00  0.00     0.161 A 
ATOM     13  C   UNL     1     -27.016  14.119 -37.878  1.00  0.00     0.157 A 
ATOM     14  C   UNL     1     -24.996  15.255 -38.606  1.00  0.00     0.068 A 
ATOM     15  C   UNL     1     -27.553  15.347 -37.483  1.00  0.00     0.051 A 
ATOM     16  C   UNL     1     -26.820  16.524 -37.643  1.00  0.00     0.022 A 
BRANCH  12  17
ATOM     17  O   UNL     1     -25.221  12.817 -38.847  1.00  0.00    -0.493 OA
ATOM     18  C   UNL     1     -24.040  12.637 -39.622  1.00  0.00     0.278 C 
ENDBRANCH  12  17
BRANCH  13  19
ATOM     19  O   UNL     1     -27.776  12.964 -37.699  1.00  0.00    -0.504 OA
ATOM     20  H   UNL     1     -27.375  12.102 -37.350  1.00  0.00     0.293 HD
ENDBRANCH  13  19
ENDBRANCH   1  11
BRANCH  10  21
ATOM     21  O   UNL     1     -24.203  17.881 -36.000  1.00  0.00    -0.500 OA
ATOM     22  H   UNL     1     -23.381  17.546 -35.512  1.00  0.00     0.294 HD
ENDBRANCH  10  21
BRANCH   5  23
ATOM     23  O   UNL     1     -23.446  21.600 -42.776  1.00  0.00    -0.507 OA
ATOM     24  H   UNL     1     -23.559  22.591 -42.961  1.00  0.00     0.293 HD
ENDBRANCH   5  23
BRANCH   7  25
ATOM     25  O   UNL     1     -21.980  22.062 -38.228  1.00  0.00    -0.507 OA
ATOM     26  H   UNL     1     -21.228  21.695 -37.664  1.00  0.00     0.293 HD
ENDBRANCH   7  25
TORSDOF 6
ENDMDL
MODEL 5
REMARK VINA RESULT:    -6.680      1.611      7.350
REMARK INTER + INTRA:          -8.583
REMARK INTER:                  -8.215
REMARK INTRA:                  -0.368
REMARK UNBOUND:                -0.341
REMARK SMILES COc1cc(-c2[o+]c3cc(O)cc(O)c3cc2O)ccc1O
REMARK SMILES IDX 6 1 7 2 8 3 9 4 10 5 12 6 13 7 15 8 16 9 17 10 5 11 3 12
REMARK SMILES IDX 21 13 4 14 20 15 19 16 2 17 1 18 22 19 18 21 11 23 14 25
REMARK H PARENT 22 20 18 22 11 24 14 26
REMARK Flexibility Score: inf
ROOT
ATOM      1  C   UNL     1     -19.214  11.891 -35.065  1.00  0.00     0.402 A 
ATOM      2  O   UNL     1     -17.901  11.670 -35.047  1.00  0.00    -0.202 OA
ATOM      3  C   UNL     1     -17.094  12.149 -34.106  1.00  0.00     0.368 A 
ATOM      4  C   UNL     1     -15.729  11.859 -34.170  1.00  0.00     0.162 A 
ATOM      5  C   UNL     1     -14.858  12.347 -33.193  1.00  0.00     0.128 A 
ATOM      6  C   UNL     1     -15.354  13.128 -32.146  1.00  0.00     0.093 A 
ATOM      7  C   UNL     1     -16.719  13.431 -32.058  1.00  0.00     0.136 A 
ATOM      8  C   UNL     1     -17.607  12.940 -33.050  1.00  0.00     0.125 A 
ATOM      9  C   UNL     1     -18.986  13.206 -33.051  1.00  0.00     0.078 A 
ATOM     10  C   UNL     1     -19.798  12.692 -34.065  1.00  0.00     0.223 A 
ENDROOT
BRANCH   1  11
ATOM     11  C   UNL     1     -20.010  11.295 -36.162  1.00  0.00     0.087 A 
ATOM     12  C   UNL     1     -20.824  11.308 -38.470  1.00  0.00     0.161 A 
ATOM     13  C   UNL     1     -21.583  10.155 -38.199  1.00  0.00     0.157 A 
ATOM     14  C   UNL     1     -20.045  11.877 -37.442  1.00  0.00     0.068 A 
ATOM     15  C   UNL     1     -21.565   9.591 -36.920  1.00  0.00     0.051 A 
ATOM     16  C   UNL     1     -20.792  10.159 -35.907  1.00  0.00     0.022 A 
BRANCH  12  17
ATOM     17  O   UNL     1     -20.870  11.861 -39.760  1.00  0.00    -0.493 OA
ATOM     18  C   UNL     1     -19.998  11.499 -40.826  1.00  0.00     0.278 C 
ENDBRANCH  12  17
BRANCH  13  19
ATOM     19  O   UNL     1     -22.365   9.557 -39.187  1.00  0.00    -0.504 OA
ATOM     20  H   UNL     1     -23.205   9.036 -38.968  1.00  0.00     0.293 HD
ENDBRANCH  13  19
ENDBRANCH   1  11
BRANCH  10  21
ATOM     21  O   UNL     1     -21.159  12.996 -34.095  1.00  0.00    -0.500 OA
ATOM     22  H   UNL     1     -21.867  12.276 -34.019  1.00  0.00     0.294 HD
ENDBRANCH  10  21
BRANCH   5  23
ATOM     23  O   UNL     1     -13.495  12.063 -33.250  1.00  0.00    -0.507 OA
ATOM     24  H   UNL     1     -12.797  12.787 -33.115  1.00  0.00     0.293 HD
ENDBRANCH   5  23
BRANCH   7  25
ATOM     25  O   UNL     1     -17.136  14.215 -30.979  1.00  0.00    -0.507 OA
ATOM     26  H   UNL     1     -17.617  13.858 -30.166  1.00  0.00     0.293 HD
ENDBRANCH   7  25
TORSDOF 6
ENDMDL
MODEL 6
REMARK VINA RESULT:    -6.625      9.185     10.689
REMARK INTER + INTRA:          -8.516
REMARK INTER:                  -8.790
REMARK INTRA:                   0.274
REMARK UNBOUND:                -0.341
REMARK SMILES COc1cc(-c2[o+]c3cc(O)cc(O)c3cc2O)ccc1O
REMARK SMILES IDX 6 1 7 2 8 3 9 4 10 5 12 6 13 7 15 8 16 9 17 10 5 11 3 12
REMARK SMILES IDX 21 13 4 14 20 15 19 16 2 17 1 18 22 19 18 21 11 23 14 25
REMARK H PARENT 22 20 18 22 11 24 14 26
REMARK Flexibility Score: inf
ROOT
ATOM      1  C   UNL     1     -24.881  18.113 -38.278  1.00  0.00     0.402 A 
ATOM      2  O   UNL     1     -25.529  17.005 -38.632  1.00  0.00    -0.202 OA
ATOM      3  C   UNL     1     -25.993  16.121 -37.756  1.00  0.00     0.368 A 
ATOM      4  C   UNL     1     -26.665  14.989 -38.224  1.00  0.00     0.162 A 
ATOM      5  C   UNL     1     -27.165  14.044 -37.324  1.00  0.00     0.128 A 
ATOM      6  C   UNL     1     -26.994  14.232 -35.951  1.00  0.00     0.093 A 
ATOM      7  C   UNL     1     -26.326  15.359 -35.456  1.00  0.00     0.136 A 
ATOM      8  C   UNL     1     -25.813  16.320 -36.365  1.00  0.00     0.125 A 
ATOM      9  C   UNL     1     -25.117  17.471 -35.960  1.00  0.00     0.078 A 
ATOM     10  C   UNL     1     -24.637  18.371 -36.916  1.00  0.00     0.223 A 
ENDROOT
BRANCH   1  11
ATOM     11  C   UNL     1     -24.420  19.028 -39.348  1.00  0.00     0.087 A 
ATOM     12  C   UNL     1     -23.623  21.216 -40.099  1.00  0.00     0.161 A 
ATOM     13  C   UNL     1     -23.604  20.744 -41.423  1.00  0.00     0.157 A 
ATOM     14  C   UNL     1     -24.040  20.352 -39.066  1.00  0.00     0.068 A 
ATOM     15  C   UNL     1     -24.003  19.434 -41.706  1.00  0.00     0.051 A 
ATOM     16  C   UNL     1     -24.415  18.584 -40.678  1.00  0.00     0.022 A 
BRANCH  12  17
ATOM     17  O   UNL     1     -23.229  22.540 -39.846  1.00  0.00    -0.493 OA
ATOM     18  C   UNL     1     -21.919  22.931 -39.445  1.00  0.00     0.278 C 
ENDBRANCH  12  17
BRANCH  13  19
ATOM     19  O   UNL     1     -23.195  21.563 -42.475  1.00  0.00    -0.504 OA
ATOM     20  H   UNL     1     -23.157  22.572 -42.391  1.00  0.00     0.293 HD
ENDBRANCH  13  19
ENDBRANCH   1  11
BRANCH  10  21
ATOM     21  O   UNL     1     -23.903  19.488 -36.518  1.00  0.00    -0.500 OA
ATOM     22  H   UNL     1     -23.380  19.501 -35.651  1.00  0.00     0.294 HD
ENDBRANCH  10  21
BRANCH   5  23
ATOM     23  O   UNL     1     -27.836  12.912 -37.783  1.00  0.00    -0.507 OA
ATOM     24  H   UNL     1     -28.766  12.974 -38.184  1.00  0.00     0.293 HD
ENDBRANCH   5  23
BRANCH   7  25
ATOM     25  O   UNL     1     -26.199  15.475 -34.069  1.00  0.00    -0.507 OA
ATOM     26  H   UNL     1     -25.589  16.131 -33.604  1.00  0.00     0.293 HD
ENDBRANCH   7  25
TORSDOF 6
ENDMDL
MODEL 7
REMARK VINA RESULT:    -6.585      1.705      6.875
REMARK INTER + INTRA:          -8.467
REMARK INTER:                  -8.102
REMARK INTRA:                  -0.365
REMARK UNBOUND:                -0.341
REMARK SMILES COc1cc(-c2[o+]c3cc(O)cc(O)c3cc2O)ccc1O
REMARK SMILES IDX 6 1 7 2 8 3 9 4 10 5 12 6 13 7 15 8 16 9 17 10 5 11 3 12
REMARK SMILES IDX 21 13 4 14 20 15 19 16 2 17 1 18 22 19 18 21 11 23 14 25
REMARK H PARENT 22 20 18 22 11 24 14 26
REMARK Flexibility Score: inf
ROOT
ATOM      1  C   UNL     1     -18.423  12.450 -35.311  1.00  0.00     0.402 A 
ATOM      2  O   UNL     1     -17.920  12.347 -34.083  1.00  0.00    -0.202 OA
ATOM      3  C   UNL     1     -16.969  13.148 -33.616  1.00  0.00     0.368 A 
ATOM      4  C   UNL     1     -16.506  12.964 -32.310  1.00  0.00     0.162 A 
ATOM      5  C   UNL     1     -15.508  13.794 -31.792  1.00  0.00     0.128 A 
ATOM      6  C   UNL     1     -14.972  14.813 -32.582  1.00  0.00     0.093 A 
ATOM      7  C   UNL     1     -15.419  15.020 -33.893  1.00  0.00     0.136 A 
ATOM      8  C   UNL     1     -16.430  14.178 -34.425  1.00  0.00     0.125 A 
ATOM      9  C   UNL     1     -16.928  14.302 -35.732  1.00  0.00     0.078 A 
ATOM     10  C   UNL     1     -17.922  13.431 -36.188  1.00  0.00     0.223 A 
ENDROOT
BRANCH   1  11
ATOM     11  C   UNL     1     -19.489  11.504 -35.714  1.00  0.00     0.087 A 
ATOM     12  C   UNL     1     -21.804  10.720 -35.622  1.00  0.00     0.161 A 
ATOM     13  C   UNL     1     -21.465   9.647 -36.465  1.00  0.00     0.157 A 
ATOM     14  C   UNL     1     -20.807  11.641 -35.245  1.00  0.00     0.068 A 
ATOM     15  C   UNL     1     -20.150   9.498 -36.914  1.00  0.00     0.051 A 
ATOM     16  C   UNL     1     -19.166  10.414 -36.536  1.00  0.00     0.022 A 
BRANCH  12  17
ATOM     17  O   UNL     1     -23.131  10.837 -35.177  1.00  0.00    -0.493 OA
ATOM     18  C   UNL     1     -23.520  10.944 -33.811  1.00  0.00     0.278 C 
ENDBRANCH  12  17
BRANCH  13  19
ATOM     19  O   UNL     1     -22.421   8.714 -36.867  1.00  0.00    -0.504 OA
ATOM     20  H   UNL     1     -23.368   8.723 -36.507  1.00  0.00     0.293 HD
ENDBRANCH  13  19
ENDBRANCH   1  11
BRANCH  10  21
ATOM     21  O   UNL     1     -18.383  13.520 -37.502  1.00  0.00    -0.500 OA
ATOM     22  H   UNL     1     -18.734  14.390 -37.884  1.00  0.00     0.294 HD
ENDBRANCH  10  21
BRANCH   5  23
ATOM     23  O   UNL     1     -15.041  13.616 -30.491  1.00  0.00    -0.507 OA
ATOM     24  H   UNL     1     -14.512  12.793 -30.227  1.00  0.00     0.293 HD
ENDBRANCH   5  23
BRANCH   7  25
ATOM     25  O   UNL     1     -14.834  16.063 -34.616  1.00  0.00    -0.507 OA
ATOM     26  H   UNL     1     -14.030  15.959 -35.217  1.00  0.00     0.293 HD
ENDBRANCH   7  25
TORSDOF 6
ENDMDL
MODEL 8
REMARK VINA RESULT:    -6.509      1.888      7.317
REMARK INTER + INTRA:          -8.373
REMARK INTER:                  -8.031
REMARK INTRA:                  -0.341
REMARK UNBOUND:                -0.341
REMARK SMILES COc1cc(-c2[o+]c3cc(O)cc(O)c3cc2O)ccc1O
REMARK SMILES IDX 6 1 7 2 8 3 9 4 10 5 12 6 13 7 15 8 16 9 17 10 5 11 3 12
REMARK SMILES IDX 21 13 4 14 20 15 19 16 2 17 1 18 22 19 18 21 11 23 14 25
REMARK H PARENT 22 20 18 22 11 24 14 26
REMARK Flexibility Score: inf
ROOT
ATOM      1  C   UNL     1     -19.300  11.839 -35.231  1.00  0.00     0.402 A 
ATOM      2  O   UNL     1     -19.049  12.957 -34.553  1.00  0.00    -0.202 OA
ATOM      3  C   UNL     1     -18.030  13.085 -33.709  1.00  0.00     0.368 A 
ATOM      4  C   UNL     1     -17.845  14.301 -33.046  1.00  0.00     0.162 A 
ATOM      5  C   UNL     1     -16.782  14.464 -32.155  1.00  0.00     0.128 A 
ATOM      6  C   UNL     1     -15.898  13.406 -31.927  1.00  0.00     0.093 A 
ATOM      7  C   UNL     1     -16.060  12.178 -32.580  1.00  0.00     0.136 A 
ATOM      8  C   UNL     1     -17.141  12.007 -33.483  1.00  0.00     0.125 A 
ATOM      9  C   UNL     1     -17.389  10.807 -34.170  1.00  0.00     0.078 A 
ATOM     10  C   UNL     1     -18.478  10.712 -35.042  1.00  0.00     0.223 A 
ENDROOT
BRANCH   1  11
ATOM     11  C   UNL     1     -20.460  11.822 -36.151  1.00  0.00     0.087 A 
ATOM     12  C   UNL     1     -21.404  11.818 -38.408  1.00  0.00     0.161 A 
ATOM     13  C   UNL     1     -22.698  11.846 -37.857  1.00  0.00     0.157 A 
ATOM     14  C   UNL     1     -20.289  11.814 -37.546  1.00  0.00     0.068 A 
ATOM     15  C   UNL     1     -22.867  11.878 -36.470  1.00  0.00     0.051 A 
ATOM     16  C   UNL     1     -21.758  11.874 -35.622  1.00  0.00     0.022 A 
BRANCH  12  17
ATOM     17  O   UNL     1     -21.263  11.799 -39.805  1.00  0.00    -0.493 OA
ATOM     18  C   UNL     1     -20.063  11.460 -40.493  1.00  0.00     0.278 C 
ENDBRANCH  12  17
BRANCH  13  19
ATOM     19  O   UNL     1     -23.829  11.848 -38.673  1.00  0.00    -0.504 OA
ATOM     20  H   UNL     1     -24.233  12.703 -39.035  1.00  0.00     0.293 HD
ENDBRANCH  13  19
ENDBRANCH   1  11
BRANCH  10  21
ATOM     21  O   UNL     1     -18.755   9.506 -35.686  1.00  0.00    -0.500 OA
ATOM     22  H   UNL     1     -18.964   9.469 -36.677  1.00  0.00     0.294 HD
ENDBRANCH  10  21
BRANCH   5  23
ATOM     23  O   UNL     1     -16.591  15.673 -31.490  1.00  0.00    -0.507 OA
ATOM     24  H   UNL     1     -16.361  15.703 -30.503  1.00  0.00     0.293 HD
ENDBRANCH   5  23
BRANCH   7  25
ATOM     25  O   UNL     1     -15.131  11.172 -32.299  1.00  0.00    -0.507 OA
ATOM     26  H   UNL     1     -14.448  10.826 -32.956  1.00  0.00     0.293 HD
ENDBRANCH   7  25
TORSDOF 6
ENDMDL
MODEL 9
REMARK VINA RESULT:    -6.272      8.876     10.480
REMARK INTER + INTRA:          -8.080
REMARK INTER:                  -7.670
REMARK INTRA:                  -0.410
REMARK UNBOUND:                -0.341
REMARK SMILES COc1cc(-c2[o+]c3cc(O)cc(O)c3cc2O)ccc1O
REMARK SMILES IDX 6 1 7 2 8 3 9 4 10 5 12 6 13 7 15 8 16 9 17 10 5 11 3 12
REMARK SMILES IDX 21 13 4 14 20 15 19 16 2 17 1 18 22 19 18 21 11 23 14 25
REMARK H PARENT 22 20 18 22 11 24 14 26
REMARK Flexibility Score: inf
ROOT
ATOM      1  C   UNL     1     -24.493  18.070 -38.151  1.00  0.00     0.402 A 
ATOM      2  O   UNL     1     -23.746  19.155 -37.958  1.00  0.00    -0.202 OA
ATOM      3  C   UNL     1     -23.387  19.977 -38.938  1.00  0.00     0.368 A 
ATOM      4  C   UNL     1     -22.604  21.094 -38.636  1.00  0.00     0.162 A 
ATOM      5  C   UNL     1     -22.215  21.977 -39.647  1.00  0.00     0.128 A 
ATOM      6  C   UNL     1     -22.612  21.743 -40.965  1.00  0.00     0.093 A 
ATOM      7  C   UNL     1     -23.398  20.632 -41.294  1.00  0.00     0.136 A 
ATOM      8  C   UNL     1     -23.793  19.730 -40.272  1.00  0.00     0.125 A 
ATOM      9  C   UNL     1     -24.568  18.584 -40.511  1.00  0.00     0.078 A 
ATOM     10  C   UNL     1     -24.915  17.739 -39.453  1.00  0.00     0.223 A 
ENDROOT
BRANCH   1  11
ATOM     11  C   UNL     1     -24.835  17.236 -36.976  1.00  0.00     0.087 A 
ATOM     12  C   UNL     1     -24.397  15.337 -35.497  1.00  0.00     0.161 A 
ATOM     13  C   UNL     1     -25.559  15.650 -34.768  1.00  0.00     0.157 A 
ATOM     14  C   UNL     1     -24.046  16.133 -36.606  1.00  0.00     0.068 A 
ATOM     15  C   UNL     1     -26.355  16.733 -35.150  1.00  0.00     0.051 A 
ATOM     16  C   UNL     1     -26.002  17.516 -36.250  1.00  0.00     0.022 A 
BRANCH  12  17
ATOM     17  O   UNL     1     -23.623  14.236 -35.097  1.00  0.00    -0.493 OA
ATOM     18  C   UNL     1     -22.199  14.204 -35.103  1.00  0.00     0.278 C 
ENDBRANCH  12  17
BRANCH  13  19
ATOM     19  O   UNL     1     -25.942  14.892 -33.661  1.00  0.00    -0.504 OA
ATOM     20  H   UNL     1     -26.439  15.295 -32.876  1.00  0.00     0.293 HD
ENDBRANCH  13  19
ENDBRANCH   1  11
BRANCH  10  21
ATOM     21  O   UNL     1     -25.642  16.574 -39.696  1.00  0.00    -0.500 OA
ATOM     22  H   UNL     1     -25.356  15.680 -39.315  1.00  0.00     0.294 HD
ENDBRANCH  10  21
BRANCH   5  23
ATOM     23  O   UNL     1     -21.433  23.093 -39.353  1.00  0.00    -0.507 OA
ATOM     24  H   UNL     1     -21.853  23.982 -39.106  1.00  0.00     0.293 HD
ENDBRANCH   5  23
BRANCH   7  25
ATOM     25  O   UNL     1     -23.755  20.470 -42.636  1.00  0.00    -0.507 OA
ATOM     26  H   UNL     1     -23.207  20.800 -43.416  1.00  0.00     0.293 HD
ENDBRANCH   7  25
TORSDOF 6
ENDMDL
