MODEL 1
REMARK VINA RESULT:    -8.100      0.000      0.000
REMARK INTER + INTRA:         -12.136
REMARK INTER:                 -10.942
REMARK INTRA:                  -1.195
REMARK UNBOUND:                -1.195
REMARK SMILES O=c1c(-c2ccc(O)cc2)coc2c([C@H]3O[C@@H](CO)[C@@H](O)[C@@H](O)[C@@H]3O)c(O)ccc12
REMARK SMILES IDX 3 1 11 2 12 3 13 4 30 5 2 6 1 7 29 8 28 9 26 10 14 11 4 12
REMARK SMILES IDX 5 13 6 14 7 15 10 16 9 17 8 18 15 20 24 21 16 22 22 23 17 24
REMARK SMILES IDX 20 25 25 26 23 28 18 30 19 31 21 33 27 35
REMARK H PARENT 8 19 25 27 23 29 19 32 21 34 27 36
REMARK Flexibility Score: inf
ROOT
ATOM      1  C   UNL     1      21.422   6.810  25.393  1.00  0.00     0.065 A 
ATOM      2  C   UNL     1      22.494   6.005  25.795  1.00  0.00     0.208 A 
ATOM      3  O   UNL     1      22.456   5.336  26.941  1.00  0.00    -0.463 OA
ATOM      4  C   UNL     1      21.428   5.383  27.782  1.00  0.00     0.147 A 
ATOM      5  C   UNL     1      20.287   6.151  27.442  1.00  0.00     0.066 A 
ATOM      6  C   UNL     1      20.297   6.875  26.245  1.00  0.00     0.200 A 
ATOM      7  O   UNL     1      19.310   7.603  25.942  1.00  0.00    -0.288 OA
ATOM      8  C   UNL     1      19.169   6.148  28.293  1.00  0.00     0.020 A 
ATOM      9  C   UNL     1      19.167   5.357  29.437  1.00  0.00     0.047 A 
ATOM     10  C   UNL     1      20.295   4.608  29.791  1.00  0.00     0.125 A 
ATOM     11  C   UNL     1      21.467   4.667  29.007  1.00  0.00     0.069 A 
ENDROOT
BRANCH   1  12
ATOM     12  C   UNL     1      21.533   7.658  24.178  1.00  0.00    -0.011 A 
ATOM     13  C   UNL     1      22.254   8.867  24.188  1.00  0.00     0.013 A 
ATOM     14  C   UNL     1      22.545   9.531  22.987  1.00  0.00     0.047 A 
ATOM     15  C   UNL     1      22.092   9.014  21.769  1.00  0.00     0.115 A 
ATOM     16  C   UNL     1      21.014   7.192  22.958  1.00  0.00     0.013 A 
ATOM     17  C   UNL     1      21.289   7.867  21.764  1.00  0.00     0.047 A 
BRANCH  15  18
ATOM     18  O   UNL     1      22.448   9.614  20.560  1.00  0.00    -0.508 OA
ATOM     19  H   UNL     1      23.325  10.115  20.453  1.00  0.00     0.293 HD
ENDBRANCH  15  18
ENDBRANCH   1  12
BRANCH  11  20
ATOM     20  C   UNL     1      22.691   3.855  29.410  1.00  0.00     0.188 C 
ATOM     21  C   UNL     1      22.695   2.405  28.829  1.00  0.00     0.179 C 
ATOM     22  O   UNL     1      22.784   3.849  30.822  1.00  0.00    -0.362 OA
ATOM     23  C   UNL     1      23.087   1.349  29.899  1.00  0.00     0.177 C 
ATOM     24  C   UNL     1      24.044   3.346  31.229  1.00  0.00     0.176 C 
ATOM     25  C   UNL     1      24.207   1.840  30.857  1.00  0.00     0.177 C 
BRANCH  21  26
ATOM     26  O   UNL     1      23.542   2.326  27.709  1.00  0.00    -0.387 OA
ATOM     27  H   UNL     1      24.466   2.161  28.037  1.00  0.00     0.211 HD
ENDBRANCH  21  26
BRANCH  23  28
ATOM     28  O   UNL     1      21.949   0.920  30.613  1.00  0.00    -0.387 OA
ATOM     29  H   UNL     1      22.159   0.069  31.067  1.00  0.00     0.211 HD
ENDBRANCH  23  28
BRANCH  24  30
ATOM     30  C   UNL     1      24.214   3.639  32.728  1.00  0.00     0.191 C 
BRANCH  30  31
ATOM     31  O   UNL     1      25.579   3.676  33.045  1.00  0.00    -0.394 OA
ATOM     32  H   UNL     1      26.077   3.577  32.192  1.00  0.00     0.210 HD
ENDBRANCH  30  31
ENDBRANCH  24  30
BRANCH  25  33
ATOM     33  O   UNL     1      24.238   1.025  32.008  1.00  0.00    -0.388 OA
ATOM     34  H   UNL     1      24.406   0.095  31.699  1.00  0.00     0.211 HD
ENDBRANCH  25  33
ENDBRANCH  11  20
BRANCH  10  35
ATOM     35  O   UNL     1      20.238   3.791  30.922  1.00  0.00    -0.507 OA
ATOM     36  H   UNL     1      19.935   4.143  31.825  1.00  0.00     0.293 HD
ENDBRANCH  10  35
TORSDOF 9
ENDMDL
MODEL 2
REMARK VINA RESULT:    -8.057     10.782     14.341
REMARK INTER + INTRA:         -12.078
REMARK INTER:                 -11.511
REMARK INTRA:                  -0.567
REMARK UNBOUND:                -1.195
REMARK SMILES O=c1c(-c2ccc(O)cc2)coc2c([C@H]3O[C@@H](CO)[C@@H](O)[C@@H](O)[C@@H]3O)c(O)ccc12
REMARK SMILES IDX 3 1 11 2 12 3 13 4 30 5 2 6 1 7 29 8 28 9 26 10 14 11 4 12
REMARK SMILES IDX 5 13 6 14 7 15 10 16 9 17 8 18 15 20 24 21 16 22 22 23 17 24
REMARK SMILES IDX 20 25 25 26 23 28 18 30 19 31 21 33 27 35
REMARK H PARENT 8 19 25 27 23 29 19 32 21 34 27 36
REMARK Flexibility Score: inf
ROOT
ATOM      1  C   UNL     1      19.372  -5.198  23.901  1.00  0.00     0.065 A 
ATOM      2  C   UNL     1      18.576  -4.532  22.960  1.00  0.00     0.208 A 
ATOM      3  O   UNL     1      18.955  -4.432  21.691  1.00  0.00    -0.463 OA
ATOM      4  C   UNL     1      20.094  -4.934  21.226  1.00  0.00     0.147 A 
ATOM      5  C   UNL     1      20.948  -5.648  22.102  1.00  0.00     0.066 A 
ATOM      6  C   UNL     1      20.584  -5.765  23.448  1.00  0.00     0.200 A 
ATOM      7  O   UNL     1      21.351  -6.358  24.258  1.00  0.00    -0.288 OA
ATOM      8  C   UNL     1      22.119  -6.241  21.601  1.00  0.00     0.020 A 
ATOM      9  C   UNL     1      22.410  -6.166  20.242  1.00  0.00     0.047 A 
ATOM     10  C   UNL     1      21.582  -5.448  19.371  1.00  0.00     0.125 A 
ATOM     11  C   UNL     1      20.451  -4.762  19.863  1.00  0.00     0.069 A 
ENDROOT
BRANCH   1  12
ATOM     12  C   UNL     1      19.004  -5.184  25.340  1.00  0.00    -0.011 A 
ATOM     13  C   UNL     1      18.571  -4.007  25.978  1.00  0.00     0.013 A 
ATOM     14  C   UNL     1      18.008  -4.060  27.262  1.00  0.00     0.047 A 
ATOM     15  C   UNL     1      17.904  -5.282  27.935  1.00  0.00     0.115 A 
ATOM     16  C   UNL     1      18.970  -6.392  26.057  1.00  0.00     0.013 A 
ATOM     17  C   UNL     1      18.426  -6.439  27.345  1.00  0.00     0.047 A 
BRANCH  15  18
ATOM     18  O   UNL     1      17.267  -5.364  29.175  1.00  0.00    -0.508 OA
ATOM     19  H   UNL     1      17.020  -6.259  29.588  1.00  0.00     0.293 HD
ENDBRANCH  15  18
ENDBRANCH   1  12
BRANCH  11  20
ATOM     20  C   UNL     1      19.565  -3.975  18.906  1.00  0.00     0.188 C 
ATOM     21  C   UNL     1      19.768  -2.429  18.998  1.00  0.00     0.179 C 
ATOM     22  O   UNL     1      18.217  -4.338  19.137  1.00  0.00    -0.362 OA
ATOM     23  C   UNL     1      18.415  -1.665  19.029  1.00  0.00     0.177 C 
ATOM     24  C   UNL     1      17.392  -3.847  18.096  1.00  0.00     0.176 C 
ATOM     25  C   UNL     1      17.343  -2.287  18.092  1.00  0.00     0.177 C 
BRANCH  21  26
ATOM     26  O   UNL     1      20.579  -1.976  17.943  1.00  0.00    -0.387 OA
ATOM     27  H   UNL     1      21.528  -2.115  18.205  1.00  0.00     0.211 HD
ENDBRANCH  21  26
BRANCH  23  28
ATOM     28  O   UNL     1      17.940  -1.552  20.352  1.00  0.00    -0.387 OA
ATOM     29  H   UNL     1      18.301  -2.299  20.886  1.00  0.00     0.211 HD
ENDBRANCH  23  28
BRANCH  24  30
ATOM     30  C   UNL     1      16.012  -4.511  18.226  1.00  0.00     0.191 C 
BRANCH  30  31
ATOM     31  O   UNL     1      15.638  -4.554  19.576  1.00  0.00    -0.394 OA
ATOM     32  H   UNL     1      16.039  -3.757  20.013  1.00  0.00     0.210 HD
ENDBRANCH  30  31
ENDBRANCH  24  30
BRANCH  25  33
ATOM     33  O   UNL     1      16.065  -1.809  18.451  1.00  0.00    -0.388 OA
ATOM     34  H   UNL     1      15.454  -2.022  17.697  1.00  0.00     0.211 HD
ENDBRANCH  25  33
ENDBRANCH  11  20
BRANCH  10  35
ATOM     35  O   UNL     1      21.883  -5.435  18.008  1.00  0.00    -0.507 OA
ATOM     36  H   UNL     1      21.969  -4.570  17.484  1.00  0.00     0.293 HD
ENDBRANCH  10  35
TORSDOF 9
ENDMDL
MODEL 3
REMARK VINA RESULT:    -7.927      2.976      4.976
REMARK INTER + INTRA:         -11.902
REMARK INTER:                 -10.513
REMARK INTRA:                  -1.389
REMARK UNBOUND:                -1.195
REMARK SMILES O=c1c(-c2ccc(O)cc2)coc2c([C@H]3O[C@@H](CO)[C@@H](O)[C@@H](O)[C@@H]3O)c(O)ccc12
REMARK SMILES IDX 3 1 11 2 12 3 13 4 30 5 2 6 1 7 29 8 28 9 26 10 14 11 4 12
REMARK SMILES IDX 5 13 6 14 7 15 10 16 9 17 8 18 15 20 24 21 16 22 22 23 17 24
REMARK SMILES IDX 20 25 25 26 23 28 18 30 19 31 21 33 27 35
REMARK H PARENT 8 19 25 27 23 29 19 32 21 34 27 36
REMARK Flexibility Score: inf
ROOT
ATOM      1  C   UNL     1      18.359   6.007  27.662  1.00  0.00     0.065 A 
ATOM      2  C   UNL     1      18.566   5.590  28.983  1.00  0.00     0.208 A 
ATOM      3  O   UNL     1      19.642   4.888  29.319  1.00  0.00    -0.463 OA
ATOM      4  C   UNL     1      20.579   4.524  28.449  1.00  0.00     0.147 A 
ATOM      5  C   UNL     1      20.464   4.926  27.095  1.00  0.00     0.066 A 
ATOM      6  C   UNL     1      19.339   5.661  26.706  1.00  0.00     0.200 A 
ATOM      7  O   UNL     1      19.192   5.992  25.495  1.00  0.00    -0.288 OA
ATOM      8  C   UNL     1      21.486   4.605  26.187  1.00  0.00     0.020 A 
ATOM      9  C   UNL     1      22.625   3.937  26.627  1.00  0.00     0.047 A 
ATOM     10  C   UNL     1      22.740   3.520  27.958  1.00  0.00     0.125 A 
ATOM     11  C   UNL     1      21.687   3.744  28.871  1.00  0.00     0.069 A 
ENDROOT
BRANCH   1  12
ATOM     12  C   UNL     1      17.088   6.673  27.275  1.00  0.00    -0.011 A 
ATOM     13  C   UNL     1      15.989   5.937  26.794  1.00  0.00     0.013 A 
ATOM     14  C   UNL     1      14.732   6.545  26.657  1.00  0.00     0.047 A 
ATOM     15  C   UNL     1      14.568   7.900  26.967  1.00  0.00     0.115 A 
ATOM     16  C   UNL     1      16.930   8.050  27.505  1.00  0.00     0.013 A 
ATOM     17  C   UNL     1      15.680   8.658  27.350  1.00  0.00     0.047 A 
BRANCH  15  18
ATOM     18  O   UNL     1      13.306   8.496  26.922  1.00  0.00    -0.508 OA
ATOM     19  H   UNL     1      13.190   9.477  26.684  1.00  0.00     0.293 HD
ENDBRANCH  15  18
ENDBRANCH   1  12
BRANCH  11  20
ATOM     20  C   UNL     1      21.822   3.275  30.314  1.00  0.00     0.188 C 
ATOM     21  C   UNL     1      22.784   4.161  31.168  1.00  0.00     0.179 C 
ATOM     22  O   UNL     1      22.228   1.920  30.312  1.00  0.00    -0.362 OA
ATOM     23  C   UNL     1      23.758   3.304  32.025  1.00  0.00     0.177 C 
ATOM     24  C   UNL     1      22.099   1.368  31.609  1.00  0.00     0.176 C 
ATOM     25  C   UNL     1      23.090   2.032  32.615  1.00  0.00     0.177 C 
BRANCH  21  26
ATOM     26  O   UNL     1      22.049   5.048  31.975  1.00  0.00    -0.387 OA
ATOM     27  H   UNL     1      22.682   5.719  32.345  1.00  0.00     0.211 HD
ENDBRANCH  21  26
BRANCH  23  28
ATOM     28  O   UNL     1      24.917   2.984  31.288  1.00  0.00    -0.387 OA
ATOM     29  H   UNL     1      25.710   3.156  31.850  1.00  0.00     0.211 HD
ENDBRANCH  23  28
BRANCH  24  30
ATOM     30  C   UNL     1      22.256  -0.158  31.498  1.00  0.00     0.191 C 
BRANCH  30  31
ATOM     31  O   UNL     1      21.704  -0.768  32.633  1.00  0.00    -0.394 OA
ATOM     32  H   UNL     1      20.725  -0.602  32.604  1.00  0.00     0.210 HD
ENDBRANCH  30  31
ENDBRANCH  24  30
BRANCH  25  33
ATOM     33  O   UNL     1      24.087   1.125  33.034  1.00  0.00    -0.388 OA
ATOM     34  H   UNL     1      23.949   0.972  34.006  1.00  0.00     0.211 HD
ENDBRANCH  25  33
ENDBRANCH  11  20
BRANCH  10  35
ATOM     35  O   UNL     1      23.918   2.895  28.371  1.00  0.00    -0.507 OA
ATOM     36  H   UNL     1      24.272   2.060  27.915  1.00  0.00     0.293 HD
ENDBRANCH  10  35
TORSDOF 9
ENDMDL
MODEL 4
REMARK VINA RESULT:    -7.924      9.933     13.094
REMARK INTER + INTRA:         -11.898
REMARK INTER:                 -10.611
REMARK INTRA:                  -1.287
REMARK UNBOUND:                -1.195
REMARK SMILES O=c1c(-c2ccc(O)cc2)coc2c([C@H]3O[C@@H](CO)[C@@H](O)[C@@H](O)[C@@H]3O)c(O)ccc12
REMARK SMILES IDX 3 1 11 2 12 3 13 4 30 5 2 6 1 7 29 8 28 9 26 10 14 11 4 12
REMARK SMILES IDX 5 13 6 14 7 15 10 16 9 17 8 18 15 20 24 21 16 22 22 23 17 24
REMARK SMILES IDX 20 25 25 26 23 28 18 30 19 31 21 33 27 35
REMARK H PARENT 8 19 25 27 23 29 19 32 21 34 27 36
REMARK Flexibility Score: inf
ROOT
ATOM      1  C   UNL     1      21.599  -3.048  21.758  1.00  0.00     0.065 A 
ATOM      2  C   UNL     1      20.892  -3.301  20.575  1.00  0.00     0.208 A 
ATOM      3  O   UNL     1      19.796  -2.615  20.273  1.00  0.00    -0.463 OA
ATOM      4  C   UNL     1      19.289  -1.665  21.052  1.00  0.00     0.147 A 
ATOM      5  C   UNL     1      19.954  -1.324  22.255  1.00  0.00     0.066 A 
ATOM      6  C   UNL     1      21.108  -2.033  22.609  1.00  0.00     0.200 A 
ATOM      7  O   UNL     1      21.693  -1.778  23.699  1.00  0.00    -0.288 OA
ATOM      8  C   UNL     1      19.462  -0.274  23.047  1.00  0.00     0.020 A 
ATOM      9  C   UNL     1      18.355   0.457  22.626  1.00  0.00     0.047 A 
ATOM     10  C   UNL     1      17.680   0.117  21.447  1.00  0.00     0.125 A 
ATOM     11  C   UNL     1      18.095  -0.994  20.681  1.00  0.00     0.069 A 
ENDROOT
BRANCH   1  12
ATOM     12  C   UNL     1      22.742  -3.912  22.150  1.00  0.00    -0.011 A 
ATOM     13  C   UNL     1      22.590  -5.302  22.319  1.00  0.00     0.013 A 
ATOM     14  C   UNL     1      23.715  -6.128  22.457  1.00  0.00     0.047 A 
ATOM     15  C   UNL     1      25.000  -5.574  22.461  1.00  0.00     0.115 A 
ATOM     16  C   UNL     1      24.030  -3.359  22.237  1.00  0.00     0.013 A 
ATOM     17  C   UNL     1      25.149  -4.183  22.394  1.00  0.00     0.047 A 
BRANCH  15  18
ATOM     18  O   UNL     1      26.131  -6.390  22.508  1.00  0.00    -0.508 OA
ATOM     19  H   UNL     1      26.562  -6.751  21.661  1.00  0.00     0.293 HD
ENDBRANCH  15  18
ENDBRANCH   1  12
BRANCH  11  20
ATOM     20  C   UNL     1      17.344  -1.359  19.407  1.00  0.00     0.188 C 
ATOM     21  C   UNL     1      17.713  -0.455  18.188  1.00  0.00     0.179 C 
ATOM     22  O   UNL     1      15.955  -1.326  19.676  1.00  0.00    -0.362 OA
ATOM     23  C   UNL     1      16.454   0.013  17.407  1.00  0.00     0.177 C 
ATOM     24  C   UNL     1      15.235  -1.920  18.612  1.00  0.00     0.176 C 
ATOM     25  C   UNL     1      15.361  -1.086  17.300  1.00  0.00     0.177 C 
BRANCH  21  26
ATOM     26  O   UNL     1      18.614  -1.121  17.338  1.00  0.00    -0.387 OA
ATOM     27  H   UNL     1      18.195  -1.979  17.061  1.00  0.00     0.211 HD
ENDBRANCH  21  26
BRANCH  23  28
ATOM     28  O   UNL     1      15.937   1.201  17.965  1.00  0.00    -0.387 OA
ATOM     29  H   UNL     1      16.298   1.972  17.464  1.00  0.00     0.211 HD
ENDBRANCH  23  28
BRANCH  24  30
ATOM     30  C   UNL     1      13.785  -2.135  19.075  1.00  0.00     0.191 C 
BRANCH  30  31
ATOM     31  O   UNL     1      13.264  -0.926  19.557  1.00  0.00    -0.394 OA
ATOM     32  H   UNL     1      13.590  -0.209  18.953  1.00  0.00     0.210 HD
ENDBRANCH  30  31
ENDBRANCH  24  30
BRANCH  25  33
ATOM     33  O   UNL     1      14.129  -0.496  16.943  1.00  0.00    -0.388 OA
ATOM     34  H   UNL     1      14.285   0.484  16.882  1.00  0.00     0.211 HD
ENDBRANCH  25  33
ENDBRANCH  11  20
BRANCH  10  35
ATOM     35  O   UNL     1      16.603   0.903  21.034  1.00  0.00    -0.507 OA
ATOM     36  H   UNL     1      16.669   1.531  20.240  1.00  0.00     0.293 HD
ENDBRANCH  10  35
TORSDOF 9
ENDMDL
MODEL 5
REMARK VINA RESULT:    -7.872     10.135     11.504
REMARK INTER + INTRA:         -11.829
REMARK INTER:                 -10.606
REMARK INTRA:                  -1.223
REMARK UNBOUND:                -1.195
REMARK SMILES O=c1c(-c2ccc(O)cc2)coc2c([C@H]3O[C@@H](CO)[C@@H](O)[C@@H](O)[C@@H]3O)c(O)ccc12
REMARK SMILES IDX 3 1 11 2 12 3 13 4 30 5 2 6 1 7 29 8 28 9 26 10 14 11 4 12
REMARK SMILES IDX 5 13 6 14 7 15 10 16 9 17 8 18 15 20 24 21 16 22 22 23 17 24
REMARK SMILES IDX 20 25 25 26 23 28 18 30 19 31 21 33 27 35
REMARK H PARENT 8 19 25 27 23 29 19 32 21 34 27 36
REMARK Flexibility Score: inf
ROOT
ATOM      1  C   UNL     1      16.997  -0.435  18.947  1.00  0.00     0.065 A 
ATOM      2  C   UNL     1      18.393  -0.314  18.935  1.00  0.00     0.208 A 
ATOM      3  O   UNL     1      19.169  -1.304  19.359  1.00  0.00    -0.463 OA
ATOM      4  C   UNL     1      18.697  -2.456  19.826  1.00  0.00     0.147 A 
ATOM      5  C   UNL     1      17.298  -2.676  19.847  1.00  0.00     0.066 A 
ATOM      6  C   UNL     1      16.450  -1.650  19.415  1.00  0.00     0.200 A 
ATOM      7  O   UNL     1      15.197  -1.805  19.468  1.00  0.00    -0.288 OA
ATOM      8  C   UNL     1      16.796  -3.917  20.272  1.00  0.00     0.020 A 
ATOM      9  C   UNL     1      17.673  -4.939  20.624  1.00  0.00     0.047 A 
ATOM     10  C   UNL     1      19.056  -4.727  20.623  1.00  0.00     0.125 A 
ATOM     11  C   UNL     1      19.585  -3.460  20.293  1.00  0.00     0.069 A 
ENDROOT
BRANCH   1  12
ATOM     12  C   UNL     1      16.140   0.727  18.599  1.00  0.00    -0.011 A 
ATOM     13  C   UNL     1      15.838   1.727  19.544  1.00  0.00     0.013 A 
ATOM     14  C   UNL     1      15.229   2.925  19.140  1.00  0.00     0.047 A 
ATOM     15  C   UNL     1      14.885   3.123  17.798  1.00  0.00     0.115 A 
ATOM     16  C   UNL     1      15.717   0.904  17.271  1.00  0.00     0.013 A 
ATOM     17  C   UNL     1      15.093   2.091  16.875  1.00  0.00     0.047 A 
BRANCH  15  18
ATOM     18  O   UNL     1      14.361   4.343  17.366  1.00  0.00    -0.508 OA
ATOM     19  H   UNL     1      14.928   5.185  17.336  1.00  0.00     0.293 HD
ENDBRANCH  15  18
ENDBRANCH   1  12
BRANCH  11  20
ATOM     20  C   UNL     1      21.092  -3.240  20.306  1.00  0.00     0.188 C 
ATOM     21  C   UNL     1      21.864  -4.168  19.315  1.00  0.00     0.179 C 
ATOM     22  O   UNL     1      21.559  -3.395  21.633  1.00  0.00    -0.362 OA
ATOM     23  C   UNL     1      23.124  -4.800  19.969  1.00  0.00     0.177 C 
ATOM     24  C   UNL     1      22.893  -2.933  21.740  1.00  0.00     0.176 C 
ATOM     25  C   UNL     1      23.874  -3.821  20.914  1.00  0.00     0.177 C 
BRANCH  21  26
ATOM     26  O   UNL     1      22.203  -3.463  18.145  1.00  0.00    -0.387 OA
ATOM     27  H   UNL     1      21.366  -3.295  17.637  1.00  0.00     0.211 HD
ENDBRANCH  21  26
BRANCH  23  28
ATOM     28  O   UNL     1      22.791  -6.001  20.628  1.00  0.00    -0.387 OA
ATOM     29  H   UNL     1      23.130  -5.960  21.555  1.00  0.00     0.211 HD
ENDBRANCH  23  28
BRANCH  24  30
ATOM     30  C   UNL     1      23.248  -2.838  23.233  1.00  0.00     0.191 C 
BRANCH  30  31
ATOM     31  O   UNL     1      24.449  -2.130  23.384  1.00  0.00    -0.394 OA
ATOM     32  H   UNL     1      24.645  -2.097  24.356  1.00  0.00     0.210 HD
ENDBRANCH  30  31
ENDBRANCH  24  30
BRANCH  25  33
ATOM     33  O   UNL     1      24.745  -4.548  21.754  1.00  0.00    -0.388 OA
ATOM     34  H   UNL     1      24.430  -5.491  21.751  1.00  0.00     0.211 HD
ENDBRANCH  25  33
ENDBRANCH  11  20
BRANCH  10  35
ATOM     35  O   UNL     1      19.904  -5.790  20.937  1.00  0.00    -0.507 OA
ATOM     36  H   UNL     1      20.115  -6.044  21.897  1.00  0.00     0.293 HD
ENDBRANCH  10  35
TORSDOF 9
ENDMDL
MODEL 6
REMARK VINA RESULT:    -7.682     10.523     11.874
REMARK INTER + INTRA:         -11.572
REMARK INTER:                 -10.456
REMARK INTRA:                  -1.115
REMARK UNBOUND:                -1.195
REMARK SMILES O=c1c(-c2ccc(O)cc2)coc2c([C@H]3O[C@@H](CO)[C@@H](O)[C@@H](O)[C@@H]3O)c(O)ccc12
REMARK SMILES IDX 3 1 11 2 12 3 13 4 30 5 2 6 1 7 29 8 28 9 26 10 14 11 4 12
REMARK SMILES IDX 5 13 6 14 7 15 10 16 9 17 8 18 15 20 24 21 16 22 22 23 17 24
REMARK SMILES IDX 20 25 25 26 23 28 18 30 19 31 21 33 27 35
REMARK H PARENT 8 19 25 27 23 29 19 32 21 34 27 36
REMARK Flexibility Score: inf
ROOT
ATOM      1  C   UNL     1      16.928  -0.277  18.707  1.00  0.00     0.065 A 
ATOM      2  C   UNL     1      18.049  -0.020  19.507  1.00  0.00     0.208 A 
ATOM      3  O   UNL     1      18.940  -0.970  19.763  1.00  0.00    -0.463 OA
ATOM      4  C   UNL     1      18.838  -2.213  19.302  1.00  0.00     0.147 A 
ATOM      5  C   UNL     1      17.750  -2.554  18.461  1.00  0.00     0.066 A 
ATOM      6  C   UNL     1      16.788  -1.578  18.177  1.00  0.00     0.200 A 
ATOM      7  O   UNL     1      15.785  -1.872  17.468  1.00  0.00    -0.288 OA
ATOM      8  C   UNL     1      17.674  -3.845  17.913  1.00  0.00     0.020 A 
ATOM      9  C   UNL     1      18.689  -4.766  18.158  1.00  0.00     0.047 A 
ATOM     10  C   UNL     1      19.759  -4.444  19.001  1.00  0.00     0.125 A 
ATOM     11  C   UNL     1      19.811  -3.188  19.642  1.00  0.00     0.069 A 
ENDROOT
BRANCH   1  12
ATOM     12  C   UNL     1      15.871   0.754  18.541  1.00  0.00    -0.011 A 
ATOM     13  C   UNL     1      14.872   0.947  19.514  1.00  0.00     0.013 A 
ATOM     14  C   UNL     1      14.031   2.068  19.456  1.00  0.00     0.047 A 
ATOM     15  C   UNL     1      14.156   2.989  18.410  1.00  0.00     0.115 A 
ATOM     16  C   UNL     1      15.933   1.640  17.452  1.00  0.00     0.013 A 
ATOM     17  C   UNL     1      15.080   2.747  17.387  1.00  0.00     0.047 A 
BRANCH  15  18
ATOM     18  O   UNL     1      13.387   4.154  18.386  1.00  0.00    -0.508 OA
ATOM     19  H   UNL     1      12.780   4.406  19.161  1.00  0.00     0.293 HD
ENDBRANCH  15  18
ENDBRANCH   1  12
BRANCH  11  20
ATOM     20  C   UNL     1      20.976  -2.855  20.565  1.00  0.00     0.188 C 
ATOM     21  C   UNL     1      22.081  -1.987  19.883  1.00  0.00     0.179 C 
ATOM     22  O   UNL     1      21.506  -4.064  21.076  1.00  0.00    -0.362 OA
ATOM     23  C   UNL     1      23.510  -2.518  20.188  1.00  0.00     0.177 C 
ATOM     24  C   UNL     1      22.401  -3.795  22.140  1.00  0.00     0.176 C 
ATOM     25  C   UNL     1      23.669  -3.034  21.645  1.00  0.00     0.177 C 
BRANCH  21  26
ATOM     26  O   UNL     1      21.952  -0.639  20.264  1.00  0.00    -0.387 OA
ATOM     27  H   UNL     1      22.864  -0.283  20.439  1.00  0.00     0.211 HD
ENDBRANCH  21  26
BRANCH  23  28
ATOM     28  O   UNL     1      23.885  -3.500  19.248  1.00  0.00    -0.387 OA
ATOM     29  H   UNL     1      24.845  -3.395  19.043  1.00  0.00     0.211 HD
ENDBRANCH  23  28
BRANCH  24  30
ATOM     30  C   UNL     1      22.711  -5.123  22.852  1.00  0.00     0.191 C 
BRANCH  30  31
ATOM     31  O   UNL     1      23.005  -6.107  21.897  1.00  0.00    -0.394 OA
ATOM     32  H   UNL     1      23.053  -6.973  22.380  1.00  0.00     0.210 HD
ENDBRANCH  30  31
ENDBRANCH  24  30
BRANCH  25  33
ATOM     33  O   UNL     1      24.824  -3.840  21.738  1.00  0.00    -0.388 OA
ATOM     34  H   UNL     1      25.167  -3.963  20.813  1.00  0.00     0.211 HD
ENDBRANCH  25  33
ENDBRANCH  11  20
BRANCH  10  35
ATOM     35  O   UNL     1      20.780  -5.379  19.184  1.00  0.00    -0.507 OA
ATOM     36  H   UNL     1      20.629  -6.248  19.685  1.00  0.00     0.293 HD
ENDBRANCH  10  35
TORSDOF 9
ENDMDL
MODEL 7
REMARK VINA RESULT:    -7.630      2.020      8.588
REMARK INTER + INTRA:         -11.501
REMARK INTER:                 -10.070
REMARK INTRA:                  -1.431
REMARK UNBOUND:                -1.195
REMARK SMILES O=c1c(-c2ccc(O)cc2)coc2c([C@H]3O[C@@H](CO)[C@@H](O)[C@@H](O)[C@@H]3O)c(O)ccc12
REMARK SMILES IDX 3 1 11 2 12 3 13 4 30 5 2 6 1 7 29 8 28 9 26 10 14 11 4 12
REMARK SMILES IDX 5 13 6 14 7 15 10 16 9 17 8 18 15 20 24 21 16 22 22 23 17 24
REMARK SMILES IDX 20 25 25 26 23 28 18 30 19 31 21 33 27 35
REMARK H PARENT 8 19 25 27 23 29 19 32 21 34 27 36
REMARK Flexibility Score: inf
ROOT
ATOM      1  C   UNL     1      22.225   3.496  29.746  1.00  0.00     0.065 A 
ATOM      2  C   UNL     1      22.116   3.445  28.350  1.00  0.00     0.208 A 
ATOM      3  O   UNL     1      21.867   4.541  27.643  1.00  0.00    -0.463 OA
ATOM      4  C   UNL     1      21.696   5.741  28.187  1.00  0.00     0.147 A 
ATOM      5  C   UNL     1      21.817   5.890  29.591  1.00  0.00     0.066 A 
ATOM      6  C   UNL     1      22.071   4.755  30.368  1.00  0.00     0.200 A 
ATOM      7  O   UNL     1      22.137   4.856  31.626  1.00  0.00    -0.288 OA
ATOM      8  C   UNL     1      21.707   7.167  30.165  1.00  0.00     0.020 A 
ATOM      9  C   UNL     1      21.528   8.283  29.353  1.00  0.00     0.047 A 
ATOM     10  C   UNL     1      21.390   8.145  27.967  1.00  0.00     0.125 A 
ATOM     11  C   UNL     1      21.400   6.864  27.373  1.00  0.00     0.069 A 
ENDROOT
BRANCH   1  12
ATOM     12  C   UNL     1      22.368   2.245  30.535  1.00  0.00    -0.011 A 
ATOM     13  C   UNL     1      21.257   1.625  31.137  1.00  0.00     0.013 A 
ATOM     14  C   UNL     1      21.369   0.333  31.673  1.00  0.00     0.047 A 
ATOM     15  C   UNL     1      22.597  -0.337  31.644  1.00  0.00     0.115 A 
ATOM     16  C   UNL     1      23.613   1.596  30.584  1.00  0.00     0.013 A 
ATOM     17  C   UNL     1      23.726   0.316  31.137  1.00  0.00     0.047 A 
BRANCH  15  18
ATOM     18  O   UNL     1      22.703  -1.655  32.093  1.00  0.00    -0.508 OA
ATOM     19  H   UNL     1      22.007  -2.356  31.855  1.00  0.00     0.293 HD
ENDBRANCH  15  18
ENDBRANCH   1  12
BRANCH  11  20
ATOM     20  C   UNL     1      21.238   6.728  25.864  1.00  0.00     0.188 C 
ATOM     21  C   UNL     1      22.543   7.048  25.067  1.00  0.00     0.179 C 
ATOM     22  O   UNL     1      20.162   7.548  25.450  1.00  0.00    -0.362 OA
ATOM     23  C   UNL     1      22.267   7.962  23.841  1.00  0.00     0.177 C 
ATOM     24  C   UNL     1      19.800   7.244  24.114  1.00  0.00     0.176 C 
ATOM     25  C   UNL     1      20.937   7.621  23.114  1.00  0.00     0.177 C 
BRANCH  21  26
ATOM     26  O   UNL     1      23.183   5.859  24.675  1.00  0.00    -0.387 OA
ATOM     27  H   UNL     1      23.000   5.171  25.369  1.00  0.00     0.211 HD
ENDBRANCH  21  26
BRANCH  23  28
ATOM     28  O   UNL     1      22.317   9.321  24.214  1.00  0.00    -0.387 OA
ATOM     29  H   UNL     1      23.240   9.651  24.098  1.00  0.00     0.211 HD
ENDBRANCH  23  28
BRANCH  24  30
ATOM     30  C   UNL     1      18.457   7.929  23.815  1.00  0.00     0.191 C 
BRANCH  30  31
ATOM     31  O   UNL     1      18.485   9.245  24.297  1.00  0.00    -0.394 OA
ATOM     32  H   UNL     1      17.884   9.278  25.087  1.00  0.00     0.210 HD
ENDBRANCH  30  31
ENDBRANCH  24  30
BRANCH  25  33
ATOM     33  O   UNL     1      20.560   8.699  22.286  1.00  0.00    -0.388 OA
ATOM     34  H   UNL     1      19.970   8.327  21.577  1.00  0.00     0.211 HD
ENDBRANCH  25  33
ENDBRANCH  11  20
BRANCH  10  35
ATOM     35  O   UNL     1      21.259   9.292  27.182  1.00  0.00    -0.507 OA
ATOM     36  H   UNL     1      20.724  10.097  27.492  1.00  0.00     0.293 HD
ENDBRANCH  10  35
TORSDOF 9
ENDMDL
MODEL 8
REMARK VINA RESULT:    -7.566      2.843      8.749
REMARK INTER + INTRA:         -11.415
REMARK INTER:                 -10.316
REMARK INTRA:                  -1.099
REMARK UNBOUND:                -1.195
REMARK SMILES O=c1c(-c2ccc(O)cc2)coc2c([C@H]3O[C@@H](CO)[C@@H](O)[C@@H](O)[C@@H]3O)c(O)ccc12
REMARK SMILES IDX 3 1 11 2 12 3 13 4 30 5 2 6 1 7 29 8 28 9 26 10 14 11 4 12
REMARK SMILES IDX 5 13 6 14 7 15 10 16 9 17 8 18 15 20 24 21 16 22 22 23 17 24
REMARK SMILES IDX 20 25 25 26 23 28 18 30 19 31 21 33 27 35
REMARK H PARENT 8 19 25 27 23 29 19 32 21 34 27 36
REMARK Flexibility Score: inf
ROOT
ATOM      1  C   UNL     1      21.603   3.960  30.203  1.00  0.00     0.065 A 
ATOM      2  C   UNL     1      21.162   4.253  28.906  1.00  0.00     0.208 A 
ATOM      3  O   UNL     1      21.143   5.502  28.455  1.00  0.00    -0.463 OA
ATOM      4  C   UNL     1      21.523   6.548  29.181  1.00  0.00     0.147 A 
ATOM      5  C   UNL     1      22.011   6.342  30.495  1.00  0.00     0.066 A 
ATOM      6  C   UNL     1      22.037   5.039  31.005  1.00  0.00     0.200 A 
ATOM      7  O   UNL     1      22.425   4.836  32.190  1.00  0.00    -0.288 OA
ATOM      8  C   UNL     1      22.480   7.436  31.241  1.00  0.00     0.020 A 
ATOM      9  C   UNL     1      22.507   8.706  30.673  1.00  0.00     0.047 A 
ATOM     10  C   UNL     1      22.012   8.923  29.382  1.00  0.00     0.125 A 
ATOM     11  C   UNL     1      21.446   7.860  28.645  1.00  0.00     0.069 A 
ENDROOT
BRANCH   1  12
ATOM     12  C   UNL     1      21.491   2.581  30.742  1.00  0.00    -0.011 A 
ATOM     13  C   UNL     1      22.131   1.493  30.118  1.00  0.00     0.013 A 
ATOM     14  C   UNL     1      22.209   0.250  30.763  1.00  0.00     0.047 A 
ATOM     15  C   UNL     1      21.622   0.070  32.020  1.00  0.00     0.115 A 
ATOM     16  C   UNL     1      20.835   2.366  31.966  1.00  0.00     0.013 A 
ATOM     17  C   UNL     1      20.899   1.120  32.598  1.00  0.00     0.047 A 
BRANCH  15  18
ATOM     18  O   UNL     1      21.768  -1.133  32.713  1.00  0.00    -0.508 OA
ATOM     19  H   UNL     1      21.169  -1.932  32.523  1.00  0.00     0.293 HD
ENDBRANCH  15  18
ENDBRANCH   1  12
BRANCH  11  20
ATOM     20  C   UNL     1      20.900   8.114  27.246  1.00  0.00     0.188 C 
ATOM     21  C   UNL     1      22.015   8.324  26.172  1.00  0.00     0.179 C 
ATOM     22  O   UNL     1      20.016   9.217  27.299  1.00  0.00    -0.362 OA
ATOM     23  C   UNL     1      21.711   9.534  25.246  1.00  0.00     0.177 C 
ATOM     24  C   UNL     1      19.280   9.314  26.093  1.00  0.00     0.176 C 
ATOM     25  C   UNL     1      20.205   9.661  24.885  1.00  0.00     0.177 C 
BRANCH  21  26
ATOM     26  O   UNL     1      22.203   7.149  25.422  1.00  0.00    -0.387 OA
ATOM     27  H   UNL     1      22.464   7.414  24.500  1.00  0.00     0.211 HD
ENDBRANCH  21  26
BRANCH  23  28
ATOM     28  O   UNL     1      22.209  10.727  25.808  1.00  0.00    -0.387 OA
ATOM     29  H   UNL     1      21.876  11.492  25.280  1.00  0.00     0.211 HD
ENDBRANCH  23  28
BRANCH  24  30
ATOM     30  C   UNL     1      18.137  10.320  26.309  1.00  0.00     0.191 C 
BRANCH  30  31
ATOM     31  O   UNL     1      18.615  11.423  27.030  1.00  0.00    -0.394 OA
ATOM     32  H   UNL     1      18.321  11.304  27.970  1.00  0.00     0.210 HD
ENDBRANCH  30  31
ENDBRANCH  24  30
BRANCH  25  33
ATOM     33  O   UNL     1      19.945  10.956  24.390  1.00  0.00    -0.388 OA
ATOM     34  H   UNL     1      20.734  11.517  24.615  1.00  0.00     0.211 HD
ENDBRANCH  25  33
ENDBRANCH  11  20
BRANCH  10  35
ATOM     35  O   UNL     1      22.100  10.202  28.830  1.00  0.00    -0.507 OA
ATOM     36  H   UNL     1      21.758  11.024  29.319  1.00  0.00     0.293 HD
ENDBRANCH  10  35
TORSDOF 9
ENDMDL
MODEL 9
REMARK VINA RESULT:    -7.508      2.692      8.474
REMARK INTER + INTRA:         -11.336
REMARK INTER:                 -10.240
REMARK INTRA:                  -1.097
REMARK UNBOUND:                -1.195
REMARK SMILES O=c1c(-c2ccc(O)cc2)coc2c([C@H]3O[C@@H](CO)[C@@H](O)[C@@H](O)[C@@H]3O)c(O)ccc12
REMARK SMILES IDX 3 1 11 2 12 3 13 4 30 5 2 6 1 7 29 8 28 9 26 10 14 11 4 12
REMARK SMILES IDX 5 13 6 14 7 15 10 16 9 17 8 18 15 20 24 21 16 22 22 23 17 24
REMARK SMILES IDX 20 25 25 26 23 28 18 30 19 31 21 33 27 35
REMARK H PARENT 8 19 25 27 23 29 19 32 21 34 27 36
REMARK Flexibility Score: inf
ROOT
ATOM      1  C   UNL     1      21.595   4.270  27.568  1.00  0.00     0.065 A 
ATOM      2  C   UNL     1      20.216   4.455  27.411  1.00  0.00     0.208 A 
ATOM      3  O   UNL     1      19.736   5.254  26.465  1.00  0.00    -0.463 OA
ATOM      4  C   UNL     1      20.505   5.931  25.619  1.00  0.00     0.147 A 
ATOM      5  C   UNL     1      21.913   5.781  25.687  1.00  0.00     0.066 A 
ATOM      6  C   UNL     1      22.453   4.954  26.678  1.00  0.00     0.200 A 
ATOM      7  O   UNL     1      23.706   4.841  26.788  1.00  0.00    -0.288 OA
ATOM      8  C   UNL     1      22.727   6.439  24.751  1.00  0.00     0.020 A 
ATOM      9  C   UNL     1      22.150   7.194  23.734  1.00  0.00     0.047 A 
ATOM     10  C   UNL     1      20.761   7.363  23.668  1.00  0.00     0.125 A 
ATOM     11  C   UNL     1      19.925   6.792  24.652  1.00  0.00     0.069 A 
ENDROOT
BRANCH   1  12
ATOM     12  C   UNL     1      22.123   3.484  28.713  1.00  0.00    -0.011 A 
ATOM     13  C   UNL     1      22.509   2.138  28.567  1.00  0.00     0.013 A 
ATOM     14  C   UNL     1      23.217   1.488  29.588  1.00  0.00     0.047 A 
ATOM     15  C   UNL     1      23.517   2.161  30.777  1.00  0.00     0.115 A 
ATOM     16  C   UNL     1      22.357   4.124  29.942  1.00  0.00     0.013 A 
ATOM     17  C   UNL     1      23.047   3.466  30.966  1.00  0.00     0.047 A 
BRANCH  15  18
ATOM     18  O   UNL     1      24.297   1.556  31.765  1.00  0.00    -0.508 OA
ATOM     19  H   UNL     1      25.309   1.646  31.773  1.00  0.00     0.293 HD
ENDBRANCH  15  18
ENDBRANCH   1  12
BRANCH  11  20
ATOM     20  C   UNL     1      18.417   6.993  24.574  1.00  0.00     0.188 C 
ATOM     21  C   UNL     1      17.792   7.533  25.899  1.00  0.00     0.179 C 
ATOM     22  O   UNL     1      17.819   5.774  24.176  1.00  0.00    -0.362 OA
ATOM     23  C   UNL     1      16.496   6.768  26.287  1.00  0.00     0.177 C 
ATOM     24  C   UNL     1      16.463   5.984  23.825  1.00  0.00     0.176 C 
ATOM     25  C   UNL     1      15.612   6.409  25.061  1.00  0.00     0.177 C 
BRANCH  21  26
ATOM     26  O   UNL     1      17.550   8.915  25.802  1.00  0.00    -0.387 OA
ATOM     27  H   UNL     1      18.262   9.387  26.311  1.00  0.00     0.211 HD
ENDBRANCH  21  26
BRANCH  23  28
ATOM     28  O   UNL     1      16.806   5.624  27.051  1.00  0.00    -0.387 OA
ATOM     29  H   UNL     1      17.201   4.941  26.458  1.00  0.00     0.211 HD
ENDBRANCH  23  28
BRANCH  24  30
ATOM     30  C   UNL     1      15.949   4.717  23.122  1.00  0.00     0.191 C 
BRANCH  30  31
ATOM     31  O   UNL     1      16.387   3.584  23.821  1.00  0.00    -0.394 OA
ATOM     32  H   UNL     1      17.124   3.878  24.418  1.00  0.00     0.210 HD
ENDBRANCH  30  31
ENDBRANCH  24  30
BRANCH  25  33
ATOM     33  O   UNL     1      14.687   5.406  25.421  1.00  0.00    -0.388 OA
ATOM     34  H   UNL     1      15.199   4.557  25.505  1.00  0.00     0.211 HD
ENDBRANCH  25  33
ENDBRANCH  11  20
BRANCH  10  35
ATOM     35  O   UNL     1      20.218   8.089  22.607  1.00  0.00    -0.507 OA
ATOM     36  H   UNL     1      19.283   8.481  22.647  1.00  0.00     0.293 HD
ENDBRANCH  10  35
TORSDOF 9
ENDMDL
