MODEL 1
REMARK VINA RESULT:    -3.079      0.000      0.000
REMARK INTER + INTRA:          -3.739
REMARK INTER:                  -3.709
REMARK INTRA:                  -0.029
REMARK UNBOUND:                -0.029
REMARK SMILES OCC(O)CO
REMARK SMILES IDX 3 1 5 2 6 3 2 5 1 6 4 8
REMARK H PARENT 6 4 1 7 4 9
REMARK Flexibility Score: inf
ROOT
ATOM      1  C   UNL     1      -4.766 -14.130 -40.068  1.00  0.00     0.165 C 
ENDROOT
BRANCH   1   2
ATOM      2  C   UNL     1      -5.354 -12.738 -40.347  1.00  0.00     0.190 C 
BRANCH   2   3
ATOM      3  O   UNL     1      -6.137 -12.293 -39.271  1.00  0.00    -0.394 OA
ATOM      4  H   UNL     1      -6.895 -12.929 -39.188  1.00  0.00     0.210 HD
ENDBRANCH   2   3
ENDBRANCH   1   2
BRANCH   1   5
ATOM      5  C   UNL     1      -5.503 -14.843 -38.923  1.00  0.00     0.190 C 
BRANCH   5   6
ATOM      6  O   UNL     1      -6.242 -15.924 -39.418  1.00  0.00    -0.394 OA
ATOM      7  H   UNL     1      -5.804 -16.192 -40.268  1.00  0.00     0.210 HD
ENDBRANCH   5   6
ENDBRANCH   1   5
BRANCH   1   8
ATOM      8  O   UNL     1      -3.411 -13.982 -39.730  1.00  0.00    -0.388 OA
ATOM      9  H   UNL     1      -2.883 -14.290 -40.512  1.00  0.00     0.211 HD
ENDBRANCH   1   8
TORSDOF 5
ENDMDL
MODEL 2
REMARK VINA RESULT:    -2.716     10.839     11.276
REMARK INTER + INTRA:          -3.301
REMARK INTER:                  -3.082
REMARK INTRA:                  -0.219
REMARK UNBOUND:                -0.029
REMARK SMILES OCC(O)CO
REMARK SMILES IDX 3 1 5 2 6 3 2 5 1 6 4 8
REMARK H PARENT 6 4 1 7 4 9
REMARK Flexibility Score: inf
ROOT
ATOM      1  C   UNL     1     -14.655 -20.230 -38.177  1.00  0.00     0.165 C 
ENDROOT
BRANCH   1   2
ATOM      2  C   UNL     1     -15.118 -19.370 -39.364  1.00  0.00     0.190 C 
BRANCH   2   3
ATOM      3  O   UNL     1     -15.174 -18.012 -39.015  1.00  0.00    -0.394 OA
ATOM      4  H   UNL     1     -14.906 -17.500 -39.822  1.00  0.00     0.210 HD
ENDBRANCH   2   3
ENDBRANCH   1   2
BRANCH   1   5
ATOM      5  C   UNL     1     -15.587 -20.078 -36.963  1.00  0.00     0.190 C 
BRANCH   5   6
ATOM      6  O   UNL     1     -15.178 -19.000 -36.168  1.00  0.00    -0.394 OA
ATOM      7  H   UNL     1     -14.438 -19.341 -35.601  1.00  0.00     0.210 HD
ENDBRANCH   5   6
ENDBRANCH   1   5
BRANCH   1   8
ATOM      8  O   UNL     1     -13.356 -19.835 -37.820  1.00  0.00    -0.388 OA
ATOM      9  H   UNL     1     -12.947 -19.426 -38.628  1.00  0.00     0.211 HD
ENDBRANCH   1   8
TORSDOF 5
ENDMDL
MODEL 3
REMARK VINA RESULT:    -2.624     10.679     11.497
REMARK INTER + INTRA:          -3.190
REMARK INTER:                  -2.969
REMARK INTRA:                  -0.221
REMARK UNBOUND:                -0.029
REMARK SMILES OCC(O)CO
REMARK SMILES IDX 3 1 5 2 6 3 2 5 1 6 4 8
REMARK H PARENT 6 4 1 7 4 9
REMARK Flexibility Score: inf
ROOT
ATOM      1  C   UNL     1     -14.432 -20.362 -38.526  1.00  0.00     0.165 C 
ENDROOT
BRANCH   1   2
ATOM      2  C   UNL     1     -14.763 -19.384 -39.665  1.00  0.00     0.190 C 
BRANCH   2   3
ATOM      3  O   UNL     1     -15.224 -18.158 -39.162  1.00  0.00    -0.394 OA
ATOM      4  H   UNL     1     -14.804 -17.447 -39.713  1.00  0.00     0.210 HD
ENDBRANCH   2   3
ENDBRANCH   1   2
BRANCH   1   5
ATOM      5  C   UNL     1     -15.627 -20.564 -37.581  1.00  0.00     0.190 C 
BRANCH   5   6
ATOM      6  O   UNL     1     -16.827 -20.529 -38.300  1.00  0.00    -0.394 OA
ATOM      7  H   UNL     1     -16.629 -20.926 -39.188  1.00  0.00     0.210 HD
ENDBRANCH   5   6
ENDBRANCH   1   5
BRANCH   1   8
ATOM      8  O   UNL     1     -13.344 -19.850 -37.801  1.00  0.00    -0.388 OA
ATOM      9  H   UNL     1     -12.985 -19.084 -38.322  1.00  0.00     0.211 HD
ENDBRANCH   1   8
TORSDOF 5
ENDMDL
MODEL 4
REMARK VINA RESULT:    -2.590     10.251     11.191
REMARK INTER + INTRA:          -3.149
REMARK INTER:                  -2.948
REMARK INTRA:                  -0.201
REMARK UNBOUND:                -0.029
REMARK SMILES OCC(O)CO
REMARK SMILES IDX 3 1 5 2 6 3 2 5 1 6 4 8
REMARK H PARENT 6 4 1 7 4 9
REMARK Flexibility Score: inf
ROOT
ATOM      1  C   UNL     1     -14.615 -19.938 -38.122  1.00  0.00     0.165 C 
ENDROOT
BRANCH   1   2
ATOM      2  C   UNL     1     -14.833 -21.184 -38.996  1.00  0.00     0.190 C 
BRANCH   2   3
ATOM      3  O   UNL     1     -15.048 -20.831 -40.337  1.00  0.00    -0.394 OA
ATOM      4  H   UNL     1     -14.196 -21.001 -40.816  1.00  0.00     0.210 HD
ENDBRANCH   2   3
ENDBRANCH   1   2
BRANCH   1   5
ATOM      5  C   UNL     1     -14.886 -18.640 -38.899  1.00  0.00     0.190 C 
BRANCH   5   6
ATOM      6  O   UNL     1     -13.706 -18.169 -39.486  1.00  0.00    -0.394 OA
ATOM      7  H   UNL     1     -13.633 -18.626 -40.365  1.00  0.00     0.210 HD
ENDBRANCH   5   6
ENDBRANCH   1   5
BRANCH   1   8
ATOM      8  O   UNL     1     -13.287 -19.941 -37.666  1.00  0.00    -0.388 OA
ATOM      9  H   UNL     1     -12.945 -19.014 -37.769  1.00  0.00     0.211 HD
ENDBRANCH   1   8
TORSDOF 5
ENDMDL
MODEL 5
REMARK VINA RESULT:    -2.573     10.326     11.338
REMARK INTER + INTRA:          -3.128
REMARK INTER:                  -2.918
REMARK INTRA:                  -0.210
REMARK UNBOUND:                -0.029
REMARK SMILES OCC(O)CO
REMARK SMILES IDX 3 1 5 2 6 3 2 5 1 6 4 8
REMARK H PARENT 6 4 1 7 4 9
REMARK Flexibility Score: inf
ROOT
ATOM      1  C   UNL     1     -14.878 -19.802 -39.675  1.00  0.00     0.165 C 
ENDROOT
BRANCH   1   2
ATOM      2  C   UNL     1     -14.292 -20.653 -38.537  1.00  0.00     0.190 C 
BRANCH   2   3
ATOM      3  O   UNL     1     -13.410 -19.903 -37.744  1.00  0.00    -0.394 OA
ATOM      4  H   UNL     1     -13.323 -20.385 -36.881  1.00  0.00     0.210 HD
ENDBRANCH   2   3
ENDBRANCH   1   2
BRANCH   1   5
ATOM      5  C   UNL     1     -14.442 -18.331 -39.572  1.00  0.00     0.190 C 
BRANCH   5   6
ATOM      6  O   UNL     1     -15.263 -17.642 -38.672  1.00  0.00    -0.394 OA
ATOM      7  H   UNL     1     -15.764 -18.336 -38.168  1.00  0.00     0.210 HD
ENDBRANCH   5   6
ENDBRANCH   1   5
BRANCH   1   8
ATOM      8  O   UNL     1     -16.279 -19.879 -39.612  1.00  0.00    -0.388 OA
ATOM      9  H   UNL     1     -16.615 -19.782 -40.542  1.00  0.00     0.211 HD
ENDBRANCH   1   8
TORSDOF 5
ENDMDL
MODEL 6
REMARK VINA RESULT:    -2.566     10.925     11.444
REMARK INTER + INTRA:          -3.121
REMARK INTER:                  -2.926
REMARK INTRA:                  -0.195
REMARK UNBOUND:                -0.029
REMARK SMILES OCC(O)CO
REMARK SMILES IDX 3 1 5 2 6 3 2 5 1 6 4 8
REMARK H PARENT 6 4 1 7 4 9
REMARK Flexibility Score: inf
ROOT
ATOM      1  C   UNL     1     -15.514 -19.507 -38.869  1.00  0.00     0.165 C 
ENDROOT
BRANCH   1   2
ATOM      2  C   UNL     1     -14.752 -19.912 -37.597  1.00  0.00     0.190 C 
BRANCH   2   3
ATOM      3  O   UNL     1     -13.365 -19.818 -37.785  1.00  0.00    -0.394 OA
ATOM      4  H   UNL     1     -13.198 -19.955 -38.754  1.00  0.00     0.210 HD
ENDBRANCH   2   3
ENDBRANCH   1   2
BRANCH   1   5
ATOM      5  C   UNL     1     -15.183 -20.431 -40.052  1.00  0.00     0.190 C 
BRANCH   5   6
ATOM      6  O   UNL     1     -14.460 -21.546 -39.612  1.00  0.00    -0.394 OA
ATOM      7  H   UNL     1     -14.802 -21.755 -38.703  1.00  0.00     0.210 HD
ENDBRANCH   5   6
ENDBRANCH   1   5
BRANCH   1   8
ATOM      8  O   UNL     1     -15.164 -18.186 -39.196  1.00  0.00    -0.388 OA
ATOM      9  H   UNL     1     -14.310 -18.231 -39.700  1.00  0.00     0.211 HD
ENDBRANCH   1   8
TORSDOF 5
ENDMDL
MODEL 7
REMARK VINA RESULT:    -2.481     10.851     11.829
REMARK INTER + INTRA:          -3.018
REMARK INTER:                  -2.821
REMARK INTRA:                  -0.197
REMARK UNBOUND:                -0.029
REMARK SMILES OCC(O)CO
REMARK SMILES IDX 3 1 5 2 6 3 2 5 1 6 4 8
REMARK H PARENT 6 4 1 7 4 9
REMARK Flexibility Score: inf
ROOT
ATOM      1  C   UNL     1     -15.232 -19.542 -39.642  1.00  0.00     0.165 C 
ENDROOT
BRANCH   1   2
ATOM      2  C   UNL     1     -16.648 -20.065 -39.355  1.00  0.00     0.190 C 
BRANCH   2   3
ATOM      3  O   UNL     1     -16.742 -20.590 -38.057  1.00  0.00    -0.394 OA
ATOM      4  H   UNL     1     -16.026 -21.272 -37.973  1.00  0.00     0.210 HD
ENDBRANCH   2   3
ENDBRANCH   1   2
BRANCH   1   5
ATOM      5  C   UNL     1     -14.157 -20.384 -38.934  1.00  0.00     0.190 C 
BRANCH   5   6
ATOM      6  O   UNL     1     -13.755 -19.760 -37.747  1.00  0.00    -0.394 OA
ATOM      7  H   UNL     1     -14.570 -19.682 -37.186  1.00  0.00     0.210 HD
ENDBRANCH   5   6
ENDBRANCH   1   5
BRANCH   1   8
ATOM      8  O   UNL     1     -15.150 -18.212 -39.198  1.00  0.00    -0.388 OA
ATOM      9  H   UNL     1     -14.517 -17.745 -39.804  1.00  0.00     0.211 HD
ENDBRANCH   1   8
TORSDOF 5
ENDMDL
MODEL 8
REMARK VINA RESULT:    -2.477     10.689     11.451
REMARK INTER + INTRA:          -3.014
REMARK INTER:                  -3.011
REMARK INTRA:                  -0.002
REMARK UNBOUND:                -0.029
REMARK SMILES OCC(O)CO
REMARK SMILES IDX 3 1 5 2 6 3 2 5 1 6 4 8
REMARK H PARENT 6 4 1 7 4 9
REMARK Flexibility Score: inf
ROOT
ATOM      1  C   UNL     1     -14.498 -19.319 -37.878  1.00  0.00     0.165 C 
ENDROOT
BRANCH   1   2
ATOM      2  C   UNL     1     -15.356 -20.032 -36.821  1.00  0.00     0.190 C 
BRANCH   2   3
ATOM      3  O   UNL     1     -14.818 -19.869 -35.536  1.00  0.00    -0.394 OA
ATOM      4  H   UNL     1     -15.578 -19.663 -34.932  1.00  0.00     0.210 HD
ENDBRANCH   2   3
ENDBRANCH   1   2
BRANCH   1   5
ATOM      5  C   UNL     1     -15.277 -19.079 -39.181  1.00  0.00     0.190 C 
BRANCH   5   6
ATOM      6  O   UNL     1     -15.026 -20.110 -40.095  1.00  0.00    -0.394 OA
ATOM      7  H   UNL     1     -14.886 -20.930 -39.553  1.00  0.00     0.210 HD
ENDBRANCH   5   6
ENDBRANCH   1   5
BRANCH   1   8
ATOM      8  O   UNL     1     -13.372 -20.113 -38.147  1.00  0.00    -0.388 OA
ATOM      9  H   UNL     1     -13.375 -20.297 -39.123  1.00  0.00     0.211 HD
ENDBRANCH   1   8
TORSDOF 5
ENDMDL
MODEL 9
REMARK VINA RESULT:    -2.459     10.891     12.230
REMARK INTER + INTRA:          -2.991
REMARK INTER:                  -2.781
REMARK INTRA:                  -0.210
REMARK UNBOUND:                -0.029
REMARK SMILES OCC(O)CO
REMARK SMILES IDX 3 1 5 2 6 3 2 5 1 6 4 8
REMARK H PARENT 6 4 1 7 4 9
REMARK Flexibility Score: inf
ROOT
ATOM      1  C   UNL     1     -15.531 -20.689 -37.218  1.00  0.00     0.165 C 
ENDROOT
BRANCH   1   2
ATOM      2  C   UNL     1     -15.492 -19.656 -36.081  1.00  0.00     0.190 C 
BRANCH   2   3
ATOM      3  O   UNL     1     -14.704 -20.108 -35.012  1.00  0.00    -0.394 OA
ATOM      4  H   UNL     1     -15.328 -20.484 -34.337  1.00  0.00     0.210 HD
ENDBRANCH   2   3
ENDBRANCH   1   2
BRANCH   1   5
ATOM      5  C   UNL     1     -14.496 -20.376 -38.311  1.00  0.00     0.190 C 
BRANCH   5   6
ATOM      6  O   UNL     1     -13.316 -19.886 -37.737  1.00  0.00    -0.394 OA
ATOM      7  H   UNL     1     -12.724 -20.673 -37.610  1.00  0.00     0.210 HD
ENDBRANCH   5   6
ENDBRANCH   1   5
BRANCH   1   8
ATOM      8  O   UNL     1     -16.818 -20.684 -37.780  1.00  0.00    -0.388 OA
ATOM      9  H   UNL     1     -17.290 -19.891 -37.413  1.00  0.00     0.211 HD
ENDBRANCH   1   8
TORSDOF 5
ENDMDL
