MODEL 1
REMARK VINA RESULT:    -2.632      0.000      0.000
REMARK INTER + INTRA:          -4.371
REMARK INTER:                  -4.016
REMARK INTRA:                  -0.355
REMARK UNBOUND:                -0.355
REMARK SMILES CCCCCCCCCCC(=O)[O-]
REMARK SMILES IDX 7 1 8 2 9 3 10 4 11 5 12 6 13 7 6 8 5 9 4 10 3 11 2 12 1 13
REMARK H PARENT
REMARK Flexibility Score: inf
ROOT
ATOM      1  C   UNL     1      33.225  36.706   0.465  1.00  0.00     0.000 C 
ENDROOT
BRANCH   1   2
ATOM      2  C   UNL     1      33.810  37.000  -0.924  1.00  0.00     0.000 C 
BRANCH   2   3
ATOM      3  C   UNL     1      33.904  38.505  -1.220  1.00  0.00     0.006 C 
BRANCH   3   4
ATOM      4  C   UNL     1      32.963  38.946  -2.350  1.00  0.00     0.053 C 
BRANCH   4   5
ATOM      5  C   UNL     1      33.560  38.622  -3.682  1.00  0.00     0.041 C 
ATOM      6  O   UNL     1      32.912  37.939  -4.518  1.00  0.00    -0.550 OA
ATOM      7  O   UNL     1      34.814  39.115  -4.021  1.00  0.00    -0.550 OA
ENDBRANCH   4   5
ENDBRANCH   3   4
ENDBRANCH   2   3
ENDBRANCH   1   2
BRANCH   1   8
ATOM      8  C   UNL     1      34.320  36.732   1.538  1.00  0.00     0.000 C 
BRANCH   8   9
ATOM      9  C   UNL     1      33.809  37.376   2.832  1.00  0.00    -0.000 C 
BRANCH   9  10
ATOM     10  C   UNL     1      34.828  38.377   3.389  1.00  0.00    -0.000 C 
BRANCH  10  11
ATOM     11  C   UNL     1      34.502  38.744   4.842  1.00  0.00    -0.000 C 
BRANCH  11  12
ATOM     12  C   UNL     1      35.123  37.737   5.817  1.00  0.00    -0.003 C 
ATOM     13  C   UNL     1      35.086  38.263   7.249  1.00  0.00     0.004 C 
ENDBRANCH  11  12
ENDBRANCH  10  11
ENDBRANCH   9  10
ENDBRANCH   8   9
ENDBRANCH   1   8
TORSDOF 9
ENDMDL
MODEL 2
REMARK VINA RESULT:    -1.043      4.096      6.869
REMARK INTER + INTRA:          -1.947
REMARK INTER:                  -1.206
REMARK INTRA:                  -0.741
REMARK UNBOUND:                -0.355
REMARK SMILES CCCCCCCCCCC(=O)[O-]
REMARK SMILES IDX 7 1 8 2 9 3 10 4 11 5 12 6 13 7 6 8 5 9 4 10 3 11 2 12 1 13
REMARK H PARENT
REMARK Flexibility Score: inf
ROOT
ATOM      1  C   UNL     1      33.133  36.621   2.008  1.00  0.00     0.000 C 
ENDROOT
BRANCH   1   2
ATOM      2  C   UNL     1      34.625  36.951   2.174  1.00  0.00     0.000 C 
BRANCH   2   3
ATOM      3  C   UNL     1      34.861  38.222   3.004  1.00  0.00     0.006 C 
BRANCH   3   4
ATOM      4  C   UNL     1      33.635  38.620   3.838  1.00  0.00     0.053 C 
BRANCH   4   5
ATOM      5  C   UNL     1      33.888  38.368   5.290  1.00  0.00     0.041 C 
ATOM      6  O   UNL     1      34.962  37.825   5.661  1.00  0.00    -0.550 OA
ATOM      7  O   UNL     1      32.960  38.776   6.240  1.00  0.00    -0.550 OA
ENDBRANCH   4   5
ENDBRANCH   3   4
ENDBRANCH   2   3
ENDBRANCH   1   2
BRANCH   1   8
ATOM      8  C   UNL     1      32.892  35.796   0.739  1.00  0.00     0.000 C 
BRANCH   8   9
ATOM      9  C   UNL     1      33.656  36.384  -0.454  1.00  0.00    -0.000 C 
BRANCH   9  10
ATOM     10  C   UNL     1      32.940  37.621  -1.011  1.00  0.00    -0.000 C 
BRANCH  10  11
ATOM     11  C   UNL     1      33.770  38.889  -0.777  1.00  0.00    -0.000 C 
BRANCH  11  12
ATOM     12  C   UNL     1      34.750  39.125  -1.932  1.00  0.00    -0.003 C 
ATOM     13  C   UNL     1      34.029  39.120  -3.276  1.00  0.00     0.004 C 
ENDBRANCH  11  12
ENDBRANCH  10  11
ENDBRANCH   9  10
ENDBRANCH   8   9
ENDBRANCH   1   8
TORSDOF 9
ENDMDL
