MODEL 1
REMARK VINA RESULT:    -4.426      0.000      0.000
REMARK INTER + INTRA:         -13.835
REMARK INTER:                  -9.602
REMARK INTRA:                  -4.233
REMARK UNBOUND:                -4.233
REMARK SMILES CCCCCCCCCCCCCCCCCCCCCC(=O)[O-]
REMARK SMILES IDX 12 1 11 2 10 3 9 4 8 5 7 6 6 7 5 8 4 9 3 10 2 11 1 12 13 13
REMARK SMILES IDX 14 14 15 15 16 16 17 17 18 18 19 19 20 20 21 21 22 22 23 23
REMARK SMILES IDX 24 24
REMARK H PARENT
REMARK Flexibility Score: inf
ROOT
ATOM      1  C   UNL     1      58.287  10.136  90.552  1.00  0.00     0.000 C 
ENDROOT
BRANCH   1   2
ATOM      2  C   UNL     1      59.295  11.289  90.418  1.00  0.00     0.000 C 
BRANCH   2   3
ATOM      3  C   UNL     1      59.516  12.029  91.750  1.00  0.00     0.000 C 
BRANCH   3   4
ATOM      4  C   UNL     1      58.193  12.533  92.365  1.00  0.00    -0.000 C 
BRANCH   4   5
ATOM      5  C   UNL     1      58.378  13.291  93.691  1.00  0.00    -0.000 C 
BRANCH   5   6
ATOM      6  C   UNL     1      57.114  14.056  94.122  1.00  0.00    -0.000 C 
BRANCH   6   7
ATOM      7  C   UNL     1      56.616  13.634  95.513  1.00  0.00    -0.000 C 
BRANCH   7   8
ATOM      8  C   UNL     1      56.391  12.115  95.622  1.00  0.00    -0.000 C 
BRANCH   8   9
ATOM      9  C   UNL     1      55.058  11.675  94.983  1.00  0.00    -0.000 C 
BRANCH   9  10
ATOM     10  C   UNL     1      55.159  10.381  94.153  1.00  0.00    -0.000 C 
BRANCH  10  11
ATOM     11  C   UNL     1      55.195  10.613  92.630  1.00  0.00    -0.003 C 
ATOM     12  C   UNL     1      54.540  11.932  92.221  1.00  0.00     0.004 C 
ENDBRANCH  10  11
ENDBRANCH   9  10
ENDBRANCH   8   9
ENDBRANCH   7   8
ENDBRANCH   6   7
ENDBRANCH   5   6
ENDBRANCH   4   5
ENDBRANCH   3   4
ENDBRANCH   2   3
ENDBRANCH   1   2
BRANCH   1  13
ATOM     13  C   UNL     1      57.137  10.244  89.539  1.00  0.00     0.000 C 
BRANCH  13  14
ATOM     14  C   UNL     1      57.276  11.504  88.678  1.00  0.00     0.000 C 
BRANCH  14  15
ATOM     15  C   UNL     1      56.191  12.534  89.031  1.00  0.00     0.000 C 
BRANCH  15  16
ATOM     16  C   UNL     1      56.747  13.969  89.128  1.00  0.00     0.000 C 
BRANCH  16  17
ATOM     17  C   UNL     1      56.142  14.801  90.278  1.00  0.00     0.000 C 
BRANCH  17  18
ATOM     18  C   UNL     1      57.099  15.811  90.933  1.00  0.00     0.000 C 
BRANCH  18  19
ATOM     19  C   UNL     1      58.486  15.841  90.267  1.00  0.00     0.000 C 
BRANCH  19  20
ATOM     20  C   UNL     1      59.638  15.907  91.288  1.00  0.00     0.006 C 
BRANCH  20  21
ATOM     21  C   UNL     1      59.316  16.708  92.559  1.00  0.00     0.053 C 
BRANCH  21  22
ATOM     22  C   UNL     1      60.368  16.541  93.610  1.00  0.00     0.041 C 
ATOM     23  O   UNL     1      60.041  16.271  94.797  1.00  0.00    -0.550 OA
ATOM     24  O   UNL     1      61.707  16.721  93.288  1.00  0.00    -0.550 OA
ENDBRANCH  21  22
ENDBRANCH  20  21
ENDBRANCH  19  20
ENDBRANCH  18  19
ENDBRANCH  17  18
ENDBRANCH  16  17
ENDBRANCH  15  16
ENDBRANCH  14  15
ENDBRANCH  13  14
ENDBRANCH   1  13
TORSDOF 20
ENDMDL
MODEL 2
REMARK VINA RESULT:    -4.410      1.864      5.117
REMARK INTER + INTRA:         -13.800
REMARK INTER:                 -10.404
REMARK INTRA:                  -3.396
REMARK UNBOUND:                -4.233
REMARK SMILES CCCCCCCCCCCCCCCCCCCCCC(=O)[O-]
REMARK SMILES IDX 12 1 11 2 10 3 9 4 8 5 7 6 6 7 5 8 4 9 3 10 2 11 1 12 13 13
REMARK SMILES IDX 14 14 15 15 16 16 17 17 18 18 19 19 20 20 21 21 22 22 23 23
REMARK SMILES IDX 24 24
REMARK H PARENT
REMARK Flexibility Score: inf
ROOT
ATOM      1  C   UNL     1      54.763  14.073  93.064  1.00  0.00     0.000 C 
ENDROOT
BRANCH   1   2
ATOM      2  C   UNL     1      55.602  15.297  92.662  1.00  0.00     0.000 C 
BRANCH   2   3
ATOM      3  C   UNL     1      55.749  15.429  91.135  1.00  0.00     0.000 C 
BRANCH   3   4
ATOM      4  C   UNL     1      57.226  15.409  90.686  1.00  0.00    -0.000 C 
BRANCH   4   5
ATOM      5  C   UNL     1      57.502  14.450  89.515  1.00  0.00    -0.000 C 
BRANCH   5   6
ATOM      6  C   UNL     1      56.213  13.937  88.848  1.00  0.00    -0.000 C 
BRANCH   6   7
ATOM      7  C   UNL     1      56.112  12.403  88.867  1.00  0.00    -0.000 C 
BRANCH   7   8
ATOM      8  C   UNL     1      57.473  11.727  89.106  1.00  0.00    -0.000 C 
BRANCH   8   9
ATOM      9  C   UNL     1      57.329  10.344  89.775  1.00  0.00    -0.000 C 
BRANCH   9  10
ATOM     10  C   UNL     1      58.658   9.750  90.280  1.00  0.00    -0.000 C 
BRANCH  10  11
ATOM     11  C   UNL     1      59.872  10.682  90.094  1.00  0.00    -0.003 C 
ATOM     12  C   UNL     1      60.879  10.569  91.238  1.00  0.00     0.004 C 
ENDBRANCH  10  11
ENDBRANCH   9  10
ENDBRANCH   8   9
ENDBRANCH   7   8
ENDBRANCH   6   7
ENDBRANCH   5   6
ENDBRANCH   4   5
ENDBRANCH   3   4
ENDBRANCH   2   3
ENDBRANCH   1   2
BRANCH   1  13
ATOM     13  C   UNL     1      55.327  12.764  92.493  1.00  0.00     0.000 C 
BRANCH  13  14
ATOM     14  C   UNL     1      56.486  12.242  93.349  1.00  0.00     0.000 C 
BRANCH  14  15
ATOM     15  C   UNL     1      57.837  12.494  92.661  1.00  0.00     0.000 C 
BRANCH  15  16
ATOM     16  C   UNL     1      58.761  13.411  93.489  1.00  0.00     0.000 C 
BRANCH  16  17
ATOM     17  C   UNL     1      58.302  13.614  94.947  1.00  0.00     0.000 C 
BRANCH  17  18
ATOM     18  C   UNL     1      58.532  15.022  95.520  1.00  0.00     0.000 C 
BRANCH  18  19
ATOM     19  C   UNL     1      59.094  15.002  96.952  1.00  0.00     0.000 C 
BRANCH  19  20
ATOM     20  C   UNL     1      59.989  16.217  97.260  1.00  0.00     0.006 C 
BRANCH  20  21
ATOM     21  C   UNL     1      60.740  16.779  96.043  1.00  0.00     0.053 C 
BRANCH  21  22
ATOM     22  C   UNL     1      61.975  15.991  95.734  1.00  0.00     0.041 C 
ATOM     23  O   UNL     1      62.895  15.895  96.589  1.00  0.00    -0.550 OA
ATOM     24  O   UNL     1      62.128  15.398  94.487  1.00  0.00    -0.550 OA
ENDBRANCH  21  22
ENDBRANCH  20  21
ENDBRANCH  19  20
ENDBRANCH  18  19
ENDBRANCH  17  18
ENDBRANCH  16  17
ENDBRANCH  15  16
ENDBRANCH  14  15
ENDBRANCH  13  14
ENDBRANCH   1  13
TORSDOF 20
ENDMDL
MODEL 3
REMARK VINA RESULT:    -4.374      2.562      4.907
REMARK INTER + INTRA:         -13.720
REMARK INTER:                 -10.326
REMARK INTRA:                  -3.394
REMARK UNBOUND:                -4.233
REMARK SMILES CCCCCCCCCCCCCCCCCCCCCC(=O)[O-]
REMARK SMILES IDX 12 1 11 2 10 3 9 4 8 5 7 6 6 7 5 8 4 9 3 10 2 11 1 12 13 13
REMARK SMILES IDX 14 14 15 15 16 16 17 17 18 18 19 19 20 20 21 21 22 22 23 23
REMARK SMILES IDX 24 24
REMARK H PARENT
REMARK Flexibility Score: inf
ROOT
ATOM      1  C   UNL     1      59.572  18.062  91.918  1.00  0.00     0.000 C 
ENDROOT
BRANCH   1   2
ATOM      2  C   UNL     1      60.597  17.106  92.550  1.00  0.00     0.000 C 
BRANCH   2   3
ATOM      3  C   UNL     1      60.094  16.502  93.873  1.00  0.00     0.000 C 
BRANCH   3   4
ATOM      4  C   UNL     1      60.097  14.958  93.849  1.00  0.00    -0.000 C 
BRANCH   4   5
ATOM      5  C   UNL     1      58.783  14.346  93.333  1.00  0.00    -0.000 C 
BRANCH   5   6
ATOM      6  C   UNL     1      57.587  15.304  93.466  1.00  0.00    -0.000 C 
BRANCH   6   7
ATOM      7  C   UNL     1      56.452  14.714  94.318  1.00  0.00    -0.000 C 
BRANCH   7   8
ATOM      8  C   UNL     1      55.068  14.913  93.676  1.00  0.00    -0.000 C 
BRANCH   8   9
ATOM      9  C   UNL     1      54.218  13.626  93.709  1.00  0.00    -0.000 C 
BRANCH   9  10
ATOM     10  C   UNL     1      54.201  12.852  92.377  1.00  0.00    -0.000 C 
BRANCH  10  11
ATOM     11  C   UNL     1      54.653  11.384  92.498  1.00  0.00    -0.003 C 
ATOM     12  C   UNL     1      56.142  11.253  92.819  1.00  0.00     0.004 C 
ENDBRANCH  10  11
ENDBRANCH   9  10
ENDBRANCH   8   9
ENDBRANCH   7   8
ENDBRANCH   6   7
ENDBRANCH   5   6
ENDBRANCH   4   5
ENDBRANCH   3   4
ENDBRANCH   2   3
ENDBRANCH   1   2
BRANCH   1  13
ATOM     13  C   UNL     1      59.005  17.522  90.597  1.00  0.00     0.000 C 
BRANCH  13  14
ATOM     14  C   UNL     1      59.768  16.274  90.138  1.00  0.00     0.000 C 
BRANCH  14  15
ATOM     15  C   UNL     1      58.813  15.245  89.512  1.00  0.00     0.000 C 
BRANCH  15  16
ATOM     16  C   UNL     1      57.373  15.371  90.049  1.00  0.00     0.000 C 
BRANCH  16  17
ATOM     17  C   UNL     1      56.352  14.468  89.329  1.00  0.00     0.000 C 
BRANCH  17  18
ATOM     18  C   UNL     1      56.457  12.968  89.650  1.00  0.00     0.000 C 
BRANCH  18  19
ATOM     19  C   UNL     1      56.408  12.081  88.394  1.00  0.00     0.000 C 
BRANCH  19  20
ATOM     20  C   UNL     1      57.628  11.149  88.272  1.00  0.00     0.006 C 
BRANCH  20  21
ATOM     21  C   UNL     1      58.768  11.463  89.252  1.00  0.00     0.053 C 
BRANCH  21  22
ATOM     22  C   UNL     1      59.028  10.327  90.193  1.00  0.00     0.041 C 
ATOM     23  O   UNL     1      60.138  10.234  90.783  1.00  0.00    -0.550 OA
ATOM     24  O   UNL     1      58.061   9.350  90.386  1.00  0.00    -0.550 OA
ENDBRANCH  21  22
ENDBRANCH  20  21
ENDBRANCH  19  20
ENDBRANCH  18  19
ENDBRANCH  17  18
ENDBRANCH  16  17
ENDBRANCH  15  16
ENDBRANCH  14  15
ENDBRANCH  13  14
ENDBRANCH   1  13
TORSDOF 20
ENDMDL
MODEL 4
REMARK VINA RESULT:    -4.365      2.929      5.789
REMARK INTER + INTRA:         -13.702
REMARK INTER:                 -10.119
REMARK INTRA:                  -3.583
REMARK UNBOUND:                -4.233
REMARK SMILES CCCCCCCCCCCCCCCCCCCCCC(=O)[O-]
REMARK SMILES IDX 12 1 11 2 10 3 9 4 8 5 7 6 6 7 5 8 4 9 3 10 2 11 1 12 13 13
REMARK SMILES IDX 14 14 15 15 16 16 17 17 18 18 19 19 20 20 21 21 22 22 23 23
REMARK SMILES IDX 24 24
REMARK H PARENT
REMARK Flexibility Score: inf
ROOT
ATOM      1  C   UNL     1      58.544  15.227  90.109  1.00  0.00     0.000 C 
ENDROOT
BRANCH   1   2
ATOM      2  C   UNL     1      59.312  16.552  89.973  1.00  0.00     0.000 C 
BRANCH   2   3
ATOM      3  C   UNL     1      59.031  17.512  91.143  1.00  0.00     0.000 C 
BRANCH   3   4
ATOM      4  C   UNL     1      60.307  17.842  91.948  1.00  0.00    -0.000 C 
BRANCH   4   5
ATOM      5  C   UNL     1      60.371  17.143  93.317  1.00  0.00    -0.000 C 
BRANCH   5   6
ATOM      6  C   UNL     1      60.928  15.711  93.230  1.00  0.00    -0.000 C 
BRANCH   6   7
ATOM      7  C   UNL     1      59.965  14.669  93.821  1.00  0.00    -0.000 C 
BRANCH   7   8
ATOM      8  C   UNL     1      58.662  15.301  94.343  1.00  0.00    -0.000 C 
BRANCH   8   9
ATOM      9  C   UNL     1      58.386  14.938  95.817  1.00  0.00    -0.000 C 
BRANCH   9  10
ATOM     10  C   UNL     1      59.659  14.695  96.651  1.00  0.00    -0.000 C 
BRANCH  10  11
ATOM     11  C   UNL     1      59.994  15.836  97.631  1.00  0.00    -0.003 C 
ATOM     12  C   UNL     1      60.855  16.925  96.991  1.00  0.00     0.004 C 
ENDBRANCH  10  11
ENDBRANCH   9  10
ENDBRANCH   8   9
ENDBRANCH   7   8
ENDBRANCH   6   7
ENDBRANCH   5   6
ENDBRANCH   4   5
ENDBRANCH   3   4
ENDBRANCH   2   3
ENDBRANCH   1   2
BRANCH   1  13
ATOM     13  C   UNL     1      57.286  15.366  90.978  1.00  0.00     0.000 C 
BRANCH  13  14
ATOM     14  C   UNL     1      56.029  14.964  90.198  1.00  0.00     0.000 C 
BRANCH  14  15
ATOM     15  C   UNL     1      56.393  14.146  88.950  1.00  0.00     0.000 C 
BRANCH  15  16
ATOM     16  C   UNL     1      56.012  12.658  89.085  1.00  0.00     0.000 C 
BRANCH  16  17
ATOM     17  C   UNL     1      57.218  11.697  89.090  1.00  0.00     0.000 C 
BRANCH  17  18
ATOM     18  C   UNL     1      57.493  10.994  90.430  1.00  0.00     0.000 C 
BRANCH  18  19
ATOM     19  C   UNL     1      58.048  11.946  91.504  1.00  0.00     0.000 C 
BRANCH  19  20
ATOM     20  C   UNL     1      57.196  11.960  92.787  1.00  0.00     0.006 C 
BRANCH  20  21
ATOM     21  C   UNL     1      55.701  11.686  92.561  1.00  0.00     0.053 C 
BRANCH  21  22
ATOM     22  C   UNL     1      55.247  10.443  93.261  1.00  0.00     0.041 C 
ATOM     23  O   UNL     1      55.250  10.388  94.520  1.00  0.00    -0.550 OA
ATOM     24  O   UNL     1      54.860   9.332  92.522  1.00  0.00    -0.550 OA
ENDBRANCH  21  22
ENDBRANCH  20  21
ENDBRANCH  19  20
ENDBRANCH  18  19
ENDBRANCH  17  18
ENDBRANCH  16  17
ENDBRANCH  15  16
ENDBRANCH  14  15
ENDBRANCH  13  14
ENDBRANCH   1  13
TORSDOF 20
ENDMDL
MODEL 5
REMARK VINA RESULT:    -4.354      2.557      6.407
REMARK INTER + INTRA:         -13.679
REMARK INTER:                 -10.647
REMARK INTRA:                  -3.031
REMARK UNBOUND:                -4.233
REMARK SMILES CCCCCCCCCCCCCCCCCCCCCC(=O)[O-]
REMARK SMILES IDX 12 1 11 2 10 3 9 4 8 5 7 6 6 7 5 8 4 9 3 10 2 11 1 12 13 13
REMARK SMILES IDX 14 14 15 15 16 16 17 17 18 18 19 19 20 20 21 21 22 22 23 23
REMARK SMILES IDX 24 24
REMARK H PARENT
REMARK Flexibility Score: inf
ROOT
ATOM      1  C   UNL     1      60.520  15.412  93.179  1.00  0.00     0.000 C 
ENDROOT
BRANCH   1   2
ATOM      2  C   UNL     1      60.452  13.876  93.229  1.00  0.00     0.000 C 
BRANCH   2   3
ATOM      3  C   UNL     1      59.188  13.325  92.546  1.00  0.00     0.000 C 
BRANCH   3   4
ATOM      4  C   UNL     1      58.389  14.427  91.817  1.00  0.00    -0.000 C 
BRANCH   4   5
ATOM      5  C   UNL     1      58.626  14.459  90.298  1.00  0.00    -0.000 C 
BRANCH   5   6
ATOM      6  C   UNL     1      57.318  14.554  89.492  1.00  0.00    -0.000 C 
BRANCH   6   7
ATOM      7  C   UNL     1      56.387  13.356  89.738  1.00  0.00    -0.000 C 
BRANCH   7   8
ATOM      8  C   UNL     1      56.486  12.296  88.628  1.00  0.00    -0.000 C 
BRANCH   8   9
ATOM      9  C   UNL     1      57.120  10.982  89.129  1.00  0.00    -0.000 C 
BRANCH   9  10
ATOM     10  C   UNL     1      58.656  11.031  89.243  1.00  0.00    -0.000 C 
BRANCH  10  11
ATOM     11  C   UNL     1      59.226  10.189  90.401  1.00  0.00    -0.003 C 
ATOM     12  C   UNL     1      60.688  10.519  90.702  1.00  0.00     0.004 C 
ENDBRANCH  10  11
ENDBRANCH   9  10
ENDBRANCH   8   9
ENDBRANCH   7   8
ENDBRANCH   6   7
ENDBRANCH   5   6
ENDBRANCH   4   5
ENDBRANCH   3   4
ENDBRANCH   2   3
ENDBRANCH   1   2
BRANCH   1  13
ATOM     13  C   UNL     1      61.891  15.952  93.611  1.00  0.00     0.000 C 
BRANCH  13  14
ATOM     14  C   UNL     1      61.985  16.061  95.137  1.00  0.00     0.000 C 
BRANCH  14  15
ATOM     15  C   UNL     1      60.715  16.699  95.723  1.00  0.00     0.000 C 
BRANCH  15  16
ATOM     16  C   UNL     1      60.484  16.309  97.197  1.00  0.00     0.000 C 
BRANCH  16  17
ATOM     17  C   UNL     1      59.198  15.493  97.437  1.00  0.00     0.000 C 
BRANCH  17  18
ATOM     18  C   UNL     1      58.466  15.028  96.167  1.00  0.00     0.000 C 
BRANCH  18  19
ATOM     19  C   UNL     1      57.714  13.700  96.360  1.00  0.00     0.000 C 
BRANCH  19  20
ATOM     20  C   UNL     1      56.572  13.506  95.345  1.00  0.00     0.006 C 
BRANCH  20  21
ATOM     21  C   UNL     1      56.461  12.083  94.778  1.00  0.00     0.053 C 
BRANCH  21  22
ATOM     22  C   UNL     1      55.882  12.073  93.397  1.00  0.00     0.041 C 
ATOM     23  O   UNL     1      56.194  11.161  92.586  1.00  0.00    -0.550 OA
ATOM     24  O   UNL     1      55.030  13.093  92.994  1.00  0.00    -0.550 OA
ENDBRANCH  21  22
ENDBRANCH  20  21
ENDBRANCH  19  20
ENDBRANCH  18  19
ENDBRANCH  17  18
ENDBRANCH  16  17
ENDBRANCH  15  16
ENDBRANCH  14  15
ENDBRANCH  13  14
ENDBRANCH   1  13
TORSDOF 20
ENDMDL
MODEL 6
REMARK VINA RESULT:    -4.352      2.859      5.266
REMARK INTER + INTRA:         -13.674
REMARK INTER:                 -10.268
REMARK INTRA:                  -3.406
REMARK UNBOUND:                -4.233
REMARK SMILES CCCCCCCCCCCCCCCCCCCCCC(=O)[O-]
REMARK SMILES IDX 12 1 11 2 10 3 9 4 8 5 7 6 6 7 5 8 4 9 3 10 2 11 1 12 13 13
REMARK SMILES IDX 14 14 15 15 16 16 17 17 18 18 19 19 20 20 21 21 22 22 23 23
REMARK SMILES IDX 24 24
REMARK H PARENT
REMARK Flexibility Score: inf
ROOT
ATOM      1  C   UNL     1      56.376  14.492  89.140  1.00  0.00     0.000 C 
ENDROOT
BRANCH   1   2
ATOM      2  C   UNL     1      57.849  14.783  89.472  1.00  0.00     0.000 C 
BRANCH   2   3
ATOM      3  C   UNL     1      58.002  15.909  90.511  1.00  0.00     0.000 C 
BRANCH   3   4
ATOM      4  C   UNL     1      59.268  16.759  90.270  1.00  0.00    -0.000 C 
BRANCH   4   5
ATOM      5  C   UNL     1      60.051  17.078  91.555  1.00  0.00    -0.000 C 
BRANCH   5   6
ATOM      6  C   UNL     1      59.462  16.390  92.798  1.00  0.00    -0.000 C 
BRANCH   6   7
ATOM      7  C   UNL     1      60.317  15.204  93.274  1.00  0.00    -0.000 C 
BRANCH   7   8
ATOM      8  C   UNL     1      60.384  15.105  94.809  1.00  0.00    -0.000 C 
BRANCH   8   9
ATOM      9  C   UNL     1      59.382  14.077  95.372  1.00  0.00    -0.000 C 
BRANCH   9  10
ATOM     10  C   UNL     1      58.176  14.707  96.094  1.00  0.00    -0.000 C 
BRANCH  10  11
ATOM     11  C   UNL     1      56.809  14.249  95.550  1.00  0.00    -0.003 C 
ATOM     12  C   UNL     1      56.359  15.060  94.335  1.00  0.00     0.004 C 
ENDBRANCH  10  11
ENDBRANCH   9  10
ENDBRANCH   8   9
ENDBRANCH   7   8
ENDBRANCH   6   7
ENDBRANCH   5   6
ENDBRANCH   4   5
ENDBRANCH   3   4
ENDBRANCH   2   3
ENDBRANCH   1   2
BRANCH   1  13
ATOM     13  C   UNL     1      55.997  13.026  89.395  1.00  0.00     0.000 C 
BRANCH  13  14
ATOM     14  C   UNL     1      56.381  12.141  88.204  1.00  0.00     0.000 C 
BRANCH  14  15
ATOM     15  C   UNL     1      57.173  10.908  88.667  1.00  0.00     0.000 C 
BRANCH  15  16
ATOM     16  C   UNL     1      58.594  11.265  89.148  1.00  0.00     0.000 C 
BRANCH  16  17
ATOM     17  C   UNL     1      58.867  10.905  90.622  1.00  0.00     0.000 C 
BRANCH  17  18
ATOM     18  C   UNL     1      59.076  12.102  91.565  1.00  0.00     0.000 C 
BRANCH  18  19
ATOM     19  C   UNL     1      57.849  12.390  92.448  1.00  0.00     0.000 C 
BRANCH  19  20
ATOM     20  C   UNL     1      56.782  11.282  92.369  1.00  0.00     0.006 C 
BRANCH  20  21
ATOM     21  C   UNL     1      55.611  11.457  93.347  1.00  0.00     0.053 C 
BRANCH  21  22
ATOM     22  C   UNL     1      54.889  10.169  93.594  1.00  0.00     0.041 C 
ATOM     23  O   UNL     1      54.842   9.681  94.754  1.00  0.00    -0.550 OA
ATOM     24  O   UNL     1      54.303   9.487  92.535  1.00  0.00    -0.550 OA
ENDBRANCH  21  22
ENDBRANCH  20  21
ENDBRANCH  19  20
ENDBRANCH  18  19
ENDBRANCH  17  18
ENDBRANCH  16  17
ENDBRANCH  15  16
ENDBRANCH  14  15
ENDBRANCH  13  14
ENDBRANCH   1  13
TORSDOF 20
ENDMDL
MODEL 7
REMARK VINA RESULT:    -4.352      1.683      5.061
REMARK INTER + INTRA:         -13.672
REMARK INTER:                 -10.374
REMARK INTRA:                  -3.299
REMARK UNBOUND:                -4.233
REMARK SMILES CCCCCCCCCCCCCCCCCCCCCC(=O)[O-]
REMARK SMILES IDX 12 1 11 2 10 3 9 4 8 5 7 6 6 7 5 8 4 9 3 10 2 11 1 12 13 13
REMARK SMILES IDX 14 14 15 15 16 16 17 17 18 18 19 19 20 20 21 21 22 22 23 23
REMARK SMILES IDX 24 24
REMARK H PARENT
REMARK Flexibility Score: inf
ROOT
ATOM      1  C   UNL     1      57.603  15.317  92.931  1.00  0.00     0.000 C 
ENDROOT
BRANCH   1   2
ATOM      2  C   UNL     1      58.421  14.330  92.083  1.00  0.00     0.000 C 
BRANCH   2   3
ATOM      3  C   UNL     1      59.084  15.011  90.871  1.00  0.00     0.000 C 
BRANCH   3   4
ATOM      4  C   UNL     1      58.446  14.575  89.534  1.00  0.00    -0.000 C 
BRANCH   4   5
ATOM      5  C   UNL     1      56.966  14.972  89.398  1.00  0.00    -0.000 C 
BRANCH   5   6
ATOM      6  C   UNL     1      56.095  13.838  88.829  1.00  0.00    -0.000 C 
BRANCH   6   7
ATOM      7  C   UNL     1      56.581  12.447  89.267  1.00  0.00    -0.000 C 
BRANCH   7   8
ATOM      8  C   UNL     1      56.044  12.046  90.653  1.00  0.00    -0.000 C 
BRANCH   8   9
ATOM      9  C   UNL     1      56.915  10.965  91.326  1.00  0.00    -0.000 C 
BRANCH   9  10
ATOM     10  C   UNL     1      57.712  10.095  90.335  1.00  0.00    -0.000 C 
BRANCH  10  11
ATOM     11  C   UNL     1      59.241  10.210  90.489  1.00  0.00    -0.003 C 
ATOM     12  C   UNL     1      59.879  11.062  89.393  1.00  0.00     0.004 C 
ENDBRANCH  10  11
ENDBRANCH   9  10
ENDBRANCH   8   9
ENDBRANCH   7   8
ENDBRANCH   6   7
ENDBRANCH   5   6
ENDBRANCH   4   5
ENDBRANCH   3   4
ENDBRANCH   2   3
ENDBRANCH   1   2
BRANCH   1  13
ATOM     13  C   UNL     1      56.112  14.952  92.978  1.00  0.00     0.000 C 
BRANCH  13  14
ATOM     14  C   UNL     1      55.673  14.606  94.405  1.00  0.00     0.000 C 
BRANCH  14  15
ATOM     15  C   UNL     1      56.258  13.256  94.850  1.00  0.00     0.000 C 
BRANCH  15  16
ATOM     16  C   UNL     1      56.910  13.325  96.246  1.00  0.00     0.000 C 
BRANCH  16  17
ATOM     17  C   UNL     1      58.403  13.711  96.224  1.00  0.00     0.000 C 
BRANCH  17  18
ATOM     18  C   UNL     1      58.704  15.191  96.515  1.00  0.00     0.000 C 
BRANCH  18  19
ATOM     19  C   UNL     1      60.114  15.413  97.092  1.00  0.00     0.000 C 
BRANCH  19  20
ATOM     20  C   UNL     1      60.915  16.476  96.318  1.00  0.00     0.006 C 
BRANCH  20  21
ATOM     21  C   UNL     1      60.502  16.638  94.847  1.00  0.00     0.053 C 
BRANCH  21  22
ATOM     22  C   UNL     1      61.514  16.051  93.912  1.00  0.00     0.041 C 
ATOM     23  O   UNL     1      61.507  14.815  93.666  1.00  0.00    -0.550 OA
ATOM     24  O   UNL     1      62.489  16.861  93.346  1.00  0.00    -0.550 OA
ENDBRANCH  21  22
ENDBRANCH  20  21
ENDBRANCH  19  20
ENDBRANCH  18  19
ENDBRANCH  17  18
ENDBRANCH  16  17
ENDBRANCH  15  16
ENDBRANCH  14  15
ENDBRANCH  13  14
ENDBRANCH   1  13
TORSDOF 20
ENDMDL
MODEL 8
REMARK VINA RESULT:    -4.331      2.843      6.403
REMARK INTER + INTRA:         -13.627
REMARK INTER:                 -10.144
REMARK INTRA:                  -3.483
REMARK UNBOUND:                -4.233
REMARK SMILES CCCCCCCCCCCCCCCCCCCCCC(=O)[O-]
REMARK SMILES IDX 12 1 11 2 10 3 9 4 8 5 7 6 6 7 5 8 4 9 3 10 2 11 1 12 13 13
REMARK SMILES IDX 14 14 15 15 16 16 17 17 18 18 19 19 20 20 21 21 22 22 23 23
REMARK SMILES IDX 24 24
REMARK H PARENT
REMARK Flexibility Score: inf
ROOT
ATOM      1  C   UNL     1      60.248  14.370  93.296  1.00  0.00     0.000 C 
ENDROOT
BRANCH   1   2
ATOM      2  C   UNL     1      60.091  15.859  92.945  1.00  0.00     0.000 C 
BRANCH   2   3
ATOM      3  C   UNL     1      59.681  16.072  91.476  1.00  0.00     0.000 C 
BRANCH   3   4
ATOM      4  C   UNL     1      58.625  15.047  91.009  1.00  0.00    -0.000 C 
BRANCH   4   5
ATOM      5  C   UNL     1      57.195  15.611  90.968  1.00  0.00    -0.000 C 
BRANCH   5   6
ATOM      6  C   UNL     1      56.162  14.581  90.477  1.00  0.00    -0.000 C 
BRANCH   6   7
ATOM      7  C   UNL     1      56.558  13.946  89.134  1.00  0.00    -0.000 C 
BRANCH   7   8
ATOM      8  C   UNL     1      56.059  12.496  88.999  1.00  0.00    -0.000 C 
BRANCH   8   9
ATOM      9  C   UNL     1      57.109  11.576  88.342  1.00  0.00    -0.000 C 
BRANCH   9  10
ATOM     10  C   UNL     1      57.974  10.793  89.348  1.00  0.00    -0.000 C 
BRANCH  10  11
ATOM     11  C   UNL     1      59.250  11.535  89.789  1.00  0.00    -0.003 C 
ATOM     12  C   UNL     1      60.346  10.584  90.268  1.00  0.00     0.004 C 
ENDBRANCH  10  11
ENDBRANCH   9  10
ENDBRANCH   8   9
ENDBRANCH   7   8
ENDBRANCH   6   7
ENDBRANCH   5   6
ENDBRANCH   4   5
ENDBRANCH   3   4
ENDBRANCH   2   3
ENDBRANCH   1   2
BRANCH   1  13
ATOM     13  C   UNL     1      60.147  14.111  94.806  1.00  0.00     0.000 C 
BRANCH  13  14
ATOM     14  C   UNL     1      59.597  15.338  95.541  1.00  0.00     0.000 C 
BRANCH  14  15
ATOM     15  C   UNL     1      58.238  15.029  96.189  1.00  0.00     0.000 C 
BRANCH  15  16
ATOM     16  C   UNL     1      57.928  13.518  96.220  1.00  0.00     0.000 C 
BRANCH  16  17
ATOM     17  C   UNL     1      56.540  13.150  95.660  1.00  0.00     0.000 C 
BRANCH  17  18
ATOM     18  C   UNL     1      56.366  13.355  94.145  1.00  0.00     0.000 C 
BRANCH  18  19
ATOM     19  C   UNL     1      57.210  12.378  93.308  1.00  0.00     0.000 C 
BRANCH  19  20
ATOM     20  C   UNL     1      56.351  11.449  92.428  1.00  0.00     0.006 C 
BRANCH  20  21
ATOM     21  C   UNL     1      54.922  11.225  92.947  1.00  0.00     0.053 C 
BRANCH  21  22
ATOM     22  C   UNL     1      54.771   9.895  93.619  1.00  0.00     0.041 C 
ATOM     23  O   UNL     1      54.830   9.810  94.874  1.00  0.00    -0.550 OA
ATOM     24  O   UNL     1      54.607   8.746  92.856  1.00  0.00    -0.550 OA
ENDBRANCH  21  22
ENDBRANCH  20  21
ENDBRANCH  19  20
ENDBRANCH  18  19
ENDBRANCH  17  18
ENDBRANCH  16  17
ENDBRANCH  15  16
ENDBRANCH  14  15
ENDBRANCH  13  14
ENDBRANCH   1  13
TORSDOF 20
ENDMDL
MODEL 9
REMARK VINA RESULT:    -4.330      3.468      6.706
REMARK INTER + INTRA:         -13.625
REMARK INTER:                 -10.072
REMARK INTRA:                  -3.553
REMARK UNBOUND:                -4.233
REMARK SMILES CCCCCCCCCCCCCCCCCCCCCC(=O)[O-]
REMARK SMILES IDX 12 1 11 2 10 3 9 4 8 5 7 6 6 7 5 8 4 9 3 10 2 11 1 12 13 13
REMARK SMILES IDX 14 14 15 15 16 16 17 17 18 18 19 19 20 20 21 21 22 22 23 23
REMARK SMILES IDX 24 24
REMARK H PARENT
REMARK Flexibility Score: inf
ROOT
ATOM      1  C   UNL     1      58.543  13.807  94.035  1.00  0.00     0.000 C 
ENDROOT
BRANCH   1   2
ATOM      2  C   UNL     1      58.469  12.752  92.918  1.00  0.00     0.000 C 
BRANCH   2   3
ATOM      3  C   UNL     1      59.756  12.703  92.075  1.00  0.00     0.000 C 
BRANCH   3   4
ATOM      4  C   UNL     1      60.118  11.265  91.645  1.00  0.00    -0.000 C 
BRANCH   4   5
ATOM      5  C   UNL     1      59.636  10.904  90.229  1.00  0.00    -0.000 C 
BRANCH   5   6
ATOM      6  C   UNL     1      58.505   9.861  90.233  1.00  0.00    -0.000 C 
BRANCH   6   7
ATOM      7  C   UNL     1      57.145  10.466  89.850  1.00  0.00    -0.000 C 
BRANCH   7   8
ATOM      8  C   UNL     1      57.280  11.639  88.862  1.00  0.00    -0.000 C 
BRANCH   8   9
ATOM      9  C   UNL     1      56.115  12.642  88.984  1.00  0.00    -0.000 C 
BRANCH   9  10
ATOM     10  C   UNL     1      56.563  14.100  89.200  1.00  0.00    -0.000 C 
BRANCH  10  11
ATOM     11  C   UNL     1      58.063  14.255  89.519  1.00  0.00    -0.003 C 
ATOM     12  C   UNL     1      58.467  15.711  89.747  1.00  0.00     0.004 C 
ENDBRANCH  10  11
ENDBRANCH   9  10
ENDBRANCH   8   9
ENDBRANCH   7   8
ENDBRANCH   6   7
ENDBRANCH   5   6
ENDBRANCH   4   5
ENDBRANCH   3   4
ENDBRANCH   2   3
ENDBRANCH   1   2
BRANCH   1  13
ATOM     13  C   UNL     1      57.208  14.536  94.241  1.00  0.00     0.000 C 
BRANCH  13  14
ATOM     14  C   UNL     1      56.808  15.321  92.987  1.00  0.00     0.000 C 
BRANCH  14  15
ATOM     15  C   UNL     1      55.403  14.917  92.510  1.00  0.00     0.000 C 
BRANCH  15  16
ATOM     16  C   UNL     1      54.851  13.693  93.268  1.00  0.00     0.000 C 
BRANCH  16  17
ATOM     17  C   UNL     1      54.908  12.378  92.466  1.00  0.00     0.000 C 
BRANCH  17  18
ATOM     18  C   UNL     1      54.855  11.091  93.307  1.00  0.00     0.000 C 
BRANCH  18  19
ATOM     19  C   UNL     1      55.646  11.202  94.623  1.00  0.00     0.000 C 
BRANCH  19  20
ATOM     20  C   UNL     1      55.507   9.952  95.511  1.00  0.00     0.006 C 
BRANCH  20  21
ATOM     21  C   UNL     1      54.138   9.260  95.426  1.00  0.00     0.053 C 
BRANCH  21  22
ATOM     22  C   UNL     1      54.244   7.873  94.873  1.00  0.00     0.041 C 
ATOM     23  O   UNL     1      54.136   7.675  93.634  1.00  0.00    -0.550 OA
ATOM     24  O   UNL     1      54.420   6.795  95.731  1.00  0.00    -0.550 OA
ENDBRANCH  21  22
ENDBRANCH  20  21
ENDBRANCH  19  20
ENDBRANCH  18  19
ENDBRANCH  17  18
ENDBRANCH  16  17
ENDBRANCH  15  16
ENDBRANCH  14  15
ENDBRANCH  13  14
ENDBRANCH   1  13
TORSDOF 20
ENDMDL
