MODEL 1
REMARK VINA RESULT:    -4.129      0.000      0.000
REMARK INTER + INTRA:          -9.015
REMARK INTER:                  -7.267
REMARK INTRA:                  -1.748
REMARK UNBOUND:                -1.748
REMARK SMILES CCCCCCCCCCCCCCC(=O)[O-]
REMARK SMILES IDX 9 1 10 2 11 3 12 4 13 5 14 6 15 7 16 8 17 9 8 10 7 11 6 12
REMARK SMILES IDX 5 13 4 14 3 15 2 16 1 17
REMARK H PARENT
REMARK Flexibility Score: inf
ROOT
ATOM      1  C   UNL     1      -7.048  14.242  -0.405  1.00  0.00     0.000 C 
ENDROOT
BRANCH   1   2
ATOM      2  C   UNL     1      -6.555  14.582   1.018  1.00  0.00     0.000 C 
BRANCH   2   3
ATOM      3  C   UNL     1      -5.696  15.860   1.086  1.00  0.00     0.000 C 
BRANCH   3   4
ATOM      4  C   UNL     1      -6.385  17.072   1.740  1.00  0.00     0.000 C 
BRANCH   4   5
ATOM      5  C   UNL     1      -6.588  16.958   3.263  1.00  0.00     0.006 C 
BRANCH   5   6
ATOM      6  C   UNL     1      -6.421  18.299   3.989  1.00  0.00     0.053 C 
BRANCH   6   7
ATOM      7  C   UNL     1      -7.639  19.148   3.805  1.00  0.00     0.041 C 
ATOM      8  O   UNL     1      -8.766  18.612   3.643  1.00  0.00    -0.550 OA
ATOM      9  O   UNL     1      -7.537  20.532   3.863  1.00  0.00    -0.550 OA
ENDBRANCH   6   7
ENDBRANCH   5   6
ENDBRANCH   4   5
ENDBRANCH   3   4
ENDBRANCH   2   3
ENDBRANCH   1   2
BRANCH   1  10
ATOM     10  C   UNL     1      -6.123  14.810  -1.496  1.00  0.00     0.000 C 
BRANCH  10  11
ATOM     11  C   UNL     1      -6.750  14.739  -2.897  1.00  0.00    -0.000 C 
BRANCH  11  12
ATOM     12  C   UNL     1      -8.279  14.909  -2.871  1.00  0.00    -0.000 C 
BRANCH  12  13
ATOM     13  C   UNL     1      -8.724  16.357  -3.141  1.00  0.00    -0.000 C 
BRANCH  13  14
ATOM     14  C   UNL     1      -8.845  17.247  -1.890  1.00  0.00    -0.000 C 
BRANCH  14  15
ATOM     15  C   UNL     1     -10.060  16.892  -1.018  1.00  0.00    -0.000 C 
BRANCH  15  16
ATOM     16  C   UNL     1      -9.727  16.889   0.483  1.00  0.00    -0.003 C 
ATOM     17  C   UNL     1     -10.089  15.571   1.167  1.00  0.00     0.004 C 
ENDBRANCH  15  16
ENDBRANCH  14  15
ENDBRANCH  13  14
ENDBRANCH  12  13
ENDBRANCH  11  12
ENDBRANCH  10  11
ENDBRANCH   1  10
TORSDOF 13
ENDMDL
MODEL 2
REMARK VINA RESULT:    -3.990      4.697      7.230
REMARK INTER + INTRA:          -8.770
REMARK INTER:                  -7.020
REMARK INTRA:                  -1.750
REMARK UNBOUND:                -1.748
REMARK SMILES CCCCCCCCCCCCCCC(=O)[O-]
REMARK SMILES IDX 9 1 10 2 11 3 12 4 13 5 14 6 15 7 16 8 17 9 8 10 7 11 6 12
REMARK SMILES IDX 5 13 4 14 3 15 2 16 1 17
REMARK H PARENT
REMARK Flexibility Score: inf
ROOT
ATOM      1  C   UNL     1      -6.177  15.020  -1.379  1.00  0.00     0.000 C 
ENDROOT
BRANCH   1   2
ATOM      2  C   UNL     1      -7.049  14.038  -2.190  1.00  0.00     0.000 C 
BRANCH   2   3
ATOM      3  C   UNL     1      -7.053  14.320  -3.705  1.00  0.00     0.000 C 
BRANCH   3   4
ATOM      4  C   UNL     1      -8.450  14.487  -4.332  1.00  0.00     0.000 C 
BRANCH   4   5
ATOM      5  C   UNL     1      -8.519  15.486  -5.503  1.00  0.00     0.006 C 
BRANCH   5   6
ATOM      6  C   UNL     1      -7.328  15.365  -6.461  1.00  0.00     0.053 C 
BRANCH   6   7
ATOM      7  C   UNL     1      -7.642  14.408  -7.568  1.00  0.00     0.041 C 
ATOM      8  O   UNL     1      -7.328  13.194  -7.463  1.00  0.00    -0.550 OA
ATOM      9  O   UNL     1      -8.327  14.848  -8.693  1.00  0.00    -0.550 OA
ENDBRANCH   6   7
ENDBRANCH   5   6
ENDBRANCH   4   5
ENDBRANCH   3   4
ENDBRANCH   2   3
ENDBRANCH   1   2
BRANCH   1  10
ATOM     10  C   UNL     1      -6.168  14.689   0.124  1.00  0.00     0.000 C 
BRANCH  10  11
ATOM     11  C   UNL     1      -5.897  15.924   0.998  1.00  0.00    -0.000 C 
BRANCH  11  12
ATOM     12  C   UNL     1      -7.184  16.682   1.368  1.00  0.00    -0.000 C 
BRANCH  12  13
ATOM     13  C   UNL     1      -8.275  15.761   1.945  1.00  0.00    -0.000 C 
BRANCH  13  14
ATOM     14  C   UNL     1      -9.582  15.709   1.131  1.00  0.00    -0.000 C 
BRANCH  14  15
ATOM     15  C   UNL     1      -9.726  16.888   0.154  1.00  0.00    -0.000 C 
BRANCH  15  16
ATOM     16  C   UNL     1      -9.622  16.450  -1.316  1.00  0.00    -0.003 C 
ATOM     17  C   UNL     1      -8.863  17.456  -2.181  1.00  0.00     0.004 C 
ENDBRANCH  15  16
ENDBRANCH  14  15
ENDBRANCH  13  14
ENDBRANCH  12  13
ENDBRANCH  11  12
ENDBRANCH  10  11
ENDBRANCH   1  10
TORSDOF 13
ENDMDL
MODEL 3
REMARK VINA RESULT:    -3.950      4.081      6.846
REMARK INTER + INTRA:          -8.699
REMARK INTER:                  -6.474
REMARK INTRA:                  -2.226
REMARK UNBOUND:                -1.748
REMARK SMILES CCCCCCCCCCCCCCC(=O)[O-]
REMARK SMILES IDX 9 1 10 2 11 3 12 4 13 5 14 6 15 7 16 8 17 9 8 10 7 11 6 12
REMARK SMILES IDX 5 13 4 14 3 15 2 16 1 17
REMARK H PARENT
REMARK Flexibility Score: inf
ROOT
ATOM      1  C   UNL     1     -10.244  15.862  -0.911  1.00  0.00     0.000 C 
ENDROOT
BRANCH   1   2
ATOM      2  C   UNL     1      -9.312  16.827  -1.675  1.00  0.00     0.000 C 
BRANCH   2   3
ATOM      3  C   UNL     1      -8.659  16.201  -2.921  1.00  0.00     0.000 C 
BRANCH   3   4
ATOM      4  C   UNL     1      -9.236  14.836  -3.342  1.00  0.00     0.000 C 
BRANCH   4   5
ATOM      5  C   UNL     1      -8.219  13.872  -3.982  1.00  0.00     0.006 C 
BRANCH   5   6
ATOM      6  C   UNL     1      -6.847  14.519  -4.211  1.00  0.00     0.053 C 
BRANCH   6   7
ATOM      7  C   UNL     1      -6.490  14.486  -5.664  1.00  0.00     0.041 C 
ATOM      8  O   UNL     1      -5.687  13.619  -6.098  1.00  0.00    -0.550 OA
ATOM      9  O   UNL     1      -7.082  15.379  -6.546  1.00  0.00    -0.550 OA
ENDBRANCH   6   7
ENDBRANCH   5   6
ENDBRANCH   4   5
ENDBRANCH   3   4
ENDBRANCH   2   3
ENDBRANCH   1   2
BRANCH   1  10
ATOM     10  C   UNL     1      -9.829  15.689   0.560  1.00  0.00     0.000 C 
BRANCH  10  11
ATOM     11  C   UNL     1      -9.283  16.987   1.176  1.00  0.00    -0.000 C 
BRANCH  11  12
ATOM     12  C   UNL     1      -8.060  16.745   2.079  1.00  0.00    -0.000 C 
BRANCH  12  13
ATOM     13  C   UNL     1      -6.725  16.896   1.329  1.00  0.00    -0.000 C 
BRANCH  13  14
ATOM     14  C   UNL     1      -6.010  15.572   0.998  1.00  0.00    -0.000 C 
BRANCH  14  15
ATOM     15  C   UNL     1      -6.075  15.214  -0.496  1.00  0.00    -0.000 C 
BRANCH  15  16
ATOM     16  C   UNL     1      -6.170  13.698  -0.734  1.00  0.00    -0.003 C 
ATOM     17  C   UNL     1      -7.431  13.082  -0.130  1.00  0.00     0.004 C 
ENDBRANCH  15  16
ENDBRANCH  14  15
ENDBRANCH  13  14
ENDBRANCH  12  13
ENDBRANCH  11  12
ENDBRANCH  10  11
ENDBRANCH   1  10
TORSDOF 13
ENDMDL
MODEL 4
REMARK VINA RESULT:    -3.921      4.762      7.469
REMARK INTER + INTRA:          -8.648
REMARK INTER:                  -7.003
REMARK INTRA:                  -1.645
REMARK UNBOUND:                -1.748
REMARK SMILES CCCCCCCCCCCCCCC(=O)[O-]
REMARK SMILES IDX 9 1 10 2 11 3 12 4 13 5 14 6 15 7 16 8 17 9 8 10 7 11 6 12
REMARK SMILES IDX 5 13 4 14 3 15 2 16 1 17
REMARK H PARENT
REMARK Flexibility Score: inf
ROOT
ATOM      1  C   UNL     1      -8.027  15.104  -2.385  1.00  0.00     0.000 C 
ENDROOT
BRANCH   1   2
ATOM      2  C   UNL     1      -6.717  14.644  -3.061  1.00  0.00     0.000 C 
BRANCH   2   3
ATOM      3  C   UNL     1      -6.939  13.860  -4.369  1.00  0.00     0.000 C 
BRANCH   3   4
ATOM      4  C   UNL     1      -6.320  14.503  -5.625  1.00  0.00     0.000 C 
BRANCH   4   5
ATOM      5  C   UNL     1      -7.285  15.379  -6.446  1.00  0.00     0.006 C 
BRANCH   5   6
ATOM      6  C   UNL     1      -8.752  14.962  -6.286  1.00  0.00     0.053 C 
BRANCH   6   7
ATOM      7  C   UNL     1      -9.335  14.579  -7.610  1.00  0.00     0.041 C 
ATOM      8  O   UNL     1     -10.504  14.933  -7.913  1.00  0.00    -0.550 OA
ATOM      9  O   UNL     1      -8.568  13.877  -8.530  1.00  0.00    -0.550 OA
ENDBRANCH   6   7
ENDBRANCH   5   6
ENDBRANCH   4   5
ENDBRANCH   3   4
ENDBRANCH   2   3
ENDBRANCH   1   2
BRANCH   1  10
ATOM     10  C   UNL     1      -8.494  16.480  -2.890  1.00  0.00     0.000 C 
BRANCH  10  11
ATOM     11  C   UNL     1      -9.249  17.278  -1.815  1.00  0.00    -0.000 C 
BRANCH  11  12
ATOM     12  C   UNL     1      -9.901  16.374  -0.755  1.00  0.00    -0.000 C 
BRANCH  12  13
ATOM     13  C   UNL     1      -9.543  16.785   0.684  1.00  0.00    -0.000 C 
BRANCH  13  14
ATOM     14  C   UNL     1      -8.331  16.052   1.289  1.00  0.00    -0.000 C 
BRANCH  14  15
ATOM     15  C   UNL     1      -7.021  16.843   1.147  1.00  0.00    -0.000 C 
BRANCH  15  16
ATOM     16  C   UNL     1      -5.826  15.943   0.790  1.00  0.00    -0.003 C 
ATOM     17  C   UNL     1      -6.180  14.456   0.806  1.00  0.00     0.004 C 
ENDBRANCH  15  16
ENDBRANCH  14  15
ENDBRANCH  13  14
ENDBRANCH  12  13
ENDBRANCH  11  12
ENDBRANCH  10  11
ENDBRANCH   1  10
TORSDOF 13
ENDMDL
MODEL 5
REMARK VINA RESULT:    -3.881      4.586      7.491
REMARK INTER + INTRA:          -8.579
REMARK INTER:                  -6.875
REMARK INTRA:                  -1.704
REMARK UNBOUND:                -1.748
REMARK SMILES CCCCCCCCCCCCCCC(=O)[O-]
REMARK SMILES IDX 9 1 10 2 11 3 12 4 13 5 14 6 15 7 16 8 17 9 8 10 7 11 6 12
REMARK SMILES IDX 5 13 4 14 3 15 2 16 1 17
REMARK H PARENT
REMARK Flexibility Score: inf
ROOT
ATOM      1  C   UNL     1      -8.909  17.176  -1.545  1.00  0.00     0.000 C 
ENDROOT
BRANCH   1   2
ATOM      2  C   UNL     1      -8.735  16.525  -2.934  1.00  0.00     0.000 C 
BRANCH   2   3
ATOM      3  C   UNL     1      -9.339  15.111  -3.035  1.00  0.00     0.000 C 
BRANCH   3   4
ATOM      4  C   UNL     1      -8.619  14.165  -4.014  1.00  0.00     0.000 C 
BRANCH   4   5
ATOM      5  C   UNL     1      -7.537  14.833  -4.884  1.00  0.00     0.006 C 
BRANCH   5   6
ATOM      6  C   UNL     1      -8.089  15.378  -6.207  1.00  0.00     0.053 C 
BRANCH   6   7
ATOM      7  C   UNL     1      -7.666  14.507  -7.348  1.00  0.00     0.041 C 
ATOM      8  O   UNL     1      -6.792  13.618  -7.176  1.00  0.00    -0.550 OA
ATOM      9  O   UNL     1      -8.274  14.644  -8.589  1.00  0.00    -0.550 OA
ENDBRANCH   6   7
ENDBRANCH   5   6
ENDBRANCH   4   5
ENDBRANCH   3   4
ENDBRANCH   2   3
ENDBRANCH   1   2
BRANCH   1  10
ATOM     10  C   UNL     1     -10.076  16.560  -0.753  1.00  0.00     0.000 C 
BRANCH  10  11
ATOM     11  C   UNL     1      -9.624  15.939   0.578  1.00  0.00    -0.000 C 
BRANCH  11  12
ATOM     12  C   UNL     1      -9.178  16.996   1.604  1.00  0.00    -0.000 C 
BRANCH  12  13
ATOM     13  C   UNL     1      -7.829  16.658   2.262  1.00  0.00    -0.000 C 
BRANCH  13  14
ATOM     14  C   UNL     1      -6.591  16.919   1.382  1.00  0.00    -0.000 C 
BRANCH  14  15
ATOM     15  C   UNL     1      -5.850  15.629   0.993  1.00  0.00    -0.000 C 
BRANCH  15  16
ATOM     16  C   UNL     1      -6.095  15.229  -0.471  1.00  0.00    -0.003 C 
ATOM     17  C   UNL     1      -6.722  13.842  -0.609  1.00  0.00     0.004 C 
ENDBRANCH  15  16
ENDBRANCH  14  15
ENDBRANCH  13  14
ENDBRANCH  12  13
ENDBRANCH  11  12
ENDBRANCH  10  11
ENDBRANCH   1  10
TORSDOF 13
ENDMDL
MODEL 6
REMARK VINA RESULT:    -3.878      1.144      3.173
REMARK INTER + INTRA:          -8.574
REMARK INTER:                  -6.935
REMARK INTRA:                  -1.639
REMARK UNBOUND:                -1.748
REMARK SMILES CCCCCCCCCCCCCCC(=O)[O-]
REMARK SMILES IDX 9 1 10 2 11 3 12 4 13 5 14 6 15 7 16 8 17 9 8 10 7 11 6 12
REMARK SMILES IDX 5 13 4 14 3 15 2 16 1 17
REMARK H PARENT
REMARK Flexibility Score: inf
ROOT
ATOM      1  C   UNL     1     -10.260  16.373  -1.124  1.00  0.00     0.000 C 
ENDROOT
BRANCH   1   2
ATOM      2  C   UNL     1      -9.876  15.817   0.264  1.00  0.00     0.000 C 
BRANCH   2   3
ATOM      3  C   UNL     1      -9.226  16.862   1.191  1.00  0.00     0.000 C 
BRANCH   3   4
ATOM      4  C   UNL     1     -10.171  17.482   2.237  1.00  0.00     0.000 C 
BRANCH   4   5
ATOM      5  C   UNL     1      -9.472  18.310   3.332  1.00  0.00     0.006 C 
BRANCH   5   6
ATOM      6  C   UNL     1      -7.986  17.961   3.486  1.00  0.00     0.053 C 
BRANCH   6   7
ATOM      7  C   UNL     1      -7.245  19.096   4.120  1.00  0.00     0.041 C 
ATOM      8  O   UNL     1      -6.263  18.868   4.873  1.00  0.00    -0.550 OA
ATOM      9  O   UNL     1      -7.608  20.407   3.838  1.00  0.00    -0.550 OA
ENDBRANCH   6   7
ENDBRANCH   5   6
ENDBRANCH   4   5
ENDBRANCH   3   4
ENDBRANCH   2   3
ENDBRANCH   1   2
BRANCH   1  10
ATOM     10  C   UNL     1      -9.120  17.184  -1.765  1.00  0.00     0.000 C 
BRANCH  10  11
ATOM     11  C   UNL     1      -8.635  16.574  -3.089  1.00  0.00    -0.000 C 
BRANCH  11  12
ATOM     12  C   UNL     1      -9.069  15.108  -3.260  1.00  0.00    -0.000 C 
BRANCH  12  13
ATOM     13  C   UNL     1      -7.880  14.129  -3.264  1.00  0.00    -0.000 C 
BRANCH  13  14
ATOM     14  C   UNL     1      -6.582  14.679  -2.644  1.00  0.00    -0.000 C 
BRANCH  14  15
ATOM     15  C   UNL     1      -6.414  14.292  -1.166  1.00  0.00    -0.000 C 
BRANCH  15  16
ATOM     16  C   UNL     1      -6.082  15.501  -0.276  1.00  0.00    -0.003 C 
ATOM     17  C   UNL     1      -5.984  15.136   1.206  1.00  0.00     0.004 C 
ENDBRANCH  15  16
ENDBRANCH  14  15
ENDBRANCH  13  14
ENDBRANCH  12  13
ENDBRANCH  11  12
ENDBRANCH  10  11
ENDBRANCH   1  10
TORSDOF 13
ENDMDL
MODEL 7
REMARK VINA RESULT:    -3.861      4.174      6.708
REMARK INTER + INTRA:          -8.543
REMARK INTER:                  -6.900
REMARK INTRA:                  -1.644
REMARK UNBOUND:                -1.748
REMARK SMILES CCCCCCCCCCCCCCC(=O)[O-]
REMARK SMILES IDX 9 1 10 2 11 3 12 4 13 5 14 6 15 7 16 8 17 9 8 10 7 11 6 12
REMARK SMILES IDX 5 13 4 14 3 15 2 16 1 17
REMARK H PARENT
REMARK Flexibility Score: inf
ROOT
ATOM      1  C   UNL     1      -9.126  15.468  -0.142  1.00  0.00     0.000 C 
ENDROOT
BRANCH   1   2
ATOM      2  C   UNL     1      -8.892  16.912  -0.637  1.00  0.00     0.000 C 
BRANCH   2   3
ATOM      3  C   UNL     1      -8.922  17.053  -2.170  1.00  0.00     0.000 C 
BRANCH   3   4
ATOM      4  C   UNL     1      -9.174  15.742  -2.939  1.00  0.00     0.000 C 
BRANCH   4   5
ATOM      5  C   UNL     1      -8.048  15.333  -3.908  1.00  0.00     0.006 C 
BRANCH   5   6
ATOM      6  C   UNL     1      -8.377  15.647  -5.372  1.00  0.00     0.053 C 
BRANCH   6   7
ATOM      7  C   UNL     1      -7.350  15.048  -6.280  1.00  0.00     0.041 C 
ATOM      8  O   UNL     1      -7.545  15.016  -7.523  1.00  0.00    -0.550 OA
ATOM      9  O   UNL     1      -6.155  14.571  -5.757  1.00  0.00    -0.550 OA
ENDBRANCH   6   7
ENDBRANCH   5   6
ENDBRANCH   4   5
ENDBRANCH   3   4
ENDBRANCH   2   3
ENDBRANCH   1   2
BRANCH   1  10
ATOM     10  C   UNL     1      -7.892  14.888   0.572  1.00  0.00     0.000 C 
BRANCH  10  11
ATOM     11  C   UNL     1      -6.662  15.803   0.463  1.00  0.00    -0.000 C 
BRANCH  11  12
ATOM     12  C   UNL     1      -6.110  16.219   1.837  1.00  0.00    -0.000 C 
BRANCH  12  13
ATOM     13  C   UNL     1      -6.650  17.581   2.310  1.00  0.00    -0.000 C 
BRANCH  13  14
ATOM     14  C   UNL     1      -7.628  17.517   3.498  1.00  0.00    -0.000 C 
BRANCH  14  15
ATOM     15  C   UNL     1      -8.911  18.331   3.262  1.00  0.00    -0.000 C 
BRANCH  15  16
ATOM     16  C   UNL     1     -10.150  17.438   3.090  1.00  0.00    -0.003 C 
ATOM     17  C   UNL     1      -9.905  15.993   3.527  1.00  0.00     0.004 C 
ENDBRANCH  15  16
ENDBRANCH  14  15
ENDBRANCH  13  14
ENDBRANCH  12  13
ENDBRANCH  11  12
ENDBRANCH  10  11
ENDBRANCH   1  10
TORSDOF 13
ENDMDL
MODEL 8
REMARK VINA RESULT:    -3.856      3.218      5.417
REMARK INTER + INTRA:          -8.534
REMARK INTER:                  -6.705
REMARK INTRA:                  -1.828
REMARK UNBOUND:                -1.748
REMARK SMILES CCCCCCCCCCCCCCC(=O)[O-]
REMARK SMILES IDX 9 1 10 2 11 3 12 4 13 5 14 6 15 7 16 8 17 9 8 10 7 11 6 12
REMARK SMILES IDX 5 13 4 14 3 15 2 16 1 17
REMARK H PARENT
REMARK Flexibility Score: inf
ROOT
ATOM      1  C   UNL     1      -8.710  14.825  -3.124  1.00  0.00     0.000 C 
ENDROOT
BRANCH   1   2
ATOM      2  C   UNL     1      -8.747  16.337  -3.436  1.00  0.00     0.000 C 
BRANCH   2   3
ATOM      3  C   UNL     1      -8.773  17.227  -2.179  1.00  0.00     0.000 C 
BRANCH   3   4
ATOM      4  C   UNL     1      -9.426  16.586  -0.941  1.00  0.00     0.000 C 
BRANCH   4   5
ATOM      5  C   UNL     1      -8.585  16.662   0.348  1.00  0.00     0.006 C 
BRANCH   5   6
ATOM      6  C   UNL     1      -7.834  15.360   0.648  1.00  0.00     0.053 C 
BRANCH   6   7
ATOM      7  C   UNL     1      -6.390  15.492   0.280  1.00  0.00     0.041 C 
ATOM      8  O   UNL     1      -5.552  15.879   1.136  1.00  0.00    -0.550 OA
ATOM      9  O   UNL     1      -5.962  15.138  -0.993  1.00  0.00    -0.550 OA
ENDBRANCH   6   7
ENDBRANCH   5   6
ENDBRANCH   4   5
ENDBRANCH   3   4
ENDBRANCH   2   3
ENDBRANCH   1   2
BRANCH   1  10
ATOM     10  C   UNL     1      -9.943  14.084  -3.670  1.00  0.00     0.000 C 
BRANCH  10  11
ATOM     11  C   UNL     1      -9.595  13.125  -4.819  1.00  0.00    -0.000 C 
BRANCH  11  12
ATOM     12  C   UNL     1     -10.298  13.498  -6.136  1.00  0.00    -0.000 C 
BRANCH  12  13
ATOM     13  C   UNL     1      -9.669  14.722  -6.824  1.00  0.00    -0.000 C 
BRANCH  13  14
ATOM     14  C   UNL     1      -8.257  14.495  -7.395  1.00  0.00    -0.000 C 
BRANCH  14  15
ATOM     15  C   UNL     1      -7.190  15.374  -6.723  1.00  0.00    -0.000 C 
BRANCH  15  16
ATOM     16  C   UNL     1      -6.320  14.586  -5.730  1.00  0.00    -0.003 C 
ATOM     17  C   UNL     1      -6.058  13.150  -6.182  1.00  0.00     0.004 C 
ENDBRANCH  15  16
ENDBRANCH  14  15
ENDBRANCH  13  14
ENDBRANCH  12  13
ENDBRANCH  11  12
ENDBRANCH  10  11
ENDBRANCH   1  10
TORSDOF 13
ENDMDL
MODEL 9
REMARK VINA RESULT:    -3.821      3.994      6.678
REMARK INTER + INTRA:          -8.472
REMARK INTER:                  -7.193
REMARK INTRA:                  -1.280
REMARK UNBOUND:                -1.748
REMARK SMILES CCCCCCCCCCCCCCC(=O)[O-]
REMARK SMILES IDX 9 1 10 2 11 3 12 4 13 5 14 6 15 7 16 8 17 9 8 10 7 11 6 12
REMARK SMILES IDX 5 13 4 14 3 15 2 16 1 17
REMARK H PARENT
REMARK Flexibility Score: inf
ROOT
ATOM      1  C   UNL     1      -9.404  16.357   0.005  1.00  0.00     0.000 C 
ENDROOT
BRANCH   1   2
ATOM      2  C   UNL     1      -9.913  16.824  -1.375  1.00  0.00     0.000 C 
BRANCH   2   3
ATOM      3  C   UNL     1      -8.785  17.138  -2.377  1.00  0.00     0.000 C 
BRANCH   3   4
ATOM      4  C   UNL     1      -8.733  16.214  -3.608  1.00  0.00     0.000 C 
BRANCH   4   5
ATOM      5  C   UNL     1      -8.591  14.714  -3.287  1.00  0.00     0.006 C 
BRANCH   5   6
ATOM      6  C   UNL     1      -7.193  14.167  -3.602  1.00  0.00     0.053 C 
BRANCH   6   7
ATOM      7  C   UNL     1      -6.985  14.084  -5.082  1.00  0.00     0.041 C 
ATOM      8  O   UNL     1      -6.101  14.787  -5.637  1.00  0.00    -0.550 OA
ATOM      9  O   UNL     1      -7.734  13.194  -5.840  1.00  0.00    -0.550 OA
ENDBRANCH   6   7
ENDBRANCH   5   6
ENDBRANCH   4   5
ENDBRANCH   3   4
ENDBRANCH   2   3
ENDBRANCH   1   2
BRANCH   1  10
ATOM     10  C   UNL     1      -7.882  16.127   0.020  1.00  0.00     0.000 C 
BRANCH  10  11
ATOM     11  C   UNL     1      -7.340  15.857   1.433  1.00  0.00    -0.000 C 
BRANCH  11  12
ATOM     12  C   UNL     1      -6.155  16.768   1.796  1.00  0.00    -0.000 C 
BRANCH  12  13
ATOM     13  C   UNL     1      -6.572  17.981   2.646  1.00  0.00    -0.000 C 
BRANCH  13  14
ATOM     14  C   UNL     1      -7.737  17.724   3.622  1.00  0.00    -0.000 C 
BRANCH  14  15
ATOM     15  C   UNL     1      -8.935  18.657   3.383  1.00  0.00    -0.000 C 
BRANCH  15  16
ATOM     16  C   UNL     1     -10.271  17.899   3.338  1.00  0.00    -0.003 C 
ATOM     17  C   UNL     1     -11.476  18.829   3.193  1.00  0.00     0.004 C 
ENDBRANCH  15  16
ENDBRANCH  14  15
ENDBRANCH  13  14
ENDBRANCH  12  13
ENDBRANCH  11  12
ENDBRANCH  10  11
ENDBRANCH   1  10
TORSDOF 13
ENDMDL
