MODEL 1
REMARK VINA RESULT:    -7.257      0.000      0.000
REMARK INTER + INTRA:          -8.671
REMARK INTER:                  -8.530
REMARK INTRA:                  -0.140
REMARK UNBOUND:                -0.140
REMARK SMILES O=c1c(O)c(-c2ccc(O)cc2)oc2cc(O)cc(O)c12
REMARK SMILES IDX 5 1 3 2 2 3 1 4 21 5 19 6 18 7 16 8 15 9 14 10 13 11 6 12
REMARK SMILES IDX 7 13 8 14 9 15 12 16 11 17 10 18 4 20 20 22 17 24
REMARK H PARENT 10 19 4 21 20 23 17 25
REMARK Flexibility Score: inf
ROOT
ATOM      1  C   UNL     1     -20.681 -11.691 -41.689  1.00  0.00     0.180 A 
ATOM      2  C   UNL     1     -20.207 -10.750 -42.620  1.00  0.00     0.208 A 
ATOM      3  C   UNL     1     -20.816 -10.674 -43.883  1.00  0.00     0.238 A 
ATOM      4  O   UNL     1     -20.351  -9.868 -44.730  1.00  0.00    -0.285 OA
ATOM      5  C   UNL     1     -21.901 -11.529 -44.194  1.00  0.00     0.111 A 
ATOM      6  C   UNL     1     -22.618 -11.512 -45.428  1.00  0.00     0.134 A 
ATOM      7  C   UNL     1     -23.589 -12.491 -45.676  1.00  0.00     0.093 A 
ATOM      8  C   UNL     1     -23.913 -13.445 -44.710  1.00  0.00     0.123 A 
ATOM      9  C   UNL     1     -23.260 -13.433 -43.480  1.00  0.00     0.094 A 
ATOM     10  C   UNL     1     -22.262 -12.492 -43.216  1.00  0.00     0.146 A 
ATOM     11  O   UNL     1     -21.657 -12.522 -42.034  1.00  0.00    -0.452 OA
ENDROOT
BRANCH   1  12
ATOM     12  C   UNL     1     -20.108 -11.813 -40.330  1.00  0.00     0.021 A 
ATOM     13  C   UNL     1     -19.540 -13.033 -39.925  1.00  0.00     0.016 A 
ATOM     14  C   UNL     1     -19.013 -13.176 -38.638  1.00  0.00     0.047 A 
ATOM     15  C   UNL     1     -19.061 -12.106 -37.734  1.00  0.00     0.115 A 
ATOM     16  C   UNL     1     -20.171 -10.750 -39.409  1.00  0.00     0.016 A 
ATOM     17  C   UNL     1     -19.644 -10.897 -38.123  1.00  0.00     0.047 A 
BRANCH  15  18
ATOM     18  O   UNL     1     -18.539 -12.238 -36.449  1.00  0.00    -0.508 OA
ATOM     19  H   UNL     1     -18.602 -13.112 -35.939  1.00  0.00     0.293 HD
ENDBRANCH  15  18
ENDBRANCH   1  12
BRANCH   2  20
ATOM     20  O   UNL     1     -19.121  -9.931 -42.299  1.00  0.00    -0.502 OA
ATOM     21  H   UNL     1     -18.641  -9.369 -42.992  1.00  0.00     0.293 HD
ENDBRANCH   2  20
BRANCH   6  22
ATOM     22  O   UNL     1     -22.437 -10.547 -46.422  1.00  0.00    -0.507 OA
ATOM     23  H   UNL     1     -22.356  -9.555 -46.253  1.00  0.00     0.293 HD
ENDBRANCH   6  22
BRANCH   8  24
ATOM     24  O   UNL     1     -24.892 -14.405 -44.959  1.00  0.00    -0.508 OA
ATOM     25  H   UNL     1     -24.665 -15.295 -45.387  1.00  0.00     0.293 HD
ENDBRANCH   8  24
TORSDOF 5
ENDMDL
MODEL 2
REMARK VINA RESULT:    -7.127      2.411      2.634
REMARK INTER + INTRA:          -8.517
REMARK INTER:                  -8.294
REMARK INTRA:                  -0.224
REMARK UNBOUND:                -0.140
REMARK SMILES O=c1c(O)c(-c2ccc(O)cc2)oc2cc(O)cc(O)c12
REMARK SMILES IDX 5 1 3 2 2 3 1 4 21 5 19 6 18 7 16 8 15 9 14 10 13 11 6 12
REMARK SMILES IDX 7 13 8 14 9 15 12 16 11 17 10 18 4 20 20 22 17 24
REMARK H PARENT 10 19 4 21 20 23 17 25
REMARK Flexibility Score: inf
ROOT
ATOM      1  C   UNL     1     -20.294 -12.548 -40.952  1.00  0.00     0.180 A 
ATOM      2  C   UNL     1     -20.894 -11.562 -41.754  1.00  0.00     0.208 A 
ATOM      3  C   UNL     1     -21.198 -11.864 -43.091  1.00  0.00     0.238 A 
ATOM      4  O   UNL     1     -21.684 -10.959 -43.819  1.00  0.00    -0.285 OA
ATOM      5  C   UNL     1     -20.913 -13.152 -43.605  1.00  0.00     0.111 A 
ATOM      6  C   UNL     1     -21.215 -13.580 -44.933  1.00  0.00     0.134 A 
ATOM      7  C   UNL     1     -20.770 -14.833 -45.373  1.00  0.00     0.093 A 
ATOM      8  C   UNL     1     -20.091 -15.699 -44.512  1.00  0.00     0.123 A 
ATOM      9  C   UNL     1     -19.845 -15.314 -43.197  1.00  0.00     0.094 A 
ATOM     10  C   UNL     1     -20.245 -14.056 -42.739  1.00  0.00     0.146 A 
ATOM     11  O   UNL     1     -19.981 -13.725 -41.480  1.00  0.00    -0.452 OA
ENDROOT
BRANCH   1  12
ATOM     12  C   UNL     1     -19.968 -12.314 -39.527  1.00  0.00     0.021 A 
ATOM     13  C   UNL     1     -18.845 -11.538 -39.193  1.00  0.00     0.016 A 
ATOM     14  C   UNL     1     -18.506 -11.322 -37.854  1.00  0.00     0.047 A 
ATOM     15  C   UNL     1     -19.276 -11.893 -36.832  1.00  0.00     0.115 A 
ATOM     16  C   UNL     1     -20.724 -12.900 -38.495  1.00  0.00     0.016 A 
ATOM     17  C   UNL     1     -20.382 -12.684 -37.157  1.00  0.00     0.047 A 
BRANCH  15  18
ATOM     18  O   UNL     1     -18.947 -11.685 -35.494  1.00  0.00    -0.508 OA
ATOM     19  H   UNL     1     -19.537 -12.027 -34.745  1.00  0.00     0.293 HD
ENDBRANCH  15  18
ENDBRANCH   1  12
BRANCH   2  20
ATOM     20  O   UNL     1     -21.146 -10.290 -41.233  1.00  0.00    -0.502 OA
ATOM     21  H   UNL     1     -21.268  -9.476 -41.822  1.00  0.00     0.293 HD
ENDBRANCH   2  20
BRANCH   6  22
ATOM     22  O   UNL     1     -21.965 -12.830 -45.842  1.00  0.00    -0.507 OA
ATOM     23  H   UNL     1     -21.701 -11.922 -46.195  1.00  0.00     0.293 HD
ENDBRANCH   6  22
BRANCH   8  24
ATOM     24  O   UNL     1     -19.667 -16.951 -44.953  1.00  0.00    -0.508 OA
ATOM     25  H   UNL     1     -18.724 -17.280 -44.784  1.00  0.00     0.293 HD
ENDBRANCH   8  24
TORSDOF 5
ENDMDL
MODEL 3
REMARK VINA RESULT:    -6.700      4.868      6.347
REMARK INTER + INTRA:          -8.015
REMARK INTER:                  -7.756
REMARK INTRA:                  -0.259
REMARK UNBOUND:                -0.140
REMARK SMILES O=c1c(O)c(-c2ccc(O)cc2)oc2cc(O)cc(O)c12
REMARK SMILES IDX 5 1 3 2 2 3 1 4 21 5 19 6 18 7 16 8 15 9 14 10 13 11 6 12
REMARK SMILES IDX 7 13 8 14 9 15 12 16 11 17 10 18 4 20 20 22 17 24
REMARK H PARENT 10 19 4 21 20 23 17 25
REMARK Flexibility Score: inf
ROOT
ATOM      1  C   UNL     1     -19.805 -15.121 -43.262  1.00  0.00     0.180 A 
ATOM      2  C   UNL     1     -20.084 -15.556 -44.569  1.00  0.00     0.208 A 
ATOM      3  C   UNL     1     -20.109 -16.934 -44.838  1.00  0.00     0.238 A 
ATOM      4  O   UNL     1     -20.304 -17.315 -46.022  1.00  0.00    -0.285 OA
ATOM      5  C   UNL     1     -19.873 -17.860 -43.793  1.00  0.00     0.111 A 
ATOM      6  C   UNL     1     -19.913 -19.279 -43.944  1.00  0.00     0.134 A 
ATOM      7  C   UNL     1     -19.534 -20.098 -42.872  1.00  0.00     0.093 A 
ATOM      8  C   UNL     1     -19.179 -19.550 -41.637  1.00  0.00     0.123 A 
ATOM      9  C   UNL     1     -19.194 -18.169 -41.464  1.00  0.00     0.094 A 
ATOM     10  C   UNL     1     -19.533 -17.324 -42.524  1.00  0.00     0.146 A 
ATOM     11  O   UNL     1     -19.524 -16.012 -42.319  1.00  0.00    -0.452 OA
ENDROOT
BRANCH   1  12
ATOM     12  C   UNL     1     -19.786 -13.687 -42.896  1.00  0.00     0.021 A 
ATOM     13  C   UNL     1     -18.639 -12.920 -43.163  1.00  0.00     0.016 A 
ATOM     14  C   UNL     1     -18.591 -11.569 -42.805  1.00  0.00     0.047 A 
ATOM     15  C   UNL     1     -19.683 -10.972 -42.162  1.00  0.00     0.115 A 
ATOM     16  C   UNL     1     -20.870 -13.085 -42.231  1.00  0.00     0.016 A 
ATOM     17  C   UNL     1     -20.818 -11.734 -41.873  1.00  0.00     0.047 A 
BRANCH  15  18
ATOM     18  O   UNL     1     -19.646  -9.627 -41.801  1.00  0.00    -0.508 OA
ATOM     19  H   UNL     1     -19.324  -9.333 -40.886  1.00  0.00     0.293 HD
ENDBRANCH  15  18
ENDBRANCH   1  12
BRANCH   2  20
ATOM     20  O   UNL     1     -20.292 -14.624 -45.590  1.00  0.00    -0.502 OA
ATOM     21  H   UNL     1     -21.194 -14.496 -46.032  1.00  0.00     0.293 HD
ENDBRANCH   2  20
BRANCH   6  22
ATOM     22  O   UNL     1     -20.342 -19.928 -45.104  1.00  0.00    -0.507 OA
ATOM     23  H   UNL     1     -21.100 -19.615 -45.692  1.00  0.00     0.293 HD
ENDBRANCH   6  22
BRANCH   8  24
ATOM     24  O   UNL     1     -18.820 -20.373 -40.572  1.00  0.00    -0.508 OA
ATOM     25  H   UNL     1     -18.417 -21.290 -40.723  1.00  0.00     0.293 HD
ENDBRANCH   8  24
TORSDOF 5
ENDMDL
MODEL 4
REMARK VINA RESULT:    -6.689      3.937      6.193
REMARK INTER + INTRA:          -8.002
REMARK INTER:                  -7.709
REMARK INTRA:                  -0.293
REMARK UNBOUND:                -0.140
REMARK SMILES O=c1c(O)c(-c2ccc(O)cc2)oc2cc(O)cc(O)c12
REMARK SMILES IDX 5 1 3 2 2 3 1 4 21 5 19 6 18 7 16 8 15 9 14 10 13 11 6 12
REMARK SMILES IDX 7 13 8 14 9 15 12 16 11 17 10 18 4 20 20 22 17 24
REMARK H PARENT 10 19 4 21 20 23 17 25
REMARK Flexibility Score: inf
ROOT
ATOM      1  C   UNL     1     -19.858 -14.791 -43.413  1.00  0.00     0.180 A 
ATOM      2  C   UNL     1     -20.010 -13.779 -44.377  1.00  0.00     0.208 A 
ATOM      3  C   UNL     1     -20.108 -12.444 -43.954  1.00  0.00     0.238 A 
ATOM      4  O   UNL     1     -20.300 -11.549 -44.818  1.00  0.00    -0.285 OA
ATOM      5  C   UNL     1     -20.036 -12.135 -42.574  1.00  0.00     0.111 A 
ATOM      6  C   UNL     1     -20.083 -10.814 -42.036  1.00  0.00     0.134 A 
ATOM      7  C   UNL     1     -20.135 -10.636 -40.647  1.00  0.00     0.093 A 
ATOM      8  C   UNL     1     -20.074 -11.727 -39.778  1.00  0.00     0.123 A 
ATOM      9  C   UNL     1     -19.968 -13.016 -40.293  1.00  0.00     0.094 A 
ATOM     10  C   UNL     1     -19.950 -13.229 -41.674  1.00  0.00     0.146 A 
ATOM     11  O   UNL     1     -19.858 -14.476 -42.123  1.00  0.00    -0.452 OA
ENDROOT
BRANCH   1  12
ATOM     12  C   UNL     1     -19.722 -16.218 -43.782  1.00  0.00     0.021 A 
ATOM     13  C   UNL     1     -20.873 -17.017 -43.891  1.00  0.00     0.016 A 
ATOM     14  C   UNL     1     -20.766 -18.372 -44.218  1.00  0.00     0.047 A 
ATOM     15  C   UNL     1     -19.507 -18.949 -44.423  1.00  0.00     0.115 A 
ATOM     16  C   UNL     1     -18.460 -16.810 -43.970  1.00  0.00     0.016 A 
ATOM     17  C   UNL     1     -18.356 -18.166 -44.295  1.00  0.00     0.047 A 
BRANCH  15  18
ATOM     18  O   UNL     1     -19.388 -20.299 -44.749  1.00  0.00    -0.508 OA
ATOM     19  H   UNL     1     -18.495 -20.708 -44.994  1.00  0.00     0.293 HD
ENDBRANCH  15  18
ENDBRANCH   1  12
BRANCH   2  20
ATOM     20  O   UNL     1     -20.102 -14.109 -45.732  1.00  0.00    -0.502 OA
ATOM     21  H   UNL     1     -20.941 -14.503 -46.140  1.00  0.00     0.293 HD
ENDBRANCH   2  20
BRANCH   6  22
ATOM     22  O   UNL     1     -20.055  -9.654 -42.814  1.00  0.00    -0.507 OA
ATOM     23  H   UNL     1     -20.562  -9.527 -43.677  1.00  0.00     0.293 HD
ENDBRANCH   6  22
BRANCH   8  24
ATOM     24  O   UNL     1     -20.109 -11.539 -38.398  1.00  0.00    -0.508 OA
ATOM     25  H   UNL     1     -20.983 -11.402 -37.904  1.00  0.00     0.293 HD
ENDBRANCH   8  24
TORSDOF 5
ENDMDL
MODEL 5
REMARK VINA RESULT:    -6.583      6.401      9.942
REMARK INTER + INTRA:          -7.878
REMARK INTER:                  -7.601
REMARK INTRA:                  -0.278
REMARK UNBOUND:                -0.140
REMARK SMILES O=c1c(O)c(-c2ccc(O)cc2)oc2cc(O)cc(O)c12
REMARK SMILES IDX 5 1 3 2 2 3 1 4 21 5 19 6 18 7 16 8 15 9 14 10 13 11 6 12
REMARK SMILES IDX 7 13 8 14 9 15 12 16 11 17 10 18 4 20 20 22 17 24
REMARK H PARENT 10 19 4 21 20 23 17 25
REMARK Flexibility Score: inf
ROOT
ATOM      1  C   UNL     1     -19.384 -19.044 -40.893  1.00  0.00     0.180 A 
ATOM      2  C   UNL     1     -18.680 -19.983 -40.120  1.00  0.00     0.208 A 
ATOM      3  C   UNL     1     -18.246 -19.621 -38.835  1.00  0.00     0.238 A 
ATOM      4  O   UNL     1     -17.568 -20.448 -38.171  1.00  0.00    -0.285 OA
ATOM      5  C   UNL     1     -18.535 -18.329 -38.332  1.00  0.00     0.111 A 
ATOM      6  C   UNL     1     -18.178 -17.869 -37.029  1.00  0.00     0.134 A 
ATOM      7  C   UNL     1     -18.400 -16.529 -36.686  1.00  0.00     0.093 A 
ATOM      8  C   UNL     1     -19.024 -15.651 -37.575  1.00  0.00     0.123 A 
ATOM      9  C   UNL     1     -19.430 -16.107 -38.826  1.00  0.00     0.094 A 
ATOM     10  C   UNL     1     -19.190 -17.429 -39.211  1.00  0.00     0.146 A 
ATOM     11  O   UNL     1     -19.583 -17.820 -40.418  1.00  0.00    -0.452 OA
ENDROOT
BRANCH   1  12
ATOM     12  C   UNL     1     -19.896 -19.360 -42.245  1.00  0.00     0.021 A 
ATOM     13  C   UNL     1     -19.051 -19.210 -43.358  1.00  0.00     0.016 A 
ATOM     14  C   UNL     1     -19.520 -19.483 -44.646  1.00  0.00     0.047 A 
ATOM     15  C   UNL     1     -20.845 -19.892 -44.840  1.00  0.00     0.115 A 
ATOM     16  C   UNL     1     -21.231 -19.752 -42.451  1.00  0.00     0.016 A 
ATOM     17  C   UNL     1     -21.699 -20.022 -43.740  1.00  0.00     0.047 A 
BRANCH  15  18
ATOM     18  O   UNL     1     -21.324 -20.166 -46.120  1.00  0.00    -0.508 OA
ATOM     19  H   UNL     1     -21.373 -21.113 -46.475  1.00  0.00     0.293 HD
ENDBRANCH  15  18
ENDBRANCH   1  12
BRANCH   2  20
ATOM     20  O   UNL     1     -18.386 -21.245 -40.645  1.00  0.00    -0.502 OA
ATOM     21  H   UNL     1     -17.933 -21.368 -41.542  1.00  0.00     0.293 HD
ENDBRANCH   2  20
BRANCH   6  22
ATOM     22  O   UNL     1     -17.634 -18.686 -36.035  1.00  0.00    -0.507 OA
ATOM     23  H   UNL     1     -18.173 -19.260 -35.404  1.00  0.00     0.293 HD
ENDBRANCH   6  22
BRANCH   8  24
ATOM     24  O   UNL     1     -19.256 -14.324 -37.219  1.00  0.00    -0.508 OA
ATOM     25  H   UNL     1     -19.466 -14.061 -36.263  1.00  0.00     0.293 HD
ENDBRANCH   8  24
TORSDOF 5
ENDMDL
MODEL 6
REMARK VINA RESULT:    -6.474      1.452      3.467
REMARK INTER + INTRA:          -7.750
REMARK INTER:                  -7.579
REMARK INTRA:                  -0.170
REMARK UNBOUND:                -0.140
REMARK SMILES O=c1c(O)c(-c2ccc(O)cc2)oc2cc(O)cc(O)c12
REMARK SMILES IDX 5 1 3 2 2 3 1 4 21 5 19 6 18 7 16 8 15 9 14 10 13 11 6 12
REMARK SMILES IDX 7 13 8 14 9 15 12 16 11 17 10 18 4 20 20 22 17 24
REMARK H PARENT 10 19 4 21 20 23 17 25
REMARK Flexibility Score: inf
ROOT
ATOM      1  C   UNL     1     -20.570 -11.510 -41.974  1.00  0.00     0.180 A 
ATOM      2  C   UNL     1     -21.627 -12.236 -42.551  1.00  0.00     0.208 A 
ATOM      3  C   UNL     1     -21.995 -11.965 -43.878  1.00  0.00     0.238 A 
ATOM      4  O   UNL     1     -22.978 -12.579 -44.370  1.00  0.00    -0.285 OA
ATOM      5  C   UNL     1     -21.291 -10.985 -44.618  1.00  0.00     0.111 A 
ATOM      6  C   UNL     1     -21.552 -10.657 -45.983  1.00  0.00     0.134 A 
ATOM      7  C   UNL     1     -20.881  -9.579 -46.575  1.00  0.00     0.093 A 
ATOM      8  C   UNL     1     -19.912  -8.860 -45.872  1.00  0.00     0.123 A 
ATOM      9  C   UNL     1     -19.608  -9.211 -44.559  1.00  0.00     0.094 A 
ATOM     10  C   UNL     1     -20.286 -10.258 -43.929  1.00  0.00     0.146 A 
ATOM     11  O   UNL     1     -19.972 -10.553 -42.673  1.00  0.00    -0.452 OA
ENDROOT
BRANCH   1  12
ATOM     12  C   UNL     1     -20.108 -11.757 -40.589  1.00  0.00     0.021 A 
ATOM     13  C   UNL     1     -20.213 -10.733 -39.632  1.00  0.00     0.016 A 
ATOM     14  C   UNL     1     -19.763 -10.937 -38.325  1.00  0.00     0.047 A 
ATOM     15  C   UNL     1     -19.188 -12.161 -37.961  1.00  0.00     0.115 A 
ATOM     16  C   UNL     1     -19.511 -12.976 -40.221  1.00  0.00     0.016 A 
ATOM     17  C   UNL     1     -19.060 -13.177 -38.913  1.00  0.00     0.047 A 
BRANCH  15  18
ATOM     18  O   UNL     1     -18.735 -12.375 -36.661  1.00  0.00    -0.508 OA
ATOM     19  H   UNL     1     -19.364 -12.331 -35.868  1.00  0.00     0.293 HD
ENDBRANCH  15  18
ENDBRANCH   1  12
BRANCH   2  20
ATOM     20  O   UNL     1     -22.323 -13.184 -41.795  1.00  0.00    -0.502 OA
ATOM     21  H   UNL     1     -22.910 -12.928 -41.010  1.00  0.00     0.293 HD
ENDBRANCH   2  20
BRANCH   6  22
ATOM     22  O   UNL     1     -22.433 -11.369 -46.801  1.00  0.00    -0.507 OA
ATOM     23  H   UNL     1     -23.072 -10.950 -47.460  1.00  0.00     0.293 HD
ENDBRANCH   6  22
BRANCH   8  24
ATOM     24  O   UNL     1     -19.237  -7.800 -46.474  1.00  0.00    -0.508 OA
ATOM     25  H   UNL     1     -18.678  -7.933 -47.308  1.00  0.00     0.293 HD
ENDBRANCH   8  24
TORSDOF 5
ENDMDL
MODEL 7
REMARK VINA RESULT:    -6.453      4.210      5.851
REMARK INTER + INTRA:          -7.725
REMARK INTER:                  -7.445
REMARK INTRA:                  -0.280
REMARK UNBOUND:                -0.140
REMARK SMILES O=c1c(O)c(-c2ccc(O)cc2)oc2cc(O)cc(O)c12
REMARK SMILES IDX 5 1 3 2 2 3 1 4 21 5 19 6 18 7 16 8 15 9 14 10 13 11 6 12
REMARK SMILES IDX 7 13 8 14 9 15 12 16 11 17 10 18 4 20 20 22 17 24
REMARK H PARENT 10 19 4 21 20 23 17 25
REMARK Flexibility Score: inf
ROOT
ATOM      1  C   UNL     1     -20.100 -15.314 -43.755  1.00  0.00     0.180 A 
ATOM      2  C   UNL     1     -19.895 -14.779 -45.039  1.00  0.00     0.208 A 
ATOM      3  C   UNL     1     -19.935 -13.386 -45.212  1.00  0.00     0.238 A 
ATOM      4  O   UNL     1     -19.805 -12.918 -46.373  1.00  0.00    -0.285 OA
ATOM      5  C   UNL     1     -20.163 -12.544 -44.097  1.00  0.00     0.111 A 
ATOM      6  C   UNL     1     -20.185 -11.118 -44.149  1.00  0.00     0.134 A 
ATOM      7  C   UNL     1     -20.550 -10.391 -43.009  1.00  0.00     0.093 A 
ATOM      8  C   UNL     1     -20.830 -11.036 -41.802  1.00  0.00     0.123 A 
ATOM      9  C   UNL     1     -20.754 -12.424 -41.726  1.00  0.00     0.094 A 
ATOM     10  C   UNL     1     -20.427 -13.179 -42.855  1.00  0.00     0.146 A 
ATOM     11  O   UNL     1     -20.376 -14.502 -42.741  1.00  0.00    -0.452 OA
ENDROOT
BRANCH   1  12
ATOM     12  C   UNL     1     -20.047 -16.769 -43.489  1.00  0.00     0.021 A 
ATOM     13  C   UNL     1     -18.835 -17.355 -43.086  1.00  0.00     0.016 A 
ATOM     14  C   UNL     1     -18.758 -18.731 -42.851  1.00  0.00     0.047 A 
ATOM     15  C   UNL     1     -19.886 -19.541 -43.033  1.00  0.00     0.115 A 
ATOM     16  C   UNL     1     -21.170 -17.592 -43.689  1.00  0.00     0.016 A 
ATOM     17  C   UNL     1     -21.090 -18.968 -43.455  1.00  0.00     0.047 A 
BRANCH  15  18
ATOM     18  O   UNL     1     -19.820 -20.914 -42.802  1.00  0.00    -0.508 OA
ATOM     19  H   UNL     1     -19.125 -21.494 -43.258  1.00  0.00     0.293 HD
ENDBRANCH  15  18
ENDBRANCH   1  12
BRANCH   2  20
ATOM     20  O   UNL     1     -19.693 -15.630 -46.129  1.00  0.00    -0.502 OA
ATOM     21  H   UNL     1     -19.803 -15.321 -47.087  1.00  0.00     0.293 HD
ENDBRANCH   2  20
BRANCH   6  22
ATOM     22  O   UNL     1     -19.832 -10.374 -45.278  1.00  0.00    -0.507 OA
ATOM     23  H   UNL     1     -20.355 -10.356 -46.141  1.00  0.00     0.293 HD
ENDBRANCH   6  22
BRANCH   8  24
ATOM     24  O   UNL     1     -21.177 -10.303 -40.669  1.00  0.00    -0.508 OA
ATOM     25  H   UNL     1     -21.134  -9.291 -40.659  1.00  0.00     0.293 HD
ENDBRANCH   8  24
TORSDOF 5
ENDMDL
MODEL 8
REMARK VINA RESULT:    -6.451      2.024      3.110
REMARK INTER + INTRA:          -7.723
REMARK INTER:                  -7.616
REMARK INTRA:                  -0.107
REMARK UNBOUND:                -0.140
REMARK SMILES O=c1c(O)c(-c2ccc(O)cc2)oc2cc(O)cc(O)c12
REMARK SMILES IDX 5 1 3 2 2 3 1 4 21 5 19 6 18 7 16 8 15 9 14 10 13 11 6 12
REMARK SMILES IDX 7 13 8 14 9 15 12 16 11 17 10 18 4 20 20 22 17 24
REMARK H PARENT 10 19 4 21 20 23 17 25
REMARK Flexibility Score: inf
ROOT
ATOM      1  C   UNL     1     -20.122 -11.988 -40.720  1.00  0.00     0.180 A 
ATOM      2  C   UNL     1     -20.087 -13.218 -41.400  1.00  0.00     0.208 A 
ATOM      3  C   UNL     1     -20.392 -13.249 -42.770  1.00  0.00     0.238 A 
ATOM      4  O   UNL     1     -20.413 -14.361 -43.359  1.00  0.00    -0.285 OA
ATOM      5  C   UNL     1     -20.711 -12.048 -43.448  1.00  0.00     0.111 A 
ATOM      6  C   UNL     1     -20.997 -11.956 -44.843  1.00  0.00     0.134 A 
ATOM      7  C   UNL     1     -21.429 -10.737 -45.381  1.00  0.00     0.093 A 
ATOM      8  C   UNL     1     -21.521  -9.592 -44.587  1.00  0.00     0.123 A 
ATOM      9  C   UNL     1     -21.187  -9.658 -43.236  1.00  0.00     0.094 A 
ATOM     10  C   UNL     1     -20.788 -10.868 -42.663  1.00  0.00     0.146 A 
ATOM     11  O   UNL     1     -20.488 -10.889 -41.369  1.00  0.00    -0.452 OA
ENDROOT
BRANCH   1  12
ATOM     12  C   UNL     1     -19.789 -11.872 -39.283  1.00  0.00     0.021 A 
ATOM     13  C   UNL     1     -18.649 -11.148 -38.893  1.00  0.00     0.016 A 
ATOM     14  C   UNL     1     -18.303 -11.044 -37.542  1.00  0.00     0.047 A 
ATOM     15  C   UNL     1     -19.084 -11.676 -36.566  1.00  0.00     0.115 A 
ATOM     16  C   UNL     1     -20.555 -12.521 -38.297  1.00  0.00     0.016 A 
ATOM     17  C   UNL     1     -20.206 -12.417 -36.948  1.00  0.00     0.047 A 
BRANCH  15  18
ATOM     18  O   UNL     1     -18.748 -11.580 -35.217  1.00  0.00    -0.508 OA
ATOM     19  H   UNL     1     -17.836 -11.862 -34.877  1.00  0.00     0.293 HD
ENDBRANCH  15  18
ENDBRANCH   1  12
BRANCH   2  20
ATOM     20  O   UNL     1     -19.791 -14.395 -40.706  1.00  0.00    -0.502 OA
ATOM     21  H   UNL     1     -19.878 -14.469 -39.700  1.00  0.00     0.293 HD
ENDBRANCH   2  20
BRANCH   6  22
ATOM     22  O   UNL     1     -20.848 -13.017 -45.741  1.00  0.00    -0.507 OA
ATOM     23  H   UNL     1     -21.080 -12.976 -46.722  1.00  0.00     0.293 HD
ENDBRANCH   6  22
BRANCH   8  24
ATOM     24  O   UNL     1     -21.935  -8.379 -45.134  1.00  0.00    -0.508 OA
ATOM     25  H   UNL     1     -22.868  -8.258 -45.507  1.00  0.00     0.293 HD
ENDBRANCH   8  24
TORSDOF 5
ENDMDL
MODEL 9
REMARK VINA RESULT:    -6.424      6.627      7.083
REMARK INTER + INTRA:          -7.691
REMARK INTER:                  -7.422
REMARK INTRA:                  -0.269
REMARK UNBOUND:                -0.140
REMARK SMILES O=c1c(O)c(-c2ccc(O)cc2)oc2cc(O)cc(O)c12
REMARK SMILES IDX 5 1 3 2 2 3 1 4 21 5 19 6 18 7 16 8 15 9 14 10 13 11 6 12
REMARK SMILES IDX 7 13 8 14 9 15 12 16 11 17 10 18 4 20 20 22 17 24
REMARK H PARENT 10 19 4 21 20 23 17 25
REMARK Flexibility Score: inf
ROOT
ATOM      1  C   UNL     1     -19.599 -18.570 -41.514  1.00  0.00     0.180 A 
ATOM      2  C   UNL     1     -18.698 -18.266 -42.550  1.00  0.00     0.208 A 
ATOM      3  C   UNL     1     -19.109 -18.435 -43.882  1.00  0.00     0.238 A 
ATOM      4  O   UNL     1     -18.280 -18.214 -44.802  1.00  0.00    -0.285 OA
ATOM      5  C   UNL     1     -20.421 -18.889 -44.162  1.00  0.00     0.111 A 
ATOM      6  C   UNL     1     -20.957 -19.057 -45.474  1.00  0.00     0.134 A 
ATOM      7  C   UNL     1     -22.222 -19.637 -45.634  1.00  0.00     0.093 A 
ATOM      8  C   UNL     1     -22.996 -19.993 -44.528  1.00  0.00     0.123 A 
ATOM      9  C   UNL     1     -22.506 -19.777 -43.242  1.00  0.00     0.094 A 
ATOM     10  C   UNL     1     -21.233 -19.234 -43.051  1.00  0.00     0.146 A 
ATOM     11  O   UNL     1     -20.799 -19.055 -41.808  1.00  0.00    -0.452 OA
ENDROOT
BRANCH   1  12
ATOM     12  C   UNL     1     -19.248 -18.393 -40.087  1.00  0.00     0.021 A 
ATOM     13  C   UNL     1     -19.322 -17.115 -39.509  1.00  0.00     0.016 A 
ATOM     14  C   UNL     1     -18.973 -16.922 -38.169  1.00  0.00     0.047 A 
ATOM     15  C   UNL     1     -18.530 -18.002 -37.395  1.00  0.00     0.115 A 
ATOM     16  C   UNL     1     -18.782 -19.468 -39.308  1.00  0.00     0.016 A 
ATOM     17  C   UNL     1     -18.432 -19.273 -37.969  1.00  0.00     0.047 A 
BRANCH  15  18
ATOM     18  O   UNL     1     -18.180 -17.821 -36.058  1.00  0.00    -0.508 OA
ATOM     19  H   UNL     1     -17.375 -18.286 -35.655  1.00  0.00     0.293 HD
ENDBRANCH  15  18
ENDBRANCH   1  12
BRANCH   2  20
ATOM     20  O   UNL     1     -17.401 -17.841 -42.250  1.00  0.00    -0.502 OA
ATOM     21  H   UNL     1     -16.986 -17.021 -42.676  1.00  0.00     0.293 HD
ENDBRANCH   2  20
BRANCH   6  22
ATOM     22  O   UNL     1     -20.305 -18.650 -46.641  1.00  0.00    -0.507 OA
ATOM     23  H   UNL     1     -20.587 -17.870 -47.216  1.00  0.00     0.293 HD
ENDBRANCH   6  22
BRANCH   8  24
ATOM     24  O   UNL     1     -24.260 -20.554 -44.696  1.00  0.00    -0.508 OA
ATOM     25  H   UNL     1     -24.911 -20.635 -43.924  1.00  0.00     0.293 HD
ENDBRANCH   8  24
TORSDOF 5
ENDMDL
