MODEL 1
REMARK VINA RESULT:    -3.919      0.000      0.000
REMARK INTER + INTRA:          -4.906
REMARK INTER:                  -4.836
REMARK INTRA:                  -0.070
REMARK UNBOUND:                -0.070
REMARK SMILES CCCCCC=O
REMARK SMILES IDX 4 1 3 2 2 3 1 4 5 5 6 6 7 7
REMARK H PARENT
REMARK Flexibility Score: inf
ROOT
ATOM      1  C   UNL     1       9.535  23.150   8.096  1.00  0.00     0.008 C 
ENDROOT
BRANCH   1   2
ATOM      2  C   UNL     1      10.924  22.743   7.583  1.00  0.00     0.000 C 
BRANCH   2   3
ATOM      3  C   UNL     1      11.152  21.236   7.755  1.00  0.00    -0.003 C 
ATOM      4  C   UNL     1      10.314  20.680   8.903  1.00  0.00     0.004 C 
ENDBRANCH   2   3
ENDBRANCH   1   2
BRANCH   1   5
ATOM      5  C   UNL     1       9.003  24.406   7.391  1.00  0.00     0.072 C 
BRANCH   5   6
ATOM      6  C   UNL     1       7.513  24.534   7.513  1.00  0.00     0.224 C 
ATOM      7  O   UNL     1       7.007  25.590   7.858  1.00  0.00    -0.303 OA
ENDBRANCH   5   6
ENDBRANCH   1   5
TORSDOF 4
ENDMDL
MODEL 2
REMARK VINA RESULT:    -3.869      2.496      4.268
REMARK INTER + INTRA:          -4.843
REMARK INTER:                  -4.766
REMARK INTRA:                  -0.077
REMARK UNBOUND:                -0.070
REMARK SMILES CCCCCC=O
REMARK SMILES IDX 4 1 3 2 2 3 1 4 5 5 6 6 7 7
REMARK H PARENT
REMARK Flexibility Score: inf
ROOT
ATOM      1  C   UNL     1      10.739  23.000   7.628  1.00  0.00     0.008 C 
ENDROOT
BRANCH   1   2
ATOM      2  C   UNL     1       9.279  23.302   7.997  1.00  0.00     0.000 C 
BRANCH   2   3
ATOM      3  C   UNL     1       8.785  24.569   7.289  1.00  0.00    -0.003 C 
ATOM      4  C   UNL     1       7.293  24.786   7.525  1.00  0.00     0.004 C 
ENDBRANCH   2   3
ENDBRANCH   1   2
BRANCH   1   5
ATOM      5  C   UNL     1      11.079  21.511   7.783  1.00  0.00     0.072 C 
BRANCH   5   6
ATOM      6  C   UNL     1      10.100  20.799   8.670  1.00  0.00     0.224 C 
ATOM      7  O   UNL     1      10.457  20.339   9.744  1.00  0.00    -0.303 OA
ENDBRANCH   5   6
ENDBRANCH   1   5
TORSDOF 4
ENDMDL
MODEL 3
REMARK VINA RESULT:    -3.699     10.889     12.172
REMARK INTER + INTRA:          -4.634
REMARK INTER:                  -4.514
REMARK INTRA:                  -0.120
REMARK UNBOUND:                -0.070
REMARK SMILES CCCCCC=O
REMARK SMILES IDX 4 1 3 2 2 3 1 4 5 5 6 6 7 7
REMARK H PARENT
REMARK Flexibility Score: inf
ROOT
ATOM      1  C   UNL     1      13.098  19.209  18.913  1.00  0.00     0.008 C 
ENDROOT
BRANCH   1   2
ATOM      2  C   UNL     1      14.252  18.217  19.121  1.00  0.00     0.000 C 
BRANCH   2   3
ATOM      3  C   UNL     1      15.532  18.715  18.439  1.00  0.00    -0.003 C 
ATOM      4  C   UNL     1      16.701  18.752  19.419  1.00  0.00     0.004 C 
ENDBRANCH   2   3
ENDBRANCH   1   2
BRANCH   1   5
ATOM      5  C   UNL     1      13.209  19.952  17.574  1.00  0.00     0.072 C 
BRANCH   5   6
ATOM      6  C   UNL     1      13.024  21.432  17.732  1.00  0.00     0.224 C 
ATOM      7  O   UNL     1      13.845  22.212  17.275  1.00  0.00    -0.303 OA
ENDBRANCH   5   6
ENDBRANCH   1   5
TORSDOF 4
ENDMDL
MODEL 4
REMARK VINA RESULT:    -3.697      2.025      3.380
REMARK INTER + INTRA:          -4.631
REMARK INTER:                  -4.438
REMARK INTRA:                  -0.193
REMARK UNBOUND:                -0.070
REMARK SMILES CCCCCC=O
REMARK SMILES IDX 4 1 3 2 2 3 1 4 5 5 6 6 7 7
REMARK H PARENT
REMARK Flexibility Score: inf
ROOT
ATOM      1  C   UNL     1       9.958  20.980   8.560  1.00  0.00     0.008 C 
ENDROOT
BRANCH   1   2
ATOM      2  C   UNL     1      10.749  22.032   7.768  1.00  0.00     0.000 C 
BRANCH   2   3
ATOM      3  C   UNL     1      10.435  23.446   8.270  1.00  0.00    -0.003 C 
ATOM      4  C   UNL     1       9.248  24.046   7.521  1.00  0.00     0.004 C 
ENDBRANCH   2   3
ENDBRANCH   1   2
BRANCH   1   5
ATOM      5  C   UNL     1       9.856  21.335  10.050  1.00  0.00     0.072 C 
BRANCH   5   6
ATOM      6  C   UNL     1       8.432  21.484  10.498  1.00  0.00     0.224 C 
ATOM      7  O   UNL     1       7.564  21.816   9.706  1.00  0.00    -0.303 OA
ENDBRANCH   5   6
ENDBRANCH   1   5
TORSDOF 4
ENDMDL
MODEL 5
REMARK VINA RESULT:    -3.627     10.229     11.689
REMARK INTER + INTRA:          -4.545
REMARK INTER:                  -4.375
REMARK INTRA:                  -0.169
REMARK UNBOUND:                -0.070
REMARK SMILES CCCCCC=O
REMARK SMILES IDX 4 1 3 2 2 3 1 4 5 5 6 6 7 7
REMARK H PARENT
REMARK Flexibility Score: inf
ROOT
ATOM      1  C   UNL     1      19.752  18.061  11.864  1.00  0.00     0.008 C 
ENDROOT
BRANCH   1   2
ATOM      2  C   UNL     1      20.061  19.290  12.732  1.00  0.00     0.000 C 
BRANCH   2   3
ATOM      3  C   UNL     1      21.196  20.121  12.121  1.00  0.00    -0.003 C 
ATOM      4  C   UNL     1      21.229  19.977  10.602  1.00  0.00     0.004 C 
ENDBRANCH   2   3
ENDBRANCH   1   2
BRANCH   1   5
ATOM      5  C   UNL     1      18.248  17.903  11.603  1.00  0.00     0.072 C 
BRANCH   5   6
ATOM      6  C   UNL     1      17.500  19.187  11.811  1.00  0.00     0.224 C 
ATOM      7  O   UNL     1      16.561  19.239  12.589  1.00  0.00    -0.303 OA
ENDBRANCH   5   6
ENDBRANCH   1   5
TORSDOF 4
ENDMDL
MODEL 6
REMARK VINA RESULT:    -3.599     12.068     13.169
REMARK INTER + INTRA:          -4.510
REMARK INTER:                  -4.398
REMARK INTRA:                  -0.112
REMARK UNBOUND:                -0.070
REMARK SMILES CCCCCC=O
REMARK SMILES IDX 4 1 3 2 2 3 1 4 5 5 6 6 7 7
REMARK H PARENT
REMARK Flexibility Score: inf
ROOT
ATOM      1  C   UNL     1      21.150  20.168  12.011  1.00  0.00     0.008 C 
ENDROOT
BRANCH   1   2
ATOM      2  C   UNL     1      20.101  19.263  12.674  1.00  0.00     0.000 C 
BRANCH   2   3
ATOM      3  C   UNL     1      18.962  18.938  11.700  1.00  0.00    -0.003 C 
ATOM      4  C   UNL     1      18.648  17.445  11.696  1.00  0.00     0.004 C 
ENDBRANCH   2   3
ENDBRANCH   1   2
BRANCH   1   5
ATOM      5  C   UNL     1      21.401  19.783  10.546  1.00  0.00     0.072 C 
BRANCH   5   6
ATOM      6  C   UNL     1      22.769  19.201  10.342  1.00  0.00     0.224 C 
ATOM      7  O   UNL     1      23.412  19.466   9.339  1.00  0.00    -0.303 OA
ENDBRANCH   5   6
ENDBRANCH   1   5
TORSDOF 4
ENDMDL
MODEL 7
REMARK VINA RESULT:    -3.583     10.655     11.743
REMARK INTER + INTRA:          -4.490
REMARK INTER:                  -4.314
REMARK INTRA:                  -0.176
REMARK UNBOUND:                -0.070
REMARK SMILES CCCCCC=O
REMARK SMILES IDX 4 1 3 2 2 3 1 4 5 5 6 6 7 7
REMARK H PARENT
REMARK Flexibility Score: inf
ROOT
ATOM      1  C   UNL     1      11.500  20.028  19.135  1.00  0.00     0.008 C 
ENDROOT
BRANCH   1   2
ATOM      2  C   UNL     1      11.125  21.347  19.827  1.00  0.00     0.000 C 
BRANCH   2   3
ATOM      3  C   UNL     1       9.604  21.540  19.850  1.00  0.00    -0.003 C 
ATOM      4  C   UNL     1       8.972  21.096  18.534  1.00  0.00     0.004 C 
ENDBRANCH   2   3
ENDBRANCH   1   2
BRANCH   1   5
ATOM      5  C   UNL     1      12.731  20.181  18.230  1.00  0.00     0.072 C 
BRANCH   5   6
ATOM      6  C   UNL     1      12.760  21.512  17.537  1.00  0.00     0.224 C 
ATOM      7  O   UNL     1      13.823  22.064  17.301  1.00  0.00    -0.303 OA
ENDBRANCH   5   6
ENDBRANCH   1   5
TORSDOF 4
ENDMDL
MODEL 8
REMARK VINA RESULT:    -3.548     11.406     12.833
REMARK INTER + INTRA:          -4.448
REMARK INTER:                  -4.349
REMARK INTRA:                  -0.099
REMARK UNBOUND:                -0.070
REMARK SMILES CCCCCC=O
REMARK SMILES IDX 4 1 3 2 2 3 1 4 5 5 6 6 7 7
REMARK H PARENT
REMARK Flexibility Score: inf
ROOT
ATOM      1  C   UNL     1      20.456  19.304  12.705  1.00  0.00     0.008 C 
ENDROOT
BRANCH   1   2
ATOM      2  C   UNL     1      19.459  18.399  11.968  1.00  0.00     0.000 C 
BRANCH   2   3
ATOM      3  C   UNL     1      18.398  19.232  11.238  1.00  0.00    -0.003 C 
ATOM      4  C   UNL     1      17.090  19.269  12.021  1.00  0.00     0.004 C 
ENDBRANCH   2   3
ENDBRANCH   1   2
BRANCH   1   5
ATOM      5  C   UNL     1      21.184  20.260  11.750  1.00  0.00     0.072 C 
BRANCH   5   6
ATOM      6  C   UNL     1      22.399  19.628  11.137  1.00  0.00     0.224 C 
ATOM      7  O   UNL     1      23.518  19.990  11.464  1.00  0.00    -0.303 OA
ENDBRANCH   5   6
ENDBRANCH   1   5
TORSDOF 4
ENDMDL
MODEL 9
REMARK VINA RESULT:    -3.538     10.210     11.276
REMARK INTER + INTRA:          -4.435
REMARK INTER:                  -4.301
REMARK INTRA:                  -0.134
REMARK UNBOUND:                -0.070
REMARK SMILES CCCCCC=O
REMARK SMILES IDX 4 1 3 2 2 3 1 4 5 5 6 6 7 7
REMARK H PARENT
REMARK Flexibility Score: inf
ROOT
ATOM      1  C   UNL     1      11.630  20.508  18.897  1.00  0.00     0.008 C 
ENDROOT
BRANCH   1   2
ATOM      2  C   UNL     1      11.177  20.874  17.475  1.00  0.00     0.000 C 
BRANCH   2   3
ATOM      3  C   UNL     1      12.376  21.252  16.598  1.00  0.00    -0.003 C 
ATOM      4  C   UNL     1      13.536  21.771  17.444  1.00  0.00     0.004 C 
ENDBRANCH   2   3
ENDBRANCH   1   2
BRANCH   1   5
ATOM      5  C   UNL     1      10.752  21.167  19.970  1.00  0.00     0.072 C 
BRANCH   5   6
ATOM      6  C   UNL     1       9.402  21.549  19.438  1.00  0.00     0.224 C 
ATOM      7  O   UNL     1       8.408  21.451  20.141  1.00  0.00    -0.303 OA
ENDBRANCH   5   6
ENDBRANCH   1   5
TORSDOF 4
ENDMDL
