MODEL 1
REMARK VINA RESULT:    -5.845      0.000      0.000
REMARK INTER + INTRA:          -6.016
REMARK INTER:                  -6.016
REMARK INTRA:                   0.000
REMARK UNBOUND:                 0.000
REMARK SMILES C[C@@H]1CC[C@@H]2C(C)(C)[C@@H]3C[C@]12CC[C@]3(C)O
REMARK SMILES IDX 1 1 2 2 3 3 4 4 5 5 11 6 12 7 13 8 14 9 9 10 10 11 6 12 7 13
REMARK SMILES IDX 8 14 15 15 16 16
REMARK H PARENT 16 17
REMARK Flexibility Score: inf
ROOT
ATOM      1  C   UNL     1     103.390 104.889 106.122  1.00  0.00     0.008 C 
ATOM      2  C   UNL     1     104.555 104.573 105.172  1.00  0.00    -0.008 C 
ATOM      3  C   UNL     1     105.816 104.143 105.912  1.00  0.00     0.004 C 
ATOM      4  C   UNL     1     106.950 104.349 104.915  1.00  0.00     0.005 C 
ATOM      5  C   UNL     1     106.495 105.467 103.946  1.00  0.00     0.001 C 
ATOM      6  C   UNL     1     105.007 105.742 104.272  1.00  0.00    -0.023 C 
ATOM      7  C   UNL     1     104.152 105.877 102.981  1.00  0.00     0.010 C 
ATOM      8  C   UNL     1     104.717 106.945 102.012  1.00  0.00     0.036 C 
ATOM      9  C   UNL     1     105.281 108.229 102.716  1.00  0.00     0.065 C 
ATOM     10  C   UNL     1     105.999 107.878 104.082  1.00  0.00     0.027 C 
ATOM     11  C   UNL     1     105.020 107.106 104.962  1.00  0.00     0.014 C 
ATOM     12  C   UNL     1     107.206 106.869 104.008  1.00  0.00    -0.026 C 
ATOM     13  C   UNL     1     108.096 107.071 105.270  1.00  0.00     0.012 C 
ATOM     14  C   UNL     1     108.142 107.068 102.791  1.00  0.00     0.012 C 
ATOM     15  C   UNL     1     104.125 109.234 102.952  1.00  0.00     0.042 C 
ENDROOT
BRANCH   9  16
ATOM     16  O   UNL     1     106.211 108.872 101.875  1.00  0.00    -0.390 OA
ATOM     17  H   UNL     1     106.994 108.272 101.757  1.00  0.00     0.211 HD
ENDBRANCH   9  16
TORSDOF 1
ENDMDL
MODEL 2
REMARK VINA RESULT:    -5.766      1.476      3.008
REMARK INTER + INTRA:          -5.935
REMARK INTER:                  -5.935
REMARK INTRA:                   0.000
REMARK UNBOUND:                 0.000
REMARK SMILES C[C@@H]1CC[C@@H]2C(C)(C)[C@@H]3C[C@]12CC[C@]3(C)O
REMARK SMILES IDX 1 1 2 2 3 3 4 4 5 5 11 6 12 7 13 8 14 9 9 10 10 11 6 12 7 13
REMARK SMILES IDX 8 14 15 15 16 16
REMARK H PARENT 16 17
REMARK Flexibility Score: inf
ROOT
ATOM      1  C   UNL     1     107.124 103.438 106.270  1.00  0.00     0.008 C 
ATOM      2  C   UNL     1     107.467 104.639 105.376  1.00  0.00    -0.008 C 
ATOM      3  C   UNL     1     107.820 105.886 106.178  1.00  0.00     0.004 C 
ATOM      4  C   UNL     1     107.645 107.046 105.206  1.00  0.00     0.005 C 
ATOM      5  C   UNL     1     106.600 106.595 104.157  1.00  0.00     0.001 C 
ATOM      6  C   UNL     1     106.343 105.092 104.421  1.00  0.00    -0.023 C 
ATOM      7  C   UNL     1     106.307 104.275 103.099  1.00  0.00     0.010 C 
ATOM      8  C   UNL     1     105.286 104.845 102.084  1.00  0.00     0.036 C 
ATOM      9  C   UNL     1     103.948 105.357 102.725  1.00  0.00     0.065 C 
ATOM     10  C   UNL     1     104.198 106.039 104.131  1.00  0.00     0.027 C 
ATOM     11  C   UNL     1     104.940 105.051 105.026  1.00  0.00     0.014 C 
ATOM     12  C   UNL     1     105.179 107.271 104.154  1.00  0.00    -0.026 C 
ATOM     13  C   UNL     1     104.879 108.116 105.428  1.00  0.00     0.012 C 
ATOM     14  C   UNL     1     105.030 108.240 102.957  1.00  0.00     0.012 C 
ATOM     15  C   UNL     1     102.960 104.170 102.865  1.00  0.00     0.042 C 
ENDROOT
BRANCH   9  16
ATOM     16  O   UNL     1     103.333 106.297 101.875  1.00  0.00    -0.390 OA
ATOM     17  H   UNL     1     103.940 106.471 101.108  1.00  0.00     0.211 HD
ENDBRANCH   9  16
TORSDOF 1
ENDMDL
MODEL 3
REMARK VINA RESULT:    -5.715      1.944      4.211
REMARK INTER + INTRA:          -5.882
REMARK INTER:                  -5.882
REMARK INTRA:                   0.000
REMARK UNBOUND:                 0.000
REMARK SMILES C[C@@H]1CC[C@@H]2C(C)(C)[C@@H]3C[C@]12CC[C@]3(C)O
REMARK SMILES IDX 1 1 2 2 3 3 4 4 5 5 11 6 12 7 13 8 14 9 9 10 10 11 6 12 7 13
REMARK SMILES IDX 8 14 15 15 16 16
REMARK H PARENT 16 17
REMARK Flexibility Score: inf
ROOT
ATOM      1  C   UNL     1     108.637 107.093 106.231  1.00  0.00     0.008 C 
ATOM      2  C   UNL     1     107.408 107.461 105.385  1.00  0.00    -0.008 C 
ATOM      3  C   UNL     1     106.194 107.811 106.237  1.00  0.00     0.004 C 
ATOM      4  C   UNL     1     104.999 107.663 105.302  1.00  0.00     0.005 C 
ATOM      5  C   UNL     1     105.404 106.633 104.221  1.00  0.00     0.001 C 
ATOM      6  C   UNL     1     106.912 106.359 104.428  1.00  0.00    -0.023 C 
ATOM      7  C   UNL     1     107.682 106.338 103.078  1.00  0.00     0.010 C 
ATOM      8  C   UNL     1     107.068 105.339 102.066  1.00  0.00     0.036 C 
ATOM      9  C   UNL     1     106.567 103.995 102.702  1.00  0.00     0.065 C 
ATOM     10  C   UNL     1     105.936 104.227 104.135  1.00  0.00     0.027 C 
ATOM     11  C   UNL     1     106.961 104.945 105.008  1.00  0.00     0.014 C 
ATOM     12  C   UNL     1     104.715 105.218 104.218  1.00  0.00    -0.026 C 
ATOM     13  C   UNL     1     103.912 104.903 105.516  1.00  0.00     0.012 C 
ATOM     14  C   UNL     1     103.703 105.097 103.053  1.00  0.00     0.012 C 
ATOM     15  C   UNL     1     107.748 102.995 102.784  1.00  0.00     0.042 C 
ENDROOT
BRANCH   9  16
ATOM     16  O   UNL     1     105.591 103.403 101.875  1.00  0.00    -0.390 OA
ATOM     17  H   UNL     1     105.439 102.473 102.187  1.00  0.00     0.211 HD
ENDBRANCH   9  16
TORSDOF 1
ENDMDL
MODEL 4
REMARK VINA RESULT:    -5.704      1.510      2.982
REMARK INTER + INTRA:          -5.871
REMARK INTER:                  -5.871
REMARK INTRA:                   0.000
REMARK UNBOUND:                 0.000
REMARK SMILES C[C@@H]1CC[C@@H]2C(C)(C)[C@@H]3C[C@]12CC[C@]3(C)O
REMARK SMILES IDX 1 1 2 2 3 3 4 4 5 5 11 6 12 7 13 8 14 9 9 10 10 11 6 12 7 13
REMARK SMILES IDX 8 14 15 15 16 16
REMARK H PARENT 16 17
REMARK Flexibility Score: inf
ROOT
ATOM      1  C   UNL     1     104.876 108.636 106.232  1.00  0.00     0.008 C 
ATOM      2  C   UNL     1     104.525 107.410 105.377  1.00  0.00    -0.008 C 
ATOM      3  C   UNL     1     104.182 106.186 106.218  1.00  0.00     0.004 C 
ATOM      4  C   UNL     1     104.347 104.999 105.275  1.00  0.00     0.005 C 
ATOM      5  C   UNL     1     105.379 105.422 104.203  1.00  0.00     0.001 C 
ATOM      6  C   UNL     1     105.637 106.931 104.421  1.00  0.00    -0.023 C 
ATOM      7  C   UNL     1     105.657 107.711 103.077  1.00  0.00     0.010 C 
ATOM      8  C   UNL     1     106.668 107.114 102.067  1.00  0.00     0.036 C 
ATOM      9  C   UNL     1     108.013 106.621 102.706  1.00  0.00     0.065 C 
ATOM     10  C   UNL     1     107.780 105.978 104.133  1.00  0.00     0.027 C 
ATOM     11  C   UNL     1     107.047 106.990 105.010  1.00  0.00     0.014 C 
ATOM     12  C   UNL     1     106.801 104.747 104.203  1.00  0.00    -0.026 C 
ATOM     13  C   UNL     1     107.116 103.937 105.496  1.00  0.00     0.012 C 
ATOM     14  C   UNL     1     106.937 103.744 103.031  1.00  0.00     0.012 C 
ATOM     15  C   UNL     1     109.002 107.812 102.802  1.00  0.00     0.042 C 
ENDROOT
BRANCH   9  16
ATOM     16  O   UNL     1     108.619 105.658 101.876  1.00  0.00    -0.390 OA
ATOM     17  H   UNL     1     108.357 105.844 100.936  1.00  0.00     0.211 HD
ENDBRANCH   9  16
TORSDOF 1
ENDMDL
MODEL 5
REMARK VINA RESULT:    -5.615      1.623      3.030
REMARK INTER + INTRA:          -5.779
REMARK INTER:                  -5.779
REMARK INTRA:                   0.000
REMARK UNBOUND:                 0.000
REMARK SMILES C[C@@H]1CC[C@@H]2C(C)(C)[C@@H]3C[C@]12CC[C@]3(C)O
REMARK SMILES IDX 1 1 2 2 3 3 4 4 5 5 11 6 12 7 13 8 14 9 9 10 10 11 6 12 7 13
REMARK SMILES IDX 8 14 15 15 16 16
REMARK H PARENT 16 17
REMARK Flexibility Score: inf
ROOT
ATOM      1  C   UNL     1     103.087 104.826 105.416  1.00  0.00     0.008 C 
ATOM      2  C   UNL     1     103.625 105.330 104.069  1.00  0.00    -0.008 C 
ATOM      3  C   UNL     1     103.632 104.246 102.997  1.00  0.00     0.004 C 
ATOM      4  C   UNL     1     104.608 104.743 101.937  1.00  0.00     0.005 C 
ATOM      5  C   UNL     1     105.614 105.672 102.659  1.00  0.00     0.001 C 
ATOM      6  C   UNL     1     105.071 105.866 104.094  1.00  0.00    -0.023 C 
ATOM      7  C   UNL     1     105.157 107.351 104.545  1.00  0.00     0.010 C 
ATOM      8  C   UNL     1     106.590 107.924 104.410  1.00  0.00     0.036 C 
ATOM      9  C   UNL     1     107.731 106.920 104.798  1.00  0.00     0.065 C 
ATOM     10  C   UNL     1     107.379 105.439 104.364  1.00  0.00     0.027 C 
ATOM     11  C   UNL     1     106.031 105.061 104.971  1.00  0.00     0.014 C 
ATOM     12  C   UNL     1     107.104 105.198 102.832  1.00  0.00    -0.026 C 
ATOM     13  C   UNL     1     107.326 103.687 102.523  1.00  0.00     0.012 C 
ATOM     14  C   UNL     1     108.045 105.970 101.876  1.00  0.00     0.012 C 
ATOM     15  C   UNL     1     107.980 106.993 106.327  1.00  0.00     0.042 C 
ENDROOT
BRANCH   9  16
ATOM     16  O   UNL     1     108.938 107.293 104.173  1.00  0.00    -0.390 OA
ATOM     17  H   UNL     1     108.778 107.354 103.195  1.00  0.00     0.211 HD
ENDBRANCH   9  16
TORSDOF 1
ENDMDL
MODEL 6
REMARK VINA RESULT:    -5.531      1.500      2.643
REMARK INTER + INTRA:          -5.692
REMARK INTER:                  -5.692
REMARK INTRA:                   0.000
REMARK UNBOUND:                 0.000
REMARK SMILES C[C@@H]1CC[C@@H]2C(C)(C)[C@@H]3C[C@]12CC[C@]3(C)O
REMARK SMILES IDX 1 1 2 2 3 3 4 4 5 5 11 6 12 7 13 8 14 9 9 10 10 11 6 12 7 13
REMARK SMILES IDX 8 14 15 15 16 16
REMARK H PARENT 16 17
REMARK Flexibility Score: inf
ROOT
ATOM      1  C   UNL     1     107.211 103.065 105.288  1.00  0.00     0.008 C 
ATOM      2  C   UNL     1     106.659 103.660 103.984  1.00  0.00    -0.008 C 
ATOM      3  C   UNL     1     107.702 103.708 102.874  1.00  0.00     0.004 C 
ATOM      4  C   UNL     1     107.170 104.729 101.875  1.00  0.00     0.005 C 
ATOM      5  C   UNL     1     106.273 105.707 102.672  1.00  0.00     0.001 C 
ATOM      6  C   UNL     1     106.130 105.105 104.090  1.00  0.00    -0.023 C 
ATOM      7  C   UNL     1     104.664 105.177 104.600  1.00  0.00     0.010 C 
ATOM      8  C   UNL     1     104.093 106.615 104.546  1.00  0.00     0.036 C 
ATOM      9  C   UNL     1     105.116 107.737 104.943  1.00  0.00     0.065 C 
ATOM     10  C   UNL     1     106.578 107.398 104.439  1.00  0.00     0.027 C 
ATOM     11  C   UNL     1     106.972 106.025 104.975  1.00  0.00     0.014 C 
ATOM     12  C   UNL     1     106.760 107.187 102.890  1.00  0.00    -0.026 C 
ATOM     13  C   UNL     1     108.260 107.418 102.533  1.00  0.00     0.012 C 
ATOM     14  C   UNL     1     105.957 108.170 102.003  1.00  0.00     0.012 C 
ATOM     15  C   UNL     1     105.101 107.922 106.482  1.00  0.00     0.042 C 
ENDROOT
BRANCH   9  16
ATOM     16  O   UNL     1     104.725 108.969 104.383  1.00  0.00    -0.390 OA
ATOM     17  H   UNL     1     105.349 109.672 104.704  1.00  0.00     0.211 HD
ENDBRANCH   9  16
TORSDOF 1
ENDMDL
MODEL 7
REMARK VINA RESULT:    -5.506      1.901      3.971
REMARK INTER + INTRA:          -5.667
REMARK INTER:                  -5.667
REMARK INTRA:                   0.000
REMARK UNBOUND:                 0.000
REMARK SMILES C[C@@H]1CC[C@@H]2C(C)(C)[C@@H]3C[C@]12CC[C@]3(C)O
REMARK SMILES IDX 1 1 2 2 3 3 4 4 5 5 11 6 12 7 13 8 14 9 9 10 10 11 6 12 7 13
REMARK SMILES IDX 8 14 15 15 16 16
REMARK H PARENT 16 17
REMARK Flexibility Score: inf
ROOT
ATOM      1  C   UNL     1     103.065 104.126 102.624  1.00  0.00     0.008 C 
ATOM      2  C   UNL     1     103.682 105.463 103.062  1.00  0.00    -0.008 C 
ATOM      3  C   UNL     1     104.145 106.310 101.883  1.00  0.00     0.004 C 
ATOM      4  C   UNL     1     105.132 107.309 102.476  1.00  0.00     0.005 C 
ATOM      5  C   UNL     1     105.733 106.645 103.739  1.00  0.00     0.001 C 
ATOM      6  C   UNL     1     104.920 105.350 103.975  1.00  0.00    -0.023 C 
ATOM      7  C   UNL     1     104.552 105.169 105.474  1.00  0.00     0.010 C 
ATOM      8  C   UNL     1     105.796 105.222 106.395  1.00  0.00     0.036 C 
ATOM      9  C   UNL     1     107.069 104.515 105.811  1.00  0.00     0.065 C 
ATOM     10  C   UNL     1     107.179 104.714 104.244  1.00  0.00     0.027 C 
ATOM     11  C   UNL     1     105.886 104.226 103.599  1.00  0.00     0.014 C 
ATOM     12  C   UNL     1     107.241 106.199 103.723  1.00  0.00    -0.026 C 
ATOM     13  C   UNL     1     107.886 106.198 102.305  1.00  0.00     0.012 C 
ATOM     14  C   UNL     1     108.109 107.151 104.583  1.00  0.00     0.012 C 
ATOM     15  C   UNL     1     107.025 103.006 106.164  1.00  0.00     0.042 C 
ENDROOT
BRANCH   9  16
ATOM     16  O   UNL     1     108.231 105.038 106.411  1.00  0.00    -0.390 OA
ATOM     17  H   UNL     1     108.376 104.570 107.275  1.00  0.00     0.211 HD
ENDBRANCH   9  16
TORSDOF 1
ENDMDL
MODEL 8
REMARK VINA RESULT:    -5.500      2.033      4.170
REMARK INTER + INTRA:          -5.661
REMARK INTER:                  -5.661
REMARK INTRA:                   0.000
REMARK UNBOUND:                 0.000
REMARK SMILES C[C@@H]1CC[C@@H]2C(C)(C)[C@@H]3C[C@]12CC[C@]3(C)O
REMARK SMILES IDX 1 1 2 2 3 3 4 4 5 5 11 6 12 7 13 8 14 9 9 10 10 11 6 12 7 13
REMARK SMILES IDX 8 14 15 15 16 16
REMARK H PARENT 16 17
REMARK Flexibility Score: inf
ROOT
ATOM      1  C   UNL     1     104.134 108.868 102.631  1.00  0.00     0.008 C 
ATOM      2  C   UNL     1     105.474 108.262 103.075  1.00  0.00    -0.008 C 
ATOM      3  C   UNL     1     106.306 107.756 101.902  1.00  0.00     0.004 C 
ATOM      4  C   UNL     1     107.308 106.787 102.517  1.00  0.00     0.005 C 
ATOM      5  C   UNL     1     106.659 106.233 103.808  1.00  0.00     0.001 C 
ATOM      6  C   UNL     1     105.369 107.057 104.032  1.00  0.00    -0.023 C 
ATOM      7  C   UNL     1     105.207 107.478 105.519  1.00  0.00     0.010 C 
ATOM      8  C   UNL     1     105.267 106.267 106.482  1.00  0.00     0.036 C 
ATOM      9  C   UNL     1     104.550 104.977 105.951  1.00  0.00     0.065 C 
ATOM     10  C   UNL     1     104.730 104.811 104.387  1.00  0.00     0.027 C 
ATOM     11  C   UNL     1     104.238 106.082 103.702  1.00  0.00     0.014 C 
ATOM     12  C   UNL     1     106.208 104.726 103.851  1.00  0.00    -0.026 C 
ATOM     13  C   UNL     1     106.188 104.032 102.456  1.00  0.00     0.012 C 
ATOM     14  C   UNL     1     107.168 103.886 104.729  1.00  0.00     0.012 C 
ATOM     15  C   UNL     1     103.045 105.037 106.320  1.00  0.00     0.042 C 
ENDROOT
BRANCH   9  16
ATOM     16  O   UNL     1     105.077 103.834 106.585  1.00  0.00    -0.390 OA
ATOM     17  H   UNL     1     106.057 103.813 106.428  1.00  0.00     0.211 HD
ENDBRANCH   9  16
TORSDOF 1
ENDMDL
MODEL 9
REMARK VINA RESULT:    -5.005      1.864      4.085
REMARK INTER + INTRA:          -5.151
REMARK INTER:                  -5.151
REMARK INTRA:                   0.000
REMARK UNBOUND:                 0.000
REMARK SMILES C[C@@H]1CC[C@@H]2C(C)(C)[C@@H]3C[C@]12CC[C@]3(C)O
REMARK SMILES IDX 1 1 2 2 3 3 4 4 5 5 11 6 12 7 13 8 14 9 9 10 10 11 6 12 7 13
REMARK SMILES IDX 8 14 15 15 16 16
REMARK H PARENT 16 17
REMARK Flexibility Score: inf
ROOT
ATOM      1  C   UNL     1     108.901 107.863 102.646  1.00  0.00     0.008 C 
ATOM      2  C   UNL     1     108.290 106.517 103.065  1.00  0.00    -0.008 C 
ATOM      3  C   UNL     1     107.803 105.699 101.875  1.00  0.00     0.004 C 
ATOM      4  C   UNL     1     106.825 104.688 102.463  1.00  0.00     0.005 C 
ATOM      5  C   UNL     1     106.251 105.322 103.752  1.00  0.00     0.001 C 
ATOM      6  C   UNL     1     107.070 106.610 104.004  1.00  0.00    -0.023 C 
ATOM      7  C   UNL     1     107.468 106.755 105.499  1.00  0.00     0.010 C 
ATOM      8  C   UNL     1     106.242 106.683 106.443  1.00  0.00     0.036 C 
ATOM      9  C   UNL     1     104.959 107.405 105.900  1.00  0.00     0.065 C 
ATOM     10  C   UNL     1     104.818 107.243 104.332  1.00  0.00     0.027 C 
ATOM     11  C   UNL     1     106.100 107.744 103.673  1.00  0.00     0.014 C 
ATOM     12  C   UNL     1     104.743 105.771 103.777  1.00  0.00    -0.026 C 
ATOM     13  C   UNL     1     104.071 105.807 102.371  1.00  0.00     0.012 C 
ATOM     14  C   UNL     1     103.890 104.800 104.630  1.00  0.00     0.012 C 
ATOM     15  C   UNL     1     105.013 108.905 106.288  1.00  0.00     0.042 C 
ENDROOT
BRANCH   9  16
ATOM     16  O   UNL     1     103.807 106.870 106.510  1.00  0.00    -0.390 OA
ATOM     17  H   UNL     1     103.014 107.354 106.160  1.00  0.00     0.211 HD
ENDBRANCH   9  16
TORSDOF 1
ENDMDL
