MODEL 1
REMARK VINA RESULT:     2.282      0.000      0.000
REMARK INTER + INTRA:           2.223
REMARK INTER:                   2.882
REMARK INTRA:                  -0.659
REMARK UNBOUND:                -0.659
REMARK SMILES O=C(C=Cc1ccc(O)cc1)c1ccc(O)cc1O
REMARK SMILES IDX 4 1 3 2 5 3 6 4 7 5 8 6 11 7 10 8 9 9 2 11 1 12 12 13 18 14
REMARK SMILES IDX 13 15 17 16 14 17 15 18 19 19 16 21
REMARK H PARENT 9 10 19 20 16 22
REMARK Flexibility Score: inf
ROOT
ATOM      1  C   UNL     1     -42.607  43.381  11.659  1.00  0.00     0.012 C 
ATOM      2  C   UNL     1     -41.741  42.357  11.663  1.00  0.00     0.053 C 
ENDROOT
BRANCH   1   3
ATOM      3  C   UNL     1     -42.218  44.788  11.925  1.00  0.00    -0.025 A 
ATOM      4  C   UNL     1     -43.224  45.717  12.240  1.00  0.00     0.012 A 
ATOM      5  C   UNL     1     -42.905  47.055  12.488  1.00  0.00     0.047 A 
ATOM      6  C   UNL     1     -41.575  47.486  12.414  1.00  0.00     0.115 A 
ATOM      7  C   UNL     1     -40.883  45.234  11.838  1.00  0.00     0.012 A 
ATOM      8  C   UNL     1     -40.568  46.574  12.086  1.00  0.00     0.047 A 
BRANCH   6   9
ATOM      9  O   UNL     1     -41.244  48.817  12.659  1.00  0.00    -0.508 OA
ATOM     10  H   UNL     1     -41.325  49.525  11.938  1.00  0.00     0.293 HD
ENDBRANCH   6   9
ENDBRANCH   1   3
BRANCH   2  11
ATOM     11  C   UNL     1     -42.169  40.964  11.409  1.00  0.00     0.189 C 
ATOM     12  O   UNL     1     -41.403  40.007  11.708  1.00  0.00    -0.289 OA
BRANCH  11  13
ATOM     13  C   UNL     1     -43.466  40.669  10.758  1.00  0.00     0.064 A 
ATOM     14  C   UNL     1     -44.580  40.203  11.493  1.00  0.00     0.130 A 
ATOM     15  C   UNL     1     -43.586  40.832   9.367  1.00  0.00     0.020 A 
ATOM     16  C   UNL     1     -45.794  39.950  10.836  1.00  0.00     0.093 A 
ATOM     17  C   UNL     1     -44.798  40.571   8.722  1.00  0.00     0.047 A 
ATOM     18  C   UNL     1     -45.906  40.134   9.456  1.00  0.00     0.119 A 
BRANCH  14  19
ATOM     19  O   UNL     1     -44.477  39.966  12.863  1.00  0.00    -0.507 OA
ATOM     20  H   UNL     1     -45.257  40.122  13.490  1.00  0.00     0.293 HD
ENDBRANCH  14  19
BRANCH  18  21
ATOM     21  O   UNL     1     -47.120  39.875   8.823  1.00  0.00    -0.508 OA
ATOM     22  H   UNL     1     -47.566  38.968   8.887  1.00  0.00     0.293 HD
ENDBRANCH  18  21
ENDBRANCH  11  13
ENDBRANCH   2  11
TORSDOF 6
ENDMDL
MODEL 2
REMARK VINA RESULT:     3.016      0.111      1.114
REMARK INTER + INTRA:           3.150
REMARK INTER:                   3.821
REMARK INTRA:                  -0.671
REMARK UNBOUND:                -0.659
REMARK SMILES O=C(C=Cc1ccc(O)cc1)c1ccc(O)cc1O
REMARK SMILES IDX 4 1 3 2 5 3 6 4 7 5 8 6 11 7 10 8 9 9 2 11 1 12 12 13 18 14
REMARK SMILES IDX 13 15 17 16 14 17 15 18 19 19 16 21
REMARK H PARENT 9 10 19 20 16 22
REMARK Flexibility Score: inf
ROOT
ATOM      1  C   UNL     1     -42.608  43.379  11.659  1.00  0.00     0.012 C 
ATOM      2  C   UNL     1     -41.740  42.356  11.654  1.00  0.00     0.053 C 
ENDROOT
BRANCH   1   3
ATOM      3  C   UNL     1     -42.221  44.785  11.930  1.00  0.00    -0.025 A 
ATOM      4  C   UNL     1     -40.871  45.151  11.787  1.00  0.00     0.012 A 
ATOM      5  C   UNL     1     -40.459  46.462  12.041  1.00  0.00     0.047 A 
ATOM      6  C   UNL     1     -41.388  47.424  12.454  1.00  0.00     0.115 A 
ATOM      7  C   UNL     1     -43.147  45.757  12.360  1.00  0.00     0.012 A 
ATOM      8  C   UNL     1     -42.729  47.068  12.614  1.00  0.00     0.047 A 
BRANCH   6   9
ATOM      9  O   UNL     1     -40.989  48.735  12.710  1.00  0.00    -0.508 OA
ATOM     10  H   UNL     1     -41.000  49.117  13.648  1.00  0.00     0.293 HD
ENDBRANCH   6   9
ENDBRANCH   1   3
BRANCH   2  11
ATOM     11  C   UNL     1     -42.166  40.964  11.396  1.00  0.00     0.189 C 
ATOM     12  O   UNL     1     -41.394  40.007  11.679  1.00  0.00    -0.289 OA
BRANCH  11  13
ATOM     13  C   UNL     1     -43.471  40.669  10.759  1.00  0.00     0.064 A 
ATOM     14  C   UNL     1     -44.570  40.183  11.502  1.00  0.00     0.130 A 
ATOM     15  C   UNL     1     -43.612  40.852   9.372  1.00  0.00     0.020 A 
ATOM     16  C   UNL     1     -45.792  39.931  10.859  1.00  0.00     0.093 A 
ATOM     17  C   UNL     1     -44.831  40.592   8.741  1.00  0.00     0.047 A 
ATOM     18  C   UNL     1     -45.925  40.135   9.484  1.00  0.00     0.119 A 
BRANCH  14  19
ATOM     19  O   UNL     1     -44.445  39.926  12.868  1.00  0.00    -0.507 OA
ATOM     20  H   UNL     1     -44.375  38.981  13.227  1.00  0.00     0.293 HD
ENDBRANCH  14  19
BRANCH  18  21
ATOM     21  O   UNL     1     -47.145  39.876   8.865  1.00  0.00    -0.508 OA
ATOM     22  H   UNL     1     -47.226  39.818   7.856  1.00  0.00     0.293 HD
ENDBRANCH  18  21
ENDBRANCH  11  13
ENDBRANCH   2  11
TORSDOF 6
ENDMDL
MODEL 3
REMARK VINA RESULT:     3.775      0.962      1.641
REMARK INTER + INTRA:           4.109
REMARK INTER:                   4.664
REMARK INTRA:                  -0.554
REMARK UNBOUND:                -0.659
REMARK SMILES O=C(C=Cc1ccc(O)cc1)c1ccc(O)cc1O
REMARK SMILES IDX 4 1 3 2 5 3 6 4 7 5 8 6 11 7 10 8 9 9 2 11 1 12 12 13 18 14
REMARK SMILES IDX 13 15 17 16 14 17 15 18 19 19 16 21
REMARK H PARENT 9 10 19 20 16 22
REMARK Flexibility Score: inf
ROOT
ATOM      1  C   UNL     1     -42.361  43.719  11.901  1.00  0.00     0.012 C 
ATOM      2  C   UNL     1     -41.478  42.715  12.004  1.00  0.00     0.053 C 
ENDROOT
BRANCH   1   3
ATOM      3  C   UNL     1     -42.007  45.147  12.090  1.00  0.00    -0.025 A 
ATOM      4  C   UNL     1     -43.009  46.040  12.507  1.00  0.00     0.012 A 
ATOM      5  C   UNL     1     -42.724  47.396  12.688  1.00  0.00     0.047 A 
ATOM      6  C   UNL     1     -41.434  47.882  12.444  1.00  0.00     0.115 A 
ATOM      7  C   UNL     1     -40.715  45.648  11.832  1.00  0.00     0.012 A 
ATOM      8  C   UNL     1     -40.434  47.007  12.014  1.00  0.00     0.047 A 
BRANCH   6   9
ATOM      9  O   UNL     1     -41.137  49.232  12.621  1.00  0.00    -0.508 OA
ATOM     10  H   UNL     1     -41.795  49.865  13.062  1.00  0.00     0.293 HD
ENDBRANCH   6   9
ENDBRANCH   1   3
BRANCH   2  11
ATOM     11  C   UNL     1     -41.871  41.301  11.825  1.00  0.00     0.189 C 
ATOM     12  O   UNL     1     -41.088  40.380  12.188  1.00  0.00    -0.289 OA
BRANCH  11  13
ATOM     13  C   UNL     1     -43.152  40.939  11.174  1.00  0.00     0.064 A 
ATOM     14  C   UNL     1     -43.316  40.989   9.771  1.00  0.00     0.130 A 
ATOM     15  C   UNL     1     -44.243  40.561  11.976  1.00  0.00     0.020 A 
ATOM     16  C   UNL     1     -44.544  40.624   9.198  1.00  0.00     0.093 A 
ATOM     17  C   UNL     1     -45.463  40.205  11.395  1.00  0.00     0.047 A 
ATOM     18  C   UNL     1     -45.615  40.232  10.005  1.00  0.00     0.119 A 
BRANCH  14  19
ATOM     19  O   UNL     1     -42.276  41.424   8.950  1.00  0.00    -0.507 OA
ATOM     20  H   UNL     1     -42.436  42.066   8.183  1.00  0.00     0.293 HD
ENDBRANCH  14  19
BRANCH  18  21
ATOM     21  O   UNL     1     -46.825  39.875   9.416  1.00  0.00    -0.508 OA
ATOM     22  H   UNL     1     -47.683  40.371   9.628  1.00  0.00     0.293 HD
ENDBRANCH  18  21
ENDBRANCH  11  13
ENDBRANCH   2  11
TORSDOF 6
ENDMDL
MODEL 4
REMARK VINA RESULT:     4.950      1.160      2.086
REMARK INTER + INTRA:           5.593
REMARK INTER:                   6.208
REMARK INTRA:                  -0.615
REMARK UNBOUND:                -0.659
REMARK SMILES O=C(C=Cc1ccc(O)cc1)c1ccc(O)cc1O
REMARK SMILES IDX 4 1 3 2 5 3 6 4 7 5 8 6 11 7 10 8 9 9 2 11 1 12 12 13 18 14
REMARK SMILES IDX 13 15 17 16 14 17 15 18 19 19 16 21
REMARK H PARENT 9 10 19 20 16 22
REMARK Flexibility Score: inf
ROOT
ATOM      1  C   UNL     1     -42.242  44.021  11.765  1.00  0.00     0.012 C 
ATOM      2  C   UNL     1     -41.388  43.053  12.129  1.00  0.00     0.053 C 
ENDROOT
BRANCH   1   3
ATOM      3  C   UNL     1     -42.009  45.463  12.023  1.00  0.00    -0.025 A 
ATOM      4  C   UNL     1     -40.701  45.965  11.911  1.00  0.00     0.012 A 
ATOM      5  C   UNL     1     -40.434  47.315  12.155  1.00  0.00     0.047 A 
ATOM      6  C   UNL     1     -41.468  48.181  12.527  1.00  0.00     0.115 A 
ATOM      7  C   UNL     1     -43.043  46.340  12.413  1.00  0.00     0.012 A 
ATOM      8  C   UNL     1     -42.770  47.690  12.657  1.00  0.00     0.047 A 
BRANCH   6   9
ATOM      9  O   UNL     1     -41.214  49.529  12.773  1.00  0.00    -0.508 OA
ATOM     10  H   UNL     1     -40.317  49.947  12.551  1.00  0.00     0.293 HD
ENDBRANCH   6   9
ENDBRANCH   1   3
BRANCH   2  11
ATOM     11  C   UNL     1     -41.661  41.623  11.869  1.00  0.00     0.189 C 
ATOM     12  O   UNL     1     -40.743  40.770  12.018  1.00  0.00    -0.289 OA
BRANCH  11  13
ATOM     13  C   UNL     1     -42.986  41.174  11.384  1.00  0.00     0.064 A 
ATOM     14  C   UNL     1     -43.255  40.995  10.008  1.00  0.00     0.130 A 
ATOM     15  C   UNL     1     -44.014  40.944  12.315  1.00  0.00     0.020 A 
ATOM     16  C   UNL     1     -44.522  40.553   9.595  1.00  0.00     0.093 A 
ATOM     17  C   UNL     1     -45.273  40.511  11.893  1.00  0.00     0.047 A 
ATOM     18  C   UNL     1     -45.529  40.311  10.532  1.00  0.00     0.119 A 
BRANCH  14  19
ATOM     19  O   UNL     1     -42.280  41.278   9.052  1.00  0.00    -0.507 OA
ATOM     20  H   UNL     1     -42.407  41.039   8.075  1.00  0.00     0.293 HD
ENDBRANCH  14  19
BRANCH  18  21
ATOM     21  O   UNL     1     -46.779  39.875  10.101  1.00  0.00    -0.508 OA
ATOM     22  H   UNL     1     -46.893  39.377   9.225  1.00  0.00     0.293 HD
ENDBRANCH  18  21
ENDBRANCH  11  13
ENDBRANCH   2  11
TORSDOF 6
ENDMDL
