MODEL 1
REMARK VINA RESULT:    -4.745      0.000      0.000
REMARK INTER + INTRA:          -5.116
REMARK INTER:                  -5.022
REMARK INTRA:                  -0.093
REMARK UNBOUND:                -0.093
REMARK SMILES C=C(C)[C@@H]1CC=C(C)C(=O)C1
REMARK SMILES IDX 8 1 7 2 6 3 5 4 4 5 11 6 9 7 10 8 2 9 1 10 3 11
REMARK H PARENT
REMARK Flexibility Score: inf
ROOT
ATOM      1  C   UNL     1     -16.743 -39.593 212.695  1.00  0.00     0.048 C 
ATOM      2  C   UNL     1     -17.460 -38.959 211.534  1.00  0.00    -0.012 C 
ATOM      3  C   UNL     1     -18.642 -39.453 211.128  1.00  0.00    -0.019 C 
ATOM      4  C   UNL     1     -19.411 -38.845 209.984  1.00  0.00     0.036 C 
ATOM      5  C   UNL     1     -18.457 -38.259 208.925  1.00  0.00     0.025 C 
ATOM      6  C   UNL     1     -17.489 -37.255 209.576  1.00  0.00     0.089 C 
ATOM      7  C   UNL     1     -16.804 -37.873 210.763  1.00  0.00     0.158 C 
ATOM      8  O   UNL     1     -15.678 -37.433 211.122  1.00  0.00    -0.295 OA
ENDROOT
BRANCH   5   9
ATOM      9  C   UNL     1     -19.225 -37.626 207.774  1.00  0.00    -0.077 C 
ATOM     10  C   UNL     1     -20.125 -38.349 207.086  1.00  0.00     0.008 C 
ATOM     11  C   UNL     1     -18.999 -36.189 207.373  1.00  0.00     0.039 C 
ENDBRANCH   5   9
TORSDOF 1
ENDMDL
MODEL 2
REMARK VINA RESULT:    -4.651      1.772      4.851
REMARK INTER + INTRA:          -5.016
REMARK INTER:                  -4.918
REMARK INTRA:                  -0.098
REMARK UNBOUND:                -0.093
REMARK SMILES C=C(C)[C@@H]1CC=C(C)C(=O)C1
REMARK SMILES IDX 8 1 7 2 6 3 5 4 4 5 11 6 9 7 10 8 2 9 1 10 3 11
REMARK H PARENT
REMARK Flexibility Score: inf
ROOT
ATOM      1  C   UNL     1     -18.660 -37.139 207.504  1.00  0.00     0.048 C 
ATOM      2  C   UNL     1     -18.272 -37.672 208.855  1.00  0.00    -0.012 C 
ATOM      3  C   UNL     1     -17.160 -37.218 209.459  1.00  0.00    -0.019 C 
ATOM      4  C   UNL     1     -16.736 -37.704 210.821  1.00  0.00     0.036 C 
ATOM      5  C   UNL     1     -17.138 -39.176 211.033  1.00  0.00     0.025 C 
ATOM      6  C   UNL     1     -18.648 -39.357 210.795  1.00  0.00     0.089 C 
ATOM      7  C   UNL     1     -19.045 -38.785 209.462  1.00  0.00     0.158 C 
ATOM      8  O   UNL     1     -20.068 -39.237 208.880  1.00  0.00    -0.295 OA
ENDROOT
BRANCH   5   9
ATOM      9  C   UNL     1     -16.729 -39.671 212.414  1.00  0.00    -0.077 C 
ATOM     10  C   UNL     1     -16.419 -38.791 213.380  1.00  0.00     0.008 C 
ATOM     11  C   UNL     1     -16.657 -41.144 212.731  1.00  0.00     0.039 C 
ENDBRANCH   5   9
TORSDOF 1
ENDMDL
MODEL 3
REMARK VINA RESULT:    -4.594      1.571      2.176
REMARK INTER + INTRA:          -4.956
REMARK INTER:                  -4.859
REMARK INTRA:                  -0.096
REMARK UNBOUND:                -0.093
REMARK SMILES C=C(C)[C@@H]1CC=C(C)C(=O)C1
REMARK SMILES IDX 8 1 7 2 6 3 5 4 4 5 11 6 9 7 10 8 2 9 1 10 3 11
REMARK H PARENT
REMARK Flexibility Score: inf
ROOT
ATOM      1  C   UNL     1     -16.702 -38.988 213.027  1.00  0.00     0.048 C 
ATOM      2  C   UNL     1     -17.031 -38.679 211.592  1.00  0.00    -0.012 C 
ATOM      3  C   UNL     1     -16.290 -37.786 210.914  1.00  0.00    -0.019 C 
ATOM      4  C   UNL     1     -16.563 -37.454 209.470  1.00  0.00     0.036 C 
ATOM      5  C   UNL     1     -18.068 -37.550 209.155  1.00  0.00     0.025 C 
ATOM      6  C   UNL     1     -18.608 -38.937 209.546  1.00  0.00     0.089 C 
ATOM      7  C   UNL     1     -18.243 -39.266 210.968  1.00  0.00     0.158 C 
ATOM      8  O   UNL     1     -18.959 -40.077 211.614  1.00  0.00    -0.295 OA
ENDROOT
BRANCH   5   9
ATOM      9  C   UNL     1     -18.351 -37.233 207.694  1.00  0.00    -0.077 C 
ATOM     10  C   UNL     1     -17.968 -38.089 206.732  1.00  0.00     0.008 C 
ATOM     11  C   UNL     1     -19.058 -35.963 207.287  1.00  0.00     0.039 C 
ENDBRANCH   5   9
TORSDOF 1
ENDMDL
MODEL 4
REMARK VINA RESULT:    -4.524      2.248      4.619
REMARK INTER + INTRA:          -4.882
REMARK INTER:                  -4.783
REMARK INTRA:                  -0.099
REMARK UNBOUND:                -0.093
REMARK SMILES C=C(C)[C@@H]1CC=C(C)C(=O)C1
REMARK SMILES IDX 8 1 7 2 6 3 5 4 4 5 11 6 9 7 10 8 2 9 1 10 3 11
REMARK H PARENT
REMARK Flexibility Score: inf
ROOT
ATOM      1  C   UNL     1     -16.476 -38.945 206.275  1.00  0.00     0.048 C 
ATOM      2  C   UNL     1     -16.491 -38.726 207.762  1.00  0.00    -0.012 C 
ATOM      3  C   UNL     1     -15.613 -39.378 208.543  1.00  0.00    -0.019 C 
ATOM      4  C   UNL     1     -15.572 -39.182 210.037  1.00  0.00     0.036 C 
ATOM      5  C   UNL     1     -16.979 -38.894 210.595  1.00  0.00     0.025 C 
ATOM      6  C   UNL     1     -17.607 -37.694 209.867  1.00  0.00     0.089 C 
ATOM      7  C   UNL     1     -17.554 -37.891 208.377  1.00  0.00     0.158 C 
ATOM      8  O   UNL     1     -18.400 -37.307 207.648  1.00  0.00    -0.295 OA
ENDROOT
BRANCH   5   9
ATOM      9  C   UNL     1     -16.945 -38.677 212.102  1.00  0.00    -0.077 C 
ATOM     10  C   UNL     1     -17.286 -37.485 212.618  1.00  0.00     0.008 C 
ATOM     11  C   UNL     1     -16.528 -39.778 213.046  1.00  0.00     0.039 C 
ENDBRANCH   5   9
TORSDOF 1
ENDMDL
MODEL 5
REMARK VINA RESULT:    -4.362     11.779     14.093
REMARK INTER + INTRA:          -4.710
REMARK INTER:                  -4.614
REMARK INTRA:                  -0.096
REMARK UNBOUND:                -0.093
REMARK SMILES C=C(C)[C@@H]1CC=C(C)C(=O)C1
REMARK SMILES IDX 8 1 7 2 6 3 5 4 4 5 11 6 9 7 10 8 2 9 1 10 3 11
REMARK H PARENT
REMARK Flexibility Score: inf
ROOT
ATOM      1  C   UNL     1      -8.982 -41.440 215.657  1.00  0.00     0.048 C 
ATOM      2  C   UNL     1      -7.717 -40.630 215.611  1.00  0.00    -0.012 C 
ATOM      3  C   UNL     1      -7.514 -39.762 214.604  1.00  0.00    -0.019 C 
ATOM      4  C   UNL     1      -6.274 -38.912 214.519  1.00  0.00     0.036 C 
ATOM      5  C   UNL     1      -5.056 -39.649 215.109  1.00  0.00     0.025 C 
ATOM      6  C   UNL     1      -5.354 -40.103 216.549  1.00  0.00     0.089 C 
ATOM      7  C   UNL     1      -6.642 -40.878 216.604  1.00  0.00     0.158 C 
ATOM      8  O   UNL     1      -6.815 -41.716 217.529  1.00  0.00    -0.295 OA
ENDROOT
BRANCH   5   9
ATOM      9  C   UNL     1      -3.801 -38.789 215.044  1.00  0.00    -0.077 C 
ATOM     10  C   UNL     1      -3.782 -37.579 215.626  1.00  0.00     0.008 C 
ATOM     11  C   UNL     1      -2.560 -39.264 214.329  1.00  0.00     0.039 C 
ENDBRANCH   5   9
TORSDOF 1
ENDMDL
MODEL 6
REMARK VINA RESULT:    -4.294      1.782      2.238
REMARK INTER + INTRA:          -4.638
REMARK INTER:                  -4.543
REMARK INTRA:                  -0.096
REMARK UNBOUND:                -0.093
REMARK SMILES C=C(C)[C@@H]1CC=C(C)C(=O)C1
REMARK SMILES IDX 8 1 7 2 6 3 5 4 4 5 11 6 9 7 10 8 2 9 1 10 3 11
REMARK H PARENT
REMARK Flexibility Score: inf
ROOT
ATOM      1  C   UNL     1     -16.369 -40.085 213.322  1.00  0.00     0.048 C 
ATOM      2  C   UNL     1     -16.583 -39.450 211.976  1.00  0.00    -0.012 C 
ATOM      3  C   UNL     1     -17.287 -38.309 211.879  1.00  0.00    -0.019 C 
ATOM      4  C   UNL     1     -17.515 -37.620 210.558  1.00  0.00     0.036 C 
ATOM      5  C   UNL     1     -17.614 -38.644 209.411  1.00  0.00     0.025 C 
ATOM      6  C   UNL     1     -16.367 -39.545 209.391  1.00  0.00     0.089 C 
ATOM      7  C   UNL     1     -16.126 -40.147 210.748  1.00  0.00     0.158 C 
ATOM      8  O   UNL     1     -15.497 -41.236 210.834  1.00  0.00    -0.295 OA
ENDROOT
BRANCH   5   9
ATOM      9  C   UNL     1     -17.827 -37.956 208.070  1.00  0.00    -0.077 C 
ATOM     10  C   UNL     1     -18.634 -36.887 207.981  1.00  0.00     0.008 C 
ATOM     11  C   UNL     1     -17.149 -38.451 206.816  1.00  0.00     0.039 C 
ENDBRANCH   5   9
TORSDOF 1
ENDMDL
MODEL 7
REMARK VINA RESULT:    -4.212     12.673     14.902
REMARK INTER + INTRA:          -4.551
REMARK INTER:                  -4.454
REMARK INTRA:                  -0.098
REMARK UNBOUND:                -0.093
REMARK SMILES C=C(C)[C@@H]1CC=C(C)C(=O)C1
REMARK SMILES IDX 8 1 7 2 6 3 5 4 4 5 11 6 9 7 10 8 2 9 1 10 3 11
REMARK H PARENT
REMARK Flexibility Score: inf
ROOT
ATOM      1  C   UNL     1      -1.008 -39.321 215.251  1.00  0.00     0.048 C 
ATOM      2  C   UNL     1      -2.488 -39.359 214.986  1.00  0.00    -0.012 C 
ATOM      3  C   UNL     1      -3.282 -38.395 215.483  1.00  0.00    -0.019 C 
ATOM      4  C   UNL     1      -4.767 -38.375 215.233  1.00  0.00     0.036 C 
ATOM      5  C   UNL     1      -5.329 -39.805 215.124  1.00  0.00     0.025 C 
ATOM      6  C   UNL     1      -4.568 -40.598 214.048  1.00  0.00     0.089 C 
ATOM      7  C   UNL     1      -3.085 -40.525 214.286  1.00  0.00     0.158 C 
ATOM      8  O   UNL     1      -2.346 -41.448 213.851  1.00  0.00    -0.295 OA
ENDROOT
BRANCH   5   9
ATOM      9  C   UNL     1      -6.827 -39.794 214.853  1.00  0.00    -0.077 C 
ATOM     10  C   UNL     1      -7.368 -38.827 214.095  1.00  0.00     0.008 C 
ATOM     11  C   UNL     1      -7.737 -40.854 215.425  1.00  0.00     0.039 C 
ENDBRANCH   5   9
TORSDOF 1
ENDMDL
MODEL 8
REMARK VINA RESULT:    -4.187     12.499     15.209
REMARK INTER + INTRA:          -4.525
REMARK INTER:                  -4.428
REMARK INTRA:                  -0.096
REMARK UNBOUND:                -0.093
REMARK SMILES C=C(C)[C@@H]1CC=C(C)C(=O)C1
REMARK SMILES IDX 8 1 7 2 6 3 5 4 4 5 11 6 9 7 10 8 2 9 1 10 3 11
REMARK H PARENT
REMARK Flexibility Score: inf
ROOT
ATOM      1  C   UNL     1      -6.595 -39.883 213.631  1.00  0.00     0.048 C 
ATOM      2  C   UNL     1      -6.189 -39.614 215.053  1.00  0.00    -0.012 C 
ATOM      3  C   UNL     1      -5.244 -38.695 215.317  1.00  0.00    -0.019 C 
ATOM      4  C   UNL     1      -4.814 -38.372 216.724  1.00  0.00     0.036 C 
ATOM      5  C   UNL     1      -4.900 -39.617 217.628  1.00  0.00     0.025 C 
ATOM      6  C   UNL     1      -6.315 -40.219 217.575  1.00  0.00     0.089 C 
ATOM      7  C   UNL     1      -6.739 -40.449 216.151  1.00  0.00     0.158 C 
ATOM      8  O   UNL     1      -7.600 -41.336 215.901  1.00  0.00    -0.295 OA
ENDROOT
BRANCH   5   9
ATOM      9  C   UNL     1      -4.483 -39.296 219.056  1.00  0.00    -0.077 C 
ATOM     10  C   UNL     1      -5.124 -38.338 219.746  1.00  0.00     0.008 C 
ATOM     11  C   UNL     1      -3.351 -40.032 219.729  1.00  0.00     0.039 C 
ENDBRANCH   5   9
TORSDOF 1
ENDMDL
MODEL 9
REMARK VINA RESULT:    -4.037     12.679     14.472
REMARK INTER + INTRA:          -4.366
REMARK INTER:                  -4.276
REMARK INTRA:                  -0.089
REMARK UNBOUND:                -0.093
REMARK SMILES C=C(C)[C@@H]1CC=C(C)C(=O)C1
REMARK SMILES IDX 8 1 7 2 6 3 5 4 4 5 11 6 9 7 10 8 2 9 1 10 3 11
REMARK H PARENT
REMARK Flexibility Score: inf
ROOT
ATOM      1  C   UNL     1      -5.277 -37.935 219.034  1.00  0.00     0.048 C 
ATOM      2  C   UNL     1      -5.193 -38.730 217.761  1.00  0.00    -0.012 C 
ATOM      3  C   UNL     1      -4.375 -38.328 216.773  1.00  0.00    -0.019 C 
ATOM      4  C   UNL     1      -4.238 -39.098 215.486  1.00  0.00     0.036 C 
ATOM      5  C   UNL     1      -5.565 -39.783 215.107  1.00  0.00     0.025 C 
ATOM      6  C   UNL     1      -6.059 -40.668 216.265  1.00  0.00     0.089 C 
ATOM      7  C   UNL     1      -6.102 -39.885 217.549  1.00  0.00     0.158 C 
ATOM      8  O   UNL     1      -6.895 -40.243 218.460  1.00  0.00    -0.295 OA
ENDROOT
BRANCH   5   9
ATOM      9  C   UNL     1      -5.431 -40.579 213.816  1.00  0.00    -0.077 C 
ATOM     10  C   UNL     1      -6.452 -40.625 212.944  1.00  0.00     0.008 C 
ATOM     11  C   UNL     1      -4.166 -41.332 213.484  1.00  0.00     0.039 C 
ENDBRANCH   5   9
TORSDOF 1
ENDMDL
