MODEL 1
REMARK VINA RESULT:    -3.023      0.000      0.000
REMARK INTER + INTRA:          -4.553
REMARK INTER:                  -4.084
REMARK INTRA:                  -0.469
REMARK UNBOUND:                -0.469
REMARK SMILES CCCCCCCC=O
REMARK SMILES IDX 5 1 4 2 3 3 2 4 1 5 6 6 7 7 8 8 9 9
REMARK H PARENT
REMARK Flexibility Score: inf
ROOT
ATOM      1  C   UNL     1     107.559 107.198 102.448  1.00  0.00     0.000 C 
ENDROOT
BRANCH   1   2
ATOM      2  C   UNL     1     107.164 107.161 103.933  1.00  0.00     0.000 C 
BRANCH   2   3
ATOM      3  C   UNL     1     105.809 107.851 104.194  1.00  0.00    -0.000 C 
BRANCH   3   4
ATOM      4  C   UNL     1     104.861 107.825 102.984  1.00  0.00    -0.003 C 
ATOM      5  C   UNL     1     104.223 109.181 102.694  1.00  0.00     0.004 C 
ENDBRANCH   3   4
ENDBRANCH   2   3
ENDBRANCH   1   2
BRANCH   1   6
ATOM      6  C   UNL     1     107.908 105.796 101.936  1.00  0.00     0.008 C 
BRANCH   6   7
ATOM      7  C   UNL     1     107.398 104.716 102.897  1.00  0.00     0.072 C 
BRANCH   7   8
ATOM      8  C   UNL     1     106.302 103.905 102.272  1.00  0.00     0.224 C 
ATOM      9  O   UNL     1     105.200 104.402 102.100  1.00  0.00    -0.303 OA
ENDBRANCH   7   8
ENDBRANCH   6   7
ENDBRANCH   1   6
TORSDOF 6
ENDMDL
MODEL 2
REMARK VINA RESULT:    -2.987      2.491      3.574
REMARK INTER + INTRA:          -4.504
REMARK INTER:                  -4.129
REMARK INTRA:                  -0.375
REMARK UNBOUND:                -0.469
REMARK SMILES CCCCCCCC=O
REMARK SMILES IDX 5 1 4 2 3 3 2 4 1 5 6 6 7 7 8 8 9 9
REMARK H PARENT
REMARK Flexibility Score: inf
ROOT
ATOM      1  C   UNL     1     105.998 107.708 102.830  1.00  0.00     0.000 C 
ENDROOT
BRANCH   1   2
ATOM      2  C   UNL     1     104.476 107.498 102.819  1.00  0.00     0.000 C 
BRANCH   2   3
ATOM      3  C   UNL     1     104.068 106.215 102.064  1.00  0.00    -0.000 C 
BRANCH   3   4
ATOM      4  C   UNL     1     104.256 104.930 102.888  1.00  0.00    -0.003 C 
ATOM      5  C   UNL     1     103.645 105.020 104.284  1.00  0.00     0.004 C 
ENDBRANCH   3   4
ENDBRANCH   2   3
ENDBRANCH   1   2
BRANCH   1   6
ATOM      6  C   UNL     1     106.571 107.512 104.239  1.00  0.00     0.008 C 
BRANCH   6   7
ATOM      7  C   UNL     1     108.026 107.035 104.179  1.00  0.00     0.072 C 
BRANCH   7   8
ATOM      8  C   UNL     1     108.576 107.140 102.787  1.00  0.00     0.224 C 
ATOM      9  O   UNL     1     109.524 107.876 102.561  1.00  0.00    -0.303 OA
ENDBRANCH   7   8
ENDBRANCH   6   7
ENDBRANCH   1   6
TORSDOF 6
ENDMDL
MODEL 3
REMARK VINA RESULT:    -2.965      1.567      1.997
REMARK INTER + INTRA:          -4.474
REMARK INTER:                  -3.949
REMARK INTRA:                  -0.525
REMARK UNBOUND:                -0.469
REMARK SMILES CCCCCCCC=O
REMARK SMILES IDX 5 1 4 2 3 3 2 4 1 5 6 6 7 7 8 8 9 9
REMARK H PARENT
REMARK Flexibility Score: inf
ROOT
ATOM      1  C   UNL     1     107.218 105.476 102.656  1.00  0.00     0.000 C 
ENDROOT
BRANCH   1   2
ATOM      2  C   UNL     1     106.788 106.951 102.619  1.00  0.00     0.000 C 
BRANCH   2   3
ATOM      3  C   UNL     1     106.451 107.496 104.023  1.00  0.00    -0.000 C 
BRANCH   3   4
ATOM      4  C   UNL     1     105.061 108.148 104.114  1.00  0.00    -0.003 C 
ATOM      5  C   UNL     1     104.495 108.542 102.752  1.00  0.00     0.004 C 
ENDBRANCH   3   4
ENDBRANCH   2   3
ENDBRANCH   1   2
BRANCH   1   6
ATOM      6  C   UNL     1     106.093 104.587 103.200  1.00  0.00     0.008 C 
BRANCH   6   7
ATOM      7  C   UNL     1     104.919 104.523 102.217  1.00  0.00     0.072 C 
BRANCH   7   8
ATOM      8  C   UNL     1     103.617 104.807 102.907  1.00  0.00     0.224 C 
ATOM      9  O   UNL     1     102.668 104.056 102.749  1.00  0.00    -0.303 OA
ENDBRANCH   7   8
ENDBRANCH   6   7
ENDBRANCH   1   6
TORSDOF 6
ENDMDL
MODEL 4
REMARK VINA RESULT:    -2.960      2.205      4.278
REMARK INTER + INTRA:          -4.468
REMARK INTER:                  -3.951
REMARK INTRA:                  -0.517
REMARK UNBOUND:                -0.469
REMARK SMILES CCCCCCCC=O
REMARK SMILES IDX 5 1 4 2 3 3 2 4 1 5 6 6 7 7 8 8 9 9
REMARK H PARENT
REMARK Flexibility Score: inf
ROOT
ATOM      1  C   UNL     1     104.622 106.282 102.511  1.00  0.00     0.000 C 
ENDROOT
BRANCH   1   2
ATOM      2  C   UNL     1     104.842 104.798 102.844  1.00  0.00     0.000 C 
BRANCH   2   3
ATOM      3  C   UNL     1     105.863 104.132 101.898  1.00  0.00    -0.000 C 
BRANCH   3   4
ATOM      4  C   UNL     1     107.144 103.663 102.607  1.00  0.00    -0.003 C 
ATOM      5  C   UNL     1     107.058 103.763 104.128  1.00  0.00     0.004 C 
ENDBRANCH   3   4
ENDBRANCH   2   3
ENDBRANCH   1   2
BRANCH   1   6
ATOM      6  C   UNL     1     105.581 107.174 103.308  1.00  0.00     0.008 C 
BRANCH   6   7
ATOM      7  C   UNL     1     106.732 107.670 102.427  1.00  0.00     0.072 C 
BRANCH   7   8
ATOM      8  C   UNL     1     108.062 107.381 103.057  1.00  0.00     0.224 C 
ATOM      9  O   UNL     1     109.074 107.892 102.604  1.00  0.00    -0.303 OA
ENDBRANCH   7   8
ENDBRANCH   6   7
ENDBRANCH   1   6
TORSDOF 6
ENDMDL
MODEL 5
REMARK VINA RESULT:    -2.960      2.136      4.277
REMARK INTER + INTRA:          -4.468
REMARK INTER:                  -3.928
REMARK INTRA:                  -0.540
REMARK UNBOUND:                -0.469
REMARK SMILES CCCCCCCC=O
REMARK SMILES IDX 5 1 4 2 3 3 2 4 1 5 6 6 7 7 8 8 9 9
REMARK H PARENT
REMARK Flexibility Score: inf
ROOT
ATOM      1  C   UNL     1     104.091 105.800 102.906  1.00  0.00     0.000 C 
ENDROOT
BRANCH   1   2
ATOM      2  C   UNL     1     104.828 104.489 102.591  1.00  0.00     0.000 C 
BRANCH   2   3
ATOM      3  C   UNL     1     106.188 104.395 103.313  1.00  0.00    -0.000 C 
BRANCH   3   4
ATOM      4  C   UNL     1     107.390 104.717 102.408  1.00  0.00    -0.003 C 
ATOM      5  C   UNL     1     107.872 106.159 102.543  1.00  0.00     0.004 C 
ENDBRANCH   3   4
ENDBRANCH   2   3
ENDBRANCH   1   2
BRANCH   1   6
ATOM      6  C   UNL     1     104.480 106.332 104.291  1.00  0.00     0.008 C 
BRANCH   6   7
ATOM      7  C   UNL     1     104.872 107.811 104.222  1.00  0.00     0.072 C 
BRANCH   7   8
ATOM      8  C   UNL     1     104.708 108.353 102.832  1.00  0.00     0.224 C 
ATOM      9  O   UNL     1     104.076 109.381 102.650  1.00  0.00    -0.303 OA
ENDBRANCH   7   8
ENDBRANCH   6   7
ENDBRANCH   1   6
TORSDOF 6
ENDMDL
MODEL 6
REMARK VINA RESULT:    -2.953      1.961      4.082
REMARK INTER + INTRA:          -4.458
REMARK INTER:                  -3.969
REMARK INTRA:                  -0.489
REMARK UNBOUND:                -0.469
REMARK SMILES CCCCCCCC=O
REMARK SMILES IDX 5 1 4 2 3 3 2 4 1 5 6 6 7 7 8 8 9 9
REMARK H PARENT
REMARK Flexibility Score: inf
ROOT
ATOM      1  C   UNL     1     107.142 107.481 103.168  1.00  0.00     0.000 C 
ENDROOT
BRANCH   1   2
ATOM      2  C   UNL     1     107.892 106.140 103.184  1.00  0.00     0.000 C 
BRANCH   2   3
ATOM      3  C   UNL     1     107.304 105.129 102.177  1.00  0.00    -0.000 C 
BRANCH   3   4
ATOM      4  C   UNL     1     106.593 103.939 102.843  1.00  0.00    -0.003 C 
ATOM      5  C   UNL     1     106.904 103.813 104.333  1.00  0.00     0.004 C 
ENDBRANCH   3   4
ENDBRANCH   2   3
ENDBRANCH   1   2
BRANCH   1   6
ATOM      6  C   UNL     1     106.211 107.606 104.380  1.00  0.00     0.008 C 
BRANCH   6   7
ATOM      7  C   UNL     1     104.741 107.518 103.955  1.00  0.00     0.072 C 
BRANCH   7   8
ATOM      8  C   UNL     1     104.507 108.231 102.656  1.00  0.00     0.224 C 
ATOM      9  O   UNL     1     104.090 109.379 102.658  1.00  0.00    -0.303 OA
ENDBRANCH   7   8
ENDBRANCH   6   7
ENDBRANCH   1   6
TORSDOF 6
ENDMDL
MODEL 7
REMARK VINA RESULT:    -2.929      2.058      3.448
REMARK INTER + INTRA:          -4.426
REMARK INTER:                  -4.074
REMARK INTRA:                  -0.351
REMARK UNBOUND:                -0.469
REMARK SMILES CCCCCCCC=O
REMARK SMILES IDX 5 1 4 2 3 3 2 4 1 5 6 6 7 7 8 8 9 9
REMARK H PARENT
REMARK Flexibility Score: inf
ROOT
ATOM      1  C   UNL     1     104.636 107.357 102.884  1.00  0.00     0.000 C 
ENDROOT
BRANCH   1   2
ATOM      2  C   UNL     1     105.771 108.014 102.082  1.00  0.00     0.000 C 
BRANCH   2   3
ATOM      3  C   UNL     1     106.974 107.067 101.891  1.00  0.00    -0.000 C 
BRANCH   3   4
ATOM      4  C   UNL     1     108.229 107.501 102.668  1.00  0.00    -0.003 C 
ATOM      5  C   UNL     1     108.250 106.986 104.105  1.00  0.00     0.004 C 
ENDBRANCH   3   4
ENDBRANCH   2   3
ENDBRANCH   1   2
BRANCH   1   6
ATOM      6  C   UNL     1     104.112 106.104 102.173  1.00  0.00     0.008 C 
BRANCH   6   7
ATOM      7  C   UNL     1     104.234 104.870 103.073  1.00  0.00     0.072 C 
BRANCH   7   8
ATOM      8  C   UNL     1     104.097 105.237 104.521  1.00  0.00     0.224 C 
ATOM      9  O   UNL     1     103.069 104.969 105.122  1.00  0.00    -0.303 OA
ENDBRANCH   7   8
ENDBRANCH   6   7
ENDBRANCH   1   6
TORSDOF 6
ENDMDL
MODEL 8
REMARK VINA RESULT:    -2.923      1.767      3.542
REMARK INTER + INTRA:          -4.418
REMARK INTER:                  -3.897
REMARK INTRA:                  -0.521
REMARK UNBOUND:                -0.469
REMARK SMILES CCCCCCCC=O
REMARK SMILES IDX 5 1 4 2 3 3 2 4 1 5 6 6 7 7 8 8 9 9
REMARK H PARENT
REMARK Flexibility Score: inf
ROOT
ATOM      1  C   UNL     1     105.526 107.079 102.400  1.00  0.00     0.000 C 
ENDROOT
BRANCH   1   2
ATOM      2  C   UNL     1     106.951 107.372 102.893  1.00  0.00     0.000 C 
BRANCH   2   3
ATOM      3  C   UNL     1     107.762 106.081 103.134  1.00  0.00    -0.000 C 
BRANCH   3   4
ATOM      4  C   UNL     1     107.513 104.991 102.077  1.00  0.00    -0.003 C 
ATOM      5  C   UNL     1     107.511 103.581 102.662  1.00  0.00     0.004 C 
ENDBRANCH   3   4
ENDBRANCH   2   3
ENDBRANCH   1   2
BRANCH   1   6
ATOM      6  C   UNL     1     104.567 106.871 103.578  1.00  0.00     0.008 C 
BRANCH   6   7
ATOM      7  C   UNL     1     104.077 105.420 103.639  1.00  0.00     0.072 C 
BRANCH   7   8
ATOM      8  C   UNL     1     103.734 104.905 102.272  1.00  0.00     0.224 C 
ATOM      9  O   UNL     1     102.607 104.498 102.040  1.00  0.00    -0.303 OA
ENDBRANCH   7   8
ENDBRANCH   6   7
ENDBRANCH   1   6
TORSDOF 6
ENDMDL
MODEL 9
REMARK VINA RESULT:    -2.888      2.162      3.395
REMARK INTER + INTRA:          -4.370
REMARK INTER:                  -3.758
REMARK INTRA:                  -0.612
REMARK UNBOUND:                -0.469
REMARK SMILES CCCCCCCC=O
REMARK SMILES IDX 5 1 4 2 3 3 2 4 1 5 6 6 7 7 8 8 9 9
REMARK H PARENT
REMARK Flexibility Score: inf
ROOT
ATOM      1  C   UNL     1     107.355 105.085 102.433  1.00  0.00     0.000 C 
ENDROOT
BRANCH   1   2
ATOM      2  C   UNL     1     106.034 104.301 102.464  1.00  0.00     0.000 C 
BRANCH   2   3
ATOM      3  C   UNL     1     105.280 104.479 103.798  1.00  0.00    -0.000 C 
BRANCH   3   4
ATOM      4  C   UNL     1     103.794 104.837 103.622  1.00  0.00    -0.003 C 
ATOM      5  C   UNL     1     103.343 104.820 102.163  1.00  0.00     0.004 C 
ENDBRANCH   3   4
ENDBRANCH   2   3
ENDBRANCH   1   2
BRANCH   1   6
ATOM      6  C   UNL     1     107.181 106.482 103.042  1.00  0.00     0.008 C 
BRANCH   6   7
ATOM      7  C   UNL     1     106.750 107.496 101.977  1.00  0.00     0.072 C 
BRANCH   7   8
ATOM      8  C   UNL     1     105.363 108.003 102.239  1.00  0.00     0.224 C 
ATOM      9  O   UNL     1     105.005 108.232 103.384  1.00  0.00    -0.303 OA
ENDBRANCH   7   8
ENDBRANCH   6   7
ENDBRANCH   1   6
TORSDOF 6
ENDMDL
