MODEL 1
REMARK VINA RESULT:    -3.905      0.000      0.000
REMARK INTER + INTRA:          -4.649
REMARK INTER:                  -4.590
REMARK INTRA:                  -0.059
REMARK UNBOUND:                -0.059
REMARK SMILES CCCCC(=O)[O-]
REMARK SMILES IDX 4 1 5 2 6 3 7 4 3 5 2 6 1 7
REMARK H PARENT
REMARK Flexibility Score: inf
ROOT
ATOM      1  C   UNL     1      20.372   8.362   9.603  1.00  0.00     0.053 C 
ENDROOT
BRANCH   1   2
ATOM      2  C   UNL     1      19.962   8.056  11.011  1.00  0.00     0.041 C 
ATOM      3  O   UNL     1      20.678   8.431  11.976  1.00  0.00    -0.550 OA
ATOM      4  O   UNL     1      18.803   7.330  11.255  1.00  0.00    -0.550 OA
ENDBRANCH   1   2
BRANCH   1   5
ATOM      5  C   UNL     1      20.356   7.108   8.716  1.00  0.00     0.006 C 
BRANCH   5   6
ATOM      6  C   UNL     1      19.259   7.114   7.637  1.00  0.00    -0.003 C 
ATOM      7  C   UNL     1      19.263   8.388   6.793  1.00  0.00     0.004 C 
ENDBRANCH   5   6
ENDBRANCH   1   5
TORSDOF 3
ENDMDL
MODEL 2
REMARK VINA RESULT:    -3.871      1.145      1.643
REMARK INTER + INTRA:          -4.609
REMARK INTER:                  -4.558
REMARK INTRA:                  -0.051
REMARK UNBOUND:                -0.059
REMARK SMILES CCCCC(=O)[O-]
REMARK SMILES IDX 4 1 5 2 6 3 7 4 3 5 2 6 1 7
REMARK H PARENT
REMARK Flexibility Score: inf
ROOT
ATOM      1  C   UNL     1      19.744   8.359   9.793  1.00  0.00     0.053 C 
ENDROOT
BRANCH   1   2
ATOM      2  C   UNL     1      20.957   8.758  10.575  1.00  0.00     0.041 C 
ATOM      3  O   UNL     1      21.037   8.490  11.803  1.00  0.00    -0.550 OA
ATOM      4  O   UNL     1      21.987   9.453   9.954  1.00  0.00    -0.550 OA
ENDBRANCH   1   2
BRANCH   1   5
ATOM      5  C   UNL     1      19.964   7.047   9.024  1.00  0.00     0.006 C 
BRANCH   5   6
ATOM      6  C   UNL     1      19.284   7.005   7.644  1.00  0.00    -0.003 C 
ATOM      7  C   UNL     1      19.283   8.362   6.940  1.00  0.00     0.004 C 
ENDBRANCH   5   6
ENDBRANCH   1   5
TORSDOF 3
ENDMDL
MODEL 3
REMARK VINA RESULT:    -3.868      1.183      1.538
REMARK INTER + INTRA:          -4.606
REMARK INTER:                  -4.564
REMARK INTRA:                  -0.042
REMARK UNBOUND:                -0.059
REMARK SMILES CCCCC(=O)[O-]
REMARK SMILES IDX 4 1 5 2 6 3 7 4 3 5 2 6 1 7
REMARK H PARENT
REMARK Flexibility Score: inf
ROOT
ATOM      1  C   UNL     1      19.857   8.380   9.844  1.00  0.00     0.053 C 
ENDROOT
BRANCH   1   2
ATOM      2  C   UNL     1      21.061   8.834  10.610  1.00  0.00     0.041 C 
ATOM      3  O   UNL     1      21.960   9.506  10.039  1.00  0.00    -0.550 OA
ATOM      4  O   UNL     1      21.205   8.490  11.948  1.00  0.00    -0.550 OA
ENDBRANCH   1   2
BRANCH   1   5
ATOM      5  C   UNL     1      20.163   7.157   8.967  1.00  0.00     0.006 C 
BRANCH   5   6
ATOM      6  C   UNL     1      19.299   7.059   7.698  1.00  0.00    -0.003 C 
ATOM      7  C   UNL     1      19.239   8.372   6.918  1.00  0.00     0.004 C 
ENDBRANCH   5   6
ENDBRANCH   1   5
TORSDOF 3
ENDMDL
MODEL 4
REMARK VINA RESULT:    -3.764      1.736      2.565
REMARK INTER + INTRA:          -4.484
REMARK INTER:                  -4.405
REMARK INTRA:                  -0.078
REMARK UNBOUND:                -0.059
REMARK SMILES CCCCC(=O)[O-]
REMARK SMILES IDX 4 1 5 2 6 3 7 4 3 5 2 6 1 7
REMARK H PARENT
REMARK Flexibility Score: inf
ROOT
ATOM      1  C   UNL     1      19.824   8.258   9.916  1.00  0.00     0.053 C 
ENDROOT
BRANCH   1   2
ATOM      2  C   UNL     1      21.009   8.780  10.669  1.00  0.00     0.041 C 
ATOM      3  O   UNL     1      21.869   9.490  10.085  1.00  0.00    -0.550 OA
ATOM      4  O   UNL     1      21.178   8.456  12.009  1.00  0.00    -0.550 OA
ENDBRANCH   1   2
BRANCH   1   5
ATOM      5  C   UNL     1      20.155   6.970   9.147  1.00  0.00     0.006 C 
BRANCH   5   6
ATOM      6  C   UNL     1      19.308   5.754   9.560  1.00  0.00    -0.003 C 
ATOM      7  C   UNL     1      18.831   5.828  11.011  1.00  0.00     0.004 C 
ENDBRANCH   5   6
ENDBRANCH   1   5
TORSDOF 3
ENDMDL
MODEL 5
REMARK VINA RESULT:    -3.748      2.675      3.812
REMARK INTER + INTRA:          -4.464
REMARK INTER:                  -4.365
REMARK INTRA:                  -0.099
REMARK UNBOUND:                -0.059
REMARK SMILES CCCCC(=O)[O-]
REMARK SMILES IDX 4 1 5 2 6 3 7 4 3 5 2 6 1 7
REMARK H PARENT
REMARK Flexibility Score: inf
ROOT
ATOM      1  C   UNL     1      20.556   8.126   8.954  1.00  0.00     0.053 C 
ENDROOT
BRANCH   1   2
ATOM      2  C   UNL     1      19.865   7.921   7.641  1.00  0.00     0.041 C 
ATOM      3  O   UNL     1      19.023   6.995   7.505  1.00  0.00    -0.550 OA
ATOM      4  O   UNL     1      20.174   8.735   6.558  1.00  0.00    -0.550 OA
ENDBRANCH   1   2
BRANCH   1   5
ATOM      5  C   UNL     1      19.563   8.149  10.126  1.00  0.00     0.006 C 
BRANCH   5   6
ATOM      6  C   UNL     1      19.766   7.015  11.146  1.00  0.00    -0.003 C 
ATOM      7  C   UNL     1      19.045   5.726  10.753  1.00  0.00     0.004 C 
ENDBRANCH   5   6
ENDBRANCH   1   5
TORSDOF 3
ENDMDL
MODEL 6
REMARK VINA RESULT:    -3.541      2.819      3.257
REMARK INTER + INTRA:          -4.221
REMARK INTER:                  -4.164
REMARK INTRA:                  -0.057
REMARK UNBOUND:                -0.059
REMARK SMILES CCCCC(=O)[O-]
REMARK SMILES IDX 4 1 5 2 6 3 7 4 3 5 2 6 1 7
REMARK H PARENT
REMARK Flexibility Score: inf
ROOT
ATOM      1  C   UNL     1      20.584   8.624  10.187  1.00  0.00     0.053 C 
ENDROOT
BRANCH   1   2
ATOM      2  C   UNL     1      22.048   8.743   9.898  1.00  0.00     0.041 C 
ATOM      3  O   UNL     1      22.562   9.873   9.681  1.00  0.00    -0.550 OA
ATOM      4  O   UNL     1      22.840   7.604   9.837  1.00  0.00    -0.550 OA
ENDBRANCH   1   2
BRANCH   1   5
ATOM      5  C   UNL     1      20.303   7.634  11.328  1.00  0.00     0.006 C 
BRANCH   5   6
ATOM      6  C   UNL     1      19.055   6.761  11.112  1.00  0.00    -0.003 C 
ATOM      7  C   UNL     1      19.304   5.596  10.155  1.00  0.00     0.004 C 
ENDBRANCH   5   6
ENDBRANCH   1   5
TORSDOF 3
ENDMDL
MODEL 7
REMARK VINA RESULT:    -3.370      2.112      3.754
REMARK INTER + INTRA:          -4.020
REMARK INTER:                  -3.923
REMARK INTRA:                  -0.097
REMARK UNBOUND:                -0.059
REMARK SMILES CCCCC(=O)[O-]
REMARK SMILES IDX 4 1 5 2 6 3 7 4 3 5 2 6 1 7
REMARK H PARENT
REMARK Flexibility Score: inf
ROOT
ATOM      1  C   UNL     1      19.734   8.439   9.533  1.00  0.00     0.053 C 
ENDROOT
BRANCH   1   2
ATOM      2  C   UNL     1      19.832   7.144   8.787  1.00  0.00     0.041 C 
ATOM      3  O   UNL     1      20.047   7.141   7.546  1.00  0.00    -0.550 OA
ATOM      4  O   UNL     1      19.656   5.941   9.457  1.00  0.00    -0.550 OA
ENDBRANCH   1   2
BRANCH   1   5
ATOM      5  C   UNL     1      21.033   8.767  10.285  1.00  0.00     0.006 C 
BRANCH   5   6
ATOM      6  C   UNL     1      21.030   8.338  11.763  1.00  0.00    -0.003 C 
ATOM      7  C   UNL     1      22.146   7.348  12.096  1.00  0.00     0.004 C 
ENDBRANCH   5   6
ENDBRANCH   1   5
TORSDOF 3
ENDMDL
MODEL 8
REMARK VINA RESULT:    -3.249      2.477      3.224
REMARK INTER + INTRA:          -3.878
REMARK INTER:                  -3.748
REMARK INTRA:                  -0.130
REMARK UNBOUND:                -0.059
REMARK SMILES CCCCC(=O)[O-]
REMARK SMILES IDX 4 1 5 2 6 3 7 4 3 5 2 6 1 7
REMARK H PARENT
REMARK Flexibility Score: inf
ROOT
ATOM      1  C   UNL     1      19.420   7.891  10.824  1.00  0.00     0.053 C 
ENDROOT
BRANCH   1   2
ATOM      2  C   UNL     1      19.459   6.595  10.073  1.00  0.00     0.041 C 
ATOM      3  O   UNL     1      19.562   6.593   8.818  1.00  0.00    -0.550 OA
ATOM      4  O   UNL     1      19.353   5.391  10.757  1.00  0.00    -0.550 OA
ENDBRANCH   1   2
BRANCH   1   5
ATOM      5  C   UNL     1      20.667   8.084  11.699  1.00  0.00     0.006 C 
BRANCH   5   6
ATOM      6  C   UNL     1      21.987   8.141  10.911  1.00  0.00    -0.003 C 
ATOM      7  C   UNL     1      22.062   9.338   9.964  1.00  0.00     0.004 C 
ENDBRANCH   5   6
ENDBRANCH   1   5
TORSDOF 3
ENDMDL
MODEL 9
REMARK VINA RESULT:    -3.214      2.156      3.367
REMARK INTER + INTRA:          -3.836
REMARK INTER:                  -3.713
REMARK INTRA:                  -0.124
REMARK UNBOUND:                -0.059
REMARK SMILES CCCCC(=O)[O-]
REMARK SMILES IDX 4 1 5 2 6 3 7 4 3 5 2 6 1 7
REMARK H PARENT
REMARK Flexibility Score: inf
ROOT
ATOM      1  C   UNL     1      19.719   8.392   9.758  1.00  0.00     0.053 C 
ENDROOT
BRANCH   1   2
ATOM      2  C   UNL     1      19.738   7.139   8.936  1.00  0.00     0.041 C 
ATOM      3  O   UNL     1      19.484   6.027   9.470  1.00  0.00    -0.550 OA
ATOM      4  O   UNL     1      20.064   7.197   7.588  1.00  0.00    -0.550 OA
ENDBRANCH   1   2
BRANCH   1   5
ATOM      5  C   UNL     1      20.749   8.346  10.897  1.00  0.00     0.006 C 
BRANCH   5   6
ATOM      6  C   UNL     1      22.212   8.333  10.423  1.00  0.00    -0.003 C 
ATOM      7  C   UNL     1      22.598   9.595   9.651  1.00  0.00     0.004 C 
ENDBRANCH   5   6
ENDBRANCH   1   5
TORSDOF 3
ENDMDL
