MODEL 1
REMARK VINA RESULT:    -4.473      0.000      0.000
REMARK INTER + INTRA:          -5.719
REMARK INTER:                  -5.389
REMARK INTRA:                  -0.330
REMARK UNBOUND:                -0.330
REMARK SMILES O=c1c(O)c(-c2ccc(O)cc2O)oc2cc(O)cc(O)c12
REMARK SMILES IDX 5 1 3 2 2 3 1 4 22 5 20 6 19 7 17 8 16 9 15 10 14 11 6 12
REMARK SMILES IDX 8 13 7 14 9 15 11 16 12 17 10 18 13 20 4 22 21 24 18 26
REMARK H PARENT 10 19 13 21 4 23 21 25 18 27
REMARK Flexibility Score: inf
ROOT
ATOM      1  C   UNL     1      36.567  -3.497   6.589  1.00  0.00     0.184 A 
ATOM      2  C   UNL     1      37.238  -4.629   7.075  1.00  0.00     0.208 A 
ATOM      3  C   UNL     1      36.871  -5.152   8.325  1.00  0.00     0.238 A 
ATOM      4  O   UNL     1      37.440  -6.200   8.732  1.00  0.00    -0.285 OA
ATOM      5  C   UNL     1      35.850  -4.525   9.078  1.00  0.00     0.111 A 
ATOM      6  C   UNL     1      35.425  -4.946  10.375  1.00  0.00     0.134 A 
ATOM      7  C   UNL     1      34.317  -4.329  10.972  1.00  0.00     0.093 A 
ATOM      8  C   UNL     1      33.661  -3.268  10.350  1.00  0.00     0.123 A 
ATOM      9  C   UNL     1      34.105  -2.811   9.109  1.00  0.00     0.094 A 
ATOM     10  C   UNL     1      35.185  -3.427   8.472  1.00  0.00     0.146 A 
ATOM     11  O   UNL     1      35.569  -2.968   7.286  1.00  0.00    -0.451 OA
ENDROOT
BRANCH   1  12
ATOM     12  C   UNL     1      36.915  -2.885   5.289  1.00  0.00     0.063 A 
ATOM     13  C   UNL     1      37.940  -1.051   4.064  1.00  0.00     0.047 A 
ATOM     14  C   UNL     1      37.591  -1.655   5.275  1.00  0.00     0.020 A 
ATOM     15  C   UNL     1      37.628  -1.678   2.852  1.00  0.00     0.119 A 
ATOM     16  C   UNL     1      36.977  -2.915   2.856  1.00  0.00     0.093 A 
ATOM     17  C   UNL     1      36.629  -3.530   4.068  1.00  0.00     0.130 A 
BRANCH  15  18
ATOM     18  O   UNL     1      37.968  -1.084   1.637  1.00  0.00    -0.508 OA
ATOM     19  H   UNL     1      38.186  -0.096   1.574  1.00  0.00     0.293 HD
ENDBRANCH  15  18
BRANCH  17  20
ATOM     20  O   UNL     1      36.023  -4.786   4.059  1.00  0.00    -0.507 OA
ATOM     21  H   UNL     1      36.526  -5.622   4.337  1.00  0.00     0.293 HD
ENDBRANCH  17  20
ENDBRANCH   1  12
BRANCH   2  22
ATOM     22  O   UNL     1      38.230  -5.240   6.302  1.00  0.00    -0.502 OA
ATOM     23  H   UNL     1      38.371  -6.242   6.294  1.00  0.00     0.293 HD
ENDBRANCH   2  22
BRANCH   6  24
ATOM     24  O   UNL     1      36.068  -5.935  11.124  1.00  0.00    -0.507 OA
ATOM     25  H   UNL     1      35.768  -6.896  11.186  1.00  0.00     0.293 HD
ENDBRANCH   6  24
BRANCH   8  26
ATOM     26  O   UNL     1      32.573  -2.669  10.980  1.00  0.00    -0.508 OA
ATOM     27  H   UNL     1      32.648  -2.280  11.913  1.00  0.00     0.293 HD
ENDBRANCH   8  26
TORSDOF 6
ENDMDL
MODEL 2
REMARK VINA RESULT:    -4.347     10.893     13.474
REMARK INTER + INTRA:          -5.566
REMARK INTER:                  -5.185
REMARK INTRA:                  -0.381
REMARK UNBOUND:                -0.330
REMARK SMILES O=c1c(O)c(-c2ccc(O)cc2O)oc2cc(O)cc(O)c12
REMARK SMILES IDX 5 1 3 2 2 3 1 4 22 5 20 6 19 7 17 8 16 9 15 10 14 11 6 12
REMARK SMILES IDX 8 13 7 14 9 15 11 16 12 17 10 18 13 20 4 22 21 24 18 26
REMARK H PARENT 10 19 13 21 4 23 21 25 18 27
REMARK Flexibility Score: inf
ROOT
ATOM      1  C   UNL     1      30.334   6.429   4.385  1.00  0.00     0.184 A 
ATOM      2  C   UNL     1      29.114   6.200   3.731  1.00  0.00     0.208 A 
ATOM      3  C   UNL     1      29.126   5.623   2.452  1.00  0.00     0.238 A 
ATOM      4  O   UNL     1      28.027   5.370   1.892  1.00  0.00    -0.285 OA
ATOM      5  C   UNL     1      30.360   5.300   1.837  1.00  0.00     0.111 A 
ATOM      6  C   UNL     1      30.493   4.749   0.526  1.00  0.00     0.134 A 
ATOM      7  C   UNL     1      31.756   4.349   0.071  1.00  0.00     0.093 A 
ATOM      8  C   UNL     1      32.896   4.538   0.850  1.00  0.00     0.123 A 
ATOM      9  C   UNL     1      32.785   5.129   2.109  1.00  0.00     0.094 A 
ATOM     10  C   UNL     1      31.536   5.507   2.607  1.00  0.00     0.146 A 
ATOM     11  O   UNL     1      31.473   6.056   3.814  1.00  0.00    -0.451 OA
ENDROOT
BRANCH   1  12
ATOM     12  C   UNL     1      30.393   7.048   5.726  1.00  0.00     0.063 A 
ATOM     13  C   UNL     1      29.937   6.888   8.110  1.00  0.00     0.047 A 
ATOM     14  C   UNL     1      29.892   6.335   6.827  1.00  0.00     0.020 A 
ATOM     15  C   UNL     1      30.494   8.157   8.308  1.00  0.00     0.119 A 
ATOM     16  C   UNL     1      31.015   8.864   7.222  1.00  0.00     0.093 A 
ATOM     17  C   UNL     1      30.980   8.313   5.932  1.00  0.00     0.130 A 
BRANCH  15  18
ATOM     18  O   UNL     1      30.541   8.720   9.583  1.00  0.00    -0.508 OA
ATOM     19  H   UNL     1      30.914   8.209  10.374  1.00  0.00     0.293 HD
ENDBRANCH  15  18
BRANCH  17  20
ATOM     20  O   UNL     1      31.548   9.009   4.865  1.00  0.00    -0.507 OA
ATOM     21  H   UNL     1      31.131   8.999   3.941  1.00  0.00     0.293 HD
ENDBRANCH  17  20
ENDBRANCH   1  12
BRANCH   2  22
ATOM     22  O   UNL     1      27.909   6.511   4.369  1.00  0.00    -0.502 OA
ATOM     23  H   UNL     1      27.214   7.116   3.950  1.00  0.00     0.293 HD
ENDBRANCH   2  22
BRANCH   6  24
ATOM     24  O   UNL     1      29.431   4.603  -0.370  1.00  0.00    -0.507 OA
ATOM     25  H   UNL     1      29.187   3.742  -0.836  1.00  0.00     0.293 HD
ENDBRANCH   6  24
BRANCH   8  26
ATOM     26  O   UNL     1      34.138   4.141   0.359  1.00  0.00    -0.508 OA
ATOM     27  H   UNL     1      34.568   3.269   0.644  1.00  0.00     0.293 HD
ENDBRANCH   8  26
TORSDOF 6
ENDMDL
MODEL 3
REMARK VINA RESULT:    -4.274     11.719     13.599
REMARK INTER + INTRA:          -5.479
REMARK INTER:                  -5.069
REMARK INTRA:                  -0.409
REMARK UNBOUND:                -0.330
REMARK SMILES O=c1c(O)c(-c2ccc(O)cc2O)oc2cc(O)cc(O)c12
REMARK SMILES IDX 5 1 3 2 2 3 1 4 22 5 20 6 19 7 17 8 16 9 15 10 14 11 6 12
REMARK SMILES IDX 8 13 7 14 9 15 11 16 12 17 10 18 13 20 4 22 21 24 18 26
REMARK H PARENT 10 19 13 21 4 23 21 25 18 27
REMARK Flexibility Score: inf
ROOT
ATOM      1  C   UNL     1      27.247  -2.497  -1.808  1.00  0.00     0.184 A 
ATOM      2  C   UNL     1      26.378  -2.704  -2.890  1.00  0.00     0.208 A 
ATOM      3  C   UNL     1      26.283  -3.988  -3.449  1.00  0.00     0.238 A 
ATOM      4  O   UNL     1      25.463  -4.181  -4.385  1.00  0.00    -0.285 OA
ATOM      5  C   UNL     1      27.071  -5.043  -2.928  1.00  0.00     0.111 A 
ATOM      6  C   UNL     1      27.086  -6.374  -3.444  1.00  0.00     0.134 A 
ATOM      7  C   UNL     1      27.808  -7.367  -2.769  1.00  0.00     0.093 A 
ATOM      8  C   UNL     1      28.565  -7.066  -1.638  1.00  0.00     0.123 A 
ATOM      9  C   UNL     1      28.605  -5.755  -1.160  1.00  0.00     0.094 A 
ATOM     10  C   UNL     1      27.868  -4.749  -1.790  1.00  0.00     0.146 A 
ATOM     11  O   UNL     1      27.925  -3.517  -1.297  1.00  0.00    -0.451 OA
ENDROOT
BRANCH   1  12
ATOM     12  C   UNL     1      27.407  -1.167  -1.183  1.00  0.00     0.063 A 
ATOM     13  C   UNL     1      26.698   0.435   0.504  1.00  0.00     0.047 A 
ATOM     14  C   UNL     1      26.570  -0.812  -0.113  1.00  0.00     0.020 A 
ATOM     15  C   UNL     1      27.672   1.339   0.065  1.00  0.00     0.119 A 
ATOM     16  C   UNL     1      28.524   0.986  -0.985  1.00  0.00     0.093 A 
ATOM     17  C   UNL     1      28.407  -0.267  -1.605  1.00  0.00     0.130 A 
BRANCH  15  18
ATOM     18  O   UNL     1      27.807   2.588   0.670  1.00  0.00    -0.508 OA
ATOM     19  H   UNL     1      27.325   3.404   0.311  1.00  0.00     0.293 HD
ENDBRANCH  15  18
BRANCH  17  20
ATOM     20  O   UNL     1      29.296  -0.625  -2.619  1.00  0.00    -0.507 OA
ATOM     21  H   UNL     1      30.298  -0.516  -2.511  1.00  0.00     0.293 HD
ENDBRANCH  17  20
ENDBRANCH   1  12
BRANCH   2  22
ATOM     22  O   UNL     1      25.597  -1.650  -3.372  1.00  0.00    -0.502 OA
ATOM     23  H   UNL     1      25.607  -1.367  -4.344  1.00  0.00     0.293 HD
ENDBRANCH   2  22
BRANCH   6  24
ATOM     24  O   UNL     1      26.438  -6.763  -4.619  1.00  0.00    -0.507 OA
ATOM     25  H   UNL     1      25.586  -6.352  -4.970  1.00  0.00     0.293 HD
ENDBRANCH   6  24
BRANCH   8  26
ATOM     26  O   UNL     1      29.282  -8.076  -1.002  1.00  0.00    -0.508 OA
ATOM     27  H   UNL     1      29.132  -8.298  -0.024  1.00  0.00     0.293 HD
ENDBRANCH   8  26
TORSDOF 6
ENDMDL
MODEL 4
REMARK VINA RESULT:    -4.257      2.182      3.070
REMARK INTER + INTRA:          -5.458
REMARK INTER:                  -5.038
REMARK INTRA:                  -0.420
REMARK UNBOUND:                -0.330
REMARK SMILES O=c1c(O)c(-c2ccc(O)cc2O)oc2cc(O)cc(O)c12
REMARK SMILES IDX 5 1 3 2 2 3 1 4 22 5 20 6 19 7 17 8 16 9 15 10 14 11 6 12
REMARK SMILES IDX 8 13 7 14 9 15 11 16 12 17 10 18 13 20 4 22 21 24 18 26
REMARK H PARENT 10 19 13 21 4 23 21 25 18 27
REMARK Flexibility Score: inf
ROOT
ATOM      1  C   UNL     1      36.898  -3.837   4.693  1.00  0.00     0.184 A 
ATOM      2  C   UNL     1      36.152  -4.948   4.270  1.00  0.00     0.208 A 
ATOM      3  C   UNL     1      35.089  -5.397   5.068  1.00  0.00     0.238 A 
ATOM      4  O   UNL     1      34.389  -6.360   4.658  1.00  0.00    -0.285 OA
ATOM      5  C   UNL     1      34.797  -4.738   6.287  1.00  0.00     0.111 A 
ATOM      6  C   UNL     1      33.768  -5.132   7.195  1.00  0.00     0.134 A 
ATOM      7  C   UNL     1      33.485  -4.329   8.308  1.00  0.00     0.093 A 
ATOM      8  C   UNL     1      34.233  -3.186   8.581  1.00  0.00     0.123 A 
ATOM      9  C   UNL     1      35.280  -2.824   7.732  1.00  0.00     0.094 A 
ATOM     10  C   UNL     1      35.564  -3.583   6.594  1.00  0.00     0.146 A 
ATOM     11  O   UNL     1      36.562  -3.198   5.807  1.00  0.00    -0.451 OA
ENDROOT
BRANCH   1  12
ATOM     12  C   UNL     1      38.041  -3.324   3.908  1.00  0.00     0.063 A 
ATOM     13  C   UNL     1      40.374  -3.535   3.254  1.00  0.00     0.047 A 
ATOM     14  C   UNL     1      39.274  -3.990   3.987  1.00  0.00     0.020 A 
ATOM     15  C   UNL     1      40.249  -2.414   2.424  1.00  0.00     0.119 A 
ATOM     16  C   UNL     1      39.019  -1.759   2.321  1.00  0.00     0.093 A 
ATOM     17  C   UNL     1      37.909  -2.214   3.049  1.00  0.00     0.130 A 
BRANCH  15  18
ATOM     18  O   UNL     1      41.340  -1.949   1.691  1.00  0.00    -0.508 OA
ATOM     19  H   UNL     1      41.886  -1.153   2.002  1.00  0.00     0.293 HD
ENDBRANCH  15  18
BRANCH  17  20
ATOM     20  O   UNL     1      36.675  -1.580   2.899  1.00  0.00    -0.507 OA
ATOM     21  H   UNL     1      35.981  -1.915   2.242  1.00  0.00     0.293 HD
ENDBRANCH  17  20
ENDBRANCH   1  12
BRANCH   2  22
ATOM     22  O   UNL     1      36.450  -5.568   3.053  1.00  0.00    -0.502 OA
ATOM     23  H   UNL     1      35.831  -6.244   2.622  1.00  0.00     0.293 HD
ENDBRANCH   2  22
BRANCH   6  24
ATOM     24  O   UNL     1      33.021  -6.306   7.066  1.00  0.00    -0.507 OA
ATOM     25  H   UNL     1      33.146  -7.132   7.632  1.00  0.00     0.293 HD
ENDBRANCH   6  24
BRANCH   8  26
ATOM     26  O   UNL     1      33.933  -2.420   9.704  1.00  0.00    -0.508 OA
ATOM     27  H   UNL     1      33.747  -1.426   9.635  1.00  0.00     0.293 HD
ENDBRANCH   8  26
TORSDOF 6
ENDMDL
MODEL 5
REMARK VINA RESULT:    -4.209      1.595      6.847
REMARK INTER + INTRA:          -5.401
REMARK INTER:                  -4.986
REMARK INTRA:                  -0.414
REMARK UNBOUND:                -0.330
REMARK SMILES O=c1c(O)c(-c2ccc(O)cc2O)oc2cc(O)cc(O)c12
REMARK SMILES IDX 5 1 3 2 2 3 1 4 22 5 20 6 19 7 17 8 16 9 15 10 14 11 6 12
REMARK SMILES IDX 8 13 7 14 9 15 11 16 12 17 10 18 13 20 4 22 21 24 18 26
REMARK H PARENT 10 19 13 21 4 23 21 25 18 27
REMARK Flexibility Score: inf
ROOT
ATOM      1  C   UNL     1      36.788  -3.401   6.399  1.00  0.00     0.184 A 
ATOM      2  C   UNL     1      36.328  -3.767   5.125  1.00  0.00     0.208 A 
ATOM      3  C   UNL     1      36.845  -3.106   4.000  1.00  0.00     0.238 A 
ATOM      4  O   UNL     1      36.469  -3.474   2.856  1.00  0.00    -0.285 OA
ATOM      5  C   UNL     1      37.803  -2.077   4.166  1.00  0.00     0.111 A 
ATOM      6  C   UNL     1      38.366  -1.312   3.100  1.00  0.00     0.134 A 
ATOM      7  C   UNL     1      39.401  -0.408   3.370  1.00  0.00     0.093 A 
ATOM      8  C   UNL     1      39.849  -0.193   4.672  1.00  0.00     0.123 A 
ATOM      9  C   UNL     1      39.266  -0.893   5.730  1.00  0.00     0.094 A 
ATOM     10  C   UNL     1      38.256  -1.827   5.489  1.00  0.00     0.146 A 
ATOM     11  O   UNL     1      37.735  -2.479   6.523  1.00  0.00    -0.451 OA
ENDROOT
BRANCH   1  12
ATOM     12  C   UNL     1      36.272  -4.045   7.626  1.00  0.00     0.063 A 
ATOM     13  C   UNL     1      36.489  -5.794   9.302  1.00  0.00     0.047 A 
ATOM     14  C   UNL     1      36.946  -5.164   8.141  1.00  0.00     0.020 A 
ATOM     15  C   UNL     1      35.359  -5.304   9.968  1.00  0.00     0.119 A 
ATOM     16  C   UNL     1      34.696  -4.177   9.475  1.00  0.00     0.093 A 
ATOM     17  C   UNL     1      35.152  -3.536   8.314  1.00  0.00     0.130 A 
BRANCH  15  18
ATOM     18  O   UNL     1      34.892  -5.926  11.125  1.00  0.00    -0.508 OA
ATOM     19  H   UNL     1      34.076  -6.529  11.110  1.00  0.00     0.293 HD
ENDBRANCH  15  18
BRANCH  17  20
ATOM     20  O   UNL     1      34.510  -2.383   7.860  1.00  0.00    -0.507 OA
ATOM     21  H   UNL     1      34.617  -1.494   8.333  1.00  0.00     0.293 HD
ENDBRANCH  17  20
ENDBRANCH   1  12
BRANCH   2  22
ATOM     22  O   UNL     1      35.395  -4.799   4.987  1.00  0.00    -0.502 OA
ATOM     23  H   UNL     1      35.277  -5.521   5.687  1.00  0.00     0.293 HD
ENDBRANCH   2  22
BRANCH   6  24
ATOM     24  O   UNL     1      37.927  -1.382   1.775  1.00  0.00    -0.507 OA
ATOM     25  H   UNL     1      37.358  -2.124   1.395  1.00  0.00     0.293 HD
ENDBRANCH   6  24
BRANCH   8  26
ATOM     26  O   UNL     1      40.870   0.724   4.905  1.00  0.00    -0.508 OA
ATOM     27  H   UNL     1      40.898   1.619   4.430  1.00  0.00     0.293 HD
ENDBRANCH   8  26
TORSDOF 6
ENDMDL
MODEL 6
REMARK VINA RESULT:    -4.191     11.397     13.410
REMARK INTER + INTRA:          -5.379
REMARK INTER:                  -4.990
REMARK INTRA:                  -0.389
REMARK UNBOUND:                -0.330
REMARK SMILES O=c1c(O)c(-c2ccc(O)cc2O)oc2cc(O)cc(O)c12
REMARK SMILES IDX 5 1 3 2 2 3 1 4 22 5 20 6 19 7 17 8 16 9 15 10 14 11 6 12
REMARK SMILES IDX 8 13 7 14 9 15 11 16 12 17 10 18 13 20 4 22 21 24 18 26
REMARK H PARENT 10 19 13 21 4 23 21 25 18 27
REMARK Flexibility Score: inf
ROOT
ATOM      1  C   UNL     1      29.595   3.734  -0.149  1.00  0.00     0.184 A 
ATOM      2  C   UNL     1      29.696   4.218  -1.461  1.00  0.00     0.208 A 
ATOM      3  C   UNL     1      29.310   3.387  -2.524  1.00  0.00     0.238 A 
ATOM      4  O   UNL     1      29.352   3.846  -3.697  1.00  0.00    -0.285 OA
ATOM      5  C   UNL     1      28.844   2.076  -2.260  1.00  0.00     0.111 A 
ATOM      6  C   UNL     1      28.465   1.133  -3.263  1.00  0.00     0.134 A 
ATOM      7  C   UNL     1      27.897  -0.089  -2.881  1.00  0.00     0.093 A 
ATOM      8  C   UNL     1      27.754  -0.429  -1.537  1.00  0.00     0.123 A 
ATOM      9  C   UNL     1      28.176   0.461  -0.549  1.00  0.00     0.094 A 
ATOM     10  C   UNL     1      28.714   1.703  -0.896  1.00  0.00     0.146 A 
ATOM     11  O   UNL     1      29.093   2.525   0.075  1.00  0.00    -0.451 OA
ENDROOT
BRANCH   1  12
ATOM     12  C   UNL     1      30.000   4.551   1.015  1.00  0.00     0.063 A 
ATOM     13  C   UNL     1      29.356   5.983   2.872  1.00  0.00     0.047 A 
ATOM     14  C   UNL     1      29.009   5.207   1.763  1.00  0.00     0.020 A 
ATOM     15  C   UNL     1      30.698   6.102   3.253  1.00  0.00     0.119 A 
ATOM     16  C   UNL     1      31.689   5.434   2.528  1.00  0.00     0.093 A 
ATOM     17  C   UNL     1      31.347   4.648   1.418  1.00  0.00     0.130 A 
BRANCH  15  18
ATOM     18  O   UNL     1      31.057   6.877   4.356  1.00  0.00    -0.508 OA
ATOM     19  H   UNL     1      30.494   6.892   5.198  1.00  0.00     0.293 HD
ENDBRANCH  15  18
BRANCH  17  20
ATOM     20  O   UNL     1      32.340   3.947   0.733  1.00  0.00    -0.507 OA
ATOM     21  H   UNL     1      32.283   3.783  -0.266  1.00  0.00     0.293 HD
ENDBRANCH  17  20
ENDBRANCH   1  12
BRANCH   2  22
ATOM     22  O   UNL     1      30.141   5.523  -1.693  1.00  0.00    -0.502 OA
ATOM     23  H   UNL     1      29.590   6.336  -1.448  1.00  0.00     0.293 HD
ENDBRANCH   2  22
BRANCH   6  24
ATOM     24  O   UNL     1      28.650   1.335  -4.633  1.00  0.00    -0.507 OA
ATOM     25  H   UNL     1      27.937   1.663  -5.268  1.00  0.00     0.293 HD
ENDBRANCH   6  24
BRANCH   8  26
ATOM     26  O   UNL     1      27.199  -1.659  -1.194  1.00  0.00    -0.508 OA
ATOM     27  H   UNL     1      26.971  -1.890  -0.234  1.00  0.00     0.293 HD
ENDBRANCH   8  26
TORSDOF 6
ENDMDL
MODEL 7
REMARK VINA RESULT:    -4.169     11.547     12.553
REMARK INTER + INTRA:          -5.352
REMARK INTER:                  -5.050
REMARK INTRA:                  -0.302
REMARK UNBOUND:                -0.330
REMARK SMILES O=c1c(O)c(-c2ccc(O)cc2O)oc2cc(O)cc(O)c12
REMARK SMILES IDX 5 1 3 2 2 3 1 4 22 5 20 6 19 7 17 8 16 9 15 10 14 11 6 12
REMARK SMILES IDX 8 13 7 14 9 15 11 16 12 17 10 18 13 20 4 22 21 24 18 26
REMARK H PARENT 10 19 13 21 4 23 21 25 18 27
REMARK Flexibility Score: inf
ROOT
ATOM      1  C   UNL     1      29.542   3.384  -0.034  1.00  0.00     0.184 A 
ATOM      2  C   UNL     1      28.646   3.651   1.011  1.00  0.00     0.208 A 
ATOM      3  C   UNL     1      27.625   2.728   1.284  1.00  0.00     0.238 A 
ATOM      4  O   UNL     1      26.856   2.947   2.258  1.00  0.00    -0.285 OA
ATOM      5  C   UNL     1      27.505   1.558   0.497  1.00  0.00     0.111 A 
ATOM      6  C   UNL     1      26.484   0.573   0.658  1.00  0.00     0.134 A 
ATOM      7  C   UNL     1      26.539  -0.608  -0.093  1.00  0.00     0.093 A 
ATOM      8  C   UNL     1      27.538  -0.812  -1.044  1.00  0.00     0.123 A 
ATOM      9  C   UNL     1      28.507   0.170  -1.251  1.00  0.00     0.094 A 
ATOM     10  C   UNL     1      28.501   1.344  -0.493  1.00  0.00     0.146 A 
ATOM     11  O   UNL     1      29.448   2.248  -0.715  1.00  0.00    -0.451 OA
ENDROOT
BRANCH   1  12
ATOM     12  C   UNL     1      30.629   4.322  -0.385  1.00  0.00     0.063 A 
ATOM     13  C   UNL     1      31.561   5.929  -1.956  1.00  0.00     0.047 A 
ATOM     14  C   UNL     1      30.553   5.030  -1.595  1.00  0.00     0.020 A 
ATOM     15  C   UNL     1      32.651   6.140  -1.104  1.00  0.00     0.119 A 
ATOM     16  C   UNL     1      32.724   5.457   0.114  1.00  0.00     0.093 A 
ATOM     17  C   UNL     1      31.713   4.558   0.485  1.00  0.00     0.130 A 
BRANCH  15  18
ATOM     18  O   UNL     1      33.664   7.031  -1.454  1.00  0.00    -0.508 OA
ATOM     19  H   UNL     1      33.884   7.836  -0.878  1.00  0.00     0.293 HD
ENDBRANCH  15  18
BRANCH  17  20
ATOM     20  O   UNL     1      31.774   3.920   1.725  1.00  0.00    -0.507 OA
ATOM     21  H   UNL     1      31.348   3.014   1.878  1.00  0.00     0.293 HD
ENDBRANCH  17  20
ENDBRANCH   1  12
BRANCH   2  22
ATOM     22  O   UNL     1      28.799   4.805   1.786  1.00  0.00    -0.502 OA
ATOM     23  H   UNL     1      29.597   5.421   1.691  1.00  0.00     0.293 HD
ENDBRANCH   2  22
BRANCH   6  24
ATOM     24  O   UNL     1      25.389   0.718   1.514  1.00  0.00    -0.507 OA
ATOM     25  H   UNL     1      25.112   1.584   1.953  1.00  0.00     0.293 HD
ENDBRANCH   6  24
BRANCH   8  26
ATOM     26  O   UNL     1      27.552  -1.992  -1.783  1.00  0.00    -0.508 OA
ATOM     27  H   UNL     1      28.374  -2.585  -1.820  1.00  0.00     0.293 HD
ENDBRANCH   8  26
TORSDOF 6
ENDMDL
MODEL 8
REMARK VINA RESULT:    -4.151      3.503      6.518
REMARK INTER + INTRA:          -5.331
REMARK INTER:                  -4.929
REMARK INTRA:                  -0.402
REMARK UNBOUND:                -0.330
REMARK SMILES O=c1c(O)c(-c2ccc(O)cc2O)oc2cc(O)cc(O)c12
REMARK SMILES IDX 5 1 3 2 2 3 1 4 22 5 20 6 19 7 17 8 16 9 15 10 14 11 6 12
REMARK SMILES IDX 8 13 7 14 9 15 11 16 12 17 10 18 13 20 4 22 21 24 18 26
REMARK H PARENT 10 19 13 21 4 23 21 25 18 27
REMARK Flexibility Score: inf
ROOT
ATOM      1  C   UNL     1      35.238  -5.583   4.364  1.00  0.00     0.184 A 
ATOM      2  C   UNL     1      35.390  -5.200   5.705  1.00  0.00     0.208 A 
ATOM      3  C   UNL     1      36.109  -4.032   6.000  1.00  0.00     0.238 A 
ATOM      4  O   UNL     1      36.197  -3.664   7.202  1.00  0.00    -0.285 OA
ATOM      5  C   UNL     1      36.679  -3.271   4.951  1.00  0.00     0.111 A 
ATOM      6  C   UNL     1      37.462  -2.092   5.138  1.00  0.00     0.134 A 
ATOM      7  C   UNL     1      37.867  -1.349   4.021  1.00  0.00     0.093 A 
ATOM      8  C   UNL     1      37.575  -1.775   2.727  1.00  0.00     0.123 A 
ATOM      9  C   UNL     1      36.861  -2.958   2.532  1.00  0.00     0.094 A 
ATOM     10  C   UNL     1      36.412  -3.703   3.625  1.00  0.00     0.146 A 
ATOM     11  O   UNL     1      35.727  -4.817   3.396  1.00  0.00    -0.451 OA
ENDROOT
BRANCH   1  12
ATOM     12  C   UNL     1      34.508  -6.811   3.984  1.00  0.00     0.063 A 
ATOM     13  C   UNL     1      34.384  -9.240   3.989  1.00  0.00     0.047 A 
ATOM     14  C   UNL     1      35.051  -8.060   4.327  1.00  0.00     0.020 A 
ATOM     15  C   UNL     1      33.159  -9.186   3.314  1.00  0.00     0.119 A 
ATOM     16  C   UNL     1      32.600  -7.947   2.988  1.00  0.00     0.093 A 
ATOM     17  C   UNL     1      33.260  -6.758   3.330  1.00  0.00     0.130 A 
BRANCH  15  18
ATOM     18  O   UNL     1      32.487 -10.357   2.967  1.00  0.00    -0.508 OA
ATOM     19  H   UNL     1      32.537 -10.739   2.030  1.00  0.00     0.293 HD
ENDBRANCH  15  18
BRANCH  17  20
ATOM     20  O   UNL     1      32.666  -5.528   3.043  1.00  0.00    -0.507 OA
ATOM     21  H   UNL     1      32.658  -5.148   2.103  1.00  0.00     0.293 HD
ENDBRANCH  17  20
ENDBRANCH   1  12
BRANCH   2  22
ATOM     22  O   UNL     1      34.801  -5.959   6.720  1.00  0.00    -0.502 OA
ATOM     23  H   UNL     1      34.140  -5.565   7.379  1.00  0.00     0.293 HD
ENDBRANCH   2  22
BRANCH   6  24
ATOM     24  O   UNL     1      37.889  -1.628   6.385  1.00  0.00    -0.507 OA
ATOM     25  H   UNL     1      37.941  -0.655   6.650  1.00  0.00     0.293 HD
ENDBRANCH   6  24
BRANCH   8  26
ATOM     26  O   UNL     1      38.007  -1.020   1.640  1.00  0.00    -0.508 OA
ATOM     27  H   UNL     1      38.858  -1.249   1.139  1.00  0.00     0.293 HD
ENDBRANCH   8  26
TORSDOF 6
ENDMDL
