MODEL 1
REMARK VINA RESULT:    -4.600      0.000      0.000
REMARK INTER + INTRA:          -9.698
REMARK INTER:                  -8.365
REMARK INTRA:                  -1.333
REMARK UNBOUND:                -1.333
REMARK SMILES CCCCCCCCCCCCCC[C@@H](C)C(=O)[O-]
REMARK SMILES IDX 9 1 10 2 11 3 12 4 13 5 14 6 15 7 16 8 17 9 18 10 19 11 8 12
REMARK SMILES IDX 7 13 6 14 5 15 4 16 3 17 2 18 1 19
REMARK H PARENT
REMARK Flexibility Score: inf
ROOT
ATOM      1  C   UNL     1      21.744  23.188  19.233  1.00  0.00     0.000 C 
ENDROOT
BRANCH   1   2
ATOM      2  C   UNL     1      21.405  22.996  17.745  1.00  0.00     0.000 C 
BRANCH   2   3
ATOM      3  C   UNL     1      19.928  23.289  17.425  1.00  0.00     0.000 C 
BRANCH   3   4
ATOM      4  C   UNL     1      19.035  22.044  17.280  1.00  0.00     0.000 C 
BRANCH   4   5
ATOM      5  C   UNL     1      17.981  21.927  18.393  1.00  0.00     0.001 C 
BRANCH   5   6
ATOM      6  C   UNL     1      18.585  21.281  19.653  1.00  0.00     0.009 C 
BRANCH   6   7
ATOM      7  C   UNL     1      17.764  21.510  20.941  1.00  0.00     0.032 C 
ATOM      8  C   UNL     1      17.610  20.235  21.785  1.00  0.00     0.014 C 
BRANCH   7   9
ATOM      9  C   UNL     1      18.306  22.659  21.751  1.00  0.00     0.044 C 
ATOM     10  O   UNL     1      19.020  23.549  21.216  1.00  0.00    -0.550 OA
ATOM     11  O   UNL     1      17.972  22.769  23.095  1.00  0.00    -0.550 OA
ENDBRANCH   7   9
ENDBRANCH   6   7
ENDBRANCH   5   6
ENDBRANCH   4   5
ENDBRANCH   3   4
ENDBRANCH   2   3
ENDBRANCH   1   2
BRANCH   1  12
ATOM     12  C   UNL     1      22.588  22.035  19.799  1.00  0.00     0.000 C 
BRANCH  12  13
ATOM     13  C   UNL     1      21.918  21.351  20.999  1.00  0.00    -0.000 C 
BRANCH  13  14
ATOM     14  C   UNL     1      22.851  20.314  21.635  1.00  0.00    -0.000 C 
BRANCH  14  15
ATOM     15  C   UNL     1      22.239  18.908  21.568  1.00  0.00    -0.000 C 
BRANCH  15  16
ATOM     16  C   UNL     1      23.150  17.893  20.855  1.00  0.00    -0.000 C 
BRANCH  16  17
ATOM     17  C   UNL     1      24.645  17.982  21.228  1.00  0.00    -0.000 C 
BRANCH  17  18
ATOM     18  C   UNL     1      25.588  18.313  20.056  1.00  0.00    -0.003 C 
ATOM     19  C   UNL     1      27.024  17.848  20.296  1.00  0.00     0.004 C 
ENDBRANCH  17  18
ENDBRANCH  16  17
ENDBRANCH  15  16
ENDBRANCH  14  15
ENDBRANCH  13  14
ENDBRANCH  12  13
ENDBRANCH   1  12
TORSDOF 14
ENDMDL
MODEL 2
REMARK VINA RESULT:    -4.591      1.789      2.280
REMARK INTER + INTRA:          -9.682
REMARK INTER:                  -8.106
REMARK INTRA:                  -1.576
REMARK UNBOUND:                -1.333
REMARK SMILES CCCCCCCCCCCCCC[C@@H](C)C(=O)[O-]
REMARK SMILES IDX 9 1 10 2 11 3 12 4 13 5 14 6 15 7 16 8 17 9 18 10 19 11 8 12
REMARK SMILES IDX 7 13 6 14 5 15 4 16 3 17 2 18 1 19
REMARK H PARENT
REMARK Flexibility Score: inf
ROOT
ATOM      1  C   UNL     1      21.644  22.554  18.746  1.00  0.00     0.000 C 
ENDROOT
BRANCH   1   2
ATOM      2  C   UNL     1      21.346  24.030  18.434  1.00  0.00     0.000 C 
BRANCH   2   3
ATOM      3  C   UNL     1      19.981  24.492  18.976  1.00  0.00     0.000 C 
BRANCH   3   4
ATOM      4  C   UNL     1      19.990  24.969  20.440  1.00  0.00     0.000 C 
BRANCH   4   5
ATOM      5  C   UNL     1      19.369  23.950  21.407  1.00  0.00     0.001 C 
BRANCH   5   6
ATOM      6  C   UNL     1      18.536  22.906  20.642  1.00  0.00     0.009 C 
BRANCH   6   7
ATOM      7  C   UNL     1      18.258  21.609  21.434  1.00  0.00     0.032 C 
ATOM      8  C   UNL     1      16.921  21.646  22.191  1.00  0.00     0.014 C 
BRANCH   7   9
ATOM      9  C   UNL     1      18.375  20.387  20.561  1.00  0.00     0.044 C 
ATOM     10  O   UNL     1      18.869  19.315  21.008  1.00  0.00    -0.550 OA
ATOM     11  O   UNL     1      17.886  20.421  19.262  1.00  0.00    -0.550 OA
ENDBRANCH   7   9
ENDBRANCH   6   7
ENDBRANCH   5   6
ENDBRANCH   4   5
ENDBRANCH   3   4
ENDBRANCH   2   3
ENDBRANCH   1   2
BRANCH   1  12
ATOM     12  C   UNL     1      22.506  22.380  20.007  1.00  0.00     0.000 C 
BRANCH  12  13
ATOM     13  C   UNL     1      21.919  21.349  20.983  1.00  0.00    -0.000 C 
BRANCH  13  14
ATOM     14  C   UNL     1      22.970  20.307  21.383  1.00  0.00    -0.000 C 
BRANCH  14  15
ATOM     15  C   UNL     1      22.367  18.895  21.395  1.00  0.00    -0.000 C 
BRANCH  15  16
ATOM     16  C   UNL     1      23.423  17.792  21.204  1.00  0.00    -0.000 C 
BRANCH  16  17
ATOM     17  C   UNL     1      24.885  18.250  21.384  1.00  0.00    -0.000 C 
BRANCH  17  18
ATOM     18  C   UNL     1      25.824  17.897  20.216  1.00  0.00    -0.003 C 
ATOM     19  C   UNL     1      25.089  17.290  19.022  1.00  0.00     0.004 C 
ENDBRANCH  17  18
ENDBRANCH  16  17
ENDBRANCH  15  16
ENDBRANCH  14  15
ENDBRANCH  13  14
ENDBRANCH  12  13
ENDBRANCH   1  12
TORSDOF 14
ENDMDL
MODEL 3
REMARK VINA RESULT:    -4.570      3.238      6.888
REMARK INTER + INTRA:          -9.642
REMARK INTER:                  -7.838
REMARK INTRA:                  -1.804
REMARK UNBOUND:                -1.333
REMARK SMILES CCCCCCCCCCCCCC[C@@H](C)C(=O)[O-]
REMARK SMILES IDX 9 1 10 2 11 3 12 4 13 5 14 6 15 7 16 8 17 9 18 10 19 11 8 12
REMARK SMILES IDX 7 13 6 14 5 15 4 16 3 17 2 18 1 19
REMARK H PARENT
REMARK Flexibility Score: inf
ROOT
ATOM      1  C   UNL     1      20.272  23.361  21.574  1.00  0.00     0.000 C 
ENDROOT
BRANCH   1   2
ATOM      2  C   UNL     1      21.674  22.778  21.324  1.00  0.00     0.000 C 
BRANCH   2   3
ATOM      3  C   UNL     1      21.636  21.322  20.827  1.00  0.00     0.000 C 
BRANCH   3   4
ATOM      4  C   UNL     1      22.881  20.485  21.171  1.00  0.00     0.000 C 
BRANCH   4   5
ATOM      5  C   UNL     1      22.542  19.036  21.557  1.00  0.00     0.001 C 
BRANCH   5   6
ATOM      6  C   UNL     1      23.802  18.153  21.530  1.00  0.00     0.009 C 
BRANCH   6   7
ATOM      7  C   UNL     1      24.481  18.055  20.146  1.00  0.00     0.032 C 
ATOM      8  C   UNL     1      25.998  18.295  20.207  1.00  0.00     0.014 C 
BRANCH   7   9
ATOM      9  C   UNL     1      24.145  16.762  19.451  1.00  0.00     0.044 C 
ATOM     10  O   UNL     1      22.950  16.369  19.353  1.00  0.00    -0.550 OA
ATOM     11  O   UNL     1      25.157  16.014  18.862  1.00  0.00    -0.550 OA
ENDBRANCH   7   9
ENDBRANCH   6   7
ENDBRANCH   5   6
ENDBRANCH   4   5
ENDBRANCH   3   4
ENDBRANCH   2   3
ENDBRANCH   1   2
BRANCH   1  12
ATOM     12  C   UNL     1      20.017  24.646  20.769  1.00  0.00     0.000 C 
BRANCH  12  13
ATOM     13  C   UNL     1      20.764  24.657  19.427  1.00  0.00    -0.000 C 
BRANCH  13  14
ATOM     14  C   UNL     1      19.830  24.273  18.273  1.00  0.00    -0.000 C 
BRANCH  14  15
ATOM     15  C   UNL     1      20.280  22.961  17.615  1.00  0.00    -0.000 C 
BRANCH  15  16
ATOM     16  C   UNL     1      19.113  21.992  17.355  1.00  0.00    -0.000 C 
BRANCH  16  17
ATOM     17  C   UNL     1      17.961  22.067  18.378  1.00  0.00    -0.000 C 
BRANCH  17  18
ATOM     18  C   UNL     1      18.154  21.202  19.637  1.00  0.00    -0.003 C 
ATOM     19  C   UNL     1      18.534  19.757  19.316  1.00  0.00     0.004 C 
ENDBRANCH  17  18
ENDBRANCH  16  17
ENDBRANCH  15  16
ENDBRANCH  14  15
ENDBRANCH  13  14
ENDBRANCH  12  13
ENDBRANCH   1  12
TORSDOF 14
ENDMDL
MODEL 4
REMARK VINA RESULT:    -4.453      3.174      5.030
REMARK INTER + INTRA:          -9.430
REMARK INTER:                  -6.811
REMARK INTRA:                  -2.619
REMARK UNBOUND:                -1.333
REMARK SMILES CCCCCCCCCCCCCC[C@@H](C)C(=O)[O-]
REMARK SMILES IDX 9 1 10 2 11 3 12 4 13 5 14 6 15 7 16 8 17 9 18 10 19 11 8 12
REMARK SMILES IDX 7 13 6 14 5 15 4 16 3 17 2 18 1 19
REMARK H PARENT
REMARK Flexibility Score: inf
ROOT
ATOM      1  C   UNL     1      19.985  23.669  17.192  1.00  0.00     0.000 C 
ENDROOT
BRANCH   1   2
ATOM      2  C   UNL     1      18.839  23.159  18.081  1.00  0.00     0.000 C 
BRANCH   2   3
ATOM      3  C   UNL     1      18.724  21.624  18.088  1.00  0.00     0.000 C 
BRANCH   3   4
ATOM      4  C   UNL     1      17.324  21.078  18.419  1.00  0.00     0.000 C 
BRANCH   4   5
ATOM      5  C   UNL     1      17.358  19.884  19.386  1.00  0.00     0.001 C 
BRANCH   5   6
ATOM      6  C   UNL     1      18.787  19.328  19.519  1.00  0.00     0.009 C 
BRANCH   6   7
ATOM      7  C   UNL     1      19.209  18.998  20.969  1.00  0.00     0.032 C 
ATOM      8  C   UNL     1      18.020  18.611  21.862  1.00  0.00     0.014 C 
BRANCH   7   9
ATOM      9  C   UNL     1      20.302  17.962  21.009  1.00  0.00     0.044 C 
ATOM     10  O   UNL     1      20.152  16.838  20.458  1.00  0.00    -0.550 OA
ATOM     11  O   UNL     1      21.514  18.267  21.615  1.00  0.00    -0.550 OA
ENDBRANCH   7   9
ENDBRANCH   6   7
ENDBRANCH   5   6
ENDBRANCH   4   5
ENDBRANCH   3   4
ENDBRANCH   2   3
ENDBRANCH   1   2
BRANCH   1  12
ATOM     12  C   UNL     1      21.348  23.082  17.593  1.00  0.00     0.000 C 
BRANCH  12  13
ATOM     13  C   UNL     1      21.756  23.467  19.023  1.00  0.00    -0.000 C 
BRANCH  13  14
ATOM     14  C   UNL     1      22.028  22.221  19.873  1.00  0.00    -0.000 C 
BRANCH  14  15
ATOM     15  C   UNL     1      21.146  22.209  21.130  1.00  0.00    -0.000 C 
BRANCH  15  16
ATOM     16  C   UNL     1      20.669  23.614  21.539  1.00  0.00    -0.000 C 
BRANCH  16  17
ATOM     17  C   UNL     1      19.153  23.741  21.795  1.00  0.00    -0.000 C 
BRANCH  17  18
ATOM     18  C   UNL     1      18.378  22.411  21.776  1.00  0.00    -0.003 C 
ATOM     19  C   UNL     1      17.493  22.218  23.007  1.00  0.00     0.004 C 
ENDBRANCH  17  18
ENDBRANCH  16  17
ENDBRANCH  15  16
ENDBRANCH  14  15
ENDBRANCH  13  14
ENDBRANCH  12  13
ENDBRANCH   1  12
TORSDOF 14
ENDMDL
MODEL 5
REMARK VINA RESULT:    -4.441      3.135      6.078
REMARK INTER + INTRA:          -9.408
REMARK INTER:                  -7.337
REMARK INTRA:                  -2.071
REMARK UNBOUND:                -1.333
REMARK SMILES CCCCCCCCCCCCCC[C@@H](C)C(=O)[O-]
REMARK SMILES IDX 9 1 10 2 11 3 12 4 13 5 14 6 15 7 16 8 17 9 18 10 19 11 8 12
REMARK SMILES IDX 7 13 6 14 5 15 4 16 3 17 2 18 1 19
REMARK H PARENT
REMARK Flexibility Score: inf
ROOT
ATOM      1  C   UNL     1      20.844  24.185  19.208  1.00  0.00     0.000 C 
ENDROOT
BRANCH   1   2
ATOM      2  C   UNL     1      21.381  22.797  18.817  1.00  0.00     0.000 C 
BRANCH   2   3
ATOM      3  C   UNL     1      22.560  22.343  19.697  1.00  0.00     0.000 C 
BRANCH   3   4
ATOM      4  C   UNL     1      22.235  22.198  21.195  1.00  0.00     0.000 C 
BRANCH   4   5
ATOM      5  C   UNL     1      22.523  20.789  21.738  1.00  0.00     0.001 C 
BRANCH   5   6
ATOM      6  C   UNL     1      23.351  19.972  20.729  1.00  0.00     0.009 C 
BRANCH   6   7
ATOM      7  C   UNL     1      23.595  18.505  21.148  1.00  0.00     0.032 C 
ATOM      8  C   UNL     1      22.299  17.684  21.229  1.00  0.00     0.014 C 
BRANCH   7   9
ATOM      9  C   UNL     1      24.628  17.842  20.275  1.00  0.00     0.044 C 
ATOM     10  O   UNL     1      24.409  16.714  19.754  1.00  0.00    -0.550 OA
ATOM     11  O   UNL     1      25.818  18.502  19.995  1.00  0.00    -0.550 OA
ENDBRANCH   7   9
ENDBRANCH   6   7
ENDBRANCH   5   6
ENDBRANCH   4   5
ENDBRANCH   3   4
ENDBRANCH   2   3
ENDBRANCH   1   2
BRANCH   1  12
ATOM     12  C   UNL     1      19.470  24.113  19.893  1.00  0.00     0.000 C 
BRANCH  12  13
ATOM     13  C   UNL     1      19.573  24.182  21.425  1.00  0.00    -0.000 C 
BRANCH  13  14
ATOM     14  C   UNL     1      18.737  23.079  22.084  1.00  0.00    -0.000 C 
BRANCH  14  15
ATOM     15  C   UNL     1      18.025  22.222  21.027  1.00  0.00    -0.000 C 
BRANCH  15  16
ATOM     16  C   UNL     1      18.368  20.727  21.139  1.00  0.00    -0.000 C 
BRANCH  16  17
ATOM     17  C   UNL     1      19.195  20.157  19.968  1.00  0.00    -0.000 C 
BRANCH  17  18
ATOM     18  C   UNL     1      18.392  19.869  18.686  1.00  0.00    -0.003 C 
ATOM     19  C   UNL     1      18.327  21.068  17.741  1.00  0.00     0.004 C 
ENDBRANCH  17  18
ENDBRANCH  16  17
ENDBRANCH  15  16
ENDBRANCH  14  15
ENDBRANCH  13  14
ENDBRANCH  12  13
ENDBRANCH   1  12
TORSDOF 14
ENDMDL
MODEL 6
REMARK VINA RESULT:    -4.435      1.283      2.701
REMARK INTER + INTRA:          -9.398
REMARK INTER:                  -7.347
REMARK INTRA:                  -2.052
REMARK UNBOUND:                -1.333
REMARK SMILES CCCCCCCCCCCCCC[C@@H](C)C(=O)[O-]
REMARK SMILES IDX 9 1 10 2 11 3 12 4 13 5 14 6 15 7 16 8 17 9 18 10 19 11 8 12
REMARK SMILES IDX 7 13 6 14 5 15 4 16 3 17 2 18 1 19
REMARK H PARENT
REMARK Flexibility Score: inf
ROOT
ATOM      1  C   UNL     1      22.017  22.066  21.168  1.00  0.00     0.000 C 
ENDROOT
BRANCH   1   2
ATOM      2  C   UNL     1      22.455  22.684  19.829  1.00  0.00     0.000 C 
BRANCH   2   3
ATOM      3  C   UNL     1      21.302  23.389  19.091  1.00  0.00     0.000 C 
BRANCH   3   4
ATOM      4  C   UNL     1      20.634  22.556  17.982  1.00  0.00     0.000 C 
BRANCH   4   5
ATOM      5  C   UNL     1      19.162  22.228  18.282  1.00  0.00     0.001 C 
BRANCH   5   6
ATOM      6  C   UNL     1      18.676  22.984  19.532  1.00  0.00     0.009 C 
BRANCH   6   7
ATOM      7  C   UNL     1      18.019  22.086  20.603  1.00  0.00     0.032 C 
ATOM      8  C   UNL     1      18.429  20.610  20.477  1.00  0.00     0.014 C 
BRANCH   7   9
ATOM      9  C   UNL     1      18.250  22.616  21.993  1.00  0.00     0.044 C 
ATOM     10  O   UNL     1      17.645  22.124  22.984  1.00  0.00    -0.550 OA
ATOM     11  O   UNL     1      19.181  23.627  22.197  1.00  0.00    -0.550 OA
ENDBRANCH   7   9
ENDBRANCH   6   7
ENDBRANCH   5   6
ENDBRANCH   4   5
ENDBRANCH   3   4
ENDBRANCH   2   3
ENDBRANCH   1   2
BRANCH   1  12
ATOM     12  C   UNL     1      21.880  20.537  21.095  1.00  0.00     0.000 C 
BRANCH  12  13
ATOM     13  C   UNL     1      23.049  19.809  21.777  1.00  0.00    -0.000 C 
BRANCH  13  14
ATOM     14  C   UNL     1      23.943  19.114  20.745  1.00  0.00    -0.000 C 
BRANCH  14  15
ATOM     15  C   UNL     1      24.157  17.637  21.108  1.00  0.00    -0.000 C 
BRANCH  15  16
ATOM     16  C   UNL     1      23.455  16.674  20.134  1.00  0.00    -0.000 C 
BRANCH  16  17
ATOM     17  C   UNL     1      21.930  16.547  20.326  1.00  0.00    -0.000 C 
BRANCH  17  18
ATOM     18  C   UNL     1      21.476  16.313  21.779  1.00  0.00    -0.003 C 
ATOM     19  C   UNL     1      20.343  17.245  22.207  1.00  0.00     0.004 C 
ENDBRANCH  17  18
ENDBRANCH  16  17
ENDBRANCH  15  16
ENDBRANCH  14  15
ENDBRANCH  13  14
ENDBRANCH  12  13
ENDBRANCH   1  12
TORSDOF 14
ENDMDL
MODEL 7
REMARK VINA RESULT:    -4.398      3.254      6.612
REMARK INTER + INTRA:          -9.331
REMARK INTER:                  -7.351
REMARK INTRA:                  -1.981
REMARK UNBOUND:                -1.333
REMARK SMILES CCCCCCCCCCCCCC[C@@H](C)C(=O)[O-]
REMARK SMILES IDX 9 1 10 2 11 3 12 4 13 5 14 6 15 7 16 8 17 9 18 10 19 11 8 12
REMARK SMILES IDX 7 13 6 14 5 15 4 16 3 17 2 18 1 19
REMARK H PARENT
REMARK Flexibility Score: inf
ROOT
ATOM      1  C   UNL     1      19.879  23.658  21.776  1.00  0.00     0.000 C 
ENDROOT
BRANCH   1   2
ATOM      2  C   UNL     1      21.261  23.149  21.330  1.00  0.00     0.000 C 
BRANCH   2   3
ATOM      3  C   UNL     1      21.293  21.627  21.106  1.00  0.00     0.000 C 
BRANCH   3   4
ATOM      4  C   UNL     1      22.699  21.025  20.934  1.00  0.00     0.000 C 
BRANCH   4   5
ATOM      5  C   UNL     1      22.855  19.659  21.621  1.00  0.00     0.001 C 
BRANCH   5   6
ATOM      6  C   UNL     1      23.972  18.835  20.954  1.00  0.00     0.009 C 
BRANCH   6   7
ATOM      7  C   UNL     1      23.685  17.318  20.878  1.00  0.00     0.032 C 
ATOM      8  C   UNL     1      22.242  16.964  21.272  1.00  0.00     0.014 C 
BRANCH   7   9
ATOM      9  C   UNL     1      24.057  16.748  19.535  1.00  0.00     0.044 C 
ATOM     10  O   UNL     1      23.188  16.215  18.793  1.00  0.00    -0.550 OA
ATOM     11  O   UNL     1      25.366  16.854  19.083  1.00  0.00    -0.550 OA
ENDBRANCH   7   9
ENDBRANCH   6   7
ENDBRANCH   5   6
ENDBRANCH   4   5
ENDBRANCH   3   4
ENDBRANCH   2   3
ENDBRANCH   1   2
BRANCH   1  12
ATOM     12  C   UNL     1      18.778  22.601  21.603  1.00  0.00     0.000 C 
BRANCH  12  13
ATOM     13  C   UNL     1      18.071  22.705  20.243  1.00  0.00    -0.000 C 
BRANCH  13  14
ATOM     14  C   UNL     1      17.856  21.318  19.625  1.00  0.00    -0.000 C 
BRANCH  14  15
ATOM     15  C   UNL     1      18.731  21.130  18.377  1.00  0.00    -0.000 C 
BRANCH  15  16
ATOM     16  C   UNL     1      19.213  22.463  17.779  1.00  0.00    -0.000 C 
BRANCH  16  17
ATOM     17  C   UNL     1      20.740  22.584  17.598  1.00  0.00    -0.000 C 
BRANCH  17  18
ATOM     18  C   UNL     1      21.296  24.015  17.717  1.00  0.00    -0.003 C 
ATOM     19  C   UNL     1      20.296  24.995  18.329  1.00  0.00     0.004 C 
ENDBRANCH  17  18
ENDBRANCH  16  17
ENDBRANCH  15  16
ENDBRANCH  14  15
ENDBRANCH  13  14
ENDBRANCH  12  13
ENDBRANCH   1  12
TORSDOF 14
ENDMDL
MODEL 8
REMARK VINA RESULT:    -4.335      2.964      5.137
REMARK INTER + INTRA:          -9.217
REMARK INTER:                  -6.797
REMARK INTRA:                  -2.419
REMARK UNBOUND:                -1.333
REMARK SMILES CCCCCCCCCCCCCC[C@@H](C)C(=O)[O-]
REMARK SMILES IDX 9 1 10 2 11 3 12 4 13 5 14 6 15 7 16 8 17 9 18 10 19 11 8 12
REMARK SMILES IDX 7 13 6 14 5 15 4 16 3 17 2 18 1 19
REMARK H PARENT
REMARK Flexibility Score: inf
ROOT
ATOM      1  C   UNL     1      19.457  22.588  17.243  1.00  0.00     0.000 C 
ENDROOT
BRANCH   1   2
ATOM      2  C   UNL     1      18.426  21.573  17.764  1.00  0.00     0.000 C 
BRANCH   2   3
ATOM      3  C   UNL     1      18.964  20.716  18.924  1.00  0.00     0.000 C 
BRANCH   3   4
ATOM      4  C   UNL     1      17.986  20.523  20.097  1.00  0.00     0.000 C 
BRANCH   4   5
ATOM      5  C   UNL     1      18.430  19.421  21.073  1.00  0.00     0.001 C 
BRANCH   5   6
ATOM      6  C   UNL     1      19.834  18.903  20.712  1.00  0.00     0.009 C 
BRANCH   6   7
ATOM      7  C   UNL     1      20.381  17.825  21.674  1.00  0.00     0.032 C 
ATOM      8  C   UNL     1      19.430  16.629  21.832  1.00  0.00     0.014 C 
BRANCH   7   9
ATOM      9  C   UNL     1      21.771  17.391  21.292  1.00  0.00     0.044 C 
ATOM     10  O   UNL     1      22.000  16.213  20.904  1.00  0.00    -0.550 OA
ATOM     11  O   UNL     1      22.810  18.313  21.316  1.00  0.00    -0.550 OA
ENDBRANCH   7   9
ENDBRANCH   6   7
ENDBRANCH   5   6
ENDBRANCH   4   5
ENDBRANCH   3   4
ENDBRANCH   2   3
ENDBRANCH   1   2
BRANCH   1  12
ATOM     12  C   UNL     1      19.199  24.011  17.763  1.00  0.00     0.000 C 
BRANCH  12  13
ATOM     13  C   UNL     1      20.472  24.680  18.302  1.00  0.00    -0.000 C 
BRANCH  13  14
ATOM     14  C   UNL     1      20.336  25.003  19.795  1.00  0.00    -0.000 C 
BRANCH  14  15
ATOM     15  C   UNL     1      19.273  24.113  20.455  1.00  0.00    -0.000 C 
BRANCH  15  16
ATOM     16  C   UNL     1      19.826  23.298  21.637  1.00  0.00    -0.000 C 
BRANCH  16  17
ATOM     17  C   UNL     1      21.358  23.122  21.650  1.00  0.00    -0.000 C 
BRANCH  17  18
ATOM     18  C   UNL     1      21.867  21.811  21.022  1.00  0.00    -0.003 C 
ATOM     19  C   UNL     1      22.617  22.030  19.709  1.00  0.00     0.004 C 
ENDBRANCH  17  18
ENDBRANCH  16  17
ENDBRANCH  15  16
ENDBRANCH  14  15
ENDBRANCH  13  14
ENDBRANCH  12  13
ENDBRANCH   1  12
TORSDOF 14
ENDMDL
MODEL 9
REMARK VINA RESULT:    -4.318      3.268      5.137
REMARK INTER + INTRA:          -9.186
REMARK INTER:                  -6.584
REMARK INTRA:                  -2.602
REMARK UNBOUND:                -1.333
REMARK SMILES CCCCCCCCCCCCCC[C@@H](C)C(=O)[O-]
REMARK SMILES IDX 9 1 10 2 11 3 12 4 13 5 14 6 15 7 16 8 17 9 18 10 19 11 8 12
REMARK SMILES IDX 7 13 6 14 5 15 4 16 3 17 2 18 1 19
REMARK H PARENT
REMARK Flexibility Score: inf
ROOT
ATOM      1  C   UNL     1      18.641  22.356  17.770  1.00  0.00     0.000 C 
ENDROOT
BRANCH   1   2
ATOM      2  C   UNL     1      18.573  20.954  18.401  1.00  0.00     0.000 C 
BRANCH   2   3
ATOM      3  C   UNL     1      17.292  20.732  19.225  1.00  0.00     0.000 C 
BRANCH   3   4
ATOM      4  C   UNL     1      17.308  21.357  20.632  1.00  0.00     0.000 C 
BRANCH   4   5
ATOM      5  C   UNL     1      17.733  20.364  21.726  1.00  0.00     0.001 C 
BRANCH   5   6
ATOM      6  C   UNL     1      17.361  18.923  21.331  1.00  0.00     0.009 C 
BRANCH   6   7
ATOM      7  C   UNL     1      18.517  17.907  21.473  1.00  0.00     0.032 C 
ATOM      8  C   UNL     1      19.866  18.468  21.000  1.00  0.00     0.014 C 
BRANCH   7   9
ATOM      9  C   UNL     1      18.598  17.349  22.870  1.00  0.00     0.044 C 
ATOM     10  O   UNL     1      17.561  16.973  23.481  1.00  0.00    -0.550 OA
ATOM     11  O   UNL     1      19.838  17.195  23.477  1.00  0.00    -0.550 OA
ENDBRANCH   7   9
ENDBRANCH   6   7
ENDBRANCH   5   6
ENDBRANCH   4   5
ENDBRANCH   3   4
ENDBRANCH   2   3
ENDBRANCH   1   2
BRANCH   1  12
ATOM     12  C   UNL     1      20.031  22.678  17.200  1.00  0.00     0.000 C 
BRANCH  12  13
ATOM     13  C   UNL     1      20.501  24.096  17.560  1.00  0.00    -0.000 C 
BRANCH  13  14
ATOM     14  C   UNL     1      19.519  24.774  18.522  1.00  0.00    -0.000 C 
BRANCH  14  15
ATOM     15  C   UNL     1      20.181  25.050  19.880  1.00  0.00    -0.000 C 
BRANCH  15  16
ATOM     16  C   UNL     1      19.722  24.074  20.978  1.00  0.00    -0.000 C 
BRANCH  16  17
ATOM     17  C   UNL     1      20.838  23.192  21.575  1.00  0.00    -0.000 C 
BRANCH  17  18
ATOM     18  C   UNL     1      21.225  21.970  20.722  1.00  0.00    -0.003 C 
ATOM     19  C   UNL     1      22.535  22.166  19.959  1.00  0.00     0.004 C 
ENDBRANCH  17  18
ENDBRANCH  16  17
ENDBRANCH  15  16
ENDBRANCH  14  15
ENDBRANCH  13  14
ENDBRANCH  12  13
ENDBRANCH   1  12
TORSDOF 14
ENDMDL
