MODEL 1
REMARK VINA RESULT:    -6.513      0.000      0.000
REMARK INTER + INTRA:         -13.474
REMARK INTER:                 -11.272
REMARK INTRA:                  -2.202
REMARK UNBOUND:                -2.202
REMARK SMILES OC[C@@H]1O[C@@H](O[C@@H]2[C@@H](O)[C@@H](O)[C@@H](O[C@H]3[C@H](O)[C@H](O)[C@@H](O)O[C@@H]3CO)O[C@@H]2CO)[C@H](O)[C@@H](O)[C@@H]1O
REMARK SMILES IDX 7 1 26 2 25 3 12 4 10 5 8 6 6 7 5 8 3 9 33 10 4 11 31 12
REMARK SMILES IDX 29 13 2 14 1 15 34 17 32 19 30 21 27 23 28 24 9 26 11 28
REMARK SMILES IDX 13 30 14 31 22 32 15 33 21 34 17 35 19 36 23 37 24 38 16 40
REMARK SMILES IDX 18 42 20 44
REMARK H PARENT 1 16 34 18 32 20 30 22 28 25 9 27 11 29 24 39 16 41 18 43
REMARK H PARENT 20 45
REMARK Flexibility Score: inf
ROOT
ATOM      1  C   UNL     1      35.725   4.775  42.386  1.00  0.00     0.184 C 
ATOM      2  C   UNL     1      36.788   5.052  43.590  1.00  0.00     0.178 C 
ATOM      3  O   UNL     1      37.241   3.808  44.112  1.00  0.00    -0.341 OA
ATOM      4  C   UNL     1      37.617   2.873  43.076  1.00  0.00     0.282 C 
ATOM      5  C   UNL     1      37.549   3.297  41.522  1.00  0.00     0.202 C 
ATOM      6  C   UNL     1      36.639   4.558  41.171  1.00  0.00     0.180 C 
ENDROOT
BRANCH   1   7
ATOM      7  O   UNL     1      35.043   3.508  42.577  1.00  0.00    -0.341 OA
BRANCH   7   8
ATOM      8  C   UNL     1      33.643   3.660  42.705  1.00  0.00     0.282 C 
ATOM      9  C   UNL     1      32.867   1.466  43.034  1.00  0.00     0.178 C 
ATOM     10  C   UNL     1      31.625   1.668  42.112  1.00  0.00     0.177 C 
ATOM     11  O   UNL     1      33.190   2.686  43.626  1.00  0.00    -0.341 OA
ATOM     12  C   UNL     1      32.156   2.422  40.870  1.00  0.00     0.179 C 
ATOM     13  C   UNL     1      33.009   3.706  41.235  1.00  0.00     0.202 C 
BRANCH   9  14
ATOM     14  C   UNL     1      32.554   0.429  44.136  1.00  0.00     0.191 C 
BRANCH  14  15
ATOM     15  O   UNL     1      31.878   1.076  45.202  1.00  0.00    -0.394 OA
ATOM     16  H   UNL     1      31.492   0.316  45.754  1.00  0.00     0.210 HD
ENDBRANCH  14  15
ENDBRANCH   9  14
BRANCH  10  17
ATOM     17  O   UNL     1      30.747   2.494  42.854  1.00  0.00    -0.387 OA
ATOM     18  H   UNL     1      30.984   3.457  42.722  1.00  0.00     0.211 HD
ENDBRANCH  10  17
BRANCH  12  19
ATOM     19  O   UNL     1      32.851   1.590  39.982  1.00  0.00    -0.387 OA
ATOM     20  H   UNL     1      33.837   1.783  40.025  1.00  0.00     0.211 HD
ENDBRANCH  12  19
BRANCH  13  21
ATOM     21  O   UNL     1      32.046   4.771  41.224  1.00  0.00    -0.385 OA
ATOM     22  H   UNL     1      32.465   5.601  40.844  1.00  0.00     0.211 HD
ENDBRANCH  13  21
ENDBRANCH   7   8
ENDBRANCH   1   7
BRANCH   2  23
ATOM     23  C   UNL     1      36.421   6.030  44.800  1.00  0.00     0.191 C 
BRANCH  23  24
ATOM     24  O   UNL     1      35.427   5.424  45.635  1.00  0.00    -0.394 OA
ATOM     25  H   UNL     1      34.508   5.768  45.358  1.00  0.00     0.210 HD
ENDBRANCH  23  24
ENDBRANCH   2  23
BRANCH   6  26
ATOM     26  O   UNL     1      37.414   5.691  40.720  1.00  0.00    -0.387 OA
ATOM     27  H   UNL     1      36.891   6.452  40.386  1.00  0.00     0.211 HD
ENDBRANCH   6  26
BRANCH   5  28
ATOM     28  O   UNL     1      38.803   3.370  40.919  1.00  0.00    -0.385 OA
ATOM     29  H   UNL     1      38.750   4.161  40.339  1.00  0.00     0.211 HD
ENDBRANCH   5  28
BRANCH   4  30
ATOM     30  O   UNL     1      38.874   2.259  43.395  1.00  0.00    -0.341 OA
BRANCH  30  31
ATOM     31  C   UNL     1      38.733   0.900  43.845  1.00  0.00     0.184 C 
ATOM     32  C   UNL     1      38.012   0.081  42.750  1.00  0.00     0.178 C 
ATOM     33  C   UNL     1      37.915   0.895  45.135  1.00  0.00     0.180 C 
ATOM     34  O   UNL     1      37.761  -1.257  43.184  1.00  0.00    -0.342 OA
ATOM     35  C   UNL     1      37.611  -0.562  45.527  1.00  0.00     0.201 C 
ATOM     36  C   UNL     1      36.967  -1.309  44.348  1.00  0.00     0.279 C 
BRANCH  32  37
ATOM     37  C   UNL     1      38.825   0.018  41.452  1.00  0.00     0.191 C 
BRANCH  37  38
ATOM     38  O   UNL     1      40.106   0.571  41.686  1.00  0.00    -0.394 OA
ATOM     39  H   UNL     1      40.010   1.565  41.675  1.00  0.00     0.210 HD
ENDBRANCH  37  38
ENDBRANCH  32  37
BRANCH  33  40
ATOM     40  O   UNL     1      38.534   1.661  46.144  1.00  0.00    -0.387 OA
ATOM     41  H   UNL     1      39.292   2.184  45.759  1.00  0.00     0.211 HD
ENDBRANCH  33  40
BRANCH  35  42
ATOM     42  O   UNL     1      38.807  -1.217  45.899  1.00  0.00    -0.385 OA
ATOM     43  H   UNL     1      39.046  -0.887  46.795  1.00  0.00     0.211 HD
ENDBRANCH  35  42
BRANCH  36  44
ATOM     44  O   UNL     1      35.688  -0.771  44.119  1.00  0.00    -0.366 OA
ATOM     45  H   UNL     1      35.103  -1.153  44.797  1.00  0.00     0.213 HD
ENDBRANCH  36  44
ENDBRANCH  30  31
ENDBRANCH   4  30
TORSDOF 18
ENDMDL
MODEL 2
REMARK VINA RESULT:    -6.395      1.966      6.000
REMARK INTER + INTRA:         -13.271
REMARK INTER:                 -10.629
REMARK INTRA:                  -2.642
REMARK UNBOUND:                -2.202
REMARK SMILES OC[C@@H]1O[C@@H](O[C@@H]2[C@@H](O)[C@@H](O)[C@@H](O[C@H]3[C@H](O)[C@H](O)[C@@H](O)O[C@@H]3CO)O[C@@H]2CO)[C@H](O)[C@@H](O)[C@@H]1O
REMARK SMILES IDX 7 1 26 2 25 3 12 4 10 5 8 6 6 7 5 8 3 9 33 10 4 11 31 12
REMARK SMILES IDX 29 13 2 14 1 15 34 17 32 19 30 21 27 23 28 24 9 26 11 28
REMARK SMILES IDX 13 30 14 31 22 32 15 33 21 34 17 35 19 36 23 37 24 38 16 40
REMARK SMILES IDX 18 42 20 44
REMARK H PARENT 1 16 34 18 32 20 30 22 28 25 9 27 11 29 24 39 16 41 18 43
REMARK H PARENT 20 45
REMARK Flexibility Score: inf
ROOT
ATOM      1  C   UNL     1      34.831   2.628  44.353  1.00  0.00     0.184 C 
ATOM      2  C   UNL     1      34.931   4.218  44.007  1.00  0.00     0.178 C 
ATOM      3  O   UNL     1      35.868   4.411  42.953  1.00  0.00    -0.341 OA
ATOM      4  C   UNL     1      35.673   3.489  41.858  1.00  0.00     0.282 C 
ATOM      5  C   UNL     1      34.464   2.423  41.887  1.00  0.00     0.202 C 
ATOM      6  C   UNL     1      33.821   2.119  43.314  1.00  0.00     0.180 C 
ENDROOT
BRANCH   1   7
ATOM      7  O   UNL     1      36.074   1.948  44.036  1.00  0.00    -0.341 OA
BRANCH   7   8
ATOM      8  C   UNL     1      36.946   1.870  45.146  1.00  0.00     0.282 C 
ATOM      9  C   UNL     1      38.989   2.681  44.313  1.00  0.00     0.178 C 
ATOM     10  C   UNL     1      39.831   1.602  45.063  1.00  0.00     0.177 C 
ATOM     11  O   UNL     1      37.845   2.958  45.060  1.00  0.00    -0.341 OA
ATOM     12  C   UNL     1      39.064   0.274  44.861  1.00  0.00     0.179 C 
ATOM     13  C   UNL     1      37.525   0.378  45.221  1.00  0.00     0.202 C 
BRANCH   9  14
ATOM     14  C   UNL     1      39.813   3.976  44.138  1.00  0.00     0.191 C 
BRANCH  14  15
ATOM     15  O   UNL     1      39.185   5.026  44.855  1.00  0.00    -0.394 OA
ATOM     16  H   UNL     1      39.821   5.221  45.623  1.00  0.00     0.210 HD
ENDBRANCH  14  15
ENDBRANCH   9  14
BRANCH  10  17
ATOM     17  O   UNL     1      39.797   1.990  46.424  1.00  0.00    -0.387 OA
ATOM     18  H   UNL     1      40.001   2.965  46.511  1.00  0.00     0.211 HD
ENDBRANCH  10  17
BRANCH  12  19
ATOM     19  O   UNL     1      39.248  -0.274  43.584  1.00  0.00    -0.387 OA
ATOM     20  H   UNL     1      38.857  -1.201  43.545  1.00  0.00     0.211 HD
ENDBRANCH  12  19
BRANCH  13  21
ATOM     21  O   UNL     1      37.468  -0.028  46.597  1.00  0.00    -0.385 OA
ATOM     22  H   UNL     1      37.923   0.659  47.171  1.00  0.00     0.211 HD
ENDBRANCH  13  21
ENDBRANCH   7   8
ENDBRANCH   1   7
BRANCH   2  23
ATOM     23  C   UNL     1      35.202   5.292  45.159  1.00  0.00     0.191 C 
BRANCH  23  24
ATOM     24  O   UNL     1      36.577   5.694  45.140  1.00  0.00    -0.394 OA
ATOM     25  H   UNL     1      37.158   4.899  45.405  1.00  0.00     0.210 HD
ENDBRANCH  23  24
ENDBRANCH   2  23
BRANCH   6  26
ATOM     26  O   UNL     1      32.464   2.602  43.424  1.00  0.00    -0.387 OA
ATOM     27  H   UNL     1      31.799   2.116  42.889  1.00  0.00     0.211 HD
ENDBRANCH   6  26
BRANCH   5  28
ATOM     28  O   UNL     1      33.494   2.667  40.916  1.00  0.00    -0.385 OA
ATOM     29  H   UNL     1      33.036   1.805  40.805  1.00  0.00     0.211 HD
ENDBRANCH   5  28
BRANCH   4  30
ATOM     30  O   UNL     1      35.721   4.189  40.606  1.00  0.00    -0.341 OA
BRANCH  30  31
ATOM     31  C   UNL     1      36.997   4.074  39.952  1.00  0.00     0.184 C 
ATOM     32  C   UNL     1      37.262   2.586  39.625  1.00  0.00     0.178 C 
ATOM     33  C   UNL     1      38.077   4.610  40.890  1.00  0.00     0.180 C 
ATOM     34  O   UNL     1      38.561   2.403  39.058  1.00  0.00    -0.342 OA
ATOM     35  C   UNL     1      39.459   4.331  40.272  1.00  0.00     0.201 C 
ATOM     36  C   UNL     1      39.592   2.842  39.913  1.00  0.00     0.279 C 
BRANCH  32  37
ATOM     37  C   UNL     1      36.228   2.022  38.644  1.00  0.00     0.191 C 
BRANCH  37  38
ATOM     38  O   UNL     1      35.908   3.018  37.692  1.00  0.00    -0.394 OA
ATOM     39  H   UNL     1      36.658   3.055  37.034  1.00  0.00     0.210 HD
ENDBRANCH  37  38
ENDBRANCH  32  37
BRANCH  33  40
ATOM     40  O   UNL     1      37.845   5.959  41.231  1.00  0.00    -0.387 OA
ATOM     41  H   UNL     1      37.432   6.015  42.139  1.00  0.00     0.211 HD
ENDBRANCH  33  40
BRANCH  35  42
ATOM     42  O   UNL     1      39.627   5.110  39.104  1.00  0.00    -0.385 OA
ATOM     43  H   UNL     1      40.179   5.885  39.357  1.00  0.00     0.211 HD
ENDBRANCH  35  42
BRANCH  36  44
ATOM     44  O   UNL     1      39.622   2.094  41.103  1.00  0.00    -0.366 OA
ATOM     45  H   UNL     1      39.115   1.280  40.931  1.00  0.00     0.213 HD
ENDBRANCH  36  44
ENDBRANCH  30  31
ENDBRANCH   4  30
TORSDOF 18
ENDMDL
MODEL 3
REMARK VINA RESULT:    -6.258      1.830      3.787
REMARK INTER + INTRA:         -13.033
REMARK INTER:                 -10.829
REMARK INTRA:                  -2.203
REMARK UNBOUND:                -2.202
REMARK SMILES OC[C@@H]1O[C@@H](O[C@@H]2[C@@H](O)[C@@H](O)[C@@H](O[C@H]3[C@H](O)[C@H](O)[C@@H](O)O[C@@H]3CO)O[C@@H]2CO)[C@H](O)[C@@H](O)[C@@H]1O
REMARK SMILES IDX 7 1 26 2 25 3 12 4 10 5 8 6 6 7 5 8 3 9 33 10 4 11 31 12
REMARK SMILES IDX 29 13 2 14 1 15 34 17 32 19 30 21 27 23 28 24 9 26 11 28
REMARK SMILES IDX 13 30 14 31 22 32 15 33 21 34 17 35 19 36 23 37 24 38 16 40
REMARK SMILES IDX 18 42 20 44
REMARK H PARENT 1 16 34 18 32 20 30 22 28 25 9 27 11 29 24 39 16 41 18 43
REMARK H PARENT 20 45
REMARK Flexibility Score: inf
ROOT
ATOM      1  C   UNL     1      35.316   4.290  44.250  1.00  0.00     0.184 C 
ATOM      2  C   UNL     1      36.575   3.313  44.592  1.00  0.00     0.178 C 
ATOM      3  O   UNL     1      37.195   2.902  43.379  1.00  0.00    -0.341 OA
ATOM      4  C   UNL     1      37.417   4.002  42.468  1.00  0.00     0.282 C 
ATOM      5  C   UNL     1      37.023   5.508  42.886  1.00  0.00     0.202 C 
ATOM      6  C   UNL     1      35.988   5.662  44.088  1.00  0.00     0.180 C 
ENDROOT
BRANCH   1   7
ATOM      7  O   UNL     1      34.762   3.985  42.944  1.00  0.00    -0.341 OA
BRANCH   7   8
ATOM      8  C   UNL     1      33.364   3.781  42.983  1.00  0.00     0.282 C 
ATOM      9  C   UNL     1      33.138   1.441  43.007  1.00  0.00     0.178 C 
ATOM     10  C   UNL     1      31.927   1.455  42.022  1.00  0.00     0.177 C 
ATOM     11  O   UNL     1      33.123   2.619  43.753  1.00  0.00    -0.341 OA
ATOM     12  C   UNL     1      32.313   2.464  40.915  1.00  0.00     0.179 C 
ATOM     13  C   UNL     1      32.805   3.858  41.483  1.00  0.00     0.202 C 
BRANCH   9  14
ATOM     14  C   UNL     1      33.039   0.229  43.960  1.00  0.00     0.191 C 
BRANCH  14  15
ATOM     15  O   UNL     1      31.958   0.431  44.856  1.00  0.00    -0.394 OA
ATOM     16  H   UNL     1      31.134   0.198  44.311  1.00  0.00     0.210 HD
ENDBRANCH  14  15
ENDBRANCH   9  14
BRANCH  10  17
ATOM     17  O   UNL     1      30.840   1.947  42.783  1.00  0.00    -0.387 OA
ATOM     18  H   UNL     1      31.034   1.861  43.760  1.00  0.00     0.211 HD
ENDBRANCH  10  17
BRANCH  12  19
ATOM     19  O   UNL     1      33.231   1.941  39.994  1.00  0.00    -0.387 OA
ATOM     20  H   UNL     1      34.169   2.046  40.343  1.00  0.00     0.211 HD
ENDBRANCH  12  19
BRANCH  13  21
ATOM     21  O   UNL     1      31.611   4.655  41.518  1.00  0.00    -0.385 OA
ATOM     22  H   UNL     1      31.856   5.628  41.565  1.00  0.00     0.211 HD
ENDBRANCH  13  21
ENDBRANCH   7   8
ENDBRANCH   1   7
BRANCH   2  23
ATOM     23  C   UNL     1      36.391   2.044  45.547  1.00  0.00     0.191 C 
BRANCH  23  24
ATOM     24  O   UNL     1      37.149   2.222  46.749  1.00  0.00    -0.394 OA
ATOM     25  H   UNL     1      36.569   2.700  47.438  1.00  0.00     0.210 HD
ENDBRANCH  23  24
ENDBRANCH   2  23
BRANCH   6  26
ATOM     26  O   UNL     1      36.590   6.242  45.266  1.00  0.00    -0.387 OA
ATOM     27  H   UNL     1      37.451   5.851  45.535  1.00  0.00     0.211 HD
ENDBRANCH   6  26
BRANCH   5  28
ATOM     28  O   UNL     1      38.129   6.342  43.035  1.00  0.00    -0.385 OA
ATOM     29  H   UNL     1      38.566   6.026  43.856  1.00  0.00     0.211 HD
ENDBRANCH   5  28
BRANCH   4  30
ATOM     30  O   UNL     1      38.747   3.940  41.932  1.00  0.00    -0.341 OA
BRANCH  30  31
ATOM     31  C   UNL     1      38.809   3.255  40.669  1.00  0.00     0.184 C 
ATOM     32  C   UNL     1      38.168   4.148  39.582  1.00  0.00     0.178 C 
ATOM     33  C   UNL     1      38.045   1.937  40.790  1.00  0.00     0.180 C 
ATOM     34  O   UNL     1      38.117   3.475  38.322  1.00  0.00    -0.342 OA
ATOM     35  C   UNL     1      37.956   1.282  39.400  1.00  0.00     0.201 C 
ATOM     36  C   UNL     1      37.379   2.275  38.378  1.00  0.00     0.279 C 
BRANCH  32  37
ATOM     37  C   UNL     1      38.936   5.460  39.392  1.00  0.00     0.191 C 
BRANCH  37  38
ATOM     38  O   UNL     1      38.224   6.505  40.028  1.00  0.00    -0.394 OA
ATOM     39  H   UNL     1      38.631   6.640  40.929  1.00  0.00     0.210 HD
ENDBRANCH  37  38
ENDBRANCH  32  37
BRANCH  33  40
ATOM     40  O   UNL     1      38.589   1.114  41.797  1.00  0.00    -0.387 OA
ATOM     41  H   UNL     1      38.391   1.499  42.697  1.00  0.00     0.211 HD
ENDBRANCH  33  40
BRANCH  35  42
ATOM     42  O   UNL     1      39.243   0.874  38.980  1.00  0.00    -0.385 OA
ATOM     43  H   UNL     1      39.174   0.654  38.023  1.00  0.00     0.211 HD
ENDBRANCH  35  42
BRANCH  36  44
ATOM     44  O   UNL     1      36.032   2.518  38.698  1.00  0.00    -0.366 OA
ATOM     45  H   UNL     1      36.010   3.366  39.177  1.00  0.00     0.213 HD
ENDBRANCH  36  44
ENDBRANCH  30  31
ENDBRANCH   4  30
TORSDOF 18
ENDMDL
MODEL 4
REMARK VINA RESULT:    -6.255      1.890      6.499
REMARK INTER + INTRA:         -13.028
REMARK INTER:                 -11.315
REMARK INTRA:                  -1.713
REMARK UNBOUND:                -2.202
REMARK SMILES OC[C@@H]1O[C@@H](O[C@@H]2[C@@H](O)[C@@H](O)[C@@H](O[C@H]3[C@H](O)[C@H](O)[C@@H](O)O[C@@H]3CO)O[C@@H]2CO)[C@H](O)[C@@H](O)[C@@H]1O
REMARK SMILES IDX 7 1 26 2 25 3 12 4 10 5 8 6 6 7 5 8 3 9 33 10 4 11 31 12
REMARK SMILES IDX 29 13 2 14 1 15 34 17 32 19 30 21 27 23 28 24 9 26 11 28
REMARK SMILES IDX 13 30 14 31 22 32 15 33 21 34 17 35 19 36 23 37 24 38 16 40
REMARK SMILES IDX 18 42 20 44
REMARK H PARENT 1 16 34 18 32 20 30 22 28 25 9 27 11 29 24 39 16 41 18 43
REMARK H PARENT 20 45
REMARK Flexibility Score: inf
ROOT
ATOM      1  C   UNL     1      38.770   1.005  44.092  1.00  0.00     0.184 C 
ATOM      2  C   UNL     1      38.310   1.830  42.765  1.00  0.00     0.178 C 
ATOM      3  O   UNL     1      36.898   1.732  42.616  1.00  0.00    -0.341 OA
ATOM      4  C   UNL     1      36.190   1.981  43.850  1.00  0.00     0.282 C 
ATOM      5  C   UNL     1      36.990   2.376  45.193  1.00  0.00     0.202 C 
ATOM      6  C   UNL     1      38.545   2.024  45.219  1.00  0.00     0.180 C 
ENDROOT
BRANCH   1   7
ATOM      7  O   UNL     1      37.849  -0.080  44.375  1.00  0.00    -0.341 OA
BRANCH   7   8
ATOM      8  C   UNL     1      37.907  -1.107  43.405  1.00  0.00     0.282 C 
ATOM      9  C   UNL     1      37.116  -3.003  44.546  1.00  0.00     0.178 C 
ATOM     10  C   UNL     1      38.181  -3.948  43.906  1.00  0.00     0.177 C 
ATOM     11  O   UNL     1      36.821  -1.982  43.644  1.00  0.00    -0.341 OA
ATOM     12  C   UNL     1      39.511  -3.161  43.966  1.00  0.00     0.179 C 
ATOM     13  C   UNL     1      39.398  -1.692  43.385  1.00  0.00     0.202 C 
BRANCH   9  14
ATOM     14  C   UNL     1      35.826  -3.792  44.867  1.00  0.00     0.191 C 
BRANCH  14  15
ATOM     15  O   UNL     1      34.957  -2.968  45.628  1.00  0.00    -0.394 OA
ATOM     16  H   UNL     1      34.971  -3.379  46.556  1.00  0.00     0.210 HD
ENDBRANCH  14  15
ENDBRANCH   9  14
BRANCH  10  17
ATOM     17  O   UNL     1      37.765  -4.114  42.563  1.00  0.00    -0.387 OA
ATOM     18  H   UNL     1      37.947  -5.050  42.258  1.00  0.00     0.211 HD
ENDBRANCH  10  17
BRANCH  12  19
ATOM     19  O   UNL     1      40.086  -3.156  45.244  1.00  0.00    -0.387 OA
ATOM     20  H   UNL     1      40.235  -2.210  45.553  1.00  0.00     0.211 HD
ENDBRANCH  12  19
BRANCH  13  21
ATOM     21  O   UNL     1      39.775  -1.839  42.007  1.00  0.00    -0.385 OA
ATOM     22  H   UNL     1      40.777  -1.832  41.930  1.00  0.00     0.211 HD
ENDBRANCH  13  21
ENDBRANCH   7   8
ENDBRANCH   1   7
BRANCH   2  23
ATOM     23  C   UNL     1      39.010   1.567  41.352  1.00  0.00     0.191 C 
BRANCH  23  24
ATOM     24  O   UNL     1      38.307   0.540  40.641  1.00  0.00    -0.394 OA
ATOM     25  H   UNL     1      37.634   0.105  41.270  1.00  0.00     0.210 HD
ENDBRANCH  23  24
ENDBRANCH   2  23
BRANCH   6  26
ATOM     26  O   UNL     1      39.379   3.203  45.216  1.00  0.00    -0.387 OA
ATOM     27  H   UNL     1      40.326   3.051  45.429  1.00  0.00     0.211 HD
ENDBRANCH   6  26
BRANCH   5  28
ATOM     28  O   UNL     1      36.740   3.678  45.618  1.00  0.00    -0.385 OA
ATOM     29  H   UNL     1      37.304   3.790  46.413  1.00  0.00     0.211 HD
ENDBRANCH   5  28
BRANCH   4  30
ATOM     30  O   UNL     1      35.089   2.873  43.618  1.00  0.00    -0.341 OA
BRANCH  30  31
ATOM     31  C   UNL     1      34.080   2.304  42.766  1.00  0.00     0.184 C 
ATOM     32  C   UNL     1      33.899   3.211  41.527  1.00  0.00     0.178 C 
ATOM     33  C   UNL     1      32.773   2.212  43.551  1.00  0.00     0.180 C 
ATOM     34  O   UNL     1      32.839   2.741  40.691  1.00  0.00    -0.342 OA
ATOM     35  C   UNL     1      31.647   1.770  42.598  1.00  0.00     0.201 C 
ATOM     36  C   UNL     1      31.602   2.687  41.365  1.00  0.00     0.279 C 
BRANCH  32  37
ATOM     37  C   UNL     1      35.175   3.289  40.682  1.00  0.00     0.191 C 
BRANCH  37  38
ATOM     38  O   UNL     1      36.012   4.302  41.206  1.00  0.00    -0.394 OA
ATOM     39  H   UNL     1      35.461   4.851  41.832  1.00  0.00     0.210 HD
ENDBRANCH  37  38
ENDBRANCH  32  37
BRANCH  33  40
ATOM     40  O   UNL     1      32.916   1.415  44.705  1.00  0.00    -0.387 OA
ATOM     41  H   UNL     1      32.861   0.448  44.461  1.00  0.00     0.211 HD
ENDBRANCH  33  40
BRANCH  35  42
ATOM     42  O   UNL     1      31.870   0.437  42.181  1.00  0.00    -0.385 OA
ATOM     43  H   UNL     1      31.948  -0.106  42.999  1.00  0.00     0.211 HD
ENDBRANCH  35  42
BRANCH  36  44
ATOM     44  O   UNL     1      31.184   3.967  41.771  1.00  0.00    -0.366 OA
ATOM     45  H   UNL     1      30.491   3.831  42.442  1.00  0.00     0.213 HD
ENDBRANCH  36  44
ENDBRANCH  30  31
ENDBRANCH   4  30
TORSDOF 18
ENDMDL
MODEL 5
REMARK VINA RESULT:    -6.101      1.724      6.314
REMARK INTER + INTRA:         -12.761
REMARK INTER:                 -12.340
REMARK INTRA:                  -0.421
REMARK UNBOUND:                -2.202
REMARK SMILES OC[C@@H]1O[C@@H](O[C@@H]2[C@@H](O)[C@@H](O)[C@@H](O[C@H]3[C@H](O)[C@H](O)[C@@H](O)O[C@@H]3CO)O[C@@H]2CO)[C@H](O)[C@@H](O)[C@@H]1O
REMARK SMILES IDX 7 1 26 2 25 3 12 4 10 5 8 6 6 7 5 8 3 9 33 10 4 11 31 12
REMARK SMILES IDX 29 13 2 14 1 15 34 17 32 19 30 21 27 23 28 24 9 26 11 28
REMARK SMILES IDX 13 30 14 31 22 32 15 33 21 34 17 35 19 36 23 37 24 38 16 40
REMARK SMILES IDX 18 42 20 44
REMARK H PARENT 1 16 34 18 32 20 30 22 28 25 9 27 11 29 24 39 16 41 18 43
REMARK H PARENT 20 45
REMARK Flexibility Score: inf
ROOT
ATOM      1  C   UNL     1      37.911   3.453  41.172  1.00  0.00     0.184 C 
ATOM      2  C   UNL     1      36.772   3.483  40.007  1.00  0.00     0.178 C 
ATOM      3  O   UNL     1      35.530   3.053  40.553  1.00  0.00    -0.341 OA
ATOM      4  C   UNL     1      35.227   3.687  41.815  1.00  0.00     0.282 C 
ATOM      5  C   UNL     1      36.220   4.793  42.439  1.00  0.00     0.202 C 
ATOM      6  C   UNL     1      37.712   4.805  41.875  1.00  0.00     0.180 C 
ENDROOT
BRANCH   1   7
ATOM      7  O   UNL     1      37.599   2.455  42.178  1.00  0.00    -0.341 OA
BRANCH   7   8
ATOM      8  C   UNL     1      38.533   2.444  43.239  1.00  0.00     0.282 C 
ATOM      9  C   UNL     1      38.167   0.374  44.290  1.00  0.00     0.178 C 
ATOM     10  C   UNL     1      38.312   0.971  45.725  1.00  0.00     0.177 C 
ATOM     11  O   UNL     1      38.965   1.109  43.415  1.00  0.00    -0.341 OA
ATOM     12  C   UNL     1      37.512   2.295  45.698  1.00  0.00     0.179 C 
ATOM     13  C   UNL     1      37.891   3.231  44.478  1.00  0.00     0.202 C 
BRANCH   9  14
ATOM     14  C   UNL     1      38.618  -1.104  44.277  1.00  0.00     0.191 C 
BRANCH  14  15
ATOM     15  O   UNL     1      38.678  -1.582  45.611  1.00  0.00    -0.394 OA
ATOM     16  H   UNL     1      38.068  -2.393  45.615  1.00  0.00     0.210 HD
ENDBRANCH  14  15
ENDBRANCH   9  14
BRANCH  10  17
ATOM     17  O   UNL     1      39.695   1.232  45.876  1.00  0.00    -0.387 OA
ATOM     18  H   UNL     1      39.846   1.867  46.634  1.00  0.00     0.211 HD
ENDBRANCH  10  17
BRANCH  12  19
ATOM     19  O   UNL     1      36.127   2.097  45.773  1.00  0.00    -0.387 OA
ATOM     20  H   UNL     1      35.749   2.589  46.566  1.00  0.00     0.211 HD
ENDBRANCH  12  19
BRANCH  13  21
ATOM     21  O   UNL     1      38.912   4.089  45.009  1.00  0.00    -0.385 OA
ATOM     22  H   UNL     1      39.806   3.819  44.639  1.00  0.00     0.211 HD
ENDBRANCH  13  21
ENDBRANCH   7   8
ENDBRANCH   1   7
BRANCH   2  23
ATOM     23  C   UNL     1      37.014   2.754  38.605  1.00  0.00     0.191 C 
BRANCH  23  24
ATOM     24  O   UNL     1      35.896   2.977  37.738  1.00  0.00    -0.394 OA
ATOM     25  H   UNL     1      35.782   3.980  37.596  1.00  0.00     0.210 HD
ENDBRANCH  23  24
ENDBRANCH   2  23
BRANCH   6  26
ATOM     26  O   UNL     1      38.004   5.994  41.109  1.00  0.00    -0.387 OA
ATOM     27  H   UNL     1      38.466   6.708  41.600  1.00  0.00     0.211 HD
ENDBRANCH   6  26
BRANCH   5  28
ATOM     28  O   UNL     1      35.664   6.070  42.477  1.00  0.00    -0.385 OA
ATOM     29  H   UNL     1      35.208   6.113  43.346  1.00  0.00     0.211 HD
ENDBRANCH   5  28
BRANCH   4  30
ATOM     30  O   UNL     1      33.866   4.143  41.826  1.00  0.00    -0.341 OA
BRANCH  30  31
ATOM     31  C   UNL     1      32.916   3.063  41.835  1.00  0.00     0.184 C 
ATOM     32  C   UNL     1      31.487   3.651  41.776  1.00  0.00     0.178 C 
ATOM     33  C   UNL     1      33.104   2.258  43.120  1.00  0.00     0.180 C 
ATOM     34  O   UNL     1      30.499   2.624  41.878  1.00  0.00    -0.342 OA
ATOM     35  C   UNL     1      31.980   1.210  43.221  1.00  0.00     0.201 C 
ATOM     36  C   UNL     1      30.607   1.885  43.073  1.00  0.00     0.279 C 
BRANCH  32  37
ATOM     37  C   UNL     1      31.239   4.425  40.476  1.00  0.00     0.191 C 
BRANCH  37  38
ATOM     38  O   UNL     1      31.452   5.803  40.715  1.00  0.00    -0.394 OA
ATOM     39  H   UNL     1      30.712   6.302  40.269  1.00  0.00     0.210 HD
ENDBRANCH  37  38
ENDBRANCH  32  37
BRANCH  33  40
ATOM     40  O   UNL     1      34.410   1.734  43.217  1.00  0.00    -0.387 OA
ATOM     41  H   UNL     1      34.953   2.288  43.846  1.00  0.00     0.211 HD
ENDBRANCH  33  40
BRANCH  35  42
ATOM     42  O   UNL     1      32.137   0.241  42.204  1.00  0.00    -0.385 OA
ATOM     43  H   UNL     1      32.537  -0.553  42.627  1.00  0.00     0.211 HD
ENDBRANCH  35  42
BRANCH  36  44
ATOM     44  O   UNL     1      30.382   2.698  44.198  1.00  0.00    -0.366 OA
ATOM     45  H   UNL     1      30.261   2.096  44.954  1.00  0.00     0.213 HD
ENDBRANCH  36  44
ENDBRANCH  30  31
ENDBRANCH   4  30
TORSDOF 18
ENDMDL
MODEL 6
REMARK VINA RESULT:    -6.056      1.529      6.281
REMARK INTER + INTRA:         -12.683
REMARK INTER:                 -11.096
REMARK INTRA:                  -1.587
REMARK UNBOUND:                -2.202
REMARK SMILES OC[C@@H]1O[C@@H](O[C@@H]2[C@@H](O)[C@@H](O)[C@@H](O[C@H]3[C@H](O)[C@H](O)[C@@H](O)O[C@@H]3CO)O[C@@H]2CO)[C@H](O)[C@@H](O)[C@@H]1O
REMARK SMILES IDX 7 1 26 2 25 3 12 4 10 5 8 6 6 7 5 8 3 9 33 10 4 11 31 12
REMARK SMILES IDX 29 13 2 14 1 15 34 17 32 19 30 21 27 23 28 24 9 26 11 28
REMARK SMILES IDX 13 30 14 31 22 32 15 33 21 34 17 35 19 36 23 37 24 38 16 40
REMARK SMILES IDX 18 42 20 44
REMARK H PARENT 1 16 34 18 32 20 30 22 28 25 9 27 11 29 24 39 16 41 18 43
REMARK H PARENT 20 45
REMARK Flexibility Score: inf
ROOT
ATOM      1  C   UNL     1      38.623   2.899  43.211  1.00  0.00     0.184 C 
ATOM      2  C   UNL     1      37.943   3.804  42.039  1.00  0.00     0.178 C 
ATOM      3  O   UNL     1      36.647   3.296  41.745  1.00  0.00    -0.341 OA
ATOM      4  C   UNL     1      35.870   3.031  42.934  1.00  0.00     0.282 C 
ATOM      5  C   UNL     1      36.467   3.356  44.396  1.00  0.00     0.202 C 
ATOM      6  C   UNL     1      38.050   3.521  44.494  1.00  0.00     0.180 C 
ENDROOT
BRANCH   1   7
ATOM      7  O   UNL     1      38.106   1.543  43.186  1.00  0.00    -0.341 OA
BRANCH   7   8
ATOM      8  C   UNL     1      38.846   0.665  44.011  1.00  0.00     0.282 C 
ATOM      9  C   UNL     1      38.670  -1.411  42.923  1.00  0.00     0.178 C 
ATOM     10  C   UNL     1      38.481  -2.199  44.256  1.00  0.00     0.177 C 
ATOM     11  O   UNL     1      39.463  -0.292  43.171  1.00  0.00    -0.341 OA
ATOM     12  C   UNL     1      37.485  -1.358  45.089  1.00  0.00     0.179 C 
ATOM     13  C   UNL     1      37.891   0.169  45.197  1.00  0.00     0.202 C 
BRANCH   9  14
ATOM     14  C   UNL     1      39.359  -2.304  41.866  1.00  0.00     0.191 C 
BRANCH  14  15
ATOM     15  O   UNL     1      39.269  -3.659  42.276  1.00  0.00    -0.394 OA
ATOM     16  H   UNL     1      40.234  -3.943  42.416  1.00  0.00     0.210 HD
ENDBRANCH  14  15
ENDBRANCH   9  14
BRANCH  10  17
ATOM     17  O   UNL     1      39.758  -2.200  44.867  1.00  0.00    -0.387 OA
ATOM     18  H   UNL     1      40.350  -2.879  44.431  1.00  0.00     0.211 HD
ENDBRANCH  10  17
BRANCH  12  19
ATOM     19  O   UNL     1      36.158  -1.500  44.660  1.00  0.00    -0.387 OA
ATOM     20  H   UNL     1      36.125  -1.571  43.657  1.00  0.00     0.211 HD
ENDBRANCH  12  19
BRANCH  13  21
ATOM     21  O   UNL     1      38.656   0.235  46.410  1.00  0.00    -0.385 OA
ATOM     22  H   UNL     1      38.058   0.049  47.196  1.00  0.00     0.211 HD
ENDBRANCH  13  21
ENDBRANCH   7   8
ENDBRANCH   1   7
BRANCH   2  23
ATOM     23  C   UNL     1      38.720   4.093  40.672  1.00  0.00     0.191 C 
BRANCH  23  24
ATOM     24  O   UNL     1      37.864   4.790  39.760  1.00  0.00    -0.394 OA
ATOM     25  H   UNL     1      38.439   5.262  39.062  1.00  0.00     0.210 HD
ENDBRANCH  23  24
ENDBRANCH   2  23
BRANCH   6  26
ATOM     26  O   UNL     1      38.447   4.875  44.802  1.00  0.00    -0.387 OA
ATOM     27  H   UNL     1      38.247   5.541  44.108  1.00  0.00     0.211 HD
ENDBRANCH   6  26
BRANCH   5  28
ATOM     28  O   UNL     1      35.791   4.385  45.047  1.00  0.00    -0.385 OA
ATOM     29  H   UNL     1      36.503   4.956  45.410  1.00  0.00     0.211 HD
ENDBRANCH   5  28
BRANCH   4  30
ATOM     30  O   UNL     1      34.541   3.554  42.784  1.00  0.00    -0.341 OA
BRANCH  30  31
ATOM     31  C   UNL     1      33.551   2.524  42.624  1.00  0.00     0.184 C 
ATOM     32  C   UNL     1      32.434   3.043  41.689  1.00  0.00     0.178 C 
ATOM     33  C   UNL     1      32.976   2.181  43.997  1.00  0.00     0.180 C 
ATOM     34  O   UNL     1      31.374   2.092  41.570  1.00  0.00    -0.342 OA
ATOM     35  C   UNL     1      31.795   1.209  43.816  1.00  0.00     0.201 C 
ATOM     36  C   UNL     1      30.782   1.783  42.812  1.00  0.00     0.279 C 
BRANCH  32  37
ATOM     37  C   UNL     1      32.960   3.350  40.283  1.00  0.00     0.191 C 
BRANCH  37  38
ATOM     38  O   UNL     1      34.123   2.579  40.050  1.00  0.00    -0.394 OA
ATOM     39  H   UNL     1      33.947   1.659  40.394  1.00  0.00     0.210 HD
ENDBRANCH  37  38
ENDBRANCH  32  37
BRANCH  33  40
ATOM     40  O   UNL     1      33.978   1.734  44.882  1.00  0.00    -0.387 OA
ATOM     41  H   UNL     1      34.492   0.987  44.465  1.00  0.00     0.211 HD
ENDBRANCH  33  40
BRANCH  35  42
ATOM     42  O   UNL     1      32.270  -0.035  43.342  1.00  0.00    -0.385 OA
ATOM     43  H   UNL     1      31.483  -0.617  43.232  1.00  0.00     0.211 HD
ENDBRANCH  35  42
BRANCH  36  44
ATOM     44  O   UNL     1      30.173   2.913  43.383  1.00  0.00    -0.366 OA
ATOM     45  H   UNL     1      29.621   2.589  44.117  1.00  0.00     0.213 HD
ENDBRANCH  36  44
ENDBRANCH  30  31
ENDBRANCH   4  30
TORSDOF 18
ENDMDL
MODEL 7
REMARK VINA RESULT:    -6.014      2.011      4.782
REMARK INTER + INTRA:         -12.611
REMARK INTER:                 -11.121
REMARK INTRA:                  -1.489
REMARK UNBOUND:                -2.202
REMARK SMILES OC[C@@H]1O[C@@H](O[C@@H]2[C@@H](O)[C@@H](O)[C@@H](O[C@H]3[C@H](O)[C@H](O)[C@@H](O)O[C@@H]3CO)O[C@@H]2CO)[C@H](O)[C@@H](O)[C@@H]1O
REMARK SMILES IDX 7 1 26 2 25 3 12 4 10 5 8 6 6 7 5 8 3 9 33 10 4 11 31 12
REMARK SMILES IDX 29 13 2 14 1 15 34 17 32 19 30 21 27 23 28 24 9 26 11 28
REMARK SMILES IDX 13 30 14 31 22 32 15 33 21 34 17 35 19 36 23 37 24 38 16 40
REMARK SMILES IDX 18 42 20 44
REMARK H PARENT 1 16 34 18 32 20 30 22 28 25 9 27 11 29 24 39 16 41 18 43
REMARK H PARENT 20 45
REMARK Flexibility Score: inf
ROOT
ATOM      1  C   UNL     1      34.852   2.984  42.851  1.00  0.00     0.184 C 
ATOM      2  C   UNL     1      34.271   1.937  43.956  1.00  0.00     0.178 C 
ATOM      3  O   UNL     1      35.258   0.950  44.233  1.00  0.00    -0.341 OA
ATOM      4  C   UNL     1      36.566   1.519  44.460  1.00  0.00     0.282 C 
ATOM      5  C   UNL     1      36.783   3.116  44.436  1.00  0.00     0.202 C 
ATOM      6  C   UNL     1      35.651   3.975  43.711  1.00  0.00     0.180 C 
ENDROOT
BRANCH   1   7
ATOM      7  O   UNL     1      35.837   2.345  41.998  1.00  0.00    -0.341 OA
BRANCH   7   8
ATOM      8  C   UNL     1      36.442   3.251  41.096  1.00  0.00     0.282 C 
ATOM      9  C   UNL     1      36.832   1.955  39.175  1.00  0.00     0.178 C 
ATOM     10  C   UNL     1      38.236   2.587  38.919  1.00  0.00     0.177 C 
ATOM     11  O   UNL     1      36.018   2.902  39.792  1.00  0.00    -0.341 OA
ATOM     12  C   UNL     1      38.916   2.644  40.308  1.00  0.00     0.179 C 
ATOM     13  C   UNL     1      38.009   3.309  41.423  1.00  0.00     0.202 C 
BRANCH   9  14
ATOM     14  C   UNL     1      36.190   1.520  37.838  1.00  0.00     0.191 C 
BRANCH  14  15
ATOM     15  O   UNL     1      37.050   1.885  36.771  1.00  0.00    -0.394 OA
ATOM     16  H   UNL     1      36.421   2.183  36.032  1.00  0.00     0.210 HD
ENDBRANCH  14  15
ENDBRANCH   9  14
BRANCH  10  17
ATOM     17  O   UNL     1      37.970   3.894  38.445  1.00  0.00    -0.387 OA
ATOM     18  H   UNL     1      37.704   3.865  37.481  1.00  0.00     0.211 HD
ENDBRANCH  10  17
BRANCH  12  19
ATOM     19  O   UNL     1      39.403   1.399  40.729  1.00  0.00    -0.387 OA
ATOM     20  H   UNL     1      39.840   1.485  41.631  1.00  0.00     0.211 HD
ENDBRANCH  12  19
BRANCH  13  21
ATOM     21  O   UNL     1      38.394   4.692  41.397  1.00  0.00    -0.385 OA
ATOM     22  H   UNL     1      37.907   5.192  42.119  1.00  0.00     0.211 HD
ENDBRANCH  13  21
ENDBRANCH   7   8
ENDBRANCH   1   7
BRANCH   2  23
ATOM     23  C   UNL     1      32.856   1.224  43.745  1.00  0.00     0.191 C 
BRANCH  23  24
ATOM     24  O   UNL     1      32.159   1.138  44.994  1.00  0.00    -0.394 OA
ATOM     25  H   UNL     1      32.435   0.278  45.467  1.00  0.00     0.210 HD
ENDBRANCH  23  24
ENDBRANCH   2  23
BRANCH   6  26
ATOM     26  O   UNL     1      34.904   4.796  44.634  1.00  0.00    -0.387 OA
ATOM     27  H   UNL     1      34.000   4.475  44.847  1.00  0.00     0.211 HD
ENDBRANCH   6  26
BRANCH   5  28
ATOM     28  O   UNL     1      37.123   3.642  45.681  1.00  0.00    -0.385 OA
ATOM     29  H   UNL     1      37.554   4.500  45.475  1.00  0.00     0.211 HD
ENDBRANCH   5  28
BRANCH   4  30
ATOM     30  O   UNL     1      37.169   0.928  45.621  1.00  0.00    -0.341 OA
BRANCH  30  31
ATOM     31  C   UNL     1      38.190  -0.031  45.292  1.00  0.00     0.184 C 
ATOM     32  C   UNL     1      39.063   0.538  44.150  1.00  0.00     0.178 C 
ATOM     33  C   UNL     1      37.516  -1.328  44.848  1.00  0.00     0.180 C 
ATOM     34  O   UNL     1      40.037  -0.415  43.719  1.00  0.00    -0.342 OA
ATOM     35  C   UNL     1      38.594  -2.297  44.329  1.00  0.00     0.201 C 
ATOM     36  C   UNL     1      39.455  -1.612  43.255  1.00  0.00     0.279 C 
BRANCH  32  37
ATOM     37  C   UNL     1      39.798   1.815  44.572  1.00  0.00     0.191 C 
BRANCH  37  38
ATOM     38  O   UNL     1      39.809   1.893  45.985  1.00  0.00    -0.394 OA
ATOM     39  H   UNL     1      38.942   1.520  46.311  1.00  0.00     0.210 HD
ENDBRANCH  37  38
ENDBRANCH  32  37
BRANCH  33  40
ATOM     40  O   UNL     1      36.688  -1.855  45.860  1.00  0.00    -0.387 OA
ATOM     41  H   UNL     1      35.763  -1.488  45.769  1.00  0.00     0.211 HD
ENDBRANCH  33  40
BRANCH  35  42
ATOM     42  O   UNL     1      39.421  -2.710  45.398  1.00  0.00    -0.385 OA
ATOM     43  H   UNL     1      39.089  -2.256  46.207  1.00  0.00     0.211 HD
ENDBRANCH  35  42
BRANCH  36  44
ATOM     44  O   UNL     1      38.660  -1.387  42.117  1.00  0.00    -0.366 OA
ATOM     45  H   UNL     1      38.773  -2.165  41.543  1.00  0.00     0.213 HD
ENDBRANCH  36  44
ENDBRANCH  30  31
ENDBRANCH   4  30
TORSDOF 18
ENDMDL
MODEL 8
REMARK VINA RESULT:    -5.933      1.745      4.455
REMARK INTER + INTRA:         -12.470
REMARK INTER:                 -10.701
REMARK INTRA:                  -1.769
REMARK UNBOUND:                -2.202
REMARK SMILES OC[C@@H]1O[C@@H](O[C@@H]2[C@@H](O)[C@@H](O)[C@@H](O[C@H]3[C@H](O)[C@H](O)[C@@H](O)O[C@@H]3CO)O[C@@H]2CO)[C@H](O)[C@@H](O)[C@@H]1O
REMARK SMILES IDX 7 1 26 2 25 3 12 4 10 5 8 6 6 7 5 8 3 9 33 10 4 11 31 12
REMARK SMILES IDX 29 13 2 14 1 15 34 17 32 19 30 21 27 23 28 24 9 26 11 28
REMARK SMILES IDX 13 30 14 31 22 32 15 33 21 34 17 35 19 36 23 37 24 38 16 40
REMARK SMILES IDX 18 42 20 44
REMARK H PARENT 1 16 34 18 32 20 30 22 28 25 9 27 11 29 24 39 16 41 18 43
REMARK H PARENT 20 45
REMARK Flexibility Score: inf
ROOT
ATOM      1  C   UNL     1      35.832   1.478  44.537  1.00  0.00     0.184 C 
ATOM      2  C   UNL     1      37.065   0.434  44.320  1.00  0.00     0.178 C 
ATOM      3  O   UNL     1      37.779   0.789  43.142  1.00  0.00    -0.341 OA
ATOM      4  C   UNL     1      38.066   2.203  43.070  1.00  0.00     0.282 C 
ATOM      5  C   UNL     1      37.634   3.193  44.267  1.00  0.00     0.202 C 
ATOM      6  C   UNL     1      36.507   2.654  45.259  1.00  0.00     0.180 C 
ENDROOT
BRANCH   1   7
ATOM      7  O   UNL     1      35.382   2.021  43.269  1.00  0.00    -0.341 OA
BRANCH   7   8
ATOM      8  C   UNL     1      34.137   2.682  43.374  1.00  0.00     0.282 C 
ATOM      9  C   UNL     1      32.587   0.930  43.600  1.00  0.00     0.178 C 
ATOM     10  C   UNL     1      31.542   1.608  42.660  1.00  0.00     0.177 C 
ATOM     11  O   UNL     1      33.322   1.923  44.246  1.00  0.00    -0.341 OA
ATOM     12  C   UNL     1      32.359   2.143  41.461  1.00  0.00     0.179 C 
ATOM     13  C   UNL     1      33.616   3.004  41.893  1.00  0.00     0.202 C 
BRANCH   9  14
ATOM     14  C   UNL     1      31.871   0.055  44.654  1.00  0.00     0.191 C 
BRANCH  14  15
ATOM     15  O   UNL     1      31.463   0.874  45.736  1.00  0.00    -0.394 OA
ATOM     16  H   UNL     1      31.170   0.217  46.452  1.00  0.00     0.210 HD
ENDBRANCH  14  15
ENDBRANCH   9  14
BRANCH  10  17
ATOM     17  O   UNL     1      31.011   2.681  43.415  1.00  0.00    -0.387 OA
ATOM     18  H   UNL     1      31.747   3.177  43.876  1.00  0.00     0.211 HD
ENDBRANCH  10  17
BRANCH  12  19
ATOM     19  O   UNL     1      32.722   1.138  40.555  1.00  0.00    -0.387 OA
ATOM     20  H   UNL     1      32.286   0.268  40.810  1.00  0.00     0.211 HD
ENDBRANCH  12  19
BRANCH  13  21
ATOM     21  O   UNL     1      33.121   4.352  41.904  1.00  0.00    -0.385 OA
ATOM     22  H   UNL     1      33.542   4.872  41.155  1.00  0.00     0.211 HD
ENDBRANCH  13  21
ENDBRANCH   7   8
ENDBRANCH   1   7
BRANCH   2  23
ATOM     23  C   UNL     1      36.814  -1.144  44.331  1.00  0.00     0.191 C 
BRANCH  23  24
ATOM     24  O   UNL     1      37.121  -1.680  45.623  1.00  0.00    -0.394 OA
ATOM     25  H   UNL     1      37.868  -1.128  46.041  1.00  0.00     0.210 HD
ENDBRANCH  23  24
ENDBRANCH   2  23
BRANCH   6  26
ATOM     26  O   UNL     1      37.014   2.406  46.588  1.00  0.00    -0.387 OA
ATOM     27  H   UNL     1      37.318   3.202  47.078  1.00  0.00     0.211 HD
ENDBRANCH   6  26
BRANCH   5  28
ATOM     28  O   UNL     1      38.720   3.733  44.951  1.00  0.00    -0.385 OA
ATOM     29  H   UNL     1      39.096   4.396  44.331  1.00  0.00     0.211 HD
ENDBRANCH   5  28
BRANCH   4  30
ATOM     30  O   UNL     1      39.434   2.413  42.689  1.00  0.00    -0.341 OA
BRANCH  30  31
ATOM     31  C   UNL     1      39.578   2.785  41.307  1.00  0.00     0.184 C 
ATOM     32  C   UNL     1      39.024   4.215  41.112  1.00  0.00     0.178 C 
ATOM     33  C   UNL     1      38.796   1.791  40.450  1.00  0.00     0.180 C 
ATOM     34  O   UNL     1      39.056   4.600  39.736  1.00  0.00    -0.342 OA
ATOM     35  C   UNL     1      38.799   2.281  38.990  1.00  0.00     0.201 C 
ATOM     36  C   UNL     1      38.305   3.735  38.914  1.00  0.00     0.279 C 
BRANCH  32  37
ATOM     37  C   UNL     1      39.815   5.251  41.917  1.00  0.00     0.191 C 
BRANCH  37  38
ATOM     38  O   UNL     1      38.942   5.891  42.827  1.00  0.00    -0.394 OA
ATOM     39  H   UNL     1      38.993   6.872  42.652  1.00  0.00     0.210 HD
ENDBRANCH  37  38
ENDBRANCH  32  37
BRANCH  33  40
ATOM     40  O   UNL     1      39.260   0.472  40.631  1.00  0.00    -0.387 OA
ATOM     41  H   UNL     1      39.548   0.089  39.755  1.00  0.00     0.211 HD
ENDBRANCH  33  40
BRANCH  35  42
ATOM     42  O   UNL     1      40.108   2.204  38.463  1.00  0.00    -0.385 OA
ATOM     43  H   UNL     1      40.659   1.741  39.135  1.00  0.00     0.211 HD
ENDBRANCH  35  42
BRANCH  36  44
ATOM     44  O   UNL     1      36.940   3.765  39.253  1.00  0.00    -0.366 OA
ATOM     45  H   UNL     1      36.449   3.547  38.440  1.00  0.00     0.213 HD
ENDBRANCH  36  44
ENDBRANCH  30  31
ENDBRANCH   4  30
TORSDOF 18
ENDMDL
MODEL 9
REMARK VINA RESULT:    -5.807      1.864      6.130
REMARK INTER + INTRA:         -12.252
REMARK INTER:                  -9.589
REMARK INTRA:                  -2.663
REMARK UNBOUND:                -2.202
REMARK SMILES OC[C@@H]1O[C@@H](O[C@@H]2[C@@H](O)[C@@H](O)[C@@H](O[C@H]3[C@H](O)[C@H](O)[C@@H](O)O[C@@H]3CO)O[C@@H]2CO)[C@H](O)[C@@H](O)[C@@H]1O
REMARK SMILES IDX 7 1 26 2 25 3 12 4 10 5 8 6 6 7 5 8 3 9 33 10 4 11 31 12
REMARK SMILES IDX 29 13 2 14 1 15 34 17 32 19 30 21 27 23 28 24 9 26 11 28
REMARK SMILES IDX 13 30 14 31 22 32 15 33 21 34 17 35 19 36 23 37 24 38 16 40
REMARK SMILES IDX 18 42 20 44
REMARK H PARENT 1 16 34 18 32 20 30 22 28 25 9 27 11 29 24 39 16 41 18 43
REMARK H PARENT 20 45
REMARK Flexibility Score: inf
ROOT
ATOM      1  C   UNL     1      39.109   1.476  43.106  1.00  0.00     0.184 C 
ATOM      2  C   UNL     1      38.561   2.586  44.166  1.00  0.00     0.178 C 
ATOM      3  O   UNL     1      37.230   2.952  43.818  1.00  0.00    -0.341 OA
ATOM      4  C   UNL     1      36.393   1.808  43.541  1.00  0.00     0.282 C 
ATOM      5  C   UNL     1      36.972   0.310  43.687  1.00  0.00     0.202 C 
ATOM      6  C   UNL     1      38.560   0.161  43.681  1.00  0.00     0.180 C 
ENDROOT
BRANCH   1   7
ATOM      7  O   UNL     1      38.460   1.624  41.816  1.00  0.00    -0.341 OA
BRANCH   7   8
ATOM      8  C   UNL     1      39.283   2.273  40.868  1.00  0.00     0.282 C 
ATOM      9  C   UNL     1      38.419   4.457  40.775  1.00  0.00     0.178 C 
ATOM     10  C   UNL     1      38.565   4.549  39.224  1.00  0.00     0.177 C 
ATOM     11  O   UNL     1      39.419   3.622  41.271  1.00  0.00    -0.341 OA
ATOM     12  C   UNL     1      38.055   3.191  38.685  1.00  0.00     0.179 C 
ATOM     13  C   UNL     1      38.714   1.945  39.406  1.00  0.00     0.202 C 
BRANCH   9  14
ATOM     14  C   UNL     1      38.560   5.859  41.410  1.00  0.00     0.191 C 
BRANCH  14  15
ATOM     15  O   UNL     1      37.457   6.090  42.271  1.00  0.00    -0.394 OA
ATOM     16  H   UNL     1      37.436   5.276  42.876  1.00  0.00     0.210 HD
ENDBRANCH  14  15
ENDBRANCH   9  14
BRANCH  10  17
ATOM     17  O   UNL     1      39.955   4.683  38.993  1.00  0.00    -0.387 OA
ATOM     18  H   UNL     1      40.309   3.868  38.532  1.00  0.00     0.211 HD
ENDBRANCH  10  17
BRANCH  12  19
ATOM     19  O   UNL     1      36.657   3.094  38.684  1.00  0.00    -0.387 OA
ATOM     20  H   UNL     1      36.316   3.021  37.741  1.00  0.00     0.211 HD
ENDBRANCH  12  19
BRANCH  13  21
ATOM     21  O   UNL     1      39.842   1.626  38.576  1.00  0.00    -0.385 OA
ATOM     22  H   UNL     1      39.556   1.599  37.614  1.00  0.00     0.211 HD
ENDBRANCH  13  21
ENDBRANCH   7   8
ENDBRANCH   1   7
BRANCH   2  23
ATOM     23  C   UNL     1      39.406   3.906  44.480  1.00  0.00     0.191 C 
BRANCH  23  24
ATOM     24  O   UNL     1      38.525   4.984  44.815  1.00  0.00    -0.394 OA
ATOM     25  H   UNL     1      37.989   4.727  45.643  1.00  0.00     0.210 HD
ENDBRANCH  23  24
ENDBRANCH   2  23
BRANCH   6  26
ATOM     26  O   UNL     1      39.080  -0.266  44.959  1.00  0.00    -0.387 OA
ATOM     27  H   UNL     1      38.535  -0.931  45.435  1.00  0.00     0.211 HD
ENDBRANCH   6  26
BRANCH   5  28
ATOM     28  O   UNL     1      36.382  -0.407  44.725  1.00  0.00    -0.385 OA
ATOM     29  H   UNL     1      37.048  -0.386  45.447  1.00  0.00     0.211 HD
ENDBRANCH   5  28
BRANCH   4  30
ATOM     30  O   UNL     1      35.129   1.946  44.207  1.00  0.00    -0.341 OA
BRANCH  30  31
ATOM     31  C   UNL     1      34.010   1.813  43.313  1.00  0.00     0.184 C 
ATOM     32  C   UNL     1      33.345   3.197  43.134  1.00  0.00     0.178 C 
ATOM     33  C   UNL     1      33.017   0.823  43.918  1.00  0.00     0.180 C 
ATOM     34  O   UNL     1      32.168   3.106  42.328  1.00  0.00    -0.342 OA
ATOM     35  C   UNL     1      31.740   0.808  43.058  1.00  0.00     0.201 C 
ATOM     36  C   UNL     1      31.203   2.236  42.876  1.00  0.00     0.279 C 
BRANCH  32  37
ATOM     37  C   UNL     1      34.293   4.208  42.481  1.00  0.00     0.191 C 
BRANCH  37  38
ATOM     38  O   UNL     1      35.028   4.869  43.493  1.00  0.00    -0.394 OA
ATOM     39  H   UNL     1      35.560   4.177  43.977  1.00  0.00     0.210 HD
ENDBRANCH  37  38
ENDBRANCH  32  37
BRANCH  33  40
ATOM     40  O   UNL     1      33.605  -0.442  44.123  1.00  0.00    -0.387 OA
ATOM     41  H   UNL     1      32.907  -1.155  44.075  1.00  0.00     0.211 HD
ENDBRANCH  33  40
BRANCH  35  42
ATOM     42  O   UNL     1      32.024   0.250  41.790  1.00  0.00    -0.385 OA
ATOM     43  H   UNL     1      32.108   1.002  41.161  1.00  0.00     0.211 HD
ENDBRANCH  35  42
BRANCH  36  44
ATOM     44  O   UNL     1      30.739   2.705  44.118  1.00  0.00    -0.366 OA
ATOM     45  H   UNL     1      30.757   1.943  44.724  1.00  0.00     0.213 HD
ENDBRANCH  36  44
ENDBRANCH  30  31
ENDBRANCH   4  30
TORSDOF 18
ENDMDL
