MODEL 1
REMARK VINA RESULT:    -6.021      0.000      0.000
REMARK INTER + INTRA:         -12.530
REMARK INTER:                 -10.421
REMARK INTRA:                  -2.109
REMARK UNBOUND:                -2.109
REMARK SMILES OC[C@@H]1O[C@@H](O[C@@H]2[C@H](O)[C@H](O)[C@H](O[C@H]3[C@H](O)[C@H](O)[C@@H](O)O[C@H]3CO)O[C@@H]2CO)[C@H](O)[C@H](O)[C@H]1O
REMARK SMILES IDX 7 1 26 2 25 3 12 4 10 5 8 6 6 7 5 8 3 9 33 10 4 11 31 12
REMARK SMILES IDX 29 13 2 14 1 15 34 17 32 19 30 21 27 23 28 24 9 26 11 28
REMARK SMILES IDX 13 30 14 31 22 32 15 33 21 34 17 35 19 36 23 37 24 38 16 40
REMARK SMILES IDX 18 42 20 44
REMARK H PARENT 1 16 34 18 32 20 30 22 28 25 9 27 11 29 24 39 16 41 18 43
REMARK H PARENT 20 45
REMARK Flexibility Score: inf
ROOT
ATOM      1  C   UNL     1      35.825   2.440  43.683  1.00  0.00     0.184 C 
ATOM      2  C   UNL     1      36.314   2.456  42.209  1.00  0.00     0.178 C 
ATOM      3  O   UNL     1      37.730   2.574  42.085  1.00  0.00    -0.341 OA
ATOM      4  C   UNL     1      38.293   3.675  42.787  1.00  0.00     0.282 C 
ATOM      5  C   UNL     1      37.947   3.631  44.290  1.00  0.00     0.202 C 
ATOM      6  C   UNL     1      36.431   3.594  44.502  1.00  0.00     0.180 C 
ENDROOT
BRANCH   1   7
ATOM      7  O   UNL     1      34.408   2.504  43.712  1.00  0.00    -0.341 OA
BRANCH   7   8
ATOM      8  C   UNL     1      33.793   1.398  43.060  1.00  0.00     0.282 C 
ATOM      9  C   UNL     1      31.851   2.667  42.631  1.00  0.00     0.178 C 
ATOM     10  C   UNL     1      31.014   1.871  43.671  1.00  0.00     0.177 C 
ATOM     11  O   UNL     1      32.873   1.849  42.074  1.00  0.00    -0.341 OA
ATOM     12  C   UNL     1      31.931   1.281  44.756  1.00  0.00     0.179 C 
ATOM     13  C   UNL     1      33.093   0.508  44.101  1.00  0.00     0.202 C 
BRANCH   9  14
ATOM     14  C   UNL     1      30.969   3.170  41.478  1.00  0.00     0.191 C 
BRANCH  14  15
ATOM     15  O   UNL     1      31.674   4.087  40.685  1.00  0.00    -0.394 OA
ATOM     16  H   UNL     1      32.266   3.547  40.101  1.00  0.00     0.210 HD
ENDBRANCH  14  15
ENDBRANCH   9  14
BRANCH  10  17
ATOM     17  O   UNL     1      30.021   2.672  44.262  1.00  0.00    -0.387 OA
ATOM     18  H   UNL     1      29.247   2.703  43.640  1.00  0.00     0.211 HD
ENDBRANCH  10  17
BRANCH  12  19
ATOM     19  O   UNL     1      31.186   0.438  45.596  1.00  0.00    -0.387 OA
ATOM     20  H   UNL     1      31.184  -0.460  45.171  1.00  0.00     0.211 HD
ENDBRANCH  12  19
BRANCH  13  21
ATOM     21  O   UNL     1      32.617  -0.654  43.468  1.00  0.00    -0.385 OA
ATOM     22  H   UNL     1      33.259  -1.383  43.677  1.00  0.00     0.211 HD
ENDBRANCH  13  21
ENDBRANCH   7   8
ENDBRANCH   1   7
BRANCH   2  23
ATOM     23  C   UNL     1      35.544   3.428  41.283  1.00  0.00     0.191 C 
BRANCH  23  24
ATOM     24  O   UNL     1      35.190   2.787  40.087  1.00  0.00    -0.394 OA
ATOM     25  H   UNL     1      34.491   2.121  40.313  1.00  0.00     0.210 HD
ENDBRANCH  23  24
ENDBRANCH   2  23
BRANCH   6  26
ATOM     26  O   UNL     1      35.840   4.816  44.134  1.00  0.00    -0.387 OA
ATOM     27  H   UNL     1      36.561   5.498  44.124  1.00  0.00     0.211 HD
ENDBRANCH   6  26
BRANCH   5  28
ATOM     28  O   UNL     1      38.489   4.741  44.960  1.00  0.00    -0.385 OA
ATOM     29  H   UNL     1      39.452   4.776  44.722  1.00  0.00     0.211 HD
ENDBRANCH   5  28
BRANCH   4  30
ATOM     30  O   UNL     1      37.873   4.899  42.202  1.00  0.00    -0.341 OA
BRANCH  30  31
ATOM     31  C   UNL     1      38.790   5.414  41.248  1.00  0.00     0.184 C 
ATOM     32  C   UNL     1      39.361   6.761  41.772  1.00  0.00     0.178 C 
ATOM     33  C   UNL     1      38.093   5.586  39.887  1.00  0.00     0.180 C 
ATOM     34  O   UNL     1      40.125   7.481  40.808  1.00  0.00    -0.342 OA
ATOM     35  C   UNL     1      39.006   6.354  38.925  1.00  0.00     0.201 C 
ATOM     36  C   UNL     1      39.465   7.675  39.564  1.00  0.00     0.279 C 
BRANCH  32  37
ATOM     37  C   UNL     1      38.367   7.665  42.540  1.00  0.00     0.191 C 
BRANCH  37  38
ATOM     38  O   UNL     1      38.027   7.134  43.789  1.00  0.00    -0.394 OA
ATOM     39  H   UNL     1      38.871   6.796  44.184  1.00  0.00     0.210 HD
ENDBRANCH  37  38
ENDBRANCH  32  37
BRANCH  33  40
ATOM     40  O   UNL     1      37.780   4.326  39.351  1.00  0.00    -0.387 OA
ATOM     41  H   UNL     1      38.313   4.227  38.520  1.00  0.00     0.211 HD
ENDBRANCH  33  40
BRANCH  35  42
ATOM     42  O   UNL     1      40.124   5.565  38.600  1.00  0.00    -0.385 OA
ATOM     43  H   UNL     1      40.243   4.916  39.342  1.00  0.00     0.211 HD
ENDBRANCH  35  42
BRANCH  36  44
ATOM     44  O   UNL     1      38.392   8.571  39.685  1.00  0.00    -0.366 OA
ATOM     45  H   UNL     1      37.738   8.145  40.299  1.00  0.00     0.213 HD
ENDBRANCH  36  44
ENDBRANCH  30  31
ENDBRANCH   4  30
TORSDOF 18
ENDMDL
MODEL 2
REMARK VINA RESULT:    -5.349     12.767     15.447
REMARK INTER + INTRA:         -11.366
REMARK INTER:                  -9.090
REMARK INTRA:                  -2.276
REMARK UNBOUND:                -2.109
REMARK SMILES OC[C@@H]1O[C@@H](O[C@@H]2[C@H](O)[C@H](O)[C@H](O[C@H]3[C@H](O)[C@H](O)[C@@H](O)O[C@H]3CO)O[C@@H]2CO)[C@H](O)[C@H](O)[C@H]1O
REMARK SMILES IDX 7 1 26 2 25 3 12 4 10 5 8 6 6 7 5 8 3 9 33 10 4 11 31 12
REMARK SMILES IDX 29 13 2 14 1 15 34 17 32 19 30 21 27 23 28 24 9 26 11 28
REMARK SMILES IDX 13 30 14 31 22 32 15 33 21 34 17 35 19 36 23 37 24 38 16 40
REMARK SMILES IDX 18 42 20 44
REMARK H PARENT 1 16 34 18 32 20 30 22 28 25 9 27 11 29 24 39 16 41 18 43
REMARK H PARENT 20 45
REMARK Flexibility Score: inf
ROOT
ATOM      1  C   UNL     1      23.284   3.039  37.557  1.00  0.00     0.184 C 
ATOM      2  C   UNL     1      23.838   4.250  38.356  1.00  0.00     0.178 C 
ATOM      3  O   UNL     1      24.393   3.887  39.619  1.00  0.00    -0.341 OA
ATOM      4  C   UNL     1      23.525   3.125  40.448  1.00  0.00     0.282 C 
ATOM      5  C   UNL     1      23.052   1.836  39.745  1.00  0.00     0.202 C 
ATOM      6  C   UNL     1      22.361   2.158  38.417  1.00  0.00     0.180 C 
ENDROOT
BRANCH   1   7
ATOM      7  O   UNL     1      22.594   3.507  36.410  1.00  0.00    -0.341 OA
BRANCH   7   8
ATOM      8  C   UNL     1      23.206   3.096  35.192  1.00  0.00     0.282 C 
ATOM      9  C   UNL     1      21.107   2.943  34.128  1.00  0.00     0.178 C 
ATOM     10  C   UNL     1      21.160   1.390  34.089  1.00  0.00     0.177 C 
ATOM     11  O   UNL     1      22.417   3.493  34.078  1.00  0.00    -0.341 OA
ATOM     12  C   UNL     1      22.050   0.857  35.225  1.00  0.00     0.179 C 
ATOM     13  C   UNL     1      23.414   1.572  35.206  1.00  0.00     0.202 C 
BRANCH   9  14
ATOM     14  C   UNL     1      20.314   3.500  32.937  1.00  0.00     0.191 C 
BRANCH  14  15
ATOM     15  O   UNL     1      20.203   4.895  33.031  1.00  0.00    -0.394 OA
ATOM     16  H   UNL     1      19.255   5.109  32.832  1.00  0.00     0.210 HD
ENDBRANCH  14  15
ENDBRANCH   9  14
BRANCH  10  17
ATOM     17  O   UNL     1      19.875   0.823  34.176  1.00  0.00    -0.387 OA
ATOM     18  H   UNL     1      19.725   0.558  35.122  1.00  0.00     0.211 HD
ENDBRANCH  10  17
BRANCH  12  19
ATOM     19  O   UNL     1      22.214  -0.530  35.084  1.00  0.00    -0.387 OA
ATOM     20  H   UNL     1      23.036  -0.667  34.542  1.00  0.00     0.211 HD
ENDBRANCH  12  19
BRANCH  13  21
ATOM     21  O   UNL     1      24.151   1.198  34.068  1.00  0.00    -0.385 OA
ATOM     22  H   UNL     1      23.511   0.790  33.427  1.00  0.00     0.211 HD
ENDBRANCH  13  21
ENDBRANCH   7   8
ENDBRANCH   1   7
BRANCH   2  23
ATOM     23  C   UNL     1      22.877   5.460  38.446  1.00  0.00     0.191 C 
BRANCH  23  24
ATOM     24  O   UNL     1      22.785   6.105  37.203  1.00  0.00    -0.394 OA
ATOM     25  H   UNL     1      23.131   7.026  37.332  1.00  0.00     0.210 HD
ENDBRANCH  23  24
ENDBRANCH   2  23
BRANCH   6  26
ATOM     26  O   UNL     1      21.131   2.804  38.632  1.00  0.00    -0.387 OA
ATOM     27  H   UNL     1      20.433   2.098  38.673  1.00  0.00     0.211 HD
ENDBRANCH   6  26
BRANCH   5  28
ATOM     28  O   UNL     1      22.174   1.112  40.569  1.00  0.00    -0.385 OA
ATOM     29  H   UNL     1      21.497   1.757  40.903  1.00  0.00     0.211 HD
ENDBRANCH   5  28
BRANCH   4  30
ATOM     30  O   UNL     1      22.421   3.916  40.862  1.00  0.00    -0.341 OA
BRANCH  30  31
ATOM     31  C   UNL     1      22.484   4.305  42.226  1.00  0.00     0.184 C 
ATOM     32  C   UNL     1      21.232   3.757  42.967  1.00  0.00     0.178 C 
ATOM     33  C   UNL     1      22.578   5.837  42.332  1.00  0.00     0.180 C 
ATOM     34  O   UNL     1      21.072   4.265  44.289  1.00  0.00    -0.342 OA
ATOM     35  C   UNL     1      22.412   6.272  43.792  1.00  0.00     0.201 C 
ATOM     36  C   UNL     1      21.119   5.683  44.381  1.00  0.00     0.279 C 
BRANCH  32  37
ATOM     37  C   UNL     1      19.910   3.765  42.161  1.00  0.00     0.191 C 
BRANCH  37  38
ATOM     38  O   UNL     1      19.927   2.842  41.111  1.00  0.00    -0.394 OA
ATOM     39  H   UNL     1      18.988   2.545  40.989  1.00  0.00     0.210 HD
ENDBRANCH  37  38
ENDBRANCH  32  37
BRANCH  33  40
ATOM     40  O   UNL     1      23.820   6.272  41.840  1.00  0.00    -0.387 OA
ATOM     41  H   UNL     1      24.516   5.734  42.299  1.00  0.00     0.211 HD
ENDBRANCH  33  40
BRANCH  35  42
ATOM     42  O   UNL     1      23.520   5.843  44.545  1.00  0.00    -0.385 OA
ATOM     43  H   UNL     1      23.284   5.970  45.501  1.00  0.00     0.211 HD
ENDBRANCH  35  42
BRANCH  36  44
ATOM     44  O   UNL     1      19.989   6.273  43.797  1.00  0.00    -0.366 OA
ATOM     45  H   UNL     1      19.474   6.688  44.537  1.00  0.00     0.213 HD
ENDBRANCH  36  44
ENDBRANCH  30  31
ENDBRANCH   4  30
TORSDOF 18
ENDMDL
MODEL 3
REMARK VINA RESULT:    -5.231      3.682      5.768
REMARK INTER + INTRA:         -11.162
REMARK INTER:                 -10.127
REMARK INTRA:                  -1.035
REMARK UNBOUND:                -2.109
REMARK SMILES OC[C@@H]1O[C@@H](O[C@@H]2[C@H](O)[C@H](O)[C@H](O[C@H]3[C@H](O)[C@H](O)[C@@H](O)O[C@H]3CO)O[C@@H]2CO)[C@H](O)[C@H](O)[C@H]1O
REMARK SMILES IDX 7 1 26 2 25 3 12 4 10 5 8 6 6 7 5 8 3 9 33 10 4 11 31 12
REMARK SMILES IDX 29 13 2 14 1 15 34 17 32 19 30 21 27 23 28 24 9 26 11 28
REMARK SMILES IDX 13 30 14 31 22 32 15 33 21 34 17 35 19 36 23 37 24 38 16 40
REMARK SMILES IDX 18 42 20 44
REMARK H PARENT 1 16 34 18 32 20 30 22 28 25 9 27 11 29 24 39 16 41 18 43
REMARK H PARENT 20 45
REMARK Flexibility Score: inf
ROOT
ATOM      1  C   UNL     1      39.317   1.212  42.863  1.00  0.00     0.184 C 
ATOM      2  C   UNL     1      38.669   2.030  41.713  1.00  0.00     0.178 C 
ATOM      3  O   UNL     1      39.243   3.326  41.549  1.00  0.00    -0.341 OA
ATOM      4  C   UNL     1      39.275   4.110  42.735  1.00  0.00     0.282 C 
ATOM      5  C   UNL     1      40.030   3.394  43.874  1.00  0.00     0.202 C 
ATOM      6  C   UNL     1      39.408   2.025  44.166  1.00  0.00     0.180 C 
ENDROOT
BRANCH   1   7
ATOM      7  O   UNL     1      38.574   0.022  43.073  1.00  0.00    -0.341 OA
BRANCH   7   8
ATOM      8  C   UNL     1      39.219  -0.882  43.963  1.00  0.00     0.282 C 
ATOM      9  C   UNL     1      39.188  -2.587  42.334  1.00  0.00     0.178 C 
ATOM     10  C   UNL     1      38.106  -3.398  43.100  1.00  0.00     0.177 C 
ATOM     11  O   UNL     1      39.986  -1.833  43.237  1.00  0.00    -0.341 OA
ATOM     12  C   UNL     1      37.255  -2.461  43.974  1.00  0.00     0.179 C 
ATOM     13  C   UNL     1      38.169  -1.578  44.845  1.00  0.00     0.202 C 
BRANCH   9  14
ATOM     14  C   UNL     1      40.119  -3.516  41.541  1.00  0.00     0.191 C 
BRANCH  14  15
ATOM     15  O   UNL     1      39.566  -3.813  40.288  1.00  0.00    -0.394 OA
ATOM     16  H   UNL     1      38.588  -3.671  40.378  1.00  0.00     0.210 HD
ENDBRANCH  14  15
ENDBRANCH   9  14
BRANCH  10  17
ATOM     17  O   UNL     1      37.279  -4.123  42.222  1.00  0.00    -0.387 OA
ATOM     18  H   UNL     1      37.430  -3.771  41.306  1.00  0.00     0.211 HD
ENDBRANCH  10  17
BRANCH  12  19
ATOM     19  O   UNL     1      36.389  -3.222  44.776  1.00  0.00    -0.387 OA
ATOM     20  H   UNL     1      36.507  -2.901  45.709  1.00  0.00     0.211 HD
ENDBRANCH  12  19
BRANCH  13  21
ATOM     21  O   UNL     1      38.826  -2.355  45.817  1.00  0.00    -0.385 OA
ATOM     22  H   UNL     1      39.034  -1.752  46.579  1.00  0.00     0.211 HD
ENDBRANCH  13  21
ENDBRANCH   7   8
ENDBRANCH   1   7
BRANCH   2  23
ATOM     23  C   UNL     1      37.122   2.053  41.728  1.00  0.00     0.191 C 
BRANCH  23  24
ATOM     24  O   UNL     1      36.641   3.133  40.973  1.00  0.00    -0.394 OA
ATOM     25  H   UNL     1      37.223   3.909  41.179  1.00  0.00     0.210 HD
ENDBRANCH  23  24
ENDBRANCH   2  23
BRANCH   6  26
ATOM     26  O   UNL     1      38.134   2.163  44.745  1.00  0.00    -0.387 OA
ATOM     27  H   UNL     1      38.133   3.019  45.249  1.00  0.00     0.211 HD
ENDBRANCH   6  26
BRANCH   5  28
ATOM     28  O   UNL     1      40.026   4.173  45.043  1.00  0.00    -0.385 OA
ATOM     29  H   UNL     1      40.058   5.122  44.754  1.00  0.00     0.211 HD
ENDBRANCH   5  28
BRANCH   4  30
ATOM     30  O   UNL     1      37.956   4.453  43.134  1.00  0.00    -0.341 OA
BRANCH  30  31
ATOM     31  C   UNL     1      37.904   5.552  44.032  1.00  0.00     0.184 C 
ATOM     32  C   UNL     1      36.450   5.707  44.558  1.00  0.00     0.178 C 
ATOM     33  C   UNL     1      38.390   6.831  43.328  1.00  0.00     0.180 C 
ATOM     34  O   UNL     1      36.225   6.905  45.297  1.00  0.00    -0.342 OA
ATOM     35  C   UNL     1      38.118   8.052  44.213  1.00  0.00     0.201 C 
ATOM     36  C   UNL     1      36.638   8.091  44.629  1.00  0.00     0.279 C 
BRANCH  32  37
ATOM     37  C   UNL     1      35.325   5.417  43.536  1.00  0.00     0.191 C 
BRANCH  37  38
ATOM     38  O   UNL     1      35.742   5.631  42.218  1.00  0.00    -0.394 OA
ATOM     39  H   UNL     1      34.929   5.883  41.708  1.00  0.00     0.210 HD
ENDBRANCH  37  38
ENDBRANCH  32  37
BRANCH  33  40
ATOM     40  O   UNL     1      39.765   6.731  43.057  1.00  0.00    -0.387 OA
ATOM     41  H   UNL     1      39.935   5.796  42.772  1.00  0.00     0.211 HD
ENDBRANCH  33  40
BRANCH  35  42
ATOM     42  O   UNL     1      38.935   8.001  45.357  1.00  0.00    -0.385 OA
ATOM     43  H   UNL     1      39.244   7.061  45.447  1.00  0.00     0.211 HD
ENDBRANCH  35  42
BRANCH  36  44
ATOM     44  O   UNL     1      35.816   8.372  43.528  1.00  0.00    -0.366 OA
ATOM     45  H   UNL     1      34.968   7.878  43.676  1.00  0.00     0.213 HD
ENDBRANCH  36  44
ENDBRANCH  30  31
ENDBRANCH   4  30
TORSDOF 18
ENDMDL
MODEL 4
REMARK VINA RESULT:    -5.143      3.562      5.842
REMARK INTER + INTRA:         -11.009
REMARK INTER:                  -9.325
REMARK INTRA:                  -1.684
REMARK UNBOUND:                -2.109
REMARK SMILES OC[C@@H]1O[C@@H](O[C@@H]2[C@H](O)[C@H](O)[C@H](O[C@H]3[C@H](O)[C@H](O)[C@@H](O)O[C@H]3CO)O[C@@H]2CO)[C@H](O)[C@H](O)[C@H]1O
REMARK SMILES IDX 7 1 26 2 25 3 12 4 10 5 8 6 6 7 5 8 3 9 33 10 4 11 31 12
REMARK SMILES IDX 29 13 2 14 1 15 34 17 32 19 30 21 27 23 28 24 9 26 11 28
REMARK SMILES IDX 13 30 14 31 22 32 15 33 21 34 17 35 19 36 23 37 24 38 16 40
REMARK SMILES IDX 18 42 20 44
REMARK H PARENT 1 16 34 18 32 20 30 22 28 25 9 27 11 29 24 39 16 41 18 43
REMARK H PARENT 20 45
REMARK Flexibility Score: inf
ROOT
ATOM      1  C   UNL     1      36.961   0.865  44.354  1.00  0.00     0.184 C 
ATOM      2  C   UNL     1      38.035   1.696  45.108  1.00  0.00     0.178 C 
ATOM      3  O   UNL     1      37.484   2.758  45.885  1.00  0.00    -0.341 OA
ATOM      4  C   UNL     1      36.624   3.630  45.165  1.00  0.00     0.282 C 
ATOM      5  C   UNL     1      35.457   2.866  44.505  1.00  0.00     0.202 C 
ATOM      6  C   UNL     1      35.979   1.763  43.580  1.00  0.00     0.180 C 
ENDROOT
BRANCH   1   7
ATOM      7  O   UNL     1      37.601  -0.043  43.472  1.00  0.00    -0.341 OA
BRANCH   7   8
ATOM      8  C   UNL     1      38.622  -0.803  44.108  1.00  0.00     0.282 C 
ATOM      9  C   UNL     1      38.989  -2.052  42.141  1.00  0.00     0.178 C 
ATOM     10  C   UNL     1      38.357  -3.334  42.751  1.00  0.00     0.177 C 
ATOM     11  O   UNL     1      39.579  -1.249  43.156  1.00  0.00    -0.341 OA
ATOM     12  C   UNL     1      37.345  -2.961  43.848  1.00  0.00     0.179 C 
ATOM     13  C   UNL     1      37.994  -1.992  44.855  1.00  0.00     0.202 C 
BRANCH   9  14
ATOM     14  C   UNL     1      40.083  -2.404  41.122  1.00  0.00     0.191 C 
BRANCH  14  15
ATOM     15  O   UNL     1      39.527  -2.583  39.847  1.00  0.00    -0.394 OA
ATOM     16  H   UNL     1      40.009  -1.959  39.246  1.00  0.00     0.210 HD
ENDBRANCH  14  15
ENDBRANCH   9  14
BRANCH  10  17
ATOM     17  O   UNL     1      37.734  -4.125  41.768  1.00  0.00    -0.387 OA
ATOM     18  H   UNL     1      37.869  -5.077  42.017  1.00  0.00     0.211 HD
ENDBRANCH  10  17
BRANCH  12  19
ATOM     19  O   UNL     1      36.901  -4.125  44.495  1.00  0.00    -0.387 OA
ATOM     20  H   UNL     1      36.537  -4.723  43.790  1.00  0.00     0.211 HD
ENDBRANCH  12  19
BRANCH  13  21
ATOM     21  O   UNL     1      38.991  -2.648  45.599  1.00  0.00    -0.385 OA
ATOM     22  H   UNL     1      39.623  -1.950  45.917  1.00  0.00     0.211 HD
ENDBRANCH  13  21
ENDBRANCH   7   8
ENDBRANCH   1   7
BRANCH   2  23
ATOM     23  C   UNL     1      39.234   2.145  44.239  1.00  0.00     0.191 C 
BRANCH  23  24
ATOM     24  O   UNL     1      40.101   2.959  44.982  1.00  0.00    -0.394 OA
ATOM     25  H   UNL     1      40.390   3.694  44.382  1.00  0.00     0.210 HD
ENDBRANCH  23  24
ENDBRANCH   2  23
BRANCH   6  26
ATOM     26  O   UNL     1      36.606   2.309  42.447  1.00  0.00    -0.387 OA
ATOM     27  H   UNL     1      37.545   1.986  42.448  1.00  0.00     0.211 HD
ENDBRANCH   6  26
BRANCH   5  28
ATOM     28  O   UNL     1      34.635   3.742  43.776  1.00  0.00    -0.385 OA
ATOM     29  H   UNL     1      34.122   4.272  44.441  1.00  0.00     0.211 HD
ENDBRANCH   5  28
BRANCH   4  30
ATOM     30  O   UNL     1      37.363   4.365  44.200  1.00  0.00    -0.341 OA
BRANCH  30  31
ATOM     31  C   UNL     1      37.485   5.745  44.512  1.00  0.00     0.184 C 
ATOM     32  C   UNL     1      36.427   6.542  43.698  1.00  0.00     0.178 C 
ATOM     33  C   UNL     1      38.914   6.229  44.209  1.00  0.00     0.180 C 
ATOM     34  O   UNL     1      36.594   7.956  43.760  1.00  0.00    -0.342 OA
ATOM     35  C   UNL     1      38.984   7.756  44.320  1.00  0.00     0.201 C 
ATOM     36  C   UNL     1      37.904   8.407  43.441  1.00  0.00     0.279 C 
BRANCH  32  37
ATOM     37  C   UNL     1      36.156   6.036  42.261  1.00  0.00     0.191 C 
BRANCH  37  38
ATOM     38  O   UNL     1      37.327   5.626  41.616  1.00  0.00    -0.394 OA
ATOM     39  H   UNL     1      37.971   5.394  42.333  1.00  0.00     0.210 HD
ENDBRANCH  37  38
ENDBRANCH  32  37
BRANCH  33  40
ATOM     40  O   UNL     1      39.816   5.639  45.109  1.00  0.00    -0.387 OA
ATOM     41  H   UNL     1      39.481   4.724  45.294  1.00  0.00     0.211 HD
ENDBRANCH  33  40
BRANCH  35  42
ATOM     42  O   UNL     1      38.806   8.142  45.661  1.00  0.00    -0.385 OA
ATOM     43  H   UNL     1      39.112   9.084  45.731  1.00  0.00     0.211 HD
ENDBRANCH  35  42
BRANCH  36  44
ATOM     44  O   UNL     1      38.192   8.225  42.080  1.00  0.00    -0.366 OA
ATOM     45  H   UNL     1      37.658   8.901  41.586  1.00  0.00     0.213 HD
ENDBRANCH  36  44
ENDBRANCH  30  31
ENDBRANCH   4  30
TORSDOF 18
ENDMDL
MODEL 5
REMARK VINA RESULT:    -4.766      4.009      7.018
REMARK INTER + INTRA:         -10.357
REMARK INTER:                  -9.224
REMARK INTRA:                  -1.133
REMARK UNBOUND:                -2.109
REMARK SMILES OC[C@@H]1O[C@@H](O[C@@H]2[C@H](O)[C@H](O)[C@H](O[C@H]3[C@H](O)[C@H](O)[C@@H](O)O[C@H]3CO)O[C@@H]2CO)[C@H](O)[C@H](O)[C@H]1O
REMARK SMILES IDX 7 1 26 2 25 3 12 4 10 5 8 6 6 7 5 8 3 9 33 10 4 11 31 12
REMARK SMILES IDX 29 13 2 14 1 15 34 17 32 19 30 21 27 23 28 24 9 26 11 28
REMARK SMILES IDX 13 30 14 31 22 32 15 33 21 34 17 35 19 36 23 37 24 38 16 40
REMARK SMILES IDX 18 42 20 44
REMARK H PARENT 1 16 34 18 32 20 30 22 28 25 9 27 11 29 24 39 16 41 18 43
REMARK H PARENT 20 45
REMARK Flexibility Score: inf
ROOT
ATOM      1  C   UNL     1      38.359   1.781  39.025  1.00  0.00     0.184 C 
ATOM      2  C   UNL     1      39.421   2.429  39.955  1.00  0.00     0.178 C 
ATOM      3  O   UNL     1      39.092   2.335  41.340  1.00  0.00    -0.341 OA
ATOM      4  C   UNL     1      37.801   2.827  41.674  1.00  0.00     0.282 C 
ATOM      5  C   UNL     1      36.693   2.117  40.870  1.00  0.00     0.202 C 
ATOM      6  C   UNL     1      36.934   2.255  39.364  1.00  0.00     0.180 C 
ENDROOT
BRANCH   1   7
ATOM      7  O   UNL     1      38.671   2.077  37.674  1.00  0.00    -0.341 OA
BRANCH   7   8
ATOM      8  C   UNL     1      39.635   1.188  37.122  1.00  0.00     0.282 C 
ATOM      9  C   UNL     1      38.790   1.538  34.948  1.00  0.00     0.178 C 
ATOM     10  C   UNL     1      38.178   0.112  34.879  1.00  0.00     0.177 C 
ATOM     11  O   UNL     1      39.942   1.552  35.783  1.00  0.00    -0.341 OA
ATOM     12  C   UNL     1      37.867  -0.406  36.293  1.00  0.00     0.179 C 
ATOM     13  C   UNL     1      39.108  -0.256  37.194  1.00  0.00     0.202 C 
BRANCH   9  14
ATOM     14  C   UNL     1      39.211   2.030  33.555  1.00  0.00     0.191 C 
BRANCH  14  15
ATOM     15  O   UNL     1      38.132   2.647  32.906  1.00  0.00    -0.394 OA
ATOM     16  H   UNL     1      38.529   3.296  32.269  1.00  0.00     0.210 HD
ENDBRANCH  14  15
ENDBRANCH   9  14
BRANCH  10  17
ATOM     17  O   UNL     1      37.014   0.083  34.088  1.00  0.00    -0.387 OA
ATOM     18  H   UNL     1      36.260   0.405  34.649  1.00  0.00     0.211 HD
ENDBRANCH  10  17
BRANCH  12  19
ATOM     19  O   UNL     1      37.463  -1.749  36.226  1.00  0.00    -0.387 OA
ATOM     20  H   UNL     1      36.500  -1.770  36.472  1.00  0.00     0.211 HD
ENDBRANCH  12  19
BRANCH  13  21
ATOM     21  O   UNL     1      40.124  -1.138  36.785  1.00  0.00    -0.385 OA
ATOM     22  H   UNL     1      40.254  -1.001  35.810  1.00  0.00     0.211 HD
ENDBRANCH  13  21
ENDBRANCH   7   8
ENDBRANCH   1   7
BRANCH   2  23
ATOM     23  C   UNL     1      39.867   3.850  39.536  1.00  0.00     0.191 C 
BRANCH  23  24
ATOM     24  O   UNL     1      38.834   4.505  38.850  1.00  0.00    -0.394 OA
ATOM     25  H   UNL     1      39.129   4.596  37.907  1.00  0.00     0.210 HD
ENDBRANCH  23  24
ENDBRANCH   2  23
BRANCH   6  26
ATOM     26  O   UNL     1      36.749   3.584  38.943  1.00  0.00    -0.387 OA
ATOM     27  H   UNL     1      37.563   4.089  39.205  1.00  0.00     0.211 HD
ENDBRANCH   6  26
BRANCH   5  28
ATOM     28  O   UNL     1      35.429   2.637  41.194  1.00  0.00    -0.385 OA
ATOM     29  H   UNL     1      35.232   3.346  40.526  1.00  0.00     0.211 HD
ENDBRANCH   5  28
BRANCH   4  30
ATOM     30  O   UNL     1      37.747   4.234  41.484  1.00  0.00    -0.341 OA
BRANCH  30  31
ATOM     31  C   UNL     1      37.957   4.974  42.677  1.00  0.00     0.184 C 
ATOM     32  C   UNL     1      36.610   5.091  43.443  1.00  0.00     0.178 C 
ATOM     33  C   UNL     1      38.540   6.359  42.342  1.00  0.00     0.180 C 
ATOM     34  O   UNL     1      36.646   5.995  44.544  1.00  0.00    -0.342 OA
ATOM     35  C   UNL     1      38.549   7.240  43.596  1.00  0.00     0.201 C 
ATOM     36  C   UNL     1      37.147   7.287  44.226  1.00  0.00     0.279 C 
BRANCH  32  37
ATOM     37  C   UNL     1      35.346   5.269  42.568  1.00  0.00     0.191 C 
BRANCH  37  38
ATOM     38  O   UNL     1      34.323   4.388  42.933  1.00  0.00    -0.394 OA
ATOM     39  H   UNL     1      34.521   4.104  43.862  1.00  0.00     0.210 HD
ENDBRANCH  37  38
ENDBRANCH  32  37
BRANCH  33  40
ATOM     40  O   UNL     1      39.846   6.217  41.845  1.00  0.00    -0.387 OA
ATOM     41  H   UNL     1      40.300   5.544  42.416  1.00  0.00     0.211 HD
ENDBRANCH  33  40
BRANCH  35  42
ATOM     42  O   UNL     1      39.475   6.734  44.526  1.00  0.00    -0.385 OA
ATOM     43  H   UNL     1      39.792   7.506  45.063  1.00  0.00     0.211 HD
ENDBRANCH  35  42
BRANCH  36  44
ATOM     44  O   UNL     1      36.255   7.996  43.408  1.00  0.00    -0.366 OA
ATOM     45  H   UNL     1      36.797   8.663  42.911  1.00  0.00     0.213 HD
ENDBRANCH  36  44
ENDBRANCH  30  31
ENDBRANCH   4  30
TORSDOF 18
ENDMDL
MODEL 6
REMARK VINA RESULT:    -4.705      3.138      7.528
REMARK INTER + INTRA:         -10.252
REMARK INTER:                  -7.799
REMARK INTRA:                  -2.453
REMARK UNBOUND:                -2.109
REMARK SMILES OC[C@@H]1O[C@@H](O[C@@H]2[C@H](O)[C@H](O)[C@H](O[C@H]3[C@H](O)[C@H](O)[C@@H](O)O[C@H]3CO)O[C@@H]2CO)[C@H](O)[C@H](O)[C@H]1O
REMARK SMILES IDX 7 1 26 2 25 3 12 4 10 5 8 6 6 7 5 8 3 9 33 10 4 11 31 12
REMARK SMILES IDX 29 13 2 14 1 15 34 17 32 19 30 21 27 23 28 24 9 26 11 28
REMARK SMILES IDX 13 30 14 31 22 32 15 33 21 34 17 35 19 36 23 37 24 38 16 40
REMARK SMILES IDX 18 42 20 44
REMARK H PARENT 1 16 34 18 32 20 30 22 28 25 9 27 11 29 24 39 16 41 18 43
REMARK H PARENT 20 45
REMARK Flexibility Score: inf
ROOT
ATOM      1  C   UNL     1      35.828   4.174  43.380  1.00  0.00     0.184 C 
ATOM      2  C   UNL     1      36.872   3.414  42.517  1.00  0.00     0.178 C 
ATOM      3  O   UNL     1      36.364   2.211  41.943  1.00  0.00    -0.341 OA
ATOM      4  C   UNL     1      35.776   1.316  42.878  1.00  0.00     0.282 C 
ATOM      5  C   UNL     1      34.635   1.986  43.671  1.00  0.00     0.202 C 
ATOM      6  C   UNL     1      35.134   3.243  44.391  1.00  0.00     0.180 C 
ENDROOT
BRANCH   1   7
ATOM      7  O   UNL     1      36.463   5.248  44.053  1.00  0.00    -0.341 OA
BRANCH   7   8
ATOM      8  C   UNL     1      36.470   6.450  43.289  1.00  0.00     0.282 C 
ATOM      9  C   UNL     1      38.808   6.647  43.528  1.00  0.00     0.178 C 
ATOM     10  C   UNL     1      38.680   7.858  44.493  1.00  0.00     0.177 C 
ATOM     11  O   UNL     1      37.714   6.608  42.620  1.00  0.00    -0.341 OA
ATOM     12  C   UNL     1      37.328   7.817  45.226  1.00  0.00     0.179 C 
ATOM     13  C   UNL     1      36.183   7.649  44.209  1.00  0.00     0.202 C 
BRANCH   9  14
ATOM     14  C   UNL     1      40.103   6.729  42.705  1.00  0.00     0.191 C 
BRANCH  14  15
ATOM     15  O   UNL     1      40.083   5.789  41.664  1.00  0.00    -0.394 OA
ATOM     16  H   UNL     1      39.251   5.264  41.784  1.00  0.00     0.210 HD
ENDBRANCH  14  15
ENDBRANCH   9  14
BRANCH  10  17
ATOM     17  O   UNL     1      39.733   7.895  45.425  1.00  0.00    -0.387 OA
ATOM     18  H   UNL     1      40.305   7.098  45.267  1.00  0.00     0.211 HD
ENDBRANCH  10  17
BRANCH  12  19
ATOM     19  O   UNL     1      37.160   8.994  45.972  1.00  0.00    -0.387 OA
ATOM     20  H   UNL     1      37.837   8.970  46.699  1.00  0.00     0.211 HD
ENDBRANCH  12  19
BRANCH  13  21
ATOM     21  O   UNL     1      36.045   8.808  43.424  1.00  0.00    -0.385 OA
ATOM     22  H   UNL     1      36.375   8.584  42.514  1.00  0.00     0.211 HD
ENDBRANCH  13  21
ENDBRANCH   7   8
ENDBRANCH   1   7
BRANCH   2  23
ATOM     23  C   UNL     1      38.253   3.226  43.189  1.00  0.00     0.191 C 
BRANCH  23  24
ATOM     24  O   UNL     1      39.247   3.026  42.220  1.00  0.00    -0.394 OA
ATOM     25  H   UNL     1      39.652   2.139  42.403  1.00  0.00     0.210 HD
ENDBRANCH  23  24
ENDBRANCH   2  23
BRANCH   6  26
ATOM     26  O   UNL     1      36.016   2.910  45.434  1.00  0.00    -0.387 OA
ATOM     27  H   UNL     1      36.818   2.499  45.018  1.00  0.00     0.211 HD
ENDBRANCH   6  26
BRANCH   5  28
ATOM     28  O   UNL     1      34.087   1.094  44.608  1.00  0.00    -0.385 OA
ATOM     29  H   UNL     1      33.686   0.347  44.090  1.00  0.00     0.211 HD
ENDBRANCH   5  28
BRANCH   4  30
ATOM     30  O   UNL     1      36.767   0.795  43.751  1.00  0.00    -0.341 OA
BRANCH  30  31
ATOM     31  C   UNL     1      37.168  -0.528  43.426  1.00  0.00     0.184 C 
ATOM     32  C   UNL     1      36.885  -1.455  44.642  1.00  0.00     0.178 C 
ATOM     33  C   UNL     1      38.656  -0.546  43.035  1.00  0.00     0.180 C 
ATOM     34  O   UNL     1      37.443  -2.760  44.517  1.00  0.00    -0.342 OA
ATOM     35  C   UNL     1      39.147  -1.993  42.912  1.00  0.00     0.201 C 
ATOM     36  C   UNL     1      38.828  -2.777  44.195  1.00  0.00     0.279 C 
BRANCH  32  37
ATOM     37  C   UNL     1      37.127  -0.834  46.038  1.00  0.00     0.191 C 
BRANCH  37  38
ATOM     38  O   UNL     1      38.226   0.031  46.048  1.00  0.00    -0.394 OA
ATOM     39  H   UNL     1      37.866   0.934  46.241  1.00  0.00     0.210 HD
ENDBRANCH  37  38
ENDBRANCH  32  37
BRANCH  33  40
ATOM     40  O   UNL     1      38.835   0.128  41.816  1.00  0.00    -0.387 OA
ATOM     41  H   UNL     1      39.791   0.391  41.770  1.00  0.00     0.211 HD
ENDBRANCH  33  40
BRANCH  35  42
ATOM     42  O   UNL     1      38.532  -2.611  41.808  1.00  0.00    -0.385 OA
ATOM     43  H   UNL     1      38.551  -3.589  41.980  1.00  0.00     0.211 HD
ENDBRANCH  35  42
BRANCH  36  44
ATOM     44  O   UNL     1      39.610  -2.320  45.267  1.00  0.00    -0.366 OA
ATOM     45  H   UNL     1      39.661  -3.068  45.918  1.00  0.00     0.213 HD
ENDBRANCH  36  44
ENDBRANCH  30  31
ENDBRANCH   4  30
TORSDOF 18
ENDMDL
MODEL 7
REMARK VINA RESULT:    -4.697     13.839     16.079
REMARK INTER + INTRA:         -10.238
REMARK INTER:                  -7.860
REMARK INTRA:                  -2.378
REMARK UNBOUND:                -2.109
REMARK SMILES OC[C@@H]1O[C@@H](O[C@@H]2[C@H](O)[C@H](O)[C@H](O[C@H]3[C@H](O)[C@H](O)[C@@H](O)O[C@H]3CO)O[C@@H]2CO)[C@H](O)[C@H](O)[C@H]1O
REMARK SMILES IDX 7 1 26 2 25 3 12 4 10 5 8 6 6 7 5 8 3 9 33 10 4 11 31 12
REMARK SMILES IDX 29 13 2 14 1 15 34 17 32 19 30 21 27 23 28 24 9 26 11 28
REMARK SMILES IDX 13 30 14 31 22 32 15 33 21 34 17 35 19 36 23 37 24 38 16 40
REMARK SMILES IDX 18 42 20 44
REMARK H PARENT 1 16 34 18 32 20 30 22 28 25 9 27 11 29 24 39 16 41 18 43
REMARK H PARENT 20 45
REMARK Flexibility Score: inf
ROOT
ATOM      1  C   UNL     1      21.127   0.300  36.588  1.00  0.00     0.184 C 
ATOM      2  C   UNL     1      21.087  -0.269  38.032  1.00  0.00     0.178 C 
ATOM      3  O   UNL     1      20.048   0.291  38.832  1.00  0.00    -0.341 OA
ATOM      4  C   UNL     1      20.041   1.712  38.879  1.00  0.00     0.282 C 
ATOM      5  C   UNL     1      19.945   2.330  37.469  1.00  0.00     0.202 C 
ATOM      6  C   UNL     1      21.089   1.839  36.577  1.00  0.00     0.180 C 
ENDROOT
BRANCH   1   7
ATOM      7  O   UNL     1      22.290  -0.170  35.927  1.00  0.00    -0.341 OA
BRANCH   7   8
ATOM      8  C   UNL     1      22.012  -1.206  34.991  1.00  0.00     0.282 C 
ATOM      9  C   UNL     1      23.218  -2.767  36.283  1.00  0.00     0.178 C 
ATOM     10  C   UNL     1      24.376  -2.837  35.249  1.00  0.00     0.177 C 
ATOM     11  O   UNL     1      21.985  -2.470  35.639  1.00  0.00    -0.341 OA
ATOM     12  C   UNL     1      24.451  -1.529  34.441  1.00  0.00     0.179 C 
ATOM     13  C   UNL     1      23.063  -1.184  33.868  1.00  0.00     0.202 C 
BRANCH   9  14
ATOM     14  C   UNL     1      23.055  -4.103  37.023  1.00  0.00     0.191 C 
BRANCH  14  15
ATOM     15  O   UNL     1      22.186  -3.958  38.113  1.00  0.00    -0.394 OA
ATOM     16  H   UNL     1      22.567  -4.509  38.845  1.00  0.00     0.210 HD
ENDBRANCH  14  15
ENDBRANCH   9  14
BRANCH  10  17
ATOM     17  O   UNL     1      25.613  -3.092  35.869  1.00  0.00    -0.387 OA
ATOM     18  H   UNL     1      26.328  -2.758  35.266  1.00  0.00     0.211 HD
ENDBRANCH  10  17
BRANCH  12  19
ATOM     19  O   UNL     1      25.394  -1.665  33.411  1.00  0.00    -0.387 OA
ATOM     20  H   UNL     1      26.260  -1.886  33.843  1.00  0.00     0.211 HD
ENDBRANCH  12  19
BRANCH  13  21
ATOM     21  O   UNL     1      22.695  -2.111  32.875  1.00  0.00    -0.385 OA
ATOM     22  H   UNL     1      22.217  -1.604  32.167  1.00  0.00     0.211 HD
ENDBRANCH  13  21
ENDBRANCH   7   8
ENDBRANCH   1   7
BRANCH   2  23
ATOM     23  C   UNL     1      22.456  -0.297  38.755  1.00  0.00     0.191 C 
BRANCH  23  24
ATOM     24  O   UNL     1      22.470  -1.296  39.739  1.00  0.00    -0.394 OA
ATOM     25  H   UNL     1      21.551  -1.348  40.109  1.00  0.00     0.210 HD
ENDBRANCH  23  24
ENDBRANCH   2  23
BRANCH   6  26
ATOM     26  O   UNL     1      22.322   2.361  37.006  1.00  0.00    -0.387 OA
ATOM     27  H   UNL     1      22.690   2.897  36.255  1.00  0.00     0.211 HD
ENDBRANCH   6  26
BRANCH   5  28
ATOM     28  O   UNL     1      19.968   3.733  37.536  1.00  0.00    -0.385 OA
ATOM     29  H   UNL     1      20.921   3.999  37.621  1.00  0.00     0.211 HD
ENDBRANCH   5  28
BRANCH   4  30
ATOM     30  O   UNL     1      21.189   2.187  39.567  1.00  0.00    -0.341 OA
BRANCH  30  31
ATOM     31  C   UNL     1      20.906   2.672  40.871  1.00  0.00     0.184 C 
ATOM     32  C   UNL     1      21.041   4.221  40.874  1.00  0.00     0.178 C 
ATOM     33  C   UNL     1      21.856   2.020  41.892  1.00  0.00     0.180 C 
ATOM     34  O   UNL     1      20.995   4.804  42.174  1.00  0.00    -0.342 OA
ATOM     35  C   UNL     1      21.712   2.709  43.254  1.00  0.00     0.201 C 
ATOM     36  C   UNL     1      21.900   4.228  43.107  1.00  0.00     0.279 C 
BRANCH  32  37
ATOM     37  C   UNL     1      22.176   4.804  39.999  1.00  0.00     0.191 C 
BRANCH  37  38
ATOM     38  O   UNL     1      21.683   5.541  38.918  1.00  0.00    -0.394 OA
ATOM     39  H   UNL     1      21.994   5.075  38.100  1.00  0.00     0.210 HD
ENDBRANCH  37  38
ENDBRANCH  32  37
BRANCH  33  40
ATOM     40  O   UNL     1      21.558   0.652  42.012  1.00  0.00    -0.387 OA
ATOM     41  H   UNL     1      22.048   0.320  42.807  1.00  0.00     0.211 HD
ENDBRANCH  33  40
BRANCH  35  42
ATOM     42  O   UNL     1      20.443   2.433  43.794  1.00  0.00    -0.385 OA
ATOM     43  H   UNL     1      19.775   2.741  43.127  1.00  0.00     0.211 HD
ENDBRANCH  35  42
BRANCH  36  44
ATOM     44  O   UNL     1      23.230   4.538  42.790  1.00  0.00    -0.366 OA
ATOM     45  H   UNL     1      23.197   5.236  42.085  1.00  0.00     0.213 HD
ENDBRANCH  36  44
ENDBRANCH  30  31
ENDBRANCH   4  30
TORSDOF 18
ENDMDL
MODEL 8
REMARK VINA RESULT:    -4.631      3.585      6.695
REMARK INTER + INTRA:         -10.123
REMARK INTER:                  -7.966
REMARK INTRA:                  -2.158
REMARK UNBOUND:                -2.109
REMARK SMILES OC[C@@H]1O[C@@H](O[C@@H]2[C@H](O)[C@H](O)[C@H](O[C@H]3[C@H](O)[C@H](O)[C@@H](O)O[C@H]3CO)O[C@@H]2CO)[C@H](O)[C@H](O)[C@H]1O
REMARK SMILES IDX 7 1 26 2 25 3 12 4 10 5 8 6 6 7 5 8 3 9 33 10 4 11 31 12
REMARK SMILES IDX 29 13 2 14 1 15 34 17 32 19 30 21 27 23 28 24 9 26 11 28
REMARK SMILES IDX 13 30 14 31 22 32 15 33 21 34 17 35 19 36 23 37 24 38 16 40
REMARK SMILES IDX 18 42 20 44
REMARK H PARENT 1 16 34 18 32 20 30 22 28 25 9 27 11 29 24 39 16 41 18 43
REMARK H PARENT 20 45
REMARK Flexibility Score: inf
ROOT
ATOM      1  C   UNL     1      39.153   2.170  40.483  1.00  0.00     0.184 C 
ATOM      2  C   UNL     1      39.808   3.535  40.832  1.00  0.00     0.178 C 
ATOM      3  O   UNL     1      40.013   3.722  42.231  1.00  0.00    -0.341 OA
ATOM      4  C   UNL     1      38.851   3.532  43.027  1.00  0.00     0.282 C 
ATOM      5  C   UNL     1      38.235   2.134  42.817  1.00  0.00     0.202 C 
ATOM      6  C   UNL     1      37.904   1.897  41.341  1.00  0.00     0.180 C 
ENDROOT
BRANCH   1   7
ATOM      7  O   UNL     1      38.821   2.145  39.104  1.00  0.00    -0.341 OA
BRANCH   7   8
ATOM      8  C   UNL     1      37.849   1.154  38.789  1.00  0.00     0.282 C 
ATOM      9  C   UNL     1      39.494  -0.218  37.801  1.00  0.00     0.178 C 
ATOM     10  C   UNL     1      38.954   0.044  36.368  1.00  0.00     0.177 C 
ATOM     11  O   UNL     1      38.445  -0.137  38.758  1.00  0.00    -0.341 OA
ATOM     12  C   UNL     1      38.228   1.399  36.309  1.00  0.00     0.179 C 
ATOM     13  C   UNL     1      37.187   1.488  37.442  1.00  0.00     0.202 C 
BRANCH   9  14
ATOM     14  C   UNL     1      40.125  -1.614  37.910  1.00  0.00     0.191 C 
BRANCH  14  15
ATOM     15  O   UNL     1      39.376  -2.549  37.180  1.00  0.00    -0.394 OA
ATOM     16  H   UNL     1      39.081  -2.082  36.356  1.00  0.00     0.210 HD
ENDBRANCH  14  15
ENDBRANCH   9  14
BRANCH  10  17
ATOM     17  O   UNL     1      39.983   0.006  35.409  1.00  0.00    -0.387 OA
ATOM     18  H   UNL     1      40.522   0.833  35.511  1.00  0.00     0.211 HD
ENDBRANCH  10  17
BRANCH  12  19
ATOM     19  O   UNL     1      37.613   1.550  35.057  1.00  0.00    -0.387 OA
ATOM     20  H   UNL     1      37.988   2.376  34.651  1.00  0.00     0.211 HD
ENDBRANCH  12  19
BRANCH  13  21
ATOM     21  O   UNL     1      36.130   0.589  37.213  1.00  0.00    -0.385 OA
ATOM     22  H   UNL     1      35.503   0.676  37.978  1.00  0.00     0.211 HD
ENDBRANCH  13  21
ENDBRANCH   7   8
ENDBRANCH   1   7
BRANCH   2  23
ATOM     23  C   UNL     1      39.154   4.760  40.150  1.00  0.00     0.191 C 
BRANCH  23  24
ATOM     24  O   UNL     1      40.102   5.773  39.948  1.00  0.00    -0.394 OA
ATOM     25  H   UNL     1      39.627   6.530  39.518  1.00  0.00     0.210 HD
ENDBRANCH  23  24
ENDBRANCH   2  23
BRANCH   6  26
ATOM     26  O   UNL     1      36.838   2.715  40.926  1.00  0.00    -0.387 OA
ATOM     27  H   UNL     1      37.113   3.656  41.084  1.00  0.00     0.211 HD
ENDBRANCH   6  26
BRANCH   5  28
ATOM     28  O   UNL     1      37.073   1.978  43.591  1.00  0.00    -0.385 OA
ATOM     29  H   UNL     1      36.489   2.755  43.390  1.00  0.00     0.211 HD
ENDBRANCH   5  28
BRANCH   4  30
ATOM     30  O   UNL     1      37.900   4.554  42.761  1.00  0.00    -0.341 OA
BRANCH  30  31
ATOM     31  C   UNL     1      37.898   5.591  43.730  1.00  0.00     0.184 C 
ATOM     32  C   UNL     1      36.444   5.805  44.238  1.00  0.00     0.178 C 
ATOM     33  C   UNL     1      38.479   6.880  43.122  1.00  0.00     0.180 C 
ATOM     34  O   UNL     1      36.279   6.963  45.051  1.00  0.00    -0.342 OA
ATOM     35  C   UNL     1      38.265   8.055  44.083  1.00  0.00     0.201 C 
ATOM     36  C   UNL     1      36.781   8.161  44.473  1.00  0.00     0.279 C 
BRANCH  32  37
ATOM     37  C   UNL     1      35.327   5.657  43.178  1.00  0.00     0.191 C 
BRANCH  37  38
ATOM     38  O   UNL     1      35.043   4.317  42.894  1.00  0.00    -0.394 OA
ATOM     39  H   UNL     1      34.800   3.896  43.758  1.00  0.00     0.210 HD
ENDBRANCH  37  38
ENDBRANCH  32  37
BRANCH  33  40
ATOM     40  O   UNL     1      39.851   6.709  42.871  1.00  0.00    -0.387 OA
ATOM     41  H   UNL     1      39.942   6.491  41.908  1.00  0.00     0.211 HD
ENDBRANCH  33  40
BRANCH  35  42
ATOM     42  O   UNL     1      39.051   7.875  45.236  1.00  0.00    -0.385 OA
ATOM     43  H   UNL     1      39.944   8.260  45.036  1.00  0.00     0.211 HD
ENDBRANCH  35  42
BRANCH  36  44
ATOM     44  O   UNL     1      36.004   8.567  43.378  1.00  0.00    -0.366 OA
ATOM     45  H   UNL     1      35.360   9.239  43.723  1.00  0.00     0.213 HD
ENDBRANCH  36  44
ENDBRANCH  30  31
ENDBRANCH   4  30
TORSDOF 18
ENDMDL
