MODEL 1
REMARK VINA RESULT:     6.665      0.000      0.000
REMARK INTER + INTRA:           8.135
REMARK INTER:                   9.003
REMARK INTRA:                  -0.868
REMARK UNBOUND:                -0.868
REMARK SMILES O=c1c(-c2ccc(O)cc2)coc2c([C@H]3O[C@H](CO)[C@H](O)[C@@H](O)[C@H]3O)c(O)ccc12
REMARK SMILES IDX 3 1 11 2 12 3 13 4 30 5 2 6 1 7 29 8 28 9 26 10 14 11 4 12
REMARK SMILES IDX 5 13 6 14 7 15 10 16 9 17 8 18 15 20 24 21 16 22 22 23 17 24
REMARK SMILES IDX 20 25 25 26 23 28 18 30 19 31 21 33 27 35
REMARK H PARENT 8 19 25 27 23 29 19 32 21 34 27 36
REMARK Flexibility Score: inf
ROOT
ATOM      1  C   UNL     1      20.874   8.944  -5.500  1.00  0.00     0.065 A 
ATOM      2  C   UNL     1      19.962   9.986  -5.715  1.00  0.00     0.208 A 
ATOM      3  O   UNL     1      20.017  10.723  -6.818  1.00  0.00    -0.463 OA
ATOM      4  C   UNL     1      20.918  10.531  -7.778  1.00  0.00     0.147 A 
ATOM      5  C   UNL     1      21.870   9.493  -7.647  1.00  0.00     0.066 A 
ATOM      6  C   UNL     1      21.838   8.691  -6.492  1.00  0.00     0.200 A 
ATOM      7  O   UNL     1      22.656   7.738  -6.356  1.00  0.00    -0.288 OA
ATOM      8  C   UNL     1      22.807   9.278  -8.670  1.00  0.00     0.020 A 
ATOM      9  C   UNL     1      22.792  10.075  -9.812  1.00  0.00     0.047 A 
ATOM     10  C   UNL     1      21.854  11.104  -9.954  1.00  0.00     0.125 A 
ATOM     11  C   UNL     1      20.918  11.362  -8.924  1.00  0.00     0.069 A 
ENDROOT
BRANCH   1  12
ATOM     12  C   UNL     1      20.798   8.139  -4.255  1.00  0.00    -0.011 A 
ATOM     13  C   UNL     1      20.865   8.768  -2.998  1.00  0.00     0.013 A 
ATOM     14  C   UNL     1      20.804   8.011  -1.824  1.00  0.00     0.047 A 
ATOM     15  C   UNL     1      20.681   6.620  -1.888  1.00  0.00     0.115 A 
ATOM     16  C   UNL     1      20.682   6.739  -4.312  1.00  0.00     0.013 A 
ATOM     17  C   UNL     1      20.622   5.985  -3.136  1.00  0.00     0.047 A 
BRANCH  15  18
ATOM     18  O   UNL     1      20.620   5.879  -0.710  1.00  0.00    -0.508 OA
ATOM     19  H   UNL     1      19.791   5.356  -0.455  1.00  0.00     0.293 HD
ENDBRANCH  15  18
ENDBRANCH   1  12
BRANCH  11  20
ATOM     20  C   UNL     1      19.870  12.461  -9.062  1.00  0.00     0.188 C 
ATOM     21  C   UNL     1      18.644  11.934  -9.838  1.00  0.00     0.179 C 
ATOM     22  O   UNL     1      20.435  13.602  -9.693  1.00  0.00    -0.362 OA
ATOM     23  C   UNL     1      17.588  13.049  -9.932  1.00  0.00     0.177 C 
ATOM     24  C   UNL     1      19.528  14.697  -9.763  1.00  0.00     0.176 C 
ATOM     25  C   UNL     1      18.224  14.323 -10.513  1.00  0.00     0.177 C 
BRANCH  21  26
ATOM     26  O   UNL     1      19.032  11.518 -11.125  1.00  0.00    -0.387 OA
ATOM     27  H   UNL     1      18.671  10.603 -11.254  1.00  0.00     0.211 HD
ENDBRANCH  21  26
BRANCH  23  28
ATOM     28  O   UNL     1      16.521  12.640 -10.749  1.00  0.00    -0.387 OA
ATOM     29  H   UNL     1      16.785  11.771 -11.151  1.00  0.00     0.211 HD
ENDBRANCH  23  28
BRANCH  24  30
ATOM     30  C   UNL     1      19.310  15.353  -8.378  1.00  0.00     0.191 C 
BRANCH  30  31
ATOM     31  O   UNL     1      19.010  16.718  -8.512  1.00  0.00    -0.394 OA
ATOM     32  H   UNL     1      18.901  16.892  -9.484  1.00  0.00     0.210 HD
ENDBRANCH  30  31
ENDBRANCH  24  30
BRANCH  25  33
ATOM     33  O   UNL     1      17.311  15.390 -10.462  1.00  0.00    -0.388 OA
ATOM     34  H   UNL     1      17.239  15.755 -11.383  1.00  0.00     0.211 HD
ENDBRANCH  25  33
ENDBRANCH  11  20
BRANCH  10  35
ATOM     35  O   UNL     1      21.850  11.864 -11.125  1.00  0.00    -0.507 OA
ATOM     36  H   UNL     1      22.644  12.435 -11.393  1.00  0.00     0.293 HD
ENDBRANCH  10  35
TORSDOF 9
ENDMDL
MODEL 2
REMARK VINA RESULT:     7.757      2.014      8.948
REMARK INTER + INTRA:           9.610
REMARK INTER:                   9.964
REMARK INTRA:                  -0.354
REMARK UNBOUND:                -0.868
REMARK SMILES O=c1c(-c2ccc(O)cc2)coc2c([C@H]3O[C@H](CO)[C@H](O)[C@@H](O)[C@H]3O)c(O)ccc12
REMARK SMILES IDX 3 1 11 2 12 3 13 4 30 5 2 6 1 7 29 8 28 9 26 10 14 11 4 12
REMARK SMILES IDX 5 13 6 14 7 15 10 16 9 17 8 18 15 20 24 21 16 22 22 23 17 24
REMARK SMILES IDX 20 25 25 26 23 28 18 30 19 31 21 33 27 35
REMARK H PARENT 8 19 25 27 23 29 19 32 21 34 27 36
REMARK Flexibility Score: inf
ROOT
ATOM      1  C   UNL     1      20.633   9.486  -7.188  1.00  0.00     0.065 A 
ATOM      2  C   UNL     1      19.745   9.351  -6.112  1.00  0.00     0.208 A 
ATOM      3  O   UNL     1      19.929   8.414  -5.190  1.00  0.00    -0.463 OA
ATOM      4  C   UNL     1      20.946   7.555  -5.217  1.00  0.00     0.147 A 
ATOM      5  C   UNL     1      21.897   7.629  -6.262  1.00  0.00     0.066 A 
ATOM      6  C   UNL     1      21.733   8.612  -7.255  1.00  0.00     0.200 A 
ATOM      7  O   UNL     1      22.578   8.723  -8.186  1.00  0.00    -0.288 OA
ATOM      8  C   UNL     1      22.979   6.736  -6.277  1.00  0.00     0.020 A 
ATOM      9  C   UNL     1      23.125   5.792  -5.264  1.00  0.00     0.047 A 
ATOM     10  C   UNL     1      22.191   5.711  -4.223  1.00  0.00     0.125 A 
ATOM     11  C   UNL     1      21.073   6.578  -4.200  1.00  0.00     0.069 A 
ENDROOT
BRANCH   1  12
ATOM     12  C   UNL     1      20.402  10.537  -8.212  1.00  0.00    -0.011 A 
ATOM     13  C   UNL     1      19.157  11.187  -8.292  1.00  0.00     0.013 A 
ATOM     14  C   UNL     1      18.934  12.169  -9.261  1.00  0.00     0.047 A 
ATOM     15  C   UNL     1      19.945  12.511 -10.164  1.00  0.00     0.115 A 
ATOM     16  C   UNL     1      21.412  10.880  -9.128  1.00  0.00     0.013 A 
ATOM     17  C   UNL     1      21.185  11.862 -10.096  1.00  0.00     0.047 A 
BRANCH  15  18
ATOM     18  O   UNL     1      19.708  13.492 -11.125  1.00  0.00    -0.508 OA
ATOM     19  H   UNL     1      20.464  13.905 -11.657  1.00  0.00     0.293 HD
ENDBRANCH  15  18
ENDBRANCH   1  12
BRANCH  11  20
ATOM     20  C   UNL     1      20.054   6.529  -3.067  1.00  0.00     0.188 C 
ATOM     21  C   UNL     1      20.500   7.446  -1.909  1.00  0.00     0.179 C 
ATOM     22  O   UNL     1      19.870   5.189  -2.630  1.00  0.00    -0.362 OA
ATOM     23  C   UNL     1      19.439   7.406  -0.795  1.00  0.00     0.177 C 
ATOM     24  C   UNL     1      18.858   5.068  -1.636  1.00  0.00     0.176 C 
ATOM     25  C   UNL     1      19.157   5.948  -0.395  1.00  0.00     0.177 C 
BRANCH  21  26
ATOM     26  O   UNL     1      21.746   7.022  -1.411  1.00  0.00    -0.387 OA
ATOM     27  H   UNL     1      22.268   7.840  -1.205  1.00  0.00     0.211 HD
ENDBRANCH  21  26
BRANCH  23  28
ATOM     28  O   UNL     1      19.884   8.124   0.327  1.00  0.00    -0.387 OA
ATOM     29  H   UNL     1      19.979   9.071   0.042  1.00  0.00     0.211 HD
ENDBRANCH  23  28
BRANCH  24  30
ATOM     30  C   UNL     1      17.442   5.253  -2.233  1.00  0.00     0.191 C 
BRANCH  30  31
ATOM     31  O   UNL     1      16.471   4.666  -1.406  1.00  0.00    -0.394 OA
ATOM     32  H   UNL     1      16.873   3.837  -1.036  1.00  0.00     0.210 HD
ENDBRANCH  30  31
ENDBRANCH  24  30
BRANCH  25  33
ATOM     33  O   UNL     1      18.083   5.890   0.511  1.00  0.00    -0.388 OA
ATOM     34  H   UNL     1      18.416   6.239   1.379  1.00  0.00     0.211 HD
ENDBRANCH  25  33
ENDBRANCH  11  20
BRANCH  10  35
ATOM     35  O   UNL     1      22.383   4.772  -3.209  1.00  0.00    -0.507 OA
ATOM     36  H   UNL     1      22.263   3.779  -3.372  1.00  0.00     0.293 HD
ENDBRANCH  10  35
TORSDOF 9
ENDMDL
