MODEL 1
REMARK VINA RESULT:    -4.691      0.000      0.000
REMARK INTER + INTRA:          -5.353
REMARK INTER:                  -5.102
REMARK INTRA:                  -0.251
REMARK UNBOUND:                -0.251
REMARK SMILES O=C([O-])c1ccccc1O
REMARK SMILES IDX 4 1 9 2 5 3 8 4 6 5 7 6 2 7 1 8 3 9 10 10
REMARK H PARENT 10 11
REMARK Flexibility Score: inf
ROOT
ATOM      1  C   UNL     1     -47.001 -13.041  11.387  1.00  0.00     0.039 A 
ATOM      2  C   UNL     1     -47.396 -14.221  12.066  1.00  0.00     0.124 A 
ATOM      3  C   UNL     1     -47.992 -12.146  10.942  1.00  0.00     0.014 A 
ATOM      4  C   UNL     1     -48.759 -14.504  12.227  1.00  0.00     0.047 A 
ATOM      5  C   UNL     1     -49.346 -12.433  11.129  1.00  0.00     0.001 A 
ATOM      6  C   UNL     1     -49.729 -13.616  11.761  1.00  0.00     0.004 A 
ENDROOT
BRANCH   1   7
ATOM      7  C   UNL     1     -45.584 -12.734  11.092  1.00  0.00     0.075 C 
ATOM      8  O   UNL     1     -45.258 -12.267   9.967  1.00  0.00    -0.545 OA
ATOM      9  O   UNL     1     -44.586 -13.016  12.017  1.00  0.00    -0.545 OA
ENDBRANCH   1   7
BRANCH   2  10
ATOM     10  O   UNL     1     -46.477 -15.113  12.623  1.00  0.00    -0.507 OA
ATOM     11  H   UNL     1     -46.457 -15.349  13.605  1.00  0.00     0.293 HD
ENDBRANCH   2  10
TORSDOF 2
ENDMDL
MODEL 2
REMARK VINA RESULT:    -4.636      9.676     10.384
REMARK INTER + INTRA:          -5.293
REMARK INTER:                  -5.080
REMARK INTRA:                  -0.213
REMARK UNBOUND:                -0.251
REMARK SMILES O=C([O-])c1ccccc1O
REMARK SMILES IDX 4 1 9 2 5 3 8 4 6 5 7 6 2 7 1 8 3 9 10 10
REMARK H PARENT 10 11
REMARK Flexibility Score: inf
ROOT
ATOM      1  C   UNL     1     -42.260  -9.581   3.882  1.00  0.00     0.039 A 
ATOM      2  C   UNL     1     -40.894  -9.918   4.052  1.00  0.00     0.124 A 
ATOM      3  C   UNL     1     -42.843  -8.641   4.753  1.00  0.00     0.014 A 
ATOM      4  C   UNL     1     -40.169  -9.362   5.115  1.00  0.00     0.047 A 
ATOM      5  C   UNL     1     -42.101  -8.080   5.795  1.00  0.00     0.001 A 
ATOM      6  C   UNL     1     -40.769  -8.448   5.981  1.00  0.00     0.004 A 
ENDROOT
BRANCH   1   7
ATOM      7  C   UNL     1     -43.109 -10.210   2.846  1.00  0.00     0.075 C 
ATOM      8  O   UNL     1     -42.580 -10.766   1.846  1.00  0.00    -0.545 OA
ATOM      9  O   UNL     1     -44.495 -10.137   2.921  1.00  0.00    -0.545 OA
ENDBRANCH   1   7
BRANCH   2  10
ATOM     10  O   UNL     1     -40.213 -10.766   3.174  1.00  0.00    -0.507 OA
ATOM     11  H   UNL     1     -39.297 -10.560   2.801  1.00  0.00     0.293 HD
ENDBRANCH   2  10
TORSDOF 2
ENDMDL
MODEL 3
REMARK VINA RESULT:    -4.619      9.725     10.766
REMARK INTER + INTRA:          -5.275
REMARK INTER:                  -5.021
REMARK INTRA:                  -0.253
REMARK UNBOUND:                -0.251
REMARK SMILES O=C([O-])c1ccccc1O
REMARK SMILES IDX 4 1 9 2 5 3 8 4 6 5 7 6 2 7 1 8 3 9 10 10
REMARK H PARENT 10 11
REMARK Flexibility Score: inf
ROOT
ATOM      1  C   UNL     1     -41.653  -9.125   3.957  1.00  0.00     0.039 A 
ATOM      2  C   UNL     1     -41.031  -9.523   2.747  1.00  0.00     0.124 A 
ATOM      3  C   UNL     1     -42.991  -9.494   4.189  1.00  0.00     0.014 A 
ATOM      4  C   UNL     1     -41.772 -10.217   1.782  1.00  0.00     0.047 A 
ATOM      5  C   UNL     1     -43.710 -10.205   3.225  1.00  0.00     0.001 A 
ATOM      6  C   UNL     1     -43.104 -10.556   2.019  1.00  0.00     0.004 A 
ENDROOT
BRANCH   1   7
ATOM      7  C   UNL     1     -40.959  -8.302   4.972  1.00  0.00     0.075 C 
ATOM      8  O   UNL     1     -41.541  -7.309   5.487  1.00  0.00    -0.545 OA
ATOM      9  O   UNL     1     -39.639  -8.564   5.322  1.00  0.00    -0.545 OA
ENDBRANCH   1   7
BRANCH   2  10
ATOM     10  O   UNL     1     -39.680  -9.282   2.481  1.00  0.00    -0.507 OA
ATOM     11  H   UNL     1     -39.253  -8.370   2.556  1.00  0.00     0.293 HD
ENDBRANCH   2  10
TORSDOF 2
ENDMDL
MODEL 4
REMARK VINA RESULT:    -4.594      2.455      3.656
REMARK INTER + INTRA:          -5.248
REMARK INTER:                  -4.995
REMARK INTRA:                  -0.253
REMARK UNBOUND:                -0.251
REMARK SMILES O=C([O-])c1ccccc1O
REMARK SMILES IDX 4 1 9 2 5 3 8 4 6 5 7 6 2 7 1 8 3 9 10 10
REMARK H PARENT 10 11
REMARK Flexibility Score: inf
ROOT
ATOM      1  C   UNL     1     -48.926 -13.185  11.885  1.00  0.00     0.039 A 
ATOM      2  C   UNL     1     -48.004 -14.114  12.428  1.00  0.00     0.124 A 
ATOM      3  C   UNL     1     -48.495 -12.313  10.867  1.00  0.00     0.014 A 
ATOM      4  C   UNL     1     -46.673 -14.107  11.990  1.00  0.00     0.047 A 
ATOM      5  C   UNL     1     -47.170 -12.333  10.427  1.00  0.00     0.001 A 
ATOM      6  C   UNL     1     -46.258 -13.222  10.995  1.00  0.00     0.004 A 
ENDROOT
BRANCH   1   7
ATOM      7  C   UNL     1     -50.318 -13.070  12.375  1.00  0.00     0.075 C 
ATOM      8  O   UNL     1     -51.249 -12.785  11.574  1.00  0.00    -0.545 OA
ATOM      9  O   UNL     1     -50.610 -13.203  13.727  1.00  0.00    -0.545 OA
ENDBRANCH   1   7
BRANCH   2  10
ATOM     10  O   UNL     1     -48.373 -15.078  13.370  1.00  0.00    -0.507 OA
ATOM     11  H   UNL     1     -48.138 -15.016  14.350  1.00  0.00     0.293 HD
ENDBRANCH   2  10
TORSDOF 2
ENDMDL
MODEL 5
REMARK VINA RESULT:    -4.561      4.019      5.368
REMARK INTER + INTRA:          -5.212
REMARK INTER:                  -4.975
REMARK INTRA:                  -0.237
REMARK UNBOUND:                -0.251
REMARK SMILES O=C([O-])c1ccccc1O
REMARK SMILES IDX 4 1 9 2 5 3 8 4 6 5 7 6 2 7 1 8 3 9 10 10
REMARK H PARENT 10 11
REMARK Flexibility Score: inf
ROOT
ATOM      1  C   UNL     1     -50.564 -13.381  13.717  1.00  0.00     0.039 A 
ATOM      2  C   UNL     1     -50.785 -13.188  12.329  1.00  0.00     0.124 A 
ATOM      3  C   UNL     1     -49.252 -13.285  14.218  1.00  0.00     0.014 A 
ATOM      4  C   UNL     1     -49.693 -12.970  11.478  1.00  0.00     0.047 A 
ATOM      5  C   UNL     1     -48.178 -13.046  13.358  1.00  0.00     0.001 A 
ATOM      6  C   UNL     1     -48.397 -12.899  11.989  1.00  0.00     0.004 A 
ENDROOT
BRANCH   1   7
ATOM      7  C   UNL     1     -51.658 -13.718  14.654  1.00  0.00     0.075 C 
ATOM      8  O   UNL     1     -52.424 -14.690  14.410  1.00  0.00    -0.545 OA
ATOM      9  O   UNL     1     -51.903 -12.933  15.775  1.00  0.00    -0.545 OA
ENDBRANCH   1   7
BRANCH   2  10
ATOM     10  O   UNL     1     -52.063 -13.170  11.766  1.00  0.00    -0.507 OA
ATOM     11  H   UNL     1     -52.666 -13.980  11.729  1.00  0.00     0.293 HD
ENDBRANCH   2  10
TORSDOF 2
ENDMDL
MODEL 6
REMARK VINA RESULT:    -4.517      1.246      1.414
REMARK INTER + INTRA:          -5.164
REMARK INTER:                  -4.919
REMARK INTRA:                  -0.245
REMARK UNBOUND:                -0.251
REMARK SMILES O=C([O-])c1ccccc1O
REMARK SMILES IDX 4 1 9 2 5 3 8 4 6 5 7 6 2 7 1 8 3 9 10 10
REMARK H PARENT 10 11
REMARK Flexibility Score: inf
ROOT
ATOM      1  C   UNL     1     -46.064 -12.525  11.574  1.00  0.00     0.039 A 
ATOM      2  C   UNL     1     -46.224 -13.617  12.464  1.00  0.00     0.124 A 
ATOM      3  C   UNL     1     -47.123 -12.193  10.707  1.00  0.00     0.014 A 
ATOM      4  C   UNL     1     -47.398 -14.380  12.422  1.00  0.00     0.047 A 
ATOM      5  C   UNL     1     -48.296 -12.951  10.693  1.00  0.00     0.001 A 
ATOM      6  C   UNL     1     -48.429 -14.049  11.542  1.00  0.00     0.004 A 
ENDROOT
BRANCH   1   7
ATOM      7  C   UNL     1     -44.811 -11.744  11.494  1.00  0.00     0.075 C 
ATOM      8  O   UNL     1     -44.212 -11.618  10.391  1.00  0.00    -0.545 OA
ATOM      9  O   UNL     1     -44.238 -11.197  12.636  1.00  0.00    -0.545 OA
ENDBRANCH   1   7
BRANCH   2  10
ATOM     10  O   UNL     1     -45.264 -13.953  13.421  1.00  0.00    -0.507 OA
ATOM     11  H   UNL     1     -44.960 -13.322  14.149  1.00  0.00     0.293 HD
ENDBRANCH   2  10
TORSDOF 2
ENDMDL
MODEL 7
REMARK VINA RESULT:    -4.433      2.121      3.897
REMARK INTER + INTRA:          -5.073
REMARK INTER:                  -4.828
REMARK INTRA:                  -0.245
REMARK UNBOUND:                -0.251
REMARK SMILES O=C([O-])c1ccccc1O
REMARK SMILES IDX 4 1 9 2 5 3 8 4 6 5 7 6 2 7 1 8 3 9 10 10
REMARK H PARENT 10 11
REMARK Flexibility Score: inf
ROOT
ATOM      1  C   UNL     1     -47.106 -13.634  12.012  1.00  0.00     0.039 A 
ATOM      2  C   UNL     1     -46.913 -13.170  10.686  1.00  0.00     0.124 A 
ATOM      3  C   UNL     1     -46.091 -13.419  12.964  1.00  0.00     0.014 A 
ATOM      4  C   UNL     1     -45.698 -12.566  10.333  1.00  0.00     0.047 A 
ATOM      5  C   UNL     1     -44.895 -12.797  12.600  1.00  0.00     0.001 A 
ATOM      6  C   UNL     1     -44.695 -12.380  11.285  1.00  0.00     0.004 A 
ENDROOT
BRANCH   1   7
ATOM      7  C   UNL     1     -48.321 -14.371  12.424  1.00  0.00     0.075 C 
ATOM      8  O   UNL     1     -48.912 -15.125  11.605  1.00  0.00    -0.545 OA
ATOM      9  O   UNL     1     -48.867 -14.194  13.690  1.00  0.00    -0.545 OA
ENDBRANCH   1   7
BRANCH   2  10
ATOM     10  O   UNL     1     -47.905 -13.255   9.707  1.00  0.00    -0.507 OA
ATOM     11  H   UNL     1     -48.170 -12.481   9.115  1.00  0.00     0.293 HD
ENDBRANCH   2  10
TORSDOF 2
ENDMDL
MODEL 8
REMARK VINA RESULT:    -4.422      3.117      4.372
REMARK INTER + INTRA:          -5.061
REMARK INTER:                  -4.816
REMARK INTRA:                  -0.245
REMARK UNBOUND:                -0.251
REMARK SMILES O=C([O-])c1ccccc1O
REMARK SMILES IDX 4 1 9 2 5 3 8 4 6 5 7 6 2 7 1 8 3 9 10 10
REMARK H PARENT 10 11
REMARK Flexibility Score: inf
ROOT
ATOM      1  C   UNL     1     -49.236 -13.396  12.667  1.00  0.00     0.039 A 
ATOM      2  C   UNL     1     -48.383 -12.801  13.630  1.00  0.00     0.124 A 
ATOM      3  C   UNL     1     -48.666 -14.169  11.637  1.00  0.00     0.014 A 
ATOM      4  C   UNL     1     -46.994 -12.939  13.506  1.00  0.00     0.047 A 
ATOM      5  C   UNL     1     -47.280 -14.314  11.540  1.00  0.00     0.001 A 
ATOM      6  C   UNL     1     -46.446 -13.691  12.468  1.00  0.00     0.004 A 
ENDROOT
BRANCH   1   7
ATOM      7  C   UNL     1     -50.703 -13.203  12.680  1.00  0.00     0.075 C 
ATOM      8  O   UNL     1     -51.364 -13.447  13.725  1.00  0.00    -0.545 OA
ATOM      9  O   UNL     1     -51.381 -12.820  11.528  1.00  0.00    -0.545 OA
ENDBRANCH   1   7
BRANCH   2  10
ATOM     10  O   UNL     1     -48.871 -12.101  14.736  1.00  0.00    -0.507 OA
ATOM     11  H   UNL     1     -49.316 -11.196  14.670  1.00  0.00     0.293 HD
ENDBRANCH   2  10
TORSDOF 2
ENDMDL
MODEL 9
REMARK VINA RESULT:    -4.404      2.788      4.028
REMARK INTER + INTRA:          -5.042
REMARK INTER:                  -4.791
REMARK INTRA:                  -0.251
REMARK UNBOUND:                -0.251
REMARK SMILES O=C([O-])c1ccccc1O
REMARK SMILES IDX 4 1 9 2 5 3 8 4 6 5 7 6 2 7 1 8 3 9 10 10
REMARK H PARENT 10 11
REMARK Flexibility Score: inf
ROOT
ATOM      1  C   UNL     1     -48.492 -13.219  12.643  1.00  0.00     0.039 A 
ATOM      2  C   UNL     1     -48.563 -13.620  11.286  1.00  0.00     0.124 A 
ATOM      3  C   UNL     1     -47.347 -12.533  13.092  1.00  0.00     0.014 A 
ATOM      4  C   UNL     1     -47.475 -13.386  10.435  1.00  0.00     0.047 A 
ATOM      5  C   UNL     1     -46.279 -12.289  12.225  1.00  0.00     0.001 A 
ATOM      6  C   UNL     1     -46.339 -12.723  10.902  1.00  0.00     0.004 A 
ENDROOT
BRANCH   1   7
ATOM      7  C   UNL     1     -49.561 -13.527  13.619  1.00  0.00     0.075 C 
ATOM      8  O   UNL     1     -49.277 -14.087  14.712  1.00  0.00    -0.545 OA
ATOM      9  O   UNL     1     -50.894 -13.270  13.320  1.00  0.00    -0.545 OA
ENDBRANCH   1   7
BRANCH   2  10
ATOM     10  O   UNL     1     -49.701 -14.218  10.737  1.00  0.00    -0.507 OA
ATOM     11  H   UNL     1     -49.664 -14.940  10.031  1.00  0.00     0.293 HD
ENDBRANCH   2  10
TORSDOF 2
ENDMDL
