MODEL 1
REMARK VINA RESULT:    21.333      0.000      0.000
REMARK INTER + INTRA:          21.333
REMARK INTER:                  21.333
REMARK INTRA:                   0.000
REMARK UNBOUND:                 0.000
REMARK SMILES CC1=CC[C@@]2(C)CCCC(C)(C)[C@@]23C[C@@H]13
REMARK SMILES IDX 1 1 2 2 3 3 4 4 5 5 7 6 8 7 9 8 10 9 13 10 15 11 14 12 11 13
REMARK SMILES IDX 12 14 6 15
REMARK H PARENT
REMARK Flexibility Score: inf
ROOT
ATOM      1  C   UNL     1      -0.776   9.168  -7.071  1.00  0.00     0.039 C 
ATOM      2  C   UNL     1      -0.401   7.784  -7.522  1.00  0.00    -0.074 C 
ATOM      3  C   UNL     1       0.358   7.012  -6.715  1.00  0.00    -0.027 C 
ATOM      4  C   UNL     1       0.762   5.610  -7.100  1.00  0.00     0.034 C 
ATOM      5  C   UNL     1       0.991   5.496  -8.636  1.00  0.00    -0.022 C 
ATOM      6  C   UNL     1       1.224   4.009  -8.998  1.00  0.00     0.008 C 
ATOM      7  C   UNL     1       1.314   3.760 -10.515  1.00  0.00     0.001 C 
ATOM      8  C   UNL     1       0.072   4.263 -11.268  1.00  0.00     0.007 C 
ATOM      9  C   UNL     1      -0.282   5.757 -11.018  1.00  0.00    -0.029 C 
ATOM     10  C   UNL     1      -0.263   6.013  -9.450  1.00  0.00    -0.012 C 
ATOM     11  C   UNL     1      -0.889   7.294  -8.876  1.00  0.00     0.022 C 
ATOM     12  C   UNL     1      -1.660   5.980  -8.768  1.00  0.00     0.017 C 
ATOM     13  C   UNL     1      -1.660   6.002 -11.700  1.00  0.00     0.012 C 
ATOM     14  C   UNL     1       0.723   6.689 -11.741  1.00  0.00     0.012 C 
ATOM     15  C   UNL     1       2.267   6.337  -8.954  1.00  0.00     0.012 C 
ENDROOT
TORSDOF 0
ENDMDL
