MODEL 1
REMARK VINA RESULT:    -7.445      0.000      0.000
REMARK INTER + INTRA:          -8.685
REMARK INTER:                  -8.098
REMARK INTRA:                  -0.588
REMARK UNBOUND:                -0.588
REMARK SMILES C=C(C)[C@@H]1CC[C@]2(C)CC[C@]3(C)[C@@H](CC[C@@H]4[C@]5(C)CC[C@H](O)C(C)(C)[C@H]5CC[C@@]43C)[C@H]12
REMARK SMILES IDX 4 1 5 2 6 3 7 4 31 5 13 6 14 7 15 8 16 9 17 10 19 11 20 12
REMARK SMILES IDX 21 13 23 14 26 15 27 16 28 17 29 18 11 19 10 20 9 21 12 22
REMARK SMILES IDX 30 23 24 24 25 25 18 26 8 27 2 28 3 29 1 30 22 31
REMARK H PARENT 22 32
REMARK Flexibility Score: inf
ROOT
ATOM      1  C   UNL     1     142.624 136.268 144.773  1.00  0.00     0.018 C 
ATOM      2  C   UNL     1     141.378 135.494 144.326  1.00  0.00     0.009 C 
ATOM      3  C   UNL     1     141.548 135.240 142.841  1.00  0.00     0.008 C 
ATOM      4  C   UNL     1     142.331 136.446 142.280  1.00  0.00    -0.029 C 
ATOM      5  C   UNL     1     143.096 137.049 143.501  1.00  0.00     0.006 C 
ATOM      6  C   UNL     1     144.640 137.383 143.301  1.00  0.00    -0.000 C 
ATOM      7  C   UNL     1     144.771 138.848 142.892  1.00  0.00     0.005 C 
ATOM      8  C   UNL     1     146.211 139.331 142.821  1.00  0.00     0.005 C 
ATOM      9  C   UNL     1     147.252 138.422 142.075  1.00  0.00     0.002 C 
ATOM     10  C   UNL     1     148.240 139.297 141.154  1.00  0.00    -0.026 C 
ATOM     11  C   UNL     1     148.776 140.560 141.929  1.00  0.00     0.010 C 
ATOM     12  C   UNL     1     149.489 141.587 141.030  1.00  0.00     0.033 C 
ATOM     13  C   UNL     1     148.607 142.034 139.852  1.00  0.00     0.120 C 
ATOM     14  C   UNL     1     148.128 140.840 138.966  1.00  0.00    -0.006 C 
ATOM     15  C   UNL     1     147.427 139.756 139.882  1.00  0.00     0.003 C 
ATOM     16  C   UNL     1     146.821 138.548 139.122  1.00  0.00     0.005 C 
ATOM     17  C   UNL     1     145.908 137.685 140.023  1.00  0.00     0.008 C 
ATOM     18  C   UNL     1     146.562 137.173 141.354  1.00  0.00    -0.024 C 
ATOM     19  C   UNL     1     145.513 136.415 142.373  1.00  0.00    -0.024 C 
ATOM     20  C   UNL     1     144.576 135.410 141.616  1.00  0.00     0.008 C 
ATOM     21  C   UNL     1     143.257 136.009 141.128  1.00  0.00     0.007 C 
ATOM     22  C   UNL     1     146.357 135.537 143.363  1.00  0.00     0.012 C 
ATOM     23  C   UNL     1     147.642 136.113 140.915  1.00  0.00     0.012 C 
ATOM     24  C   UNL     1     147.111 141.401 137.932  1.00  0.00     0.014 C 
ATOM     25  C   UNL     1     149.316 140.279 138.141  1.00  0.00     0.014 C 
ATOM     26  C   UNL     1     149.522 138.466 140.800  1.00  0.00     0.012 C 
ATOM     27  C   UNL     1     141.312 137.470 141.712  1.00  0.00     0.011 C 
ENDROOT
BRANCH   1  28
ATOM     28  C   UNL     1     143.656 135.409 145.507  1.00  0.00    -0.077 C 
ATOM     29  C   UNL     1     143.777 133.917 145.286  1.00  0.00     0.039 C 
ATOM     30  C   UNL     1     144.352 135.955 146.521  1.00  0.00     0.008 C 
ENDBRANCH   1  28
BRANCH  13  31
ATOM     31  O   UNL     1     147.497 142.742 140.352  1.00  0.00    -0.393 OA
ATOM     32  H   UNL     1     146.911 142.083 140.807  1.00  0.00     0.210 HD
ENDBRANCH  13  31
TORSDOF 2
ENDMDL
MODEL 2
REMARK VINA RESULT:    -7.176      3.452      4.967
REMARK INTER + INTRA:          -8.393
REMARK INTER:                  -7.806
REMARK INTRA:                  -0.587
REMARK UNBOUND:                -0.588
REMARK SMILES C=C(C)[C@@H]1CC[C@]2(C)CC[C@]3(C)[C@@H](CC[C@@H]4[C@]5(C)CC[C@H](O)C(C)(C)[C@H]5CC[C@@]43C)[C@H]12
REMARK SMILES IDX 4 1 5 2 6 3 7 4 31 5 13 6 14 7 15 8 16 9 17 10 19 11 20 12
REMARK SMILES IDX 21 13 23 14 26 15 27 16 28 17 29 18 11 19 10 20 9 21 12 22
REMARK SMILES IDX 30 23 24 24 25 25 18 26 8 27 2 28 3 29 1 30 22 31
REMARK H PARENT 22 32
REMARK Flexibility Score: inf
ROOT
ATOM      1  C   UNL     1     143.455 134.856 137.611  1.00  0.00     0.018 C 
ATOM      2  C   UNL     1     142.467 134.988 136.444  1.00  0.00     0.009 C 
ATOM      3  C   UNL     1     142.831 136.272 135.725  1.00  0.00     0.008 C 
ATOM      4  C   UNL     1     143.366 137.238 136.804  1.00  0.00    -0.029 C 
ATOM      5  C   UNL     1     143.853 136.325 137.974  1.00  0.00     0.006 C 
ATOM      6  C   UNL     1     145.292 136.630 138.586  1.00  0.00    -0.000 C 
ATOM      7  C   UNL     1     145.121 137.553 139.790  1.00  0.00     0.005 C 
ATOM      8  C   UNL     1     146.413 137.794 140.556  1.00  0.00     0.005 C 
ATOM      9  C   UNL     1     147.700 138.146 139.729  1.00  0.00     0.002 C 
ATOM     10  C   UNL     1     148.544 139.323 140.431  1.00  0.00    -0.026 C 
ATOM     11  C   UNL     1     148.701 139.070 141.979  1.00  0.00     0.010 C 
ATOM     12  C   UNL     1     149.241 140.284 142.757  1.00  0.00     0.033 C 
ATOM     13  C   UNL     1     148.396 141.546 142.519  1.00  0.00     0.120 C 
ATOM     14  C   UNL     1     148.289 141.928 141.007  1.00  0.00    -0.006 C 
ATOM     15  C   UNL     1     147.772 140.677 140.187  1.00  0.00     0.003 C 
ATOM     16  C   UNL     1     147.533 140.936 138.677  1.00  0.00     0.005 C 
ATOM     17  C   UNL     1     146.761 139.783 137.996  1.00  0.00     0.008 C 
ATOM     18  C   UNL     1     147.386 138.355 138.175  1.00  0.00    -0.024 C 
ATOM     19  C   UNL     1     146.447 137.130 137.599  1.00  0.00    -0.024 C 
ATOM     20  C   UNL     1     145.841 137.464 136.190  1.00  0.00     0.008 C 
ATOM     21  C   UNL     1     144.473 138.143 136.228  1.00  0.00     0.007 C 
ATOM     22  C   UNL     1     147.372 135.883 137.372  1.00  0.00     0.012 C 
ATOM     23  C   UNL     1     148.716 138.366 137.332  1.00  0.00     0.012 C 
ATOM     24  C   UNL     1     147.273 143.099 140.890  1.00  0.00     0.014 C 
ATOM     25  C   UNL     1     149.647 142.482 140.501  1.00  0.00     0.014 C 
ATOM     26  C   UNL     1     150.010 139.340 139.874  1.00  0.00     0.012 C 
ATOM     27  C   UNL     1     142.198 138.149 137.269  1.00  0.00     0.011 C 
ENDROOT
BRANCH   1  28
ATOM     28  C   UNL     1     144.582 133.852 137.356  1.00  0.00    -0.077 C 
ATOM     29  C   UNL     1     145.073 133.516 135.965  1.00  0.00     0.039 C 
ATOM     30  C   UNL     1     145.026 133.101 138.380  1.00  0.00     0.008 C 
ENDBRANCH   1  28
BRANCH  13  31
ATOM     31  O   UNL     1     147.111 141.348 143.060  1.00  0.00    -0.393 OA
ATOM     32  H   UNL     1     147.108 141.761 143.964  1.00  0.00     0.210 HD
ENDBRANCH  13  31
TORSDOF 2
ENDMDL
MODEL 3
REMARK VINA RESULT:    -6.831      3.743      7.623
REMARK INTER + INTRA:          -8.017
REMARK INTER:                  -7.442
REMARK INTRA:                  -0.575
REMARK UNBOUND:                -0.588
REMARK SMILES C=C(C)[C@@H]1CC[C@]2(C)CC[C@]3(C)[C@@H](CC[C@@H]4[C@]5(C)CC[C@H](O)C(C)(C)[C@H]5CC[C@@]43C)[C@H]12
REMARK SMILES IDX 4 1 5 2 6 3 7 4 31 5 13 6 14 7 15 8 16 9 17 10 19 11 20 12
REMARK SMILES IDX 21 13 23 14 26 15 27 16 28 17 29 18 11 19 10 20 9 21 12 22
REMARK SMILES IDX 30 23 24 24 25 25 18 26 8 27 2 28 3 29 1 30 22 31
REMARK H PARENT 22 32
REMARK Flexibility Score: inf
ROOT
ATOM      1  C   UNL     1     148.267 141.016 137.947  1.00  0.00     0.018 C 
ATOM      2  C   UNL     1     147.186 141.877 137.282  1.00  0.00     0.009 C 
ATOM      3  C   UNL     1     145.934 141.023 137.236  1.00  0.00     0.008 C 
ATOM      4  C   UNL     1     146.408 139.564 137.069  1.00  0.00    -0.029 C 
ATOM      5  C   UNL     1     147.873 139.539 137.612  1.00  0.00     0.006 C 
ATOM      6  C   UNL     1     148.256 138.367 138.620  1.00  0.00    -0.000 C 
ATOM      7  C   UNL     1     148.864 137.217 137.820  1.00  0.00     0.005 C 
ATOM      8  C   UNL     1     149.413 136.097 138.689  1.00  0.00     0.005 C 
ATOM      9  C   UNL     1     148.515 135.577 139.867  1.00  0.00     0.002 C 
ATOM     10  C   UNL     1     148.557 133.971 139.971  1.00  0.00    -0.026 C 
ATOM     11  C   UNL     1     150.033 133.429 139.866  1.00  0.00     0.010 C 
ATOM     12  C   UNL     1     150.125 131.904 139.669  1.00  0.00     0.033 C 
ATOM     13  C   UNL     1     149.308 131.428 138.457  1.00  0.00     0.120 C 
ATOM     14  C   UNL     1     147.801 131.832 138.545  1.00  0.00    -0.006 C 
ATOM     15  C   UNL     1     147.690 133.392 138.786  1.00  0.00     0.003 C 
ATOM     16  C   UNL     1     146.244 133.952 138.808  1.00  0.00     0.005 C 
ATOM     17  C   UNL     1     146.210 135.496 138.754  1.00  0.00     0.008 C 
ATOM     18  C   UNL     1     147.055 136.229 139.853  1.00  0.00    -0.024 C 
ATOM     19  C   UNL     1     147.146 137.862 139.657  1.00  0.00    -0.024 C 
ATOM     20  C   UNL     1     145.755 138.493 139.300  1.00  0.00     0.008 C 
ATOM     21  C   UNL     1     145.463 138.594 137.804  1.00  0.00     0.007 C 
ATOM     22  C   UNL     1     147.549 138.489 141.038  1.00  0.00     0.012 C 
ATOM     23  C   UNL     1     146.307 135.959 141.213  1.00  0.00     0.012 C 
ATOM     24  C   UNL     1     147.134 131.455 137.191  1.00  0.00     0.014 C 
ATOM     25  C   UNL     1     147.086 130.985 139.630  1.00  0.00     0.014 C 
ATOM     26  C   UNL     1     148.057 133.510 141.384  1.00  0.00     0.012 C 
ATOM     27  C   UNL     1     146.378 139.209 135.558  1.00  0.00     0.011 C 
ENDROOT
BRANCH   1  28
ATOM     28  C   UNL     1     148.527 141.372 139.412  1.00  0.00    -0.077 C 
ATOM     29  C   UNL     1     147.497 142.068 140.275  1.00  0.00     0.039 C 
ATOM     30  C   UNL     1     149.773 141.236 139.902  1.00  0.00     0.008 C 
ENDBRANCH   1  28
BRANCH  13  31
ATOM     31  O   UNL     1     149.882 131.952 137.282  1.00  0.00    -0.393 OA
ATOM     32  H   UNL     1     150.412 131.222 136.865  1.00  0.00     0.210 HD
ENDBRANCH  13  31
TORSDOF 2
ENDMDL
MODEL 4
REMARK VINA RESULT:    -6.803     10.910     14.223
REMARK INTER + INTRA:          -7.987
REMARK INTER:                  -7.403
REMARK INTRA:                  -0.585
REMARK UNBOUND:                -0.588
REMARK SMILES C=C(C)[C@@H]1CC[C@]2(C)CC[C@]3(C)[C@@H](CC[C@@H]4[C@]5(C)CC[C@H](O)C(C)(C)[C@H]5CC[C@@]43C)[C@H]12
REMARK SMILES IDX 4 1 5 2 6 3 7 4 31 5 13 6 14 7 15 8 16 9 17 10 19 11 20 12
REMARK SMILES IDX 21 13 23 14 26 15 27 16 28 17 29 18 11 19 10 20 9 21 12 22
REMARK SMILES IDX 30 23 24 24 25 25 18 26 8 27 2 28 3 29 1 30 22 31
REMARK H PARENT 22 32
REMARK Flexibility Score: inf
ROOT
ATOM      1  C   UNL     1     142.915 133.252 130.117  1.00  0.00     0.018 C 
ATOM      2  C   UNL     1     143.745 132.187 129.388  1.00  0.00     0.009 C 
ATOM      3  C   UNL     1     143.059 130.861 129.651  1.00  0.00     0.008 C 
ATOM      4  C   UNL     1     142.432 130.968 131.057  1.00  0.00    -0.029 C 
ATOM      5  C   UNL     1     142.253 132.498 131.318  1.00  0.00     0.006 C 
ATOM      6  C   UNL     1     140.843 132.982 131.879  1.00  0.00    -0.000 C 
ATOM      7  C   UNL     1     140.923 133.048 133.402  1.00  0.00     0.005 C 
ATOM      8  C   UNL     1     139.684 133.646 134.049  1.00  0.00     0.005 C 
ATOM      9  C   UNL     1     138.283 133.132 133.561  1.00  0.00     0.002 C 
ATOM     10  C   UNL     1     137.278 132.907 134.797  1.00  0.00    -0.026 C 
ATOM     11  C   UNL     1     137.316 134.127 135.794  1.00  0.00     0.010 C 
ATOM     12  C   UNL     1     136.605 133.859 137.135  1.00  0.00     0.033 C 
ATOM     13  C   UNL     1     137.143 132.599 137.832  1.00  0.00     0.120 C 
ATOM     14  C   UNL     1     137.033 131.320 136.941  1.00  0.00    -0.006 C 
ATOM     15  C   UNL     1     137.725 131.592 135.545  1.00  0.00     0.003 C 
ATOM     16  C   UNL     1     137.768 130.374 134.585  1.00  0.00     0.005 C 
ATOM     17  C   UNL     1     138.700 130.612 133.375  1.00  0.00     0.008 C 
ATOM     18  C   UNL     1     138.406 131.907 132.540  1.00  0.00    -0.024 C 
ATOM     19  C   UNL     1     139.525 132.227 131.375  1.00  0.00    -0.024 C 
ATOM     20  C   UNL     1     139.920 130.941 130.566  1.00  0.00     0.008 C 
ATOM     21  C   UNL     1     141.114 130.173 131.131  1.00  0.00     0.007 C 
ATOM     22  C   UNL     1     138.865 133.193 130.329  1.00  0.00     0.012 C 
ATOM     23  C   UNL     1     137.033 131.641 131.816  1.00  0.00     0.012 C 
ATOM     24  C   UNL     1     137.767 130.167 137.684  1.00  0.00     0.014 C 
ATOM     25  C   UNL     1     135.550 130.880 136.823  1.00  0.00     0.014 C 
ATOM     26  C   UNL     1     135.797 132.852 134.284  1.00  0.00     0.012 C 
ATOM     27  C   UNL     1     143.421 130.350 132.083  1.00  0.00     0.011 C 
ENDROOT
BRANCH   1  28
ATOM     28  C   UNL     1     142.005 134.065 129.194  1.00  0.00    -0.077 C 
ATOM     29  C   UNL     1     141.494 133.527 127.875  1.00  0.00     0.039 C 
ATOM     30  C   UNL     1     141.802 135.367 129.465  1.00  0.00     0.008 C 
ENDBRANCH   1  28
BRANCH  13  31
ATOM     31  O   UNL     1     138.485 132.816 138.203  1.00  0.00    -0.393 OA
ATOM     32  H   UNL     1     138.500 132.931 139.190  1.00  0.00     0.210 HD
ENDBRANCH  13  31
TORSDOF 2
ENDMDL
MODEL 5
REMARK VINA RESULT:    -6.607      2.232      7.481
REMARK INTER + INTRA:          -7.774
REMARK INTER:                  -7.213
REMARK INTRA:                  -0.561
REMARK UNBOUND:                -0.588
REMARK SMILES C=C(C)[C@@H]1CC[C@]2(C)CC[C@]3(C)[C@@H](CC[C@@H]4[C@]5(C)CC[C@H](O)C(C)(C)[C@H]5CC[C@@]43C)[C@H]12
REMARK SMILES IDX 4 1 5 2 6 3 7 4 31 5 13 6 14 7 15 8 16 9 17 10 19 11 20 12
REMARK SMILES IDX 21 13 23 14 26 15 27 16 28 17 29 18 11 19 10 20 9 21 12 22
REMARK SMILES IDX 30 23 24 24 25 25 18 26 8 27 2 28 3 29 1 30 22 31
REMARK H PARENT 22 32
REMARK Flexibility Score: inf
ROOT
ATOM      1  C   UNL     1     147.613 140.132 138.388  1.00  0.00     0.018 C 
ATOM      2  C   UNL     1     148.957 140.006 137.660  1.00  0.00     0.009 C 
ATOM      3  C   UNL     1     149.488 138.624 137.986  1.00  0.00     0.008 C 
ATOM      4  C   UNL     1     148.994 138.293 139.411  1.00  0.00    -0.029 C 
ATOM      5  C   UNL     1     147.736 139.192 139.634  1.00  0.00     0.006 C 
ATOM      6  C   UNL     1     146.436 138.492 140.231  1.00  0.00    -0.000 C 
ATOM      7  C   UNL     1     146.445 138.666 141.748  1.00  0.00     0.005 C 
ATOM      8  C   UNL     1     145.174 138.172 142.422  1.00  0.00     0.005 C 
ATOM      9  C   UNL     1     144.620 136.765 142.000  1.00  0.00     0.002 C 
ATOM     10  C   UNL     1     144.120 135.925 143.278  1.00  0.00    -0.026 C 
ATOM     11  C   UNL     1     143.241 136.812 144.238  1.00  0.00     0.010 C 
ATOM     12  C   UNL     1     142.970 136.167 145.610  1.00  0.00     0.033 C 
ATOM     13  C   UNL     1     144.270 135.759 146.323  1.00  0.00     0.120 C 
ATOM     14  C   UNL     1     145.146 134.782 145.474  1.00  0.00    -0.006 C 
ATOM     15  C   UNL     1     145.401 135.415 144.046  1.00  0.00     0.003 C 
ATOM     16  C   UNL     1     146.334 134.591 143.121  1.00  0.00     0.005 C 
ATOM     17  C   UNL     1     146.775 135.386 141.872  1.00  0.00     0.008 C 
ATOM     18  C   UNL     1     145.612 135.993 141.011  1.00  0.00    -0.024 C 
ATOM     19  C   UNL     1     146.117 136.985 139.797  1.00  0.00    -0.024 C 
ATOM     20  C   UNL     1     147.336 136.384 139.012  1.00  0.00     0.008 C 
ATOM     21  C   UNL     1     148.706 136.786 139.555  1.00  0.00     0.007 C 
ATOM     22  C   UNL     1     144.954 137.090 138.749  1.00  0.00     0.012 C 
ATOM     23  C   UNL     1     144.892 134.761 140.345  1.00  0.00     0.012 C 
ATOM     24  C   UNL     1     146.497 134.595 146.222  1.00  0.00     0.014 C 
ATOM     25  C   UNL     1     144.483 133.381 145.423  1.00  0.00     0.014 C 
ATOM     26  C   UNL     1     143.172 134.762 142.821  1.00  0.00     0.012 C 
ATOM     27  C   UNL     1     150.117 138.664 140.417  1.00  0.00     0.011 C 
ENDROOT
BRANCH   1  28
ATOM     28  C   UNL     1     146.397 139.954 137.476  1.00  0.00    -0.077 C 
ATOM     29  C   UNL     1     146.407 139.032 136.277  1.00  0.00     0.039 C 
ATOM     30  C   UNL     1     145.347 140.782 137.626  1.00  0.00     0.008 C 
ENDBRANCH   1  28
BRANCH  13  31
ATOM     31  O   UNL     1     145.004 136.919 146.639  1.00  0.00    -0.393 OA
ATOM     32  H   UNL     1     145.274 136.843 147.592  1.00  0.00     0.210 HD
ENDBRANCH  13  31
TORSDOF 2
ENDMDL
MODEL 6
REMARK VINA RESULT:    -6.568      1.026      1.209
REMARK INTER + INTRA:          -7.731
REMARK INTER:                  -7.144
REMARK INTRA:                  -0.587
REMARK UNBOUND:                -0.588
REMARK SMILES C=C(C)[C@@H]1CC[C@]2(C)CC[C@]3(C)[C@@H](CC[C@@H]4[C@]5(C)CC[C@H](O)C(C)(C)[C@H]5CC[C@@]43C)[C@H]12
REMARK SMILES IDX 4 1 5 2 6 3 7 4 31 5 13 6 14 7 15 8 16 9 17 10 19 11 20 12
REMARK SMILES IDX 21 13 23 14 26 15 27 16 28 17 29 18 11 19 10 20 9 21 12 22
REMARK SMILES IDX 30 23 24 24 25 25 18 26 8 27 2 28 3 29 1 30 22 31
REMARK H PARENT 22 32
REMARK Flexibility Score: inf
ROOT
ATOM      1  C   UNL     1     141.897 136.240 144.235  1.00  0.00     0.018 C 
ATOM      2  C   UNL     1     140.445 135.966 143.824  1.00  0.00     0.009 C 
ATOM      3  C   UNL     1     140.409 136.056 142.311  1.00  0.00     0.008 C 
ATOM      4  C   UNL     1     141.465 137.109 141.913  1.00  0.00    -0.029 C 
ATOM      5  C   UNL     1     142.472 137.160 143.106  1.00  0.00     0.006 C 
ATOM      6  C   UNL     1     144.024 137.107 142.753  1.00  0.00    -0.000 C 
ATOM      7  C   UNL     1     144.548 138.538 142.656  1.00  0.00     0.005 C 
ATOM      8  C   UNL     1     146.056 138.620 142.475  1.00  0.00     0.005 C 
ATOM      9  C   UNL     1     146.716 137.683 141.402  1.00  0.00     0.002 C 
ATOM     10  C   UNL     1     147.839 138.463 140.554  1.00  0.00    -0.026 C 
ATOM     11  C   UNL     1     148.788 139.300 141.494  1.00  0.00     0.010 C 
ATOM     12  C   UNL     1     149.696 140.291 140.742  1.00  0.00     0.033 C 
ATOM     13  C   UNL     1     148.892 141.238 139.835  1.00  0.00     0.120 C 
ATOM     14  C   UNL     1     148.010 140.477 138.794  1.00  0.00    -0.006 C 
ATOM     15  C   UNL     1     147.097 139.427 139.549  1.00  0.00     0.003 C 
ATOM     16  C   UNL     1     146.100 138.656 138.646  1.00  0.00     0.005 C 
ATOM     17  C   UNL     1     145.050 137.871 139.465  1.00  0.00     0.008 C 
ATOM     18  C   UNL     1     145.631 136.886 140.539  1.00  0.00    -0.024 C 
ATOM     19  C   UNL     1     144.492 136.206 141.516  1.00  0.00    -0.024 C 
ATOM     20  C   UNL     1     143.240 135.712 140.710  1.00  0.00     0.008 C 
ATOM     21  C   UNL     1     142.123 136.744 140.568  1.00  0.00     0.007 C 
ATOM     22  C   UNL     1     145.117 134.915 142.154  1.00  0.00     0.012 C 
ATOM     23  C   UNL     1     146.308 135.721 139.723  1.00  0.00     0.012 C 
ATOM     24  C   UNL     1     147.122 141.531 138.073  1.00  0.00     0.014 C 
ATOM     25  C   UNL     1     148.906 139.844 137.698  1.00  0.00     0.014 C 
ATOM     26  C   UNL     1     148.784 137.436 139.839  1.00  0.00     0.012 C 
ATOM     27  C   UNL     1     140.751 138.478 141.741  1.00  0.00     0.011 C 
ENDROOT
BRANCH   1  28
ATOM     28  C   UNL     1     142.684 134.981 144.601  1.00  0.00    -0.077 C 
ATOM     29  C   UNL     1     142.350 133.618 144.034  1.00  0.00     0.039 C 
ATOM     30  C   UNL     1     143.582 135.044 145.602  1.00  0.00     0.008 C 
ENDBRANCH   1  28
BRANCH  13  31
ATOM     31  O   UNL     1     148.087 142.068 140.639  1.00  0.00    -0.393 OA
ATOM     32  H   UNL     1     148.640 142.352 141.414  1.00  0.00     0.210 HD
ENDBRANCH  13  31
TORSDOF 2
ENDMDL
MODEL 7
REMARK VINA RESULT:    -6.566      3.676      5.663
REMARK INTER + INTRA:          -7.730
REMARK INTER:                  -7.144
REMARK INTRA:                  -0.586
REMARK UNBOUND:                -0.588
REMARK SMILES C=C(C)[C@@H]1CC[C@]2(C)CC[C@]3(C)[C@@H](CC[C@@H]4[C@]5(C)CC[C@H](O)C(C)(C)[C@H]5CC[C@@]43C)[C@H]12
REMARK SMILES IDX 4 1 5 2 6 3 7 4 31 5 13 6 14 7 15 8 16 9 17 10 19 11 20 12
REMARK SMILES IDX 21 13 23 14 26 15 27 16 28 17 29 18 11 19 10 20 9 21 12 22
REMARK SMILES IDX 30 23 24 24 25 25 18 26 8 27 2 28 3 29 1 30 22 31
REMARK H PARENT 22 32
REMARK Flexibility Score: inf
ROOT
ATOM      1  C   UNL     1     142.573 134.243 136.860  1.00  0.00     0.018 C 
ATOM      2  C   UNL     1     141.092 134.525 136.576  1.00  0.00     0.009 C 
ATOM      3  C   UNL     1     140.945 136.034 136.558  1.00  0.00     0.008 C 
ATOM      4  C   UNL     1     141.977 136.584 137.565  1.00  0.00    -0.029 C 
ATOM      5  C   UNL     1     143.070 135.475 137.688  1.00  0.00     0.006 C 
ATOM      6  C   UNL     1     144.592 135.936 137.589  1.00  0.00    -0.000 C 
ATOM      7  C   UNL     1     145.119 136.176 139.001  1.00  0.00     0.005 C 
ATOM      8  C   UNL     1     146.610 136.473 139.049  1.00  0.00     0.005 C 
ATOM      9  C   UNL     1     147.181 137.520 138.028  1.00  0.00     0.002 C 
ATOM     10  C   UNL     1     148.245 138.502 138.729  1.00  0.00    -0.026 C 
ATOM     11  C   UNL     1     149.267 137.698 139.620  1.00  0.00     0.010 C 
ATOM     12  C   UNL     1     150.125 138.586 140.541  1.00  0.00     0.033 C 
ATOM     13  C   UNL     1     149.264 139.497 141.430  1.00  0.00     0.120 C 
ATOM     14  C   UNL     1     148.301 140.412 140.608  1.00  0.00    -0.006 C 
ATOM     15  C   UNL     1     147.438 139.518 139.628  1.00  0.00     0.003 C 
ATOM     16  C   UNL     1     146.371 140.287 138.807  1.00  0.00     0.005 C 
ATOM     17  C   UNL     1     145.378 139.338 138.098  1.00  0.00     0.008 C 
ATOM     18  C   UNL     1     146.028 138.240 137.186  1.00  0.00    -0.024 C 
ATOM     19  C   UNL     1     144.959 137.134 136.594  1.00  0.00    -0.024 C 
ATOM     20  C   UNL     1     143.647 137.809 136.060  1.00  0.00     0.008 C 
ATOM     21  C   UNL     1     142.531 137.944 137.094  1.00  0.00     0.007 C 
ATOM     22  C   UNL     1     145.619 136.452 135.344  1.00  0.00     0.012 C 
ATOM     23  C   UNL     1     146.634 139.016 135.956  1.00  0.00     0.012 C 
ATOM     24  C   UNL     1     147.371 141.143 141.619  1.00  0.00     0.014 C 
ATOM     25  C   UNL     1     149.108 141.522 139.886  1.00  0.00     0.014 C 
ATOM     26  C   UNL     1     149.126 139.208 137.641  1.00  0.00     0.012 C 
ATOM     27  C   UNL     1     141.264 136.804 138.926  1.00  0.00     0.011 C 
ENDROOT
BRANCH   1  28
ATOM     28  C   UNL     1     143.375 133.844 135.620  1.00  0.00    -0.077 C 
ATOM     29  C   UNL     1     142.991 134.288 134.225  1.00  0.00     0.039 C 
ATOM     30  C   UNL     1     144.342 132.917 135.743  1.00  0.00     0.008 C 
ENDBRANCH   1  28
BRANCH  13  31
ATOM     31  O   UNL     1     148.527 138.700 142.328  1.00  0.00    -0.393 OA
ATOM     32  H   UNL     1     149.086 137.907 142.541  1.00  0.00     0.210 HD
ENDBRANCH  13  31
TORSDOF 2
ENDMDL
MODEL 8
REMARK VINA RESULT:    -6.454      3.823      9.070
REMARK INTER + INTRA:          -7.608
REMARK INTER:                  -7.024
REMARK INTRA:                  -0.584
REMARK UNBOUND:                -0.588
REMARK SMILES C=C(C)[C@@H]1CC[C@]2(C)CC[C@]3(C)[C@@H](CC[C@@H]4[C@]5(C)CC[C@H](O)C(C)(C)[C@H]5CC[C@@]43C)[C@H]12
REMARK SMILES IDX 4 1 5 2 6 3 7 4 31 5 13 6 14 7 15 8 16 9 17 10 19 11 20 12
REMARK SMILES IDX 21 13 23 14 26 15 27 16 28 17 29 18 11 19 10 20 9 21 12 22
REMARK SMILES IDX 30 23 24 24 25 25 18 26 8 27 2 28 3 29 1 30 22 31
REMARK H PARENT 22 32
REMARK Flexibility Score: inf
ROOT
ATOM      1  C   UNL     1     144.306 138.286 139.769  1.00  0.00     0.018 C 
ATOM      2  C   UNL     1     145.620 137.495 139.806  1.00  0.00     0.009 C 
ATOM      3  C   UNL     1     145.292 136.161 140.449  1.00  0.00     0.008 C 
ATOM      4  C   UNL     1     144.165 136.434 141.468  1.00  0.00    -0.029 C 
ATOM      5  C   UNL     1     143.472 137.747 140.979  1.00  0.00     0.006 C 
ATOM      6  C   UNL     1     141.881 137.749 140.910  1.00  0.00    -0.000 C 
ATOM      7  C   UNL     1     141.340 138.319 142.219  1.00  0.00     0.005 C 
ATOM      8  C   UNL     1     139.832 138.517 142.216  1.00  0.00     0.005 C 
ATOM      9  C   UNL     1     138.940 137.341 141.679  1.00  0.00     0.002 C 
ATOM     10  C   UNL     1     137.642 137.121 142.604  1.00  0.00    -0.026 C 
ATOM     11  C   UNL     1     136.941 138.492 142.942  1.00  0.00     0.010 C 
ATOM     12  C   UNL     1     135.873 138.390 144.047  1.00  0.00     0.033 C 
ATOM     13  C   UNL     1     136.431 137.759 145.333  1.00  0.00     0.120 C 
ATOM     14  C   UNL     1     137.043 136.341 145.097  1.00  0.00    -0.006 C 
ATOM     15  C   UNL     1     138.116 136.422 143.936  1.00  0.00     0.003 C 
ATOM     16  C   UNL     1     138.873 135.099 143.650  1.00  0.00     0.005 C 
ATOM     17  C   UNL     1     140.094 135.308 142.725  1.00  0.00     0.008 C 
ATOM     18  C   UNL     1     139.793 136.026 141.363  1.00  0.00    -0.024 C 
ATOM     19  C   UNL     1     141.137 136.398 140.485  1.00  0.00    -0.024 C 
ATOM     20  C   UNL     1     142.163 135.211 140.445  1.00  0.00     0.008 C 
ATOM     21  C   UNL     1     143.207 135.231 141.560  1.00  0.00     0.007 C 
ATOM     22  C   UNL     1     140.691 136.617 138.997  1.00  0.00     0.012 C 
ATOM     23  C   UNL     1     138.948 134.999 140.520  1.00  0.00     0.012 C 
ATOM     24  C   UNL     1     137.726 135.898 146.422  1.00  0.00     0.014 C 
ATOM     25  C   UNL     1     135.915 135.312 144.827  1.00  0.00     0.014 C 
ATOM     26  C   UNL     1     136.560 136.295 141.825  1.00  0.00     0.012 C 
ATOM     27  C   UNL     1     144.808 136.642 142.866  1.00  0.00     0.011 C 
ENDROOT
BRANCH   1  28
ATOM     28  C   UNL     1     143.637 138.310 138.394  1.00  0.00    -0.077 C 
ATOM     29  C   UNL     1     143.809 137.194 137.386  1.00  0.00     0.039 C 
ATOM     30  C   UNL     1     143.030 139.440 137.986  1.00  0.00     0.008 C 
ENDBRANCH   1  28
BRANCH  13  31
ATOM     31  O   UNL     1     137.400 138.620 145.885  1.00  0.00    -0.393 OA
ATOM     32  H   UNL     1     137.898 139.023 145.126  1.00  0.00     0.210 HD
ENDBRANCH  13  31
TORSDOF 2
ENDMDL
MODEL 9
REMARK VINA RESULT:    -6.364     10.013     12.391
REMARK INTER + INTRA:          -7.509
REMARK INTER:                  -6.923
REMARK INTRA:                  -0.586
REMARK UNBOUND:                -0.588
REMARK SMILES C=C(C)[C@@H]1CC[C@]2(C)CC[C@]3(C)[C@@H](CC[C@@H]4[C@]5(C)CC[C@H](O)C(C)(C)[C@H]5CC[C@@]43C)[C@H]12
REMARK SMILES IDX 4 1 5 2 6 3 7 4 31 5 13 6 14 7 15 8 16 9 17 10 19 11 20 12
REMARK SMILES IDX 21 13 23 14 26 15 27 16 28 17 29 18 11 19 10 20 9 21 12 22
REMARK SMILES IDX 30 23 24 24 25 25 18 26 8 27 2 28 3 29 1 30 22 31
REMARK H PARENT 22 32
REMARK Flexibility Score: inf
ROOT
ATOM      1  C   UNL     1     136.685 134.031 138.306  1.00  0.00     0.018 C 
ATOM      2  C   UNL     1     135.253 133.817 138.813  1.00  0.00     0.009 C 
ATOM      3  C   UNL     1     134.572 132.926 137.792  1.00  0.00     0.008 C 
ATOM      4  C   UNL     1     135.193 133.278 136.424  1.00  0.00    -0.029 C 
ATOM      5  C   UNL     1     136.589 133.901 136.749  1.00  0.00     0.006 C 
ATOM      6  C   UNL     1     137.837 133.365 135.918  1.00  0.00    -0.000 C 
ATOM      7  C   UNL     1     138.053 134.284 134.719  1.00  0.00     0.005 C 
ATOM      8  C   UNL     1     139.314 133.966 133.930  1.00  0.00     0.005 C 
ATOM      9  C   UNL     1     139.594 132.464 133.571  1.00  0.00     0.002 C 
ATOM     10  C   UNL     1     140.127 132.312 132.060  1.00  0.00    -0.026 C 
ATOM     11  C   UNL     1     141.246 133.374 131.739  1.00  0.00     0.010 C 
ATOM     12  C   UNL     1     141.596 133.478 130.243  1.00  0.00     0.033 C 
ATOM     13  C   UNL     1     140.355 133.751 129.377  1.00  0.00     0.120 C 
ATOM     14  C   UNL     1     139.240 132.671 129.557  1.00  0.00    -0.006 C 
ATOM     15  C   UNL     1     138.897 132.524 131.095  1.00  0.00     0.003 C 
ATOM     16  C   UNL     1     137.740 131.544 131.418  1.00  0.00     0.005 C 
ATOM     17  C   UNL     1     137.261 131.661 132.883  1.00  0.00     0.008 C 
ATOM     18  C   UNL     1     138.378 131.506 133.973  1.00  0.00    -0.024 C 
ATOM     19  C   UNL     1     137.871 131.818 135.509  1.00  0.00    -0.024 C 
ATOM     20  C   UNL     1     136.484 131.152 135.820  1.00  0.00     0.008 C 
ATOM     21  C   UNL     1     135.271 132.031 135.521  1.00  0.00     0.007 C 
ATOM     22  C   UNL     1     138.889 131.147 136.496  1.00  0.00     0.012 C 
ATOM     23  C   UNL     1     138.815 129.993 133.919  1.00  0.00     0.012 C 
ATOM     24  C   UNL     1     137.986 133.156 128.776  1.00  0.00     0.014 C 
ATOM     25  C   UNL     1     139.676 131.340 128.890  1.00  0.00     0.014 C 
ATOM     26  C   UNL     1     140.825 130.920 131.873  1.00  0.00     0.012 C 
ATOM     27  C   UNL     1     134.278 134.319 135.724  1.00  0.00     0.011 C 
ENDROOT
BRANCH   1  28
ATOM     28  C   UNL     1     137.731 133.182 139.031  1.00  0.00    -0.077 C 
ATOM     29  C   UNL     1     137.396 131.858 139.681  1.00  0.00     0.039 C 
ATOM     30  C   UNL     1     138.946 133.711 139.266  1.00  0.00     0.008 C 
ENDBRANCH   1  28
BRANCH  13  31
ATOM     31  O   UNL     1     139.848 135.027 129.691  1.00  0.00    -0.393 OA
ATOM     32  H   UNL     1     139.300 134.930 130.514  1.00  0.00     0.210 HD
ENDBRANCH  13  31
TORSDOF 2
ENDMDL
