MODEL 1
REMARK VINA RESULT:    -3.669      0.000      0.000
REMARK INTER + INTRA:          -3.776
REMARK INTER:                  -3.776
REMARK INTRA:                   0.000
REMARK UNBOUND:                 0.000
REMARK SMILES Oc1ccc2[nH]ccc2c1
REMARK SMILES IDX 3 1 4 2 5 3 9 4 8 5 7 6 6 7 10 8 2 9 1 11
REMARK H PARENT 6 10 1 12
REMARK Flexibility Score: inf
ROOT
ATOM      1  C   UNL     1     130.233 124.632 109.737  1.00  0.00     0.048 A 
ATOM      2  C   UNL     1     131.535 125.132 109.550  1.00  0.00     0.030 A 
ATOM      3  C   UNL     1     132.226 125.585 110.673  1.00  0.00     0.046 A 
ATOM      4  C   UNL     1     131.668 125.550 111.923  1.00  0.00     0.003 A 
ATOM      5  C   UNL     1     132.597 126.062 112.804  1.00  0.00     0.028 A 
ATOM      6  C   UNL     1     133.699 126.389 112.018  1.00  0.00     0.083 A 
ATOM      7  N   UNL     1     133.467 126.095 110.718  1.00  0.00    -0.361 N 
ATOM      8  C   UNL     1     130.383 125.061 112.143  1.00  0.00     0.056 A 
ATOM      9  C   UNL     1     129.655 124.595 111.027  1.00  0.00     0.116 A 
ATOM     10  H   UNL     1     134.122 126.238 109.917  1.00  0.00     0.166 HD
ENDROOT
BRANCH   9  11
ATOM     11  O   UNL     1     128.365 124.095 111.186  1.00  0.00    -0.508 OA
ATOM     12  H   UNL     1     127.597 124.692 111.468  1.00  0.00     0.293 HD
ENDBRANCH   9  11
TORSDOF 1
ENDMDL
MODEL 2
REMARK VINA RESULT:    -3.650      9.513     10.099
REMARK INTER + INTRA:          -3.756
REMARK INTER:                  -3.756
REMARK INTRA:                   0.000
REMARK UNBOUND:                 0.000
REMARK SMILES Oc1ccc2[nH]ccc2c1
REMARK SMILES IDX 3 1 4 2 5 3 9 4 8 5 7 6 6 7 10 8 2 9 1 11
REMARK H PARENT 6 10 1 12
REMARK Flexibility Score: inf
ROOT
ATOM      1  C   UNL     1     124.701 118.673 109.692  1.00  0.00     0.048 A 
ATOM      2  C   UNL     1     125.281 117.399 109.547  1.00  0.00     0.030 A 
ATOM      3  C   UNL     1     125.712 116.745 110.701  1.00  0.00     0.046 A 
ATOM      4  C   UNL     1     125.580 117.312 111.940  1.00  0.00     0.003 A 
ATOM      5  C   UNL     1     126.096 116.422 112.857  1.00  0.00     0.028 A 
ATOM      6  C   UNL     1     126.523 115.332 112.104  1.00  0.00     0.083 A 
ATOM      7  N   UNL     1     126.286 115.535 110.788  1.00  0.00    -0.361 N 
ATOM      8  C   UNL     1     125.010 118.571 112.118  1.00  0.00     0.056 A 
ATOM      9  C   UNL     1     124.565 119.261 110.971  1.00  0.00     0.116 A 
ATOM     10  H   UNL     1     126.507 114.881 110.003  1.00  0.00     0.166 HD
ENDROOT
BRANCH   9  11
ATOM     11  O   UNL     1     123.987 120.522 111.087  1.00  0.00    -0.508 OA
ATOM     12  H   UNL     1     123.565 120.834 111.954  1.00  0.00     0.293 HD
ENDBRANCH   9  11
TORSDOF 1
ENDMDL
MODEL 3
REMARK VINA RESULT:    -3.626      9.481     10.150
REMARK INTER + INTRA:          -3.732
REMARK INTER:                  -3.732
REMARK INTRA:                   0.000
REMARK UNBOUND:                 0.000
REMARK SMILES Oc1ccc2[nH]ccc2c1
REMARK SMILES IDX 3 1 4 2 5 3 9 4 8 5 7 6 6 7 10 8 2 9 1 11
REMARK H PARENT 6 10 1 12
REMARK Flexibility Score: inf
ROOT
ATOM      1  C   UNL     1     124.354 130.288 109.750  1.00  0.00     0.048 A 
ATOM      2  C   UNL     1     123.812 131.578 109.602  1.00  0.00     0.030 A 
ATOM      3  C   UNL     1     123.349 132.224 110.748  1.00  0.00     0.046 A 
ATOM      4  C   UNL     1     123.415 131.635 111.982  1.00  0.00     0.003 A 
ATOM      5  C   UNL     1     122.884 132.523 112.892  1.00  0.00     0.028 A 
ATOM      6  C   UNL     1     122.514 133.635 112.140  1.00  0.00     0.083 A 
ATOM      7  N   UNL     1     122.802 133.447 110.831  1.00  0.00    -0.361 N 
ATOM      8  C   UNL     1     123.946 130.360 112.163  1.00  0.00     0.056 A 
ATOM      9  C   UNL     1     124.423 129.677 111.023  1.00  0.00     0.116 A 
ATOM     10  H   UNL     1     122.629 134.118 110.049  1.00  0.00     0.166 HD
ENDROOT
BRANCH   9  11
ATOM     11  O   UNL     1     124.965 128.400 111.142  1.00  0.00    -0.508 OA
ATOM     12  H   UNL     1     125.851 128.158 110.714  1.00  0.00     0.293 HD
ENDBRANCH   9  11
TORSDOF 1
ENDMDL
MODEL 4
REMARK VINA RESULT:    -3.622     12.719     14.315
REMARK INTER + INTRA:          -3.728
REMARK INTER:                  -3.728
REMARK INTRA:                   0.000
REMARK UNBOUND:                 0.000
REMARK SMILES Oc1ccc2[nH]ccc2c1
REMARK SMILES IDX 3 1 4 2 5 3 9 4 8 5 7 6 6 7 10 8 2 9 1 11
REMARK H PARENT 6 10 1 12
REMARK Flexibility Score: inf
ROOT
ATOM      1  C   UNL     1     118.713 124.341 109.712  1.00  0.00     0.048 A 
ATOM      2  C   UNL     1     117.441 123.760 109.554  1.00  0.00     0.030 A 
ATOM      3  C   UNL     1     116.784 123.311 110.699  1.00  0.00     0.046 A 
ATOM      4  C   UNL     1     117.346 123.425 111.942  1.00  0.00     0.003 A 
ATOM      5  C   UNL     1     116.454 122.893 112.848  1.00  0.00     0.028 A 
ATOM      6  C   UNL     1     115.368 122.474 112.085  1.00  0.00     0.083 A 
ATOM      7  N   UNL     1     115.575 122.732 110.773  1.00  0.00    -0.361 N 
ATOM      8  C   UNL     1     118.603 123.995 112.134  1.00  0.00     0.056 A 
ATOM      9  C   UNL     1     119.295 124.460 110.996  1.00  0.00     0.116 A 
ATOM     10  H   UNL     1     114.925 122.521 109.983  1.00  0.00     0.166 HD
ENDROOT
BRANCH   9  11
ATOM     11  O   UNL     1     120.555 125.039 111.125  1.00  0.00    -0.508 OA
ATOM     12  H   UNL     1     121.396 124.476 111.159  1.00  0.00     0.293 HD
ENDBRANCH   9  11
TORSDOF 1
ENDMDL
MODEL 5
REMARK VINA RESULT:    -3.518      1.566      2.962
REMARK INTER + INTRA:          -3.621
REMARK INTER:                  -3.621
REMARK INTRA:                   0.000
REMARK UNBOUND:                 0.000
REMARK SMILES Oc1ccc2[nH]ccc2c1
REMARK SMILES IDX 3 1 4 2 5 3 9 4 8 5 7 6 6 7 10 8 2 9 1 11
REMARK H PARENT 6 10 1 12
REMARK Flexibility Score: inf
ROOT
ATOM      1  C   UNL     1     132.817 125.965 112.997  1.00  0.00     0.048 A 
ATOM      2  C   UNL     1     133.610 126.027 111.836  1.00  0.00     0.030 A 
ATOM      3  C   UNL     1     132.991 125.785 110.610  1.00  0.00     0.046 A 
ATOM      4  C   UNL     1     131.655 125.496 110.524  1.00  0.00     0.003 A 
ATOM      5  C   UNL     1     131.358 125.312 109.191  1.00  0.00     0.028 A 
ATOM      6  C   UNL     1     132.563 125.505 108.521  1.00  0.00     0.083 A 
ATOM      7  N   UNL     1     133.557 125.794 109.393  1.00  0.00    -0.361 N 
ATOM      8  C   UNL     1     130.841 125.428 111.653  1.00  0.00     0.056 A 
ATOM      9  C   UNL     1     131.437 125.667 112.910  1.00  0.00     0.116 A 
ATOM     10  H   UNL     1     134.558 125.983 109.162  1.00  0.00     0.166 HD
ENDROOT
BRANCH   9  11
ATOM     11  O   UNL     1     130.674 125.613 114.073  1.00  0.00    -0.508 OA
ATOM     12  H   UNL     1     129.936 124.928 114.191  1.00  0.00     0.293 HD
ENDBRANCH   9  11
TORSDOF 1
ENDMDL
MODEL 6
REMARK VINA RESULT:    -3.517     12.113     13.610
REMARK INTER + INTRA:          -3.620
REMARK INTER:                  -3.620
REMARK INTRA:                   0.000
REMARK UNBOUND:                 0.000
REMARK SMILES Oc1ccc2[nH]ccc2c1
REMARK SMILES IDX 3 1 4 2 5 3 9 4 8 5 7 6 6 7 10 8 2 9 1 11
REMARK H PARENT 6 10 1 12
REMARK Flexibility Score: inf
ROOT
ATOM      1  C   UNL     1     117.244 122.980 112.548  1.00  0.00     0.048 A 
ATOM      2  C   UNL     1     118.465 123.681 112.562  1.00  0.00     0.030 A 
ATOM      3  C   UNL     1     118.870 124.306 111.384  1.00  0.00     0.046 A 
ATOM      4  C   UNL     1     118.115 124.248 110.242  1.00  0.00     0.003 A 
ATOM      5  C   UNL     1     118.785 124.958 109.269  1.00  0.00     0.028 A 
ATOM      6  C   UNL     1     119.941 125.422 109.889  1.00  0.00     0.083 A 
ATOM      7  N   UNL     1     119.988 125.021 111.181  1.00  0.00    -0.361 N 
ATOM      8  C   UNL     1     116.903 123.563 110.194  1.00  0.00     0.056 A 
ATOM      9  C   UNL     1     116.464 122.918 111.370  1.00  0.00     0.116 A 
ATOM     10  H   UNL     1     120.742 125.227 111.874  1.00  0.00     0.166 HD
ENDROOT
BRANCH   9  11
ATOM     11  O   UNL     1     115.260 122.219 111.382  1.00  0.00    -0.508 OA
ATOM     12  H   UNL     1     114.393 122.660 111.667  1.00  0.00     0.293 HD
ENDBRANCH   9  11
TORSDOF 1
ENDMDL
MODEL 7
REMARK VINA RESULT:    -3.481      2.566      4.138
REMARK INTER + INTRA:          -3.583
REMARK INTER:                  -3.583
REMARK INTRA:                   0.000
REMARK UNBOUND:                 0.000
REMARK SMILES Oc1ccc2[nH]ccc2c1
REMARK SMILES IDX 3 1 4 2 5 3 9 4 8 5 7 6 6 7 10 8 2 9 1 11
REMARK H PARENT 6 10 1 12
REMARK Flexibility Score: inf
ROOT
ATOM      1  C   UNL     1     131.640 125.857 112.272  1.00  0.00     0.048 A 
ATOM      2  C   UNL     1     130.378 125.234 112.291  1.00  0.00     0.030 A 
ATOM      3  C   UNL     1     129.931 124.632 111.116  1.00  0.00     0.046 A 
ATOM      4  C   UNL     1     130.685 124.639 109.973  1.00  0.00     0.003 A 
ATOM      5  C   UNL     1     129.970 123.970 109.003  1.00  0.00     0.028 A 
ATOM      6  C   UNL     1     128.788 123.581 109.628  1.00  0.00     0.083 A 
ATOM      7  N   UNL     1     128.770 123.987 110.918  1.00  0.00    -0.361 N 
ATOM      8  C   UNL     1     131.938 125.247 109.920  1.00  0.00     0.056 A 
ATOM      9  C   UNL     1     132.419 125.867 111.093  1.00  0.00     0.116 A 
ATOM     10  H   UNL     1     128.007 123.831 111.614  1.00  0.00     0.166 HD
ENDROOT
BRANCH   9  11
ATOM     11  O   UNL     1     133.665 126.490 111.100  1.00  0.00    -0.508 OA
ATOM     12  H   UNL     1     134.107 126.799 110.242  1.00  0.00     0.293 HD
ENDBRANCH   9  11
TORSDOF 1
ENDMDL
MODEL 8
REMARK VINA RESULT:    -3.478     10.289     11.084
REMARK INTER + INTRA:          -3.579
REMARK INTER:                  -3.579
REMARK INTRA:                   0.000
REMARK UNBOUND:                 0.000
REMARK SMILES Oc1ccc2[nH]ccc2c1
REMARK SMILES IDX 3 1 4 2 5 3 9 4 8 5 7 6 6 7 10 8 2 9 1 11
REMARK H PARENT 6 10 1 12
REMARK Flexibility Score: inf
ROOT
ATOM      1  C   UNL     1     122.933 132.826 113.015  1.00  0.00     0.048 A 
ATOM      2  C   UNL     1     122.846 133.623 111.858  1.00  0.00     0.030 A 
ATOM      3  C   UNL     1     123.083 133.013 110.627  1.00  0.00     0.046 A 
ATOM      4  C   UNL     1     123.391 131.682 110.532  1.00  0.00     0.003 A 
ATOM      5  C   UNL     1     123.564 131.395 109.195  1.00  0.00     0.028 A 
ATOM      6  C   UNL     1     123.344 132.599 108.533  1.00  0.00     0.083 A 
ATOM      7  N   UNL     1     123.051 133.585 109.413  1.00  0.00    -0.361 N 
ATOM      8  C   UNL     1     123.484 130.865 111.656  1.00  0.00     0.056 A 
ATOM      9  C   UNL     1     123.251 131.451 112.918  1.00  0.00     0.116 A 
ATOM     10  H   UNL     1     122.843 134.584 109.188  1.00  0.00     0.166 HD
ENDROOT
BRANCH   9  11
ATOM     11  O   UNL     1     123.331 130.684 114.077  1.00  0.00    -0.508 OA
ATOM     12  H   UNL     1     122.580 130.061 114.353  1.00  0.00     0.293 HD
ENDBRANCH   9  11
TORSDOF 1
ENDMDL
MODEL 9
REMARK VINA RESULT:    -3.422      9.765     10.646
REMARK INTER + INTRA:          -3.523
REMARK INTER:                  -3.523
REMARK INTRA:                   0.000
REMARK UNBOUND:                 0.000
REMARK SMILES Oc1ccc2[nH]ccc2c1
REMARK SMILES IDX 3 1 4 2 5 3 9 4 8 5 7 6 6 7 10 8 2 9 1 11
REMARK H PARENT 6 10 1 12
REMARK Flexibility Score: inf
ROOT
ATOM      1  C   UNL     1     126.097 116.273 112.996  1.00  0.00     0.048 A 
ATOM      2  C   UNL     1     126.107 115.528 111.801  1.00  0.00     0.030 A 
ATOM      3  C   UNL     1     125.742 116.180 110.624  1.00  0.00     0.046 A 
ATOM      4  C   UNL     1     125.383 117.502 110.616  1.00  0.00     0.003 A 
ATOM      5  C   UNL     1     125.084 117.839 109.314  1.00  0.00     0.028 A 
ATOM      6  C   UNL     1     125.282 116.672 108.582  1.00  0.00     0.083 A 
ATOM      7  N   UNL     1     125.685 115.662 109.387  1.00  0.00    -0.361 N 
ATOM      8  C   UNL     1     125.364 118.267 111.780  1.00  0.00     0.056 A 
ATOM      9  C   UNL     1     125.727 117.638 112.989  1.00  0.00     0.116 A 
ATOM     10  H   UNL     1     125.903 114.681 109.101  1.00  0.00     0.166 HD
ENDROOT
BRANCH   9  11
ATOM     11  O   UNL     1     125.726 118.353 114.184  1.00  0.00    -0.508 OA
ATOM     12  H   UNL     1     125.321 117.970 115.030  1.00  0.00     0.293 HD
ENDBRANCH   9  11
TORSDOF 1
ENDMDL
