MODEL 1
REMARK VINA RESULT:    -3.359      0.000      0.000
REMARK INTER + INTRA:          -4.300
REMARK INTER:                  -4.145
REMARK INTRA:                  -0.155
REMARK UNBOUND:                -0.155
REMARK SMILES CCCCCC(=O)[O-]
REMARK SMILES IDX 4 1 5 2 6 3 7 4 8 5 3 6 2 7 1 8
REMARK H PARENT
REMARK Flexibility Score: inf
ROOT
ATOM      1  C   UNL     1     161.070 177.288 187.608  1.00  0.00     0.006 C 
ENDROOT
BRANCH   1   2
ATOM      2  C   UNL     1     160.545 178.277 186.563  1.00  0.00     0.053 C 
BRANCH   2   3
ATOM      3  C   UNL     1     160.409 177.609 185.232  1.00  0.00     0.041 C 
ATOM      4  O   UNL     1     160.326 176.354 185.157  1.00  0.00    -0.550 OA
ATOM      5  O   UNL     1     160.323 178.374 184.075  1.00  0.00    -0.550 OA
ENDBRANCH   2   3
ENDBRANCH   1   2
BRANCH   1   6
ATOM      6  C   UNL     1     162.412 177.757 188.184  1.00  0.00     0.000 C 
BRANCH   6   7
ATOM      7  C   UNL     1     163.539 177.592 187.158  1.00  0.00    -0.003 C 
ATOM      8  C   UNL     1     164.215 178.928 186.863  1.00  0.00     0.004 C 
ENDBRANCH   6   7
ENDBRANCH   1   6
TORSDOF 4
ENDMDL
MODEL 2
REMARK VINA RESULT:    -3.278      1.113      1.968
REMARK INTER + INTRA:          -4.200
REMARK INTER:                  -3.991
REMARK INTRA:                  -0.209
REMARK UNBOUND:                -0.155
REMARK SMILES CCCCCC(=O)[O-]
REMARK SMILES IDX 4 1 5 2 6 3 7 4 8 5 3 6 2 7 1 8
REMARK H PARENT
REMARK Flexibility Score: inf
ROOT
ATOM      1  C   UNL     1     160.989 177.331 187.678  1.00  0.00     0.006 C 
ENDROOT
BRANCH   1   2
ATOM      2  C   UNL     1     160.955 178.292 186.486  1.00  0.00     0.053 C 
BRANCH   2   3
ATOM      3  C   UNL     1     160.508 177.578 185.250  1.00  0.00     0.041 C 
ATOM      4  O   UNL     1     160.351 178.212 184.173  1.00  0.00    -0.550 OA
ATOM      5  O   UNL     1     160.312 176.203 185.274  1.00  0.00    -0.550 OA
ENDBRANCH   2   3
ENDBRANCH   1   2
BRANCH   1   6
ATOM      6  C   UNL     1     162.383 177.295 188.316  1.00  0.00     0.000 C 
BRANCH   6   7
ATOM      7  C   UNL     1     163.328 176.387 187.521  1.00  0.00    -0.003 C 
ATOM      8  C   UNL     1     162.951 174.917 187.690  1.00  0.00     0.004 C 
ENDBRANCH   6   7
ENDBRANCH   1   6
TORSDOF 4
ENDMDL
MODEL 3
REMARK VINA RESULT:    -3.260      1.349      2.171
REMARK INTER + INTRA:          -4.178
REMARK INTER:                  -4.095
REMARK INTRA:                  -0.082
REMARK UNBOUND:                -0.155
REMARK SMILES CCCCCC(=O)[O-]
REMARK SMILES IDX 4 1 5 2 6 3 7 4 8 5 3 6 2 7 1 8
REMARK H PARENT
REMARK Flexibility Score: inf
ROOT
ATOM      1  C   UNL     1     161.075 178.151 186.092  1.00  0.00     0.006 C 
ENDROOT
BRANCH   1   2
ATOM      2  C   UNL     1     159.962 178.211 185.043  1.00  0.00     0.053 C 
BRANCH   2   3
ATOM      3  C   UNL     1     160.374 177.489 183.799  1.00  0.00     0.041 C 
ATOM      4  O   UNL     1     161.197 178.015 183.004  1.00  0.00    -0.550 OA
ATOM      5  O   UNL     1     159.888 176.213 183.542  1.00  0.00    -0.550 OA
ENDBRANCH   2   3
ENDBRANCH   1   2
BRANCH   1   6
ATOM      6  C   UNL     1     160.499 178.239 187.511  1.00  0.00     0.000 C 
BRANCH   6   7
ATOM      7  C   UNL     1     161.403 177.516 188.517  1.00  0.00    -0.003 C 
ATOM      8  C   UNL     1     162.794 177.278 187.936  1.00  0.00     0.004 C 
ENDBRANCH   6   7
ENDBRANCH   1   6
TORSDOF 4
ENDMDL
MODEL 4
REMARK VINA RESULT:    -3.184      0.952      1.306
REMARK INTER + INTRA:          -4.084
REMARK INTER:                  -4.001
REMARK INTRA:                  -0.083
REMARK UNBOUND:                -0.155
REMARK SMILES CCCCCC(=O)[O-]
REMARK SMILES IDX 4 1 5 2 6 3 7 4 8 5 3 6 2 7 1 8
REMARK H PARENT
REMARK Flexibility Score: inf
ROOT
ATOM      1  C   UNL     1     160.707 178.074 186.518  1.00  0.00     0.006 C 
ENDROOT
BRANCH   1   2
ATOM      2  C   UNL     1     160.670 176.745 185.758  1.00  0.00     0.053 C 
BRANCH   2   3
ATOM      3  C   UNL     1     160.529 176.985 184.288  1.00  0.00     0.041 C 
ATOM      4  O   UNL     1     159.878 176.178 183.574  1.00  0.00    -0.550 OA
ATOM      5  O   UNL     1     161.074 178.127 183.715  1.00  0.00    -0.550 OA
ENDBRANCH   2   3
ENDBRANCH   1   2
BRANCH   1   6
ATOM      6  C   UNL     1     161.192 177.871 187.958  1.00  0.00     0.000 C 
BRANCH   6   7
ATOM      7  C   UNL     1     162.656 177.416 187.986  1.00  0.00    -0.003 C 
ATOM      8  C   UNL     1     163.545 178.370 187.193  1.00  0.00     0.004 C 
ENDBRANCH   6   7
ENDBRANCH   1   6
TORSDOF 4
ENDMDL
MODEL 5
REMARK VINA RESULT:    -3.161      2.373      3.634
REMARK INTER + INTRA:          -4.055
REMARK INTER:                  -3.906
REMARK INTRA:                  -0.149
REMARK UNBOUND:                -0.155
REMARK SMILES CCCCCC(=O)[O-]
REMARK SMILES IDX 4 1 5 2 6 3 7 4 8 5 3 6 2 7 1 8
REMARK H PARENT
REMARK Flexibility Score: inf
ROOT
ATOM      1  C   UNL     1     162.480 177.901 187.968  1.00  0.00     0.006 C 
ENDROOT
BRANCH   1   2
ATOM      2  C   UNL     1     163.293 177.224 186.860  1.00  0.00     0.053 C 
BRANCH   2   3
ATOM      3  C   UNL     1     163.889 178.249 185.948  1.00  0.00     0.041 C 
ATOM      4  O   UNL     1     164.820 178.994 186.353  1.00  0.00    -0.550 OA
ATOM      5  O   UNL     1     163.451 178.348 184.633  1.00  0.00    -0.550 OA
ENDBRANCH   2   3
ENDBRANCH   1   2
BRANCH   1   6
ATOM      6  C   UNL     1     161.027 177.411 187.961  1.00  0.00     0.000 C 
BRANCH   6   7
ATOM      7  C   UNL     1     160.830 176.289 186.936  1.00  0.00    -0.003 C 
ATOM      8  C   UNL     1     160.219 175.050 187.585  1.00  0.00     0.004 C 
ENDBRANCH   6   7
ENDBRANCH   1   6
TORSDOF 4
ENDMDL
MODEL 6
REMARK VINA RESULT:    -3.135     12.332     13.953
REMARK INTER + INTRA:          -4.023
REMARK INTER:                  -3.840
REMARK INTRA:                  -0.183
REMARK UNBOUND:                -0.155
REMARK SMILES CCCCCC(=O)[O-]
REMARK SMILES IDX 4 1 5 2 6 3 7 4 8 5 3 6 2 7 1 8
REMARK H PARENT
REMARK Flexibility Score: inf
ROOT
ATOM      1  C   UNL     1     175.065 178.612 188.175  1.00  0.00     0.006 C 
ENDROOT
BRANCH   1   2
ATOM      2  C   UNL     1     175.241 177.462 187.179  1.00  0.00     0.053 C 
BRANCH   2   3
ATOM      3  C   UNL     1     176.460 177.679 186.339  1.00  0.00     0.041 C 
ATOM      4  O   UNL     1     177.604 177.432 186.805  1.00  0.00    -0.550 OA
ATOM      5  O   UNL     1     176.331 178.109 185.025  1.00  0.00    -0.550 OA
ENDBRANCH   2   3
ENDBRANCH   1   2
BRANCH   1   6
ATOM      6  C   UNL     1     174.717 179.918 187.451  1.00  0.00     0.000 C 
BRANCH   6   7
ATOM      7  C   UNL     1     173.401 179.783 186.676  1.00  0.00    -0.003 C 
ATOM      8  C   UNL     1     172.207 179.716 187.623  1.00  0.00     0.004 C 
ENDBRANCH   6   7
ENDBRANCH   1   6
TORSDOF 4
ENDMDL
MODEL 7
REMARK VINA RESULT:    -3.075      9.478     11.122
REMARK INTER + INTRA:          -3.950
REMARK INTER:                  -3.895
REMARK INTRA:                  -0.054
REMARK UNBOUND:                -0.155
REMARK SMILES CCCCCC(=O)[O-]
REMARK SMILES IDX 4 1 5 2 6 3 7 4 8 5 3 6 2 7 1 8
REMARK H PARENT
REMARK Flexibility Score: inf
ROOT
ATOM      1  C   UNL     1     172.705 179.166 187.433  1.00  0.00     0.006 C 
ENDROOT
BRANCH   1   2
ATOM      2  C   UNL     1     171.513 180.104 187.643  1.00  0.00     0.053 C 
BRANCH   2   3
ATOM      3  C   UNL     1     170.357 179.682 186.792  1.00  0.00     0.041 C 
ATOM      4  O   UNL     1     170.239 180.125 185.619  1.00  0.00    -0.550 OA
ATOM      5  O   UNL     1     169.437 178.761 187.276  1.00  0.00    -0.550 OA
ENDBRANCH   2   3
ENDBRANCH   1   2
BRANCH   1   6
ATOM      6  C   UNL     1     174.031 179.914 187.612  1.00  0.00     0.000 C 
BRANCH   6   7
ATOM      7  C   UNL     1     175.056 179.046 188.351  1.00  0.00    -0.003 C 
ATOM      8  C   UNL     1     175.928 178.267 187.371  1.00  0.00     0.004 C 
ENDBRANCH   6   7
ENDBRANCH   1   6
TORSDOF 4
ENDMDL
MODEL 8
REMARK VINA RESULT:    -3.059      2.929      4.059
REMARK INTER + INTRA:          -3.930
REMARK INTER:                  -3.831
REMARK INTRA:                  -0.099
REMARK UNBOUND:                -0.155
REMARK SMILES CCCCCC(=O)[O-]
REMARK SMILES IDX 4 1 5 2 6 3 7 4 8 5 3 6 2 7 1 8
REMARK H PARENT
REMARK Flexibility Score: inf
ROOT
ATOM      1  C   UNL     1     162.938 178.229 186.685  1.00  0.00     0.006 C 
ENDROOT
BRANCH   1   2
ATOM      2  C   UNL     1     164.332 178.858 186.750  1.00  0.00     0.053 C 
BRANCH   2   3
ATOM      3  C   UNL     1     165.231 178.249 185.720  1.00  0.00     0.041 C 
ATOM      4  O   UNL     1     164.742 177.662 184.719  1.00  0.00    -0.550 OA
ATOM      5  O   UNL     1     166.609 178.371 185.841  1.00  0.00    -0.550 OA
ENDBRANCH   2   3
ENDBRANCH   1   2
BRANCH   1   6
ATOM      6  C   UNL     1     162.557 177.594 188.028  1.00  0.00     0.000 C 
BRANCH   6   7
ATOM      7  C   UNL     1     161.056 177.290 188.086  1.00  0.00    -0.003 C 
ATOM      8  C   UNL     1     160.230 178.515 187.703  1.00  0.00     0.004 C 
ENDBRANCH   6   7
ENDBRANCH   1   6
TORSDOF 4
ENDMDL
MODEL 9
REMARK VINA RESULT:    -3.027      2.221      3.087
REMARK INTER + INTRA:          -3.890
REMARK INTER:                  -3.806
REMARK INTRA:                  -0.084
REMARK UNBOUND:                -0.155
REMARK SMILES CCCCCC(=O)[O-]
REMARK SMILES IDX 4 1 5 2 6 3 7 4 8 5 3 6 2 7 1 8
REMARK H PARENT
REMARK Flexibility Score: inf
ROOT
ATOM      1  C   UNL     1     160.671 176.489 186.942  1.00  0.00     0.006 C 
ENDROOT
BRANCH   1   2
ATOM      2  C   UNL     1     160.287 175.160 187.597  1.00  0.00     0.053 C 
BRANCH   2   3
ATOM      3  C   UNL     1     160.186 174.079 186.568  1.00  0.00     0.041 C 
ATOM      4  O   UNL     1     160.055 174.373 185.350  1.00  0.00    -0.550 OA
ATOM      5  O   UNL     1     160.286 172.746 186.947  1.00  0.00    -0.550 OA
ENDBRANCH   2   3
ENDBRANCH   1   2
BRANCH   1   6
ATOM      6  C   UNL     1     161.031 177.540 188.000  1.00  0.00     0.000 C 
BRANCH   6   7
ATOM      7  C   UNL     1     162.527 177.494 188.333  1.00  0.00    -0.003 C 
ATOM      8  C   UNL     1     163.358 178.137 187.226  1.00  0.00     0.004 C 
ENDBRANCH   6   7
ENDBRANCH   1   6
TORSDOF 4
ENDMDL
