MODEL 1
REMARK VINA RESULT:    -6.285      0.000      0.000
REMARK INTER + INTRA:          -7.546
REMARK INTER:                  -7.388
REMARK INTRA:                  -0.159
REMARK UNBOUND:                -0.159
REMARK SMILES O=c1c(O)c(-c2ccc(O)cc2)oc2cc(O)cc(O)c12
REMARK SMILES IDX 5 1 3 2 2 3 1 4 21 5 19 6 18 7 16 8 15 9 14 10 13 11 6 12
REMARK SMILES IDX 7 13 8 14 9 15 12 16 11 17 10 18 4 20 20 22 17 24
REMARK H PARENT 10 19 4 21 20 23 17 25
REMARK Flexibility Score: inf
ROOT
ATOM      1  C   UNL     1     -16.753  -1.497 -16.695  1.00  0.00     0.180 A 
ATOM      2  C   UNL     1     -17.788  -2.427 -16.914  1.00  0.00     0.208 A 
ATOM      3  C   UNL     1     -17.454  -3.769 -17.154  1.00  0.00     0.238 A 
ATOM      4  O   UNL     1     -18.373  -4.609 -17.362  1.00  0.00    -0.285 OA
ATOM      5  C   UNL     1     -16.100  -4.162 -17.150  1.00  0.00     0.111 A 
ATOM      6  C   UNL     1     -15.680  -5.494 -17.378  1.00  0.00     0.134 A 
ATOM      7  C   UNL     1     -14.313  -5.807 -17.350  1.00  0.00     0.093 A 
ATOM      8  C   UNL     1     -13.361  -4.817 -17.097  1.00  0.00     0.123 A 
ATOM      9  C   UNL     1     -13.770  -3.499 -16.871  1.00  0.00     0.094 A 
ATOM     10  C   UNL     1     -15.128  -3.166 -16.897  1.00  0.00     0.146 A 
ATOM     11  O   UNL     1     -15.488  -1.906 -16.685  1.00  0.00    -0.452 OA
ENDROOT
BRANCH   1  12
ATOM     12  C   UNL     1     -17.024  -0.061 -16.456  1.00  0.00     0.021 A 
ATOM     13  C   UNL     1     -17.634   0.335 -15.253  1.00  0.00     0.016 A 
ATOM     14  C   UNL     1     -17.879   1.688 -14.996  1.00  0.00     0.047 A 
ATOM     15  C   UNL     1     -17.503   2.661 -15.931  1.00  0.00     0.115 A 
ATOM     16  C   UNL     1     -16.631   0.925 -17.380  1.00  0.00     0.016 A 
ATOM     17  C   UNL     1     -16.877   2.276 -17.119  1.00  0.00     0.047 A 
BRANCH  15  18
ATOM     18  O   UNL     1     -17.743   4.012 -15.685  1.00  0.00    -0.508 OA
ATOM     19  H   UNL     1     -18.408   4.312 -14.981  1.00  0.00     0.293 HD
ENDBRANCH  15  18
ENDBRANCH   1  12
BRANCH   2  20
ATOM     20  O   UNL     1     -19.125  -2.021 -16.864  1.00  0.00    -0.502 OA
ATOM     21  H   UNL     1     -19.401  -1.106 -16.530  1.00  0.00     0.293 HD
ENDBRANCH   2  20
BRANCH   6  22
ATOM     22  O   UNL     1     -16.607  -6.507 -17.632  1.00  0.00    -0.507 OA
ATOM     23  H   UNL     1     -16.348  -7.486 -17.604  1.00  0.00     0.293 HD
ENDBRANCH   6  22
BRANCH   8  24
ATOM     24  O   UNL     1     -12.009  -5.155 -17.073  1.00  0.00    -0.508 OA
ATOM     25  H   UNL     1     -11.705  -6.115 -16.964  1.00  0.00     0.293 HD
ENDBRANCH   8  24
TORSDOF 5
ENDMDL
MODEL 2
REMARK VINA RESULT:    -5.817      3.364      6.393
REMARK INTER + INTRA:          -6.996
REMARK INTER:                  -6.698
REMARK INTRA:                  -0.298
REMARK UNBOUND:                -0.159
REMARK SMILES O=c1c(O)c(-c2ccc(O)cc2)oc2cc(O)cc(O)c12
REMARK SMILES IDX 5 1 3 2 2 3 1 4 21 5 19 6 18 7 16 8 15 9 14 10 13 11 6 12
REMARK SMILES IDX 7 13 8 14 9 15 12 16 11 17 10 18 4 20 20 22 17 24
REMARK H PARENT 10 19 4 21 20 23 17 25
REMARK Flexibility Score: inf
ROOT
ATOM      1  C   UNL     1     -12.766  -2.759 -18.625  1.00  0.00     0.180 A 
ATOM      2  C   UNL     1     -12.799  -4.069 -18.110  1.00  0.00     0.208 A 
ATOM      3  C   UNL     1     -13.975  -4.526 -17.494  1.00  0.00     0.238 A 
ATOM      4  O   UNL     1     -14.013  -5.694 -17.019  1.00  0.00    -0.285 OA
ATOM      5  C   UNL     1     -15.099  -3.677 -17.422  1.00  0.00     0.111 A 
ATOM      6  C   UNL     1     -16.322  -4.062 -16.822  1.00  0.00     0.134 A 
ATOM      7  C   UNL     1     -17.398  -3.162 -16.798  1.00  0.00     0.093 A 
ATOM      8  C   UNL     1     -17.276  -1.890 -17.361  1.00  0.00     0.123 A 
ATOM      9  C   UNL     1     -16.070  -1.505 -17.954  1.00  0.00     0.094 A 
ATOM     10  C   UNL     1     -14.985  -2.386 -17.987  1.00  0.00     0.146 A 
ATOM     11  O   UNL     1     -13.849  -1.992 -18.552  1.00  0.00    -0.452 OA
ENDROOT
BRANCH   1  12
ATOM     12  C   UNL     1     -11.557  -2.199 -19.271  1.00  0.00     0.021 A 
ATOM     13  C   UNL     1     -11.401  -2.314 -20.664  1.00  0.00     0.016 A 
ATOM     14  C   UNL     1     -10.278  -1.773 -21.298  1.00  0.00     0.047 A 
ATOM     15  C   UNL     1      -9.306  -1.096 -20.550  1.00  0.00     0.115 A 
ATOM     16  C   UNL     1     -10.586  -1.500 -18.531  1.00  0.00     0.016 A 
ATOM     17  C   UNL     1      -9.465  -0.959 -19.168  1.00  0.00     0.047 A 
BRANCH  15  18
ATOM     18  O   UNL     1      -8.183  -0.554 -21.171  1.00  0.00    -0.508 OA
ATOM     19  H   UNL     1      -7.660   0.205 -20.749  1.00  0.00     0.293 HD
ENDBRANCH  15  18
ENDBRANCH   1  12
BRANCH   2  20
ATOM     20  O   UNL     1     -11.688  -4.908 -18.238  1.00  0.00    -0.502 OA
ATOM     21  H   UNL     1     -11.600  -5.773 -17.721  1.00  0.00     0.293 HD
ENDBRANCH   2  20
BRANCH   6  22
ATOM     22  O   UNL     1     -16.476  -5.327 -16.252  1.00  0.00    -0.507 OA
ATOM     23  H   UNL     1     -16.982  -5.463 -15.385  1.00  0.00     0.293 HD
ENDBRANCH   6  22
BRANCH   8  24
ATOM     24  O   UNL     1     -18.360  -1.016 -17.324  1.00  0.00    -0.508 OA
ATOM     25  H   UNL     1     -18.667  -0.518 -18.150  1.00  0.00     0.293 HD
ENDBRANCH   8  24
TORSDOF 5
ENDMDL
MODEL 3
REMARK VINA RESULT:    -5.779      3.008      5.644
REMARK INTER + INTRA:          -6.951
REMARK INTER:                  -6.653
REMARK INTRA:                  -0.298
REMARK UNBOUND:                -0.159
REMARK SMILES O=c1c(O)c(-c2ccc(O)cc2)oc2cc(O)cc(O)c12
REMARK SMILES IDX 5 1 3 2 2 3 1 4 21 5 19 6 18 7 16 8 15 9 14 10 13 11 6 12
REMARK SMILES IDX 7 13 8 14 9 15 12 16 11 17 10 18 4 20 20 22 17 24
REMARK H PARENT 10 19 4 21 20 23 17 25
REMARK Flexibility Score: inf
ROOT
ATOM      1  C   UNL     1     -13.692  -3.168 -18.143  1.00  0.00     0.180 A 
ATOM      2  C   UNL     1     -14.119  -4.374 -18.732  1.00  0.00     0.208 A 
ATOM      3  C   UNL     1     -15.292  -4.983 -18.258  1.00  0.00     0.238 A 
ATOM      4  O   UNL     1     -15.678  -6.069 -18.771  1.00  0.00    -0.285 OA
ATOM      5  C   UNL     1     -16.025  -4.369 -17.222  1.00  0.00     0.111 A 
ATOM      6  C   UNL     1     -17.218  -4.914 -16.690  1.00  0.00     0.134 A 
ATOM      7  C   UNL     1     -17.896  -4.238 -15.665  1.00  0.00     0.093 A 
ATOM      8  C   UNL     1     -17.406  -3.030 -15.163  1.00  0.00     0.123 A 
ATOM      9  C   UNL     1     -16.228  -2.487 -15.684  1.00  0.00     0.094 A 
ATOM     10  C   UNL     1     -15.537  -3.146 -16.705  1.00  0.00     0.146 A 
ATOM     11  O   UNL     1     -14.417  -2.611 -17.178  1.00  0.00    -0.452 OA
ENDROOT
BRANCH   1  12
ATOM     12  C   UNL     1     -12.456  -2.477 -18.575  1.00  0.00     0.021 A 
ATOM     13  C   UNL     1     -12.542  -1.425 -19.504  1.00  0.00     0.016 A 
ATOM     14  C   UNL     1     -11.390  -0.743 -19.909  1.00  0.00     0.047 A 
ATOM     15  C   UNL     1     -10.141  -1.094 -19.379  1.00  0.00     0.115 A 
ATOM     16  C   UNL     1     -11.201  -2.808 -18.032  1.00  0.00     0.016 A 
ATOM     17  C   UNL     1     -10.051  -2.124 -18.439  1.00  0.00     0.047 A 
BRANCH  15  18
ATOM     18  O   UNL     1      -8.987  -0.421 -19.776  1.00  0.00    -0.508 OA
ATOM     19  H   UNL     1      -8.652   0.395 -19.277  1.00  0.00     0.293 HD
ENDBRANCH  15  18
ENDBRANCH   1  12
BRANCH   2  20
ATOM     20  O   UNL     1     -13.401  -4.936 -19.791  1.00  0.00    -0.502 OA
ATOM     21  H   UNL     1     -12.637  -4.451 -20.246  1.00  0.00     0.293 HD
ENDBRANCH   2  20
BRANCH   6  22
ATOM     22  O   UNL     1     -17.735  -6.119 -17.171  1.00  0.00    -0.507 OA
ATOM     23  H   UNL     1     -17.330  -6.592 -17.970  1.00  0.00     0.293 HD
ENDBRANCH   6  22
BRANCH   8  24
ATOM     24  O   UNL     1     -18.099  -2.379 -14.145  1.00  0.00    -0.508 OA
ATOM     25  H   UNL     1     -17.742  -1.531 -13.720  1.00  0.00     0.293 HD
ENDBRANCH   8  24
TORSDOF 5
ENDMDL
MODEL 4
REMARK VINA RESULT:    -5.648      2.979      5.153
REMARK INTER + INTRA:          -6.797
REMARK INTER:                  -6.515
REMARK INTRA:                  -0.282
REMARK UNBOUND:                -0.159
REMARK SMILES O=c1c(O)c(-c2ccc(O)cc2)oc2cc(O)cc(O)c12
REMARK SMILES IDX 5 1 3 2 2 3 1 4 21 5 19 6 18 7 16 8 15 9 14 10 13 11 6 12
REMARK SMILES IDX 7 13 8 14 9 15 12 16 11 17 10 18 4 20 20 22 17 24
REMARK H PARENT 10 19 4 21 20 23 17 25
REMARK Flexibility Score: inf
ROOT
ATOM      1  C   UNL     1     -14.153  -3.302 -17.693  1.00  0.00     0.180 A 
ATOM      2  C   UNL     1     -13.510  -4.551 -17.595  1.00  0.00     0.208 A 
ATOM      3  C   UNL     1     -12.285  -4.737 -18.255  1.00  0.00     0.238 A 
ATOM      4  O   UNL     1     -11.705  -5.855 -18.183  1.00  0.00    -0.285 OA
ATOM      5  C   UNL     1     -11.716  -3.670 -18.980  1.00  0.00     0.111 A 
ATOM      6  C   UNL     1     -10.483  -3.774 -19.669  1.00  0.00     0.134 A 
ATOM      7  C   UNL     1      -9.978  -2.663 -20.362  1.00  0.00     0.093 A 
ATOM      8  C   UNL     1     -10.678  -1.455 -20.378  1.00  0.00     0.123 A 
ATOM      9  C   UNL     1     -11.897  -1.348 -19.700  1.00  0.00     0.094 A 
ATOM     10  C   UNL     1     -12.418  -2.443 -19.005  1.00  0.00     0.146 A 
ATOM     11  O   UNL     1     -13.579  -2.315 -18.374  1.00  0.00    -0.452 OA
ENDROOT
BRANCH   1  12
ATOM     12  C   UNL     1     -15.456  -3.035 -17.042  1.00  0.00     0.021 A 
ATOM     13  C   UNL     1     -15.485  -2.617 -15.700  1.00  0.00     0.016 A 
ATOM     14  C   UNL     1     -16.703  -2.338 -15.072  1.00  0.00     0.047 A 
ATOM     15  C   UNL     1     -17.905  -2.458 -15.782  1.00  0.00     0.115 A 
ATOM     16  C   UNL     1     -16.666  -3.134 -17.753  1.00  0.00     0.016 A 
ATOM     17  C   UNL     1     -17.882  -2.853 -17.122  1.00  0.00     0.047 A 
BRANCH  15  18
ATOM     18  O   UNL     1     -19.124  -2.184 -15.166  1.00  0.00    -0.508 OA
ATOM     19  H   UNL     1     -19.241  -2.270 -14.163  1.00  0.00     0.293 HD
ENDBRANCH  15  18
ENDBRANCH   1  12
BRANCH   2  20
ATOM     20  O   UNL     1     -14.071  -5.577 -16.829  1.00  0.00    -0.502 OA
ATOM     21  H   UNL     1     -13.640  -6.489 -16.746  1.00  0.00     0.293 HD
ENDBRANCH   2  20
BRANCH   6  22
ATOM     22  O   UNL     1      -9.758  -4.967 -19.671  1.00  0.00    -0.507 OA
ATOM     23  H   UNL     1     -10.218  -5.870 -19.673  1.00  0.00     0.293 HD
ENDBRANCH   6  22
BRANCH   8  24
ATOM     24  O   UNL     1     -10.154  -0.367 -21.073  1.00  0.00    -0.508 OA
ATOM     25  H   UNL     1     -10.077  -0.372 -22.083  1.00  0.00     0.293 HD
ENDBRANCH   8  24
TORSDOF 5
ENDMDL
MODEL 5
REMARK VINA RESULT:    -5.619      3.887      5.915
REMARK INTER + INTRA:          -6.763
REMARK INTER:                  -6.473
REMARK INTRA:                  -0.290
REMARK UNBOUND:                -0.159
REMARK SMILES O=c1c(O)c(-c2ccc(O)cc2)oc2cc(O)cc(O)c12
REMARK SMILES IDX 5 1 3 2 2 3 1 4 21 5 19 6 18 7 16 8 15 9 14 10 13 11 6 12
REMARK SMILES IDX 7 13 8 14 9 15 12 16 11 17 10 18 4 20 20 22 17 24
REMARK H PARENT 10 19 4 21 20 23 17 25
REMARK Flexibility Score: inf
ROOT
ATOM      1  C   UNL     1     -12.619  -2.579 -19.245  1.00  0.00     0.180 A 
ATOM      2  C   UNL     1     -12.669  -3.752 -20.023  1.00  0.00     0.208 A 
ATOM      3  C   UNL     1     -13.620  -4.735 -19.706  1.00  0.00     0.238 A 
ATOM      4  O   UNL     1     -13.667  -5.795 -20.390  1.00  0.00    -0.285 OA
ATOM      5  C   UNL     1     -14.513  -4.522 -18.637  1.00  0.00     0.111 A 
ATOM      6  C   UNL     1     -15.502  -5.460 -18.256  1.00  0.00     0.134 A 
ATOM      7  C   UNL     1     -16.360  -5.170 -17.184  1.00  0.00     0.093 A 
ATOM      8  C   UNL     1     -16.249  -3.964 -16.489  1.00  0.00     0.123 A 
ATOM      9  C   UNL     1     -15.273  -3.034 -16.861  1.00  0.00     0.094 A 
ATOM     10  C   UNL     1     -14.408  -3.304 -17.924  1.00  0.00     0.146 A 
ATOM     11  O   UNL     1     -13.487  -2.406 -18.253  1.00  0.00    -0.452 OA
ENDROOT
BRANCH   1  12
ATOM     12  C   UNL     1     -11.633  -1.505 -19.504  1.00  0.00     0.021 A 
ATOM     13  C   UNL     1     -10.371  -1.564 -18.888  1.00  0.00     0.016 A 
ATOM     14  C   UNL     1      -9.415  -0.573 -19.136  1.00  0.00     0.047 A 
ATOM     15  C   UNL     1      -9.704   0.479 -20.015  1.00  0.00     0.115 A 
ATOM     16  C   UNL     1     -11.907  -0.457 -20.402  1.00  0.00     0.016 A 
ATOM     17  C   UNL     1     -10.949   0.532 -20.648  1.00  0.00     0.047 A 
BRANCH  15  18
ATOM     18  O   UNL     1      -8.760   1.472 -20.268  1.00  0.00    -0.508 OA
ATOM     19  H   UNL     1      -7.857   1.253 -20.672  1.00  0.00     0.293 HD
ENDBRANCH  15  18
ENDBRANCH   1  12
BRANCH   2  20
ATOM     20  O   UNL     1     -11.805  -3.917 -21.109  1.00  0.00    -0.502 OA
ATOM     21  H   UNL     1     -11.639  -4.819 -21.537  1.00  0.00     0.293 HD
ENDBRANCH   2  20
BRANCH   6  22
ATOM     22  O   UNL     1     -15.640  -6.674 -18.931  1.00  0.00    -0.507 OA
ATOM     23  H   UNL     1     -14.906  -7.373 -18.928  1.00  0.00     0.293 HD
ENDBRANCH   6  22
BRANCH   8  24
ATOM     24  O   UNL     1     -17.115  -3.701 -15.429  1.00  0.00    -0.508 OA
ATOM     25  H   UNL     1     -16.862  -3.920 -14.473  1.00  0.00     0.293 HD
ENDBRANCH   8  24
TORSDOF 5
ENDMDL
MODEL 6
REMARK VINA RESULT:    -5.405      1.849      2.791
REMARK INTER + INTRA:          -6.511
REMARK INTER:                  -6.399
REMARK INTRA:                  -0.112
REMARK UNBOUND:                -0.159
REMARK SMILES O=c1c(O)c(-c2ccc(O)cc2)oc2cc(O)cc(O)c12
REMARK SMILES IDX 5 1 3 2 2 3 1 4 21 5 19 6 18 7 16 8 15 9 14 10 13 11 6 12
REMARK SMILES IDX 7 13 8 14 9 15 12 16 11 17 10 18 4 20 20 22 17 24
REMARK H PARENT 10 19 4 21 20 23 17 25
REMARK Flexibility Score: inf
ROOT
ATOM      1  C   UNL     1     -15.528  -3.410 -17.217  1.00  0.00     0.180 A 
ATOM      2  C   UNL     1     -16.115  -4.681 -17.373  1.00  0.00     0.208 A 
ATOM      3  C   UNL     1     -15.346  -5.721 -17.916  1.00  0.00     0.238 A 
ATOM      4  O   UNL     1     -15.865  -6.861 -18.069  1.00  0.00    -0.285 OA
ATOM      5  C   UNL     1     -14.004  -5.482 -18.275  1.00  0.00     0.111 A 
ATOM      6  C   UNL     1     -13.160  -6.477 -18.825  1.00  0.00     0.134 A 
ATOM      7  C   UNL     1     -11.832  -6.161 -19.148  1.00  0.00     0.093 A 
ATOM      8  C   UNL     1     -11.332  -4.876 -18.931  1.00  0.00     0.123 A 
ATOM      9  C   UNL     1     -12.161  -3.889 -18.389  1.00  0.00     0.094 A 
ATOM     10  C   UNL     1     -13.488  -4.182 -18.062  1.00  0.00     0.146 A 
ATOM     11  O   UNL     1     -14.255  -3.225 -17.554  1.00  0.00    -0.452 OA
ENDROOT
BRANCH   1  12
ATOM     12  C   UNL     1     -16.280  -2.258 -16.670  1.00  0.00     0.021 A 
ATOM     13  C   UNL     1     -16.725  -2.294 -15.337  1.00  0.00     0.016 A 
ATOM     14  C   UNL     1     -17.418  -1.208 -14.793  1.00  0.00     0.047 A 
ATOM     15  C   UNL     1     -17.660  -0.067 -15.569  1.00  0.00     0.115 A 
ATOM     16  C   UNL     1     -16.509  -1.100 -17.436  1.00  0.00     0.016 A 
ATOM     17  C   UNL     1     -17.201  -0.015 -16.888  1.00  0.00     0.047 A 
BRANCH  15  18
ATOM     18  O   UNL     1     -18.350   1.021 -15.037  1.00  0.00    -0.508 OA
ATOM     19  H   UNL     1     -17.923   1.634 -14.352  1.00  0.00     0.293 HD
ENDBRANCH  15  18
ENDBRANCH   1  12
BRANCH   2  20
ATOM     20  O   UNL     1     -17.433  -4.905 -16.963  1.00  0.00    -0.502 OA
ATOM     21  H   UNL     1     -18.060  -5.518 -17.468  1.00  0.00     0.293 HD
ENDBRANCH   2  20
BRANCH   6  22
ATOM     22  O   UNL     1     -13.629  -7.772 -19.052  1.00  0.00    -0.507 OA
ATOM     23  H   UNL     1     -13.002  -8.533 -19.283  1.00  0.00     0.293 HD
ENDBRANCH   6  22
BRANCH   8  24
ATOM     24  O   UNL     1     -10.008  -4.589 -19.261  1.00  0.00    -0.508 OA
ATOM     25  H   UNL     1      -9.243  -5.161 -18.923  1.00  0.00     0.293 HD
ENDBRANCH   8  24
TORSDOF 5
ENDMDL
MODEL 7
REMARK VINA RESULT:    -5.388      3.163      5.040
REMARK INTER + INTRA:          -6.492
REMARK INTER:                  -6.199
REMARK INTRA:                  -0.293
REMARK UNBOUND:                -0.159
REMARK SMILES O=c1c(O)c(-c2ccc(O)cc2)oc2cc(O)cc(O)c12
REMARK SMILES IDX 5 1 3 2 2 3 1 4 21 5 19 6 18 7 16 8 15 9 14 10 13 11 6 12
REMARK SMILES IDX 7 13 8 14 9 15 12 16 11 17 10 18 4 20 20 22 17 24
REMARK H PARENT 10 19 4 21 20 23 17 25
REMARK Flexibility Score: inf
ROOT
ATOM      1  C   UNL     1     -14.235  -3.189 -17.987  1.00  0.00     0.180 A 
ATOM      2  C   UNL     1     -13.559  -2.146 -18.649  1.00  0.00     0.208 A 
ATOM      3  C   UNL     1     -12.355  -2.431 -19.312  1.00  0.00     0.238 A 
ATOM      4  O   UNL     1     -11.735  -1.502 -19.899  1.00  0.00    -0.285 OA
ATOM      5  C   UNL     1     -11.859  -3.751 -19.319  1.00  0.00     0.111 A 
ATOM      6  C   UNL     1     -10.657  -4.123 -19.967  1.00  0.00     0.134 A 
ATOM      7  C   UNL     1     -10.235  -5.460 -19.937  1.00  0.00     0.093 A 
ATOM      8  C   UNL     1     -10.991  -6.431 -19.275  1.00  0.00     0.123 A 
ATOM      9  C   UNL     1     -12.179  -6.069 -18.632  1.00  0.00     0.094 A 
ATOM     10  C   UNL     1     -12.616  -4.741 -18.650  1.00  0.00     0.146 A 
ATOM     11  O   UNL     1     -13.745  -4.424 -18.027  1.00  0.00    -0.452 OA
ENDROOT
BRANCH   1  12
ATOM     12  C   UNL     1     -15.499  -2.963 -17.250  1.00  0.00     0.021 A 
ATOM     13  C   UNL     1     -16.725  -3.084 -17.927  1.00  0.00     0.016 A 
ATOM     14  C   UNL     1     -17.932  -2.896 -17.246  1.00  0.00     0.047 A 
ATOM     15  C   UNL     1     -17.928  -2.603 -15.876  1.00  0.00     0.115 A 
ATOM     16  C   UNL     1     -15.505  -2.688 -15.870  1.00  0.00     0.016 A 
ATOM     17  C   UNL     1     -16.714  -2.503 -15.191  1.00  0.00     0.047 A 
BRANCH  15  18
ATOM     18  O   UNL     1     -19.124  -2.414 -15.187  1.00  0.00    -0.508 OA
ATOM     19  H   UNL     1     -19.983  -2.180 -15.672  1.00  0.00     0.293 HD
ENDBRANCH  15  18
ENDBRANCH   1  12
BRANCH   2  20
ATOM     20  O   UNL     1     -14.097  -0.855 -18.668  1.00  0.00    -0.502 OA
ATOM     21  H   UNL     1     -14.273  -0.329 -17.822  1.00  0.00     0.293 HD
ENDBRANCH   2  20
BRANCH   6  22
ATOM     22  O   UNL     1      -9.880  -3.177 -20.639  1.00  0.00    -0.507 OA
ATOM     23  H   UNL     1      -9.454  -3.377 -21.536  1.00  0.00     0.293 HD
ENDBRANCH   6  22
BRANCH   8  24
ATOM     24  O   UNL     1     -10.549  -7.752 -19.260  1.00  0.00    -0.508 OA
ATOM     25  H   UNL     1      -9.563  -7.981 -19.285  1.00  0.00     0.293 HD
ENDBRANCH   8  24
TORSDOF 5
ENDMDL
MODEL 8
REMARK VINA RESULT:    -5.361      2.186      6.746
REMARK INTER + INTRA:          -6.460
REMARK INTER:                  -6.165
REMARK INTRA:                  -0.296
REMARK UNBOUND:                -0.159
REMARK SMILES O=c1c(O)c(-c2ccc(O)cc2)oc2cc(O)cc(O)c12
REMARK SMILES IDX 5 1 3 2 2 3 1 4 21 5 19 6 18 7 16 8 15 9 14 10 13 11 6 12
REMARK SMILES IDX 7 13 8 14 9 15 12 16 11 17 10 18 4 20 20 22 17 24
REMARK H PARENT 10 19 4 21 20 23 17 25
REMARK Flexibility Score: inf
ROOT
ATOM      1  C   UNL     1     -15.187  -4.464 -18.008  1.00  0.00     0.180 A 
ATOM      2  C   UNL     1     -16.085  -5.226 -17.237  1.00  0.00     0.208 A 
ATOM      3  C   UNL     1     -17.079  -4.562 -16.501  1.00  0.00     0.238 A 
ATOM      4  O   UNL     1     -17.883  -5.235 -15.798  1.00  0.00    -0.285 OA
ATOM      5  C   UNL     1     -17.172  -3.157 -16.564  1.00  0.00     0.111 A 
ATOM      6  C   UNL     1     -18.147  -2.413 -15.857  1.00  0.00     0.134 A 
ATOM      7  C   UNL     1     -18.179  -1.016 -15.979  1.00  0.00     0.093 A 
ATOM      8  C   UNL     1     -17.260  -0.351 -16.793  1.00  0.00     0.123 A 
ATOM      9  C   UNL     1     -16.294  -1.081 -17.493  1.00  0.00     0.094 A 
ATOM     10  C   UNL     1     -16.244  -2.473 -17.384  1.00  0.00     0.146 A 
ATOM     11  O   UNL     1     -15.313  -3.141 -18.055  1.00  0.00    -0.452 OA
ENDROOT
BRANCH   1  12
ATOM     12  C   UNL     1     -14.100  -5.089 -18.796  1.00  0.00     0.021 A 
ATOM     13  C   UNL     1     -14.303  -5.359 -20.160  1.00  0.00     0.016 A 
ATOM     14  C   UNL     1     -13.282  -5.929 -20.928  1.00  0.00     0.047 A 
ATOM     15  C   UNL     1     -12.042  -6.220 -20.346  1.00  0.00     0.115 A 
ATOM     16  C   UNL     1     -12.844  -5.365 -18.224  1.00  0.00     0.016 A 
ATOM     17  C   UNL     1     -11.825  -5.934 -18.995  1.00  0.00     0.047 A 
BRANCH  15  18
ATOM     18  O   UNL     1     -11.018  -6.788 -21.102  1.00  0.00    -0.508 OA
ATOM     19  H   UNL     1     -10.076  -6.872 -20.738  1.00  0.00     0.293 HD
ENDBRANCH  15  18
ENDBRANCH   1  12
BRANCH   2  20
ATOM     20  O   UNL     1     -16.003  -6.622 -17.230  1.00  0.00    -0.502 OA
ATOM     21  H   UNL     1     -16.820  -7.212 -17.135  1.00  0.00     0.293 HD
ENDBRANCH   2  20
BRANCH   6  22
ATOM     22  O   UNL     1     -19.081  -3.049 -15.036  1.00  0.00    -0.507 OA
ATOM     23  H   UNL     1     -20.055  -3.130 -15.301  1.00  0.00     0.293 HD
ENDBRANCH   6  22
BRANCH   8  24
ATOM     24  O   UNL     1     -17.314   1.038 -16.897  1.00  0.00    -0.508 OA
ATOM     25  H   UNL     1     -16.952   1.522 -17.709  1.00  0.00     0.293 HD
ENDBRANCH   8  24
TORSDOF 5
ENDMDL
