MODEL 1
REMARK VINA RESULT:    -3.621      0.000      0.000
REMARK INTER + INTRA:          -6.030
REMARK INTER:                  -5.525
REMARK INTRA:                  -0.505
REMARK UNBOUND:                -0.505
REMARK SMILES O=C([O-])CCCCCCCCC(=O)[O-]
REMARK SMILES IDX 7 1 6 2 5 3 4 4 2 5 1 6 3 7 8 8 9 9 10 10 11 11 12 12 13 13
REMARK SMILES IDX 14 14
REMARK H PARENT
REMARK Flexibility Score: inf
ROOT
ATOM      1  C   UNL     1      62.184  32.584  60.558  1.00  0.00     0.000 C 
ENDROOT
BRANCH   1   2
ATOM      2  C   UNL     1      61.685  34.017  60.307  1.00  0.00     0.000 C 
BRANCH   2   3
ATOM      3  C   UNL     1      62.631  35.083  60.887  1.00  0.00     0.006 C 
BRANCH   3   4
ATOM      4  C   UNL     1      64.022  34.514  61.200  1.00  0.00     0.053 C 
BRANCH   4   5
ATOM      5  C   UNL     1      65.110  35.308  60.543  1.00  0.00     0.041 C 
ATOM      6  O   UNL     1      65.902  35.995  61.240  1.00  0.00    -0.550 OA
ATOM      7  O   UNL     1      65.266  35.267  59.164  1.00  0.00    -0.550 OA
ENDBRANCH   4   5
ENDBRANCH   3   4
ENDBRANCH   2   3
ENDBRANCH   1   2
BRANCH   1   8
ATOM      8  C   UNL     1      61.044  31.609  60.887  1.00  0.00     0.000 C 
BRANCH   8   9
ATOM      9  C   UNL     1      61.598  30.274  61.406  1.00  0.00     0.000 C 
BRANCH   9  10
ATOM     10  C   UNL     1      63.133  30.208  61.352  1.00  0.00     0.006 C 
BRANCH  10  11
ATOM     11  C   UNL     1      63.651  28.842  60.883  1.00  0.00     0.053 C 
BRANCH  11  12
ATOM     12  C   UNL     1      65.093  28.935  60.497  1.00  0.00     0.041 C 
ATOM     13  O   UNL     1      65.543  29.988  59.974  1.00  0.00    -0.550 OA
ATOM     14  O   UNL     1      65.952  27.876  60.761  1.00  0.00    -0.550 OA
ENDBRANCH  11  12
ENDBRANCH  10  11
ENDBRANCH   9  10
ENDBRANCH   8   9
ENDBRANCH   1   8
TORSDOF 9
ENDMDL
MODEL 2
REMARK VINA RESULT:    -3.526     12.380     13.812
REMARK INTER + INTRA:          -5.886
REMARK INTER:                  -5.463
REMARK INTRA:                  -0.423
REMARK UNBOUND:                -0.505
REMARK SMILES O=C([O-])CCCCCCCCC(=O)[O-]
REMARK SMILES IDX 7 1 6 2 5 3 4 4 2 5 1 6 3 7 8 8 9 9 10 10 11 11 12 12 13 13
REMARK SMILES IDX 14 14
REMARK H PARENT
REMARK Flexibility Score: inf
ROOT
ATOM      1  C   UNL     1      57.078  28.141  50.868  1.00  0.00     0.000 C 
ENDROOT
BRANCH   1   2
ATOM      2  C   UNL     1      55.661  28.720  51.013  1.00  0.00     0.000 C 
BRANCH   2   3
ATOM      3  C   UNL     1      54.592  27.845  50.336  1.00  0.00     0.006 C 
BRANCH   3   4
ATOM      4  C   UNL     1      55.100  26.424  50.054  1.00  0.00     0.053 C 
BRANCH   4   5
ATOM      5  C   UNL     1      54.210  25.383  50.662  1.00  0.00     0.041 C 
ATOM      6  O   UNL     1      53.560  24.597  49.924  1.00  0.00    -0.550 OA
ATOM      7  O   UNL     1      54.120  25.263  52.042  1.00  0.00    -0.550 OA
ENDBRANCH   4   5
ENDBRANCH   3   4
ENDBRANCH   2   3
ENDBRANCH   1   2
BRANCH   1   8
ATOM      8  C   UNL     1      58.170  29.218  50.956  1.00  0.00     0.000 C 
BRANCH   8   9
ATOM      9  C   UNL     1      59.007  29.255  49.669  1.00  0.00     0.000 C 
BRANCH   9  10
ATOM     10  C   UNL     1      59.910  28.020  49.513  1.00  0.00     0.006 C 
BRANCH  10  11
ATOM     11  C   UNL     1      60.809  27.787  50.735  1.00  0.00     0.053 C 
BRANCH  11  12
ATOM     12  C   UNL     1      61.920  26.847  50.393  1.00  0.00     0.041 C 
ATOM     13  O   UNL     1      63.013  27.291  49.953  1.00  0.00    -0.550 OA
ATOM     14  O   UNL     1      61.768  25.483  50.606  1.00  0.00    -0.550 OA
ENDBRANCH  11  12
ENDBRANCH  10  11
ENDBRANCH   9  10
ENDBRANCH   8   9
ENDBRANCH   1   8
TORSDOF 9
ENDMDL
MODEL 3
REMARK VINA RESULT:    -3.496     12.438     13.781
REMARK INTER + INTRA:          -5.841
REMARK INTER:                  -5.383
REMARK INTRA:                  -0.457
REMARK UNBOUND:                -0.505
REMARK SMILES O=C([O-])CCCCCCCCC(=O)[O-]
REMARK SMILES IDX 7 1 6 2 5 3 4 4 2 5 1 6 3 7 8 8 9 9 10 10 11 11 12 12 13 13
REMARK SMILES IDX 14 14
REMARK H PARENT
REMARK Flexibility Score: inf
ROOT
ATOM      1  C   UNL     1      58.141  29.141  50.923  1.00  0.00     0.000 C 
ENDROOT
BRANCH   1   2
ATOM      2  C   UNL     1      59.184  29.012  49.801  1.00  0.00     0.000 C 
BRANCH   2   3
ATOM      3  C   UNL     1      59.739  27.583  49.670  1.00  0.00     0.006 C 
BRANCH   3   4
ATOM      4  C   UNL     1      60.778  27.263  50.754  1.00  0.00     0.053 C 
BRANCH   4   5
ATOM      5  C   UNL     1      61.348  25.887  50.592  1.00  0.00     0.041 C 
ATOM      6  O   UNL     1      60.595  24.919  50.306  1.00  0.00    -0.550 OA
ATOM      7  O   UNL     1      62.714  25.678  50.728  1.00  0.00    -0.550 OA
ENDBRANCH   4   5
ENDBRANCH   3   4
ENDBRANCH   2   3
ENDBRANCH   1   2
BRANCH   1   8
ATOM      8  C   UNL     1      57.048  28.065  50.844  1.00  0.00     0.000 C 
BRANCH   8   9
ATOM      9  C   UNL     1      55.650  28.698  50.896  1.00  0.00     0.000 C 
BRANCH   9  10
ATOM     10  C   UNL     1      54.548  27.745  50.403  1.00  0.00     0.006 C 
BRANCH  10  11
ATOM     11  C   UNL     1      55.076  26.337  50.101  1.00  0.00     0.053 C 
BRANCH  11  12
ATOM     12  C   UNL     1      54.259  25.309  50.816  1.00  0.00     0.041 C 
ATOM     13  O   UNL     1      54.251  25.268  52.075  1.00  0.00    -0.550 OA
ATOM     14  O   UNL     1      53.466  24.426  50.095  1.00  0.00    -0.550 OA
ENDBRANCH  11  12
ENDBRANCH  10  11
ENDBRANCH   9  10
ENDBRANCH   8   9
ENDBRANCH   1   8
TORSDOF 9
ENDMDL
MODEL 4
REMARK VINA RESULT:    -3.453     12.368     13.660
REMARK INTER + INTRA:          -5.774
REMARK INTER:                  -5.084
REMARK INTRA:                  -0.690
REMARK UNBOUND:                -0.505
REMARK SMILES O=C([O-])CCCCCCCCC(=O)[O-]
REMARK SMILES IDX 7 1 6 2 5 3 4 4 2 5 1 6 3 7 8 8 9 9 10 10 11 11 12 12 13 13
REMARK SMILES IDX 14 14
REMARK H PARENT
REMARK Flexibility Score: inf
ROOT
ATOM      1  C   UNL     1      58.247  28.671  51.672  1.00  0.00     0.000 C 
ENDROOT
BRANCH   1   2
ATOM      2  C   UNL     1      56.754  28.441  51.961  1.00  0.00     0.000 C 
BRANCH   2   3
ATOM      3  C   UNL     1      55.946  28.128  50.690  1.00  0.00     0.006 C 
BRANCH   3   4
ATOM      4  C   UNL     1      55.815  26.617  50.445  1.00  0.00     0.053 C 
BRANCH   4   5
ATOM      5  C   UNL     1      54.383  26.192  50.335  1.00  0.00     0.041 C 
ATOM      6  O   UNL     1      53.531  26.616  51.159  1.00  0.00    -0.550 OA
ATOM      7  O   UNL     1      53.983  25.351  49.305  1.00  0.00    -0.550 OA
ENDBRANCH   4   5
ENDBRANCH   3   4
ENDBRANCH   2   3
ENDBRANCH   1   2
BRANCH   1   8
ATOM      8  C   UNL     1      58.501  29.209  50.256  1.00  0.00     0.000 C 
BRANCH   8   9
ATOM      9  C   UNL     1      59.597  28.398  49.549  1.00  0.00     0.000 C 
BRANCH   9  10
ATOM     10  C   UNL     1      59.565  26.907  49.924  1.00  0.00     0.006 C 
BRANCH  10  11
ATOM     11  C   UNL     1      60.947  26.364  50.309  1.00  0.00     0.053 C 
BRANCH  11  12
ATOM     12  C   UNL     1      60.866  24.903  50.621  1.00  0.00     0.041 C 
ATOM     13  O   UNL     1      61.909  24.198  50.633  1.00  0.00    -0.550 OA
ATOM     14  O   UNL     1      59.644  24.329  50.946  1.00  0.00    -0.550 OA
ENDBRANCH  11  12
ENDBRANCH  10  11
ENDBRANCH   9  10
ENDBRANCH   8   9
ENDBRANCH   1   8
TORSDOF 9
ENDMDL
MODEL 5
REMARK VINA RESULT:    -3.426      1.411      5.868
REMARK INTER + INTRA:          -5.734
REMARK INTER:                  -5.112
REMARK INTRA:                  -0.622
REMARK UNBOUND:                -0.505
REMARK SMILES O=C([O-])CCCCCCCCC(=O)[O-]
REMARK SMILES IDX 7 1 6 2 5 3 4 4 2 5 1 6 3 7 8 8 9 9 10 10 11 11 12 12 13 13
REMARK SMILES IDX 14 14
REMARK H PARENT
REMARK Flexibility Score: inf
ROOT
ATOM      1  C   UNL     1      62.220  32.948  60.290  1.00  0.00     0.000 C 
ENDROOT
BRANCH   1   2
ATOM      2  C   UNL     1      61.107  31.888  60.299  1.00  0.00     0.000 C 
BRANCH   2   3
ATOM      3  C   UNL     1      61.329  30.805  61.368  1.00  0.00     0.006 C 
BRANCH   3   4
ATOM      4  C   UNL     1      62.782  30.309  61.398  1.00  0.00     0.053 C 
BRANCH   4   5
ATOM      5  C   UNL     1      62.874  28.836  61.144  1.00  0.00     0.041 C 
ATOM      6  O   UNL     1      61.857  28.106  61.273  1.00  0.00    -0.550 OA
ATOM      7  O   UNL     1      64.077  28.273  60.737  1.00  0.00    -0.550 OA
ENDBRANCH   4   5
ENDBRANCH   3   4
ENDBRANCH   2   3
ENDBRANCH   1   2
BRANCH   1   8
ATOM      8  C   UNL     1      61.673  34.384  60.294  1.00  0.00     0.000 C 
BRANCH   8   9
ATOM      9  C   UNL     1      62.650  35.341  60.993  1.00  0.00     0.000 C 
BRANCH   9  10
ATOM     10  C   UNL     1      63.981  34.664  61.361  1.00  0.00     0.006 C 
BRANCH  10  11
ATOM     11  C   UNL     1      65.202  35.480  60.916  1.00  0.00     0.053 C 
BRANCH  11  12
ATOM     12  C   UNL     1      65.193  35.664  59.432  1.00  0.00     0.041 C 
ATOM     13  O   UNL     1      65.250  34.665  58.668  1.00  0.00    -0.550 OA
ATOM     14  O   UNL     1      65.072  36.938  58.891  1.00  0.00    -0.550 OA
ENDBRANCH  11  12
ENDBRANCH  10  11
ENDBRANCH   9  10
ENDBRANCH   8   9
ENDBRANCH   1   8
TORSDOF 9
ENDMDL
MODEL 6
REMARK VINA RESULT:    -3.406      3.139      6.354
REMARK INTER + INTRA:          -5.703
REMARK INTER:                  -4.825
REMARK INTRA:                  -0.878
REMARK UNBOUND:                -0.505
REMARK SMILES O=C([O-])CCCCCCCCC(=O)[O-]
REMARK SMILES IDX 7 1 6 2 5 3 4 4 2 5 1 6 3 7 8 8 9 9 10 10 11 11 12 12 13 13
REMARK SMILES IDX 14 14
REMARK H PARENT
REMARK Flexibility Score: inf
ROOT
ATOM      1  C   UNL     1      64.466  34.370  60.330  1.00  0.00     0.000 C 
ENDROOT
BRANCH   1   2
ATOM      2  C   UNL     1      64.000  32.928  60.583  1.00  0.00     0.000 C 
BRANCH   2   3
ATOM      3  C   UNL     1      62.802  32.530  59.704  1.00  0.00     0.006 C 
BRANCH   3   4
ATOM      4  C   UNL     1      61.489  32.486  60.499  1.00  0.00     0.053 C 
BRANCH   4   5
ATOM      5  C   UNL     1      61.121  31.088  60.892  1.00  0.00     0.041 C 
ATOM      6  O   UNL     1      60.560  30.867  61.997  1.00  0.00    -0.550 OA
ATOM      7  O   UNL     1      61.373  30.031  60.026  1.00  0.00    -0.550 OA
ENDBRANCH   4   5
ENDBRANCH   3   4
ENDBRANCH   2   3
ENDBRANCH   1   2
BRANCH   1   8
ATOM      8  C   UNL     1      64.493  35.219  61.610  1.00  0.00     0.000 C 
BRANCH   8   9
ATOM      9  C   UNL     1      63.442  36.337  61.548  1.00  0.00     0.000 C 
BRANCH   9  10
ATOM     10  C   UNL     1      62.606  36.294  60.259  1.00  0.00     0.006 C 
BRANCH  10  11
ATOM     11  C   UNL     1      61.107  36.111  60.532  1.00  0.00     0.053 C 
BRANCH  11  12
ATOM     12  C   UNL     1      60.376  35.822  59.259  1.00  0.00     0.041 C 
ATOM     13  O   UNL     1      59.177  36.178  59.121  1.00  0.00    -0.550 OA
ATOM     14  O   UNL     1      61.035  35.202  58.205  1.00  0.00    -0.550 OA
ENDBRANCH  11  12
ENDBRANCH  10  11
ENDBRANCH   9  10
ENDBRANCH   8   9
ENDBRANCH   1   8
TORSDOF 9
ENDMDL
MODEL 7
REMARK VINA RESULT:    -3.392      1.460      5.354
REMARK INTER + INTRA:          -5.682
REMARK INTER:                  -5.029
REMARK INTRA:                  -0.653
REMARK UNBOUND:                -0.505
REMARK SMILES O=C([O-])CCCCCCCCC(=O)[O-]
REMARK SMILES IDX 7 1 6 2 5 3 4 4 2 5 1 6 3 7 8 8 9 9 10 10 11 11 12 12 13 13
REMARK SMILES IDX 14 14
REMARK H PARENT
REMARK Flexibility Score: inf
ROOT
ATOM      1  C   UNL     1      61.816  29.759  61.664  1.00  0.00     0.000 C 
ENDROOT
BRANCH   1   2
ATOM      2  C   UNL     1      62.700  29.442  60.447  1.00  0.00     0.000 C 
BRANCH   2   3
ATOM      3  C   UNL     1      64.140  29.072  60.842  1.00  0.00     0.006 C 
BRANCH   3   4
ATOM      4  C   UNL     1      65.178  29.973  60.158  1.00  0.00     0.053 C 
BRANCH   4   5
ATOM      5  C   UNL     1      66.508  29.296  60.032  1.00  0.00     0.041 C 
ATOM      6  O   UNL     1      67.224  29.490  59.015  1.00  0.00    -0.550 OA
ATOM      7  O   UNL     1      66.970  28.471  61.050  1.00  0.00    -0.550 OA
ENDBRANCH   4   5
ENDBRANCH   3   4
ENDBRANCH   2   3
ENDBRANCH   1   2
BRANCH   1   8
ATOM      8  C   UNL     1      60.750  30.823  61.362  1.00  0.00     0.000 C 
BRANCH   8   9
ATOM      9  C   UNL     1      61.145  31.661  60.137  1.00  0.00     0.000 C 
BRANCH   9  10
ATOM     10  C   UNL     1      61.508  33.110  60.501  1.00  0.00     0.006 C 
BRANCH  10  11
ATOM     11  C   UNL     1      63.018  33.374  60.442  1.00  0.00     0.053 C 
BRANCH  11  12
ATOM     12  C   UNL     1      63.341  34.699  61.054  1.00  0.00     0.041 C 
ATOM     13  O   UNL     1      62.486  35.624  61.051  1.00  0.00    -0.550 OA
ATOM     14  O   UNL     1      64.568  34.900  61.672  1.00  0.00    -0.550 OA
ENDBRANCH  11  12
ENDBRANCH  10  11
ENDBRANCH   9  10
ENDBRANCH   8   9
ENDBRANCH   1   8
TORSDOF 9
ENDMDL
MODEL 8
REMARK VINA RESULT:    -3.318      1.567      5.742
REMARK INTER + INTRA:          -5.568
REMARK INTER:                  -4.769
REMARK INTRA:                  -0.799
REMARK UNBOUND:                -0.505
REMARK SMILES O=C([O-])CCCCCCCCC(=O)[O-]
REMARK SMILES IDX 7 1 6 2 5 3 4 4 2 5 1 6 3 7 8 8 9 9 10 10 11 11 12 12 13 13
REMARK SMILES IDX 14 14
REMARK H PARENT
REMARK Flexibility Score: inf
ROOT
ATOM      1  C   UNL     1      61.739  32.154  59.111  1.00  0.00     0.000 C 
ENDROOT
BRANCH   1   2
ATOM      2  C   UNL     1      60.724  31.318  59.909  1.00  0.00     0.000 C 
BRANCH   2   3
ATOM      3  C   UNL     1      61.264  30.884  61.282  1.00  0.00     0.006 C 
BRANCH   3   4
ATOM      4  C   UNL     1      62.782  30.657  61.263  1.00  0.00     0.053 C 
BRANCH   4   5
ATOM      5  C   UNL     1      63.128  29.204  61.160  1.00  0.00     0.041 C 
ATOM      6  O   UNL     1      64.317  28.848  60.946  1.00  0.00    -0.550 OA
ATOM      7  O   UNL     1      62.143  28.239  61.329  1.00  0.00    -0.550 OA
ENDBRANCH   4   5
ENDBRANCH   3   4
ENDBRANCH   2   3
ENDBRANCH   1   2
BRANCH   1   8
ATOM      8  C   UNL     1      61.292  33.612  58.929  1.00  0.00     0.000 C 
BRANCH   8   9
ATOM      9  C   UNL     1      62.408  34.583  59.344  1.00  0.00     0.000 C 
BRANCH   9  10
ATOM     10  C   UNL     1      62.627  34.617  60.866  1.00  0.00     0.006 C 
BRANCH  10  11
ATOM     11  C   UNL     1      64.103  34.461  61.255  1.00  0.00     0.053 C 
BRANCH  11  12
ATOM     12  C   UNL     1      64.712  35.797  61.538  1.00  0.00     0.041 C 
ATOM     13  O   UNL     1      65.926  36.009  61.281  1.00  0.00    -0.550 OA
ATOM     14  O   UNL     1      63.926  36.826  62.041  1.00  0.00    -0.550 OA
ENDBRANCH  11  12
ENDBRANCH  10  11
ENDBRANCH   9  10
ENDBRANCH   8   9
ENDBRANCH   1   8
TORSDOF 9
ENDMDL
MODEL 9
REMARK VINA RESULT:    -3.308     11.859     13.065
REMARK INTER + INTRA:          -5.553
REMARK INTER:                  -4.972
REMARK INTRA:                  -0.581
REMARK UNBOUND:                -0.505
REMARK SMILES O=C([O-])CCCCCCCCC(=O)[O-]
REMARK SMILES IDX 7 1 6 2 5 3 4 4 2 5 1 6 3 7 8 8 9 9 10 10 11 11 12 12 13 13
REMARK SMILES IDX 14 14
REMARK H PARENT
REMARK Flexibility Score: inf
ROOT
ATOM      1  C   UNL     1      59.517  26.896  49.988  1.00  0.00     0.000 C 
ENDROOT
BRANCH   1   2
ATOM      2  C   UNL     1      60.871  26.294  50.396  1.00  0.00     0.000 C 
BRANCH   2   3
ATOM      3  C   UNL     1      61.907  27.368  50.773  1.00  0.00     0.006 C 
BRANCH   3   4
ATOM      4  C   UNL     1      63.235  27.177  50.027  1.00  0.00     0.053 C 
BRANCH   4   5
ATOM      5  C   UNL     1      63.720  28.457  49.417  1.00  0.00     0.041 C 
ATOM      6  O   UNL     1      63.491  29.556  49.985  1.00  0.00    -0.550 OA
ATOM      7  O   UNL     1      64.449  28.433  48.234  1.00  0.00    -0.550 OA
ENDBRANCH   4   5
ENDBRANCH   3   4
ENDBRANCH   2   3
ENDBRANCH   1   2
BRANCH   1   8
ATOM      8  C   UNL     1      59.621  28.376  49.588  1.00  0.00     0.000 C 
BRANCH   8   9
ATOM      9  C   UNL     1      58.499  29.199  50.235  1.00  0.00     0.000 C 
BRANCH   9  10
ATOM     10  C   UNL     1      57.568  28.346  51.113  1.00  0.00     0.006 C 
BRANCH  10  11
ATOM     11  C   UNL     1      56.084  28.654  50.875  1.00  0.00     0.053 C 
BRANCH  11  12
ATOM     12  C   UNL     1      55.362  27.425  50.422  1.00  0.00     0.041 C 
ATOM     13  O   UNL     1      55.954  26.315  50.396  1.00  0.00    -0.550 OA
ATOM     14  O   UNL     1      54.019  27.497  50.075  1.00  0.00    -0.550 OA
ENDBRANCH  11  12
ENDBRANCH  10  11
ENDBRANCH   9  10
ENDBRANCH   8   9
ENDBRANCH   1   8
TORSDOF 9
ENDMDL
