MODEL 1
REMARK VINA RESULT:    -8.880      0.000      0.000
REMARK INTER + INTRA:          -9.914
REMARK INTER:                  -9.659
REMARK INTRA:                  -0.255
REMARK UNBOUND:                -0.255
REMARK SMILES C[C@@H]1[C@H](C)CC[C@@]2(C(=O)[O-])CC[C@@]3(C)C(=CC[C@@H]4[C@@]5(C)CC[C@@H](O)C(C)(C)[C@@H]5CC[C@@]43C)[C@@H]12
REMARK SMILES IDX 7 1 6 2 11 3 33 4 5 5 12 6 15 7 2 8 3 9 13 10 16 11 1 12
REMARK SMILES IDX 4 13 14 14 31 15 17 16 18 17 30 18 32 19 19 20 29 21 28 22
REMARK SMILES IDX 21 23 20 24 25 25 22 26 23 27 26 28 27 29 8 30 9 31 10 32
REMARK SMILES IDX 24 33
REMARK H PARENT 24 34
REMARK Flexibility Score: inf
ROOT
ATOM      1  C   UNL     1      14.775   7.524  28.264  1.00  0.00     0.017 C 
ATOM      2  C   UNL     1      14.154   7.223  29.671  1.00  0.00     0.014 C 
ATOM      3  C   UNL     1      13.902   6.793  27.202  1.00  0.00     0.014 C 
ATOM      4  C   UNL     1      14.884   9.076  27.871  1.00  0.00     0.030 C 
ATOM      5  C   UNL     1      14.402   8.305  30.708  1.00  0.00     0.004 C 
ATOM      6  C   UNL     1      12.618   7.598  26.922  1.00  0.00     0.013 C 
ATOM      7  C   UNL     1      14.216   9.487  26.540  1.00  0.00    -0.063 C 
ATOM      8  C   UNL     1      14.646  10.158  28.997  1.00  0.00    -0.003 C 
ATOM      9  C   UNL     1      13.809   9.618  30.191  1.00  0.00    -0.011 C 
ATOM     10  C   UNL     1      12.899   8.863  26.014  1.00  0.00    -0.006 C 
ATOM     11  C   UNL     1      14.916  10.332  25.772  1.00  0.00    -0.027 C 
ATOM     12  C   UNL     1      15.988  10.798  29.431  1.00  0.00     0.008 C 
ATOM     13  C   UNL     1      13.649  10.624  31.337  1.00  0.00     0.008 C 
ATOM     14  C   UNL     1      11.786   9.900  26.374  1.00  0.00     0.017 C 
ATOM     15  C   UNL     1      12.956   8.557  24.378  1.00  0.00    -0.020 C 
ATOM     16  C   UNL     1      14.886  10.184  24.280  1.00  0.00     0.032 C 
ATOM     17  C   UNL     1      14.428   8.751  23.831  1.00  0.00     0.006 C 
ATOM     18  C   UNL     1      12.039   9.543  23.510  1.00  0.00     0.008 C 
ATOM     19  C   UNL     1      12.434   7.086  24.142  1.00  0.00     0.012 C 
ATOM     20  C   UNL     1      14.635   8.456  22.255  1.00  0.00    -0.025 C 
ATOM     21  C   UNL     1      12.496   9.866  22.047  1.00  0.00     0.005 C 
ATOM     22  C   UNL     1      13.316   8.722  21.443  1.00  0.00     0.003 C 
ATOM     23  C   UNL     1      15.052   6.962  22.005  1.00  0.00     0.010 C 
ATOM     24  C   UNL     1      15.828   9.316  21.743  1.00  0.00     0.012 C 
ATOM     25  C   UNL     1      13.422   8.595  19.870  1.00  0.00    -0.006 C 
ATOM     26  C   UNL     1      14.562   6.367  20.654  1.00  0.00     0.033 C 
ATOM     27  C   UNL     1      14.413   7.406  19.509  1.00  0.00     0.120 C 
ATOM     28  C   UNL     1      13.887   9.913  19.201  1.00  0.00     0.014 C 
ATOM     29  C   UNL     1      12.008   8.305  19.280  1.00  0.00     0.014 C 
ENDROOT
BRANCH   1  30
ATOM     30  C   UNL     1      16.179   6.895  28.275  1.00  0.00     0.048 C 
ATOM     31  O   UNL     1      16.362   5.779  27.730  1.00  0.00    -0.550 OA
ATOM     32  O   UNL     1      17.280   7.565  28.806  1.00  0.00    -0.550 OA
ENDBRANCH   1  30
BRANCH  27  33
ATOM     33  O   UNL     1      13.995   6.720  18.356  1.00  0.00    -0.393 OA
ATOM     34  H   UNL     1      12.998   6.770  18.320  1.00  0.00     0.210 HD
ENDBRANCH  27  33
TORSDOF 2
ENDMDL
MODEL 2
REMARK VINA RESULT:    -8.646      1.846      7.993
REMARK INTER + INTRA:          -9.659
REMARK INTER:                  -9.372
REMARK INTRA:                  -0.287
REMARK UNBOUND:                -0.255
REMARK SMILES C[C@@H]1[C@H](C)CC[C@@]2(C(=O)[O-])CC[C@@]3(C)C(=CC[C@@H]4[C@@]5(C)CC[C@@H](O)C(C)(C)[C@@H]5CC[C@@]43C)[C@@H]12
REMARK SMILES IDX 7 1 6 2 11 3 33 4 5 5 12 6 15 7 2 8 3 9 13 10 16 11 1 12
REMARK SMILES IDX 4 13 14 14 31 15 17 16 18 17 30 18 32 19 19 20 29 21 28 22
REMARK SMILES IDX 21 23 20 24 25 25 22 26 23 27 26 28 27 29 8 30 9 31 10 32
REMARK SMILES IDX 24 33
REMARK H PARENT 24 34
REMARK Flexibility Score: inf
ROOT
ATOM      1  C   UNL     1      15.444   9.605  20.993  1.00  0.00     0.017 C 
ATOM      2  C   UNL     1      14.909  10.206  19.649  1.00  0.00     0.014 C 
ATOM      3  C   UNL     1      15.131  10.631  22.121  1.00  0.00     0.014 C 
ATOM      4  C   UNL     1      14.836   8.177  21.405  1.00  0.00     0.030 C 
ATOM      5  C   UNL     1      14.511   9.167  18.613  1.00  0.00     0.004 C 
ATOM      6  C   UNL     1      13.653  10.527  22.542  1.00  0.00     0.013 C 
ATOM      7  C   UNL     1      14.186   8.094  22.803  1.00  0.00    -0.063 C 
ATOM      8  C   UNL     1      14.005   7.372  20.329  1.00  0.00    -0.003 C 
ATOM      9  C   UNL     1      13.416   8.280  19.213  1.00  0.00    -0.011 C 
ATOM     10  C   UNL     1      13.382   9.255  23.444  1.00  0.00    -0.006 C 
ATOM     11  C   UNL     1      14.468   6.996  23.515  1.00  0.00    -0.027 C 
ATOM     12  C   UNL     1      14.831   6.184  19.779  1.00  0.00     0.008 C 
ATOM     13  C   UNL     1      12.687   7.506  18.109  1.00  0.00     0.008 C 
ATOM     14  C   UNL     1      11.881   8.884  23.215  1.00  0.00     0.017 C 
ATOM     15  C   UNL     1      13.735   9.449  25.059  1.00  0.00    -0.020 C 
ATOM     16  C   UNL     1      14.656   7.097  24.999  1.00  0.00     0.032 C 
ATOM     17  C   UNL     1      14.982   8.561  25.462  1.00  0.00     0.006 C 
ATOM     18  C   UNL     1      12.548   8.993  26.034  1.00  0.00     0.008 C 
ATOM     19  C   UNL     1      14.003  10.982  25.316  1.00  0.00     0.012 C 
ATOM     20  C   UNL     1      15.456   8.676  27.004  1.00  0.00    -0.025 C 
ATOM     21  C   UNL     1      12.934   8.449  27.450  1.00  0.00     0.005 C 
ATOM     22  C   UNL     1      14.254   9.046  27.947  1.00  0.00     0.003 C 
ATOM     23  C   UNL     1      16.556   9.783  27.181  1.00  0.00     0.010 C 
ATOM     24  C   UNL     1      16.136   7.336  27.413  1.00  0.00     0.012 C 
ATOM     25  C   UNL     1      14.558   9.061  29.499  1.00  0.00    -0.006 C 
ATOM     26  C   UNL     1      16.541  10.499  28.563  1.00  0.00     0.033 C 
ATOM     27  C   UNL     1      16.025   9.623  29.737  1.00  0.00     0.120 C 
ATOM     28  C   UNL     1      14.401   7.662  30.145  1.00  0.00     0.014 C 
ATOM     29  C   UNL     1      13.518   9.972  30.220  1.00  0.00     0.014 C 
ENDROOT
BRANCH   1  30
ATOM     30  C   UNL     1      16.969   9.488  20.831  1.00  0.00     0.048 C 
ATOM     31  O   UNL     1      17.517   8.363  20.922  1.00  0.00    -0.550 OA
ATOM     32  O   UNL     1      17.760  10.589  20.506  1.00  0.00    -0.550 OA
ENDBRANCH   1  30
BRANCH  27  33
ATOM     33  O   UNL     1      16.098  10.391  30.912  1.00  0.00    -0.393 OA
ATOM     34  H   UNL     1      17.035  10.728  30.993  1.00  0.00     0.210 HD
ENDBRANCH  27  33
TORSDOF 2
ENDMDL
MODEL 3
REMARK VINA RESULT:    -8.624      1.385      8.052
REMARK INTER + INTRA:          -9.635
REMARK INTER:                  -9.466
REMARK INTRA:                  -0.169
REMARK UNBOUND:                -0.255
REMARK SMILES C[C@@H]1[C@H](C)CC[C@@]2(C(=O)[O-])CC[C@@]3(C)C(=CC[C@@H]4[C@@]5(C)CC[C@@H](O)C(C)(C)[C@@H]5CC[C@@]43C)[C@@H]12
REMARK SMILES IDX 7 1 6 2 11 3 33 4 5 5 12 6 15 7 2 8 3 9 13 10 16 11 1 12
REMARK SMILES IDX 4 13 14 14 31 15 17 16 18 17 30 18 32 19 19 20 29 21 28 22
REMARK SMILES IDX 21 23 20 24 25 25 22 26 23 27 26 28 27 29 8 30 9 31 10 32
REMARK SMILES IDX 24 33
REMARK H PARENT 24 34
REMARK Flexibility Score: inf
ROOT
ATOM      1  C   UNL     1      14.790   7.516  20.136  1.00  0.00     0.017 C 
ATOM      2  C   UNL     1      15.328   7.853  18.704  1.00  0.00     0.014 C 
ATOM      3  C   UNL     1      15.868   7.976  21.161  1.00  0.00     0.014 C 
ATOM      4  C   UNL     1      13.383   8.186  20.524  1.00  0.00     0.030 C 
ATOM      5  C   UNL     1      14.243   8.110  17.672  1.00  0.00     0.004 C 
ATOM      6  C   UNL     1      15.785   9.500  21.375  1.00  0.00     0.013 C 
ATOM      7  C   UNL     1      13.366   9.026  21.819  1.00  0.00    -0.063 C 
ATOM      8  C   UNL     1      12.530   8.864  19.381  1.00  0.00    -0.003 C 
ATOM      9  C   UNL     1      13.385   9.284  18.153  1.00  0.00    -0.011 C 
ATOM     10  C   UNL     1      14.556   9.903  22.287  1.00  0.00    -0.006 C 
ATOM     11  C   UNL     1      12.302   8.854  22.614  1.00  0.00    -0.027 C 
ATOM     12  C   UNL     1      11.316   7.978  19.007  1.00  0.00     0.008 C 
ATOM     13  C   UNL     1      12.561   9.858  16.994  1.00  0.00     0.008 C 
ATOM     14  C   UNL     1      14.176  11.360  21.868  1.00  0.00     0.017 C 
ATOM     15  C   UNL     1      14.824   9.778  23.926  1.00  0.00    -0.020 C 
ATOM     16  C   UNL     1      12.472   8.875  24.104  1.00  0.00     0.032 C 
ATOM     17  C   UNL     1      13.956   8.607  24.540  1.00  0.00     0.006 C 
ATOM     18  C   UNL     1      14.416  11.093  24.744  1.00  0.00     0.008 C 
ATOM     19  C   UNL     1      16.368   9.537  24.146  1.00  0.00     0.012 C 
ATOM     20  C   UNL     1      14.141   8.353  26.126  1.00  0.00    -0.025 C 
ATOM     21  C   UNL     1      13.938  10.913  26.225  1.00  0.00     0.005 C 
ATOM     22  C   UNL     1      14.556   9.672  26.873  1.00  0.00     0.003 C 
ATOM     23  C   UNL     1      15.255   7.280  26.405  1.00  0.00     0.010 C 
ATOM     24  C   UNL     1      12.822   7.746  26.687  1.00  0.00     0.012 C 
ATOM     25  C   UNL     1      14.643   9.587  28.450  1.00  0.00    -0.006 C 
ATOM     26  C   UNL     1      16.035   7.483  27.736  1.00  0.00     0.033 C 
ATOM     27  C   UNL     1      15.215   8.164  28.866  1.00  0.00     0.120 C 
ATOM     28  C   UNL     1      13.276   9.844  29.132  1.00  0.00     0.014 C 
ATOM     29  C   UNL     1      15.587  10.712  28.975  1.00  0.00     0.014 C 
ENDROOT
BRANCH   1  30
ATOM     30  C   UNL     1      14.665   5.984  20.195  1.00  0.00     0.048 C 
ATOM     31  O   UNL     1      14.163   5.443  21.211  1.00  0.00    -0.550 OA
ATOM     32  O   UNL     1      15.021   5.175  19.118  1.00  0.00    -0.550 OA
ENDBRANCH   1  30
BRANCH  27  33
ATOM     33  O   UNL     1      16.037   8.251  30.002  1.00  0.00    -0.393 OA
ATOM     34  H   UNL     1      16.967   8.026  29.718  1.00  0.00     0.210 HD
ENDBRANCH  27  33
TORSDOF 2
ENDMDL
MODEL 4
REMARK VINA RESULT:    -8.532      2.202      8.045
REMARK INTER + INTRA:          -9.536
REMARK INTER:                  -9.294
REMARK INTRA:                  -0.242
REMARK UNBOUND:                -0.255
REMARK SMILES C[C@@H]1[C@H](C)CC[C@@]2(C(=O)[O-])CC[C@@]3(C)C(=CC[C@@H]4[C@@]5(C)CC[C@@H](O)C(C)(C)[C@@H]5CC[C@@]43C)[C@@H]12
REMARK SMILES IDX 7 1 6 2 11 3 33 4 5 5 12 6 15 7 2 8 3 9 13 10 16 11 1 12
REMARK SMILES IDX 4 13 14 14 31 15 17 16 18 17 30 18 32 19 19 20 29 21 28 22
REMARK SMILES IDX 21 23 20 24 25 25 22 26 23 27 26 28 27 29 8 30 9 31 10 32
REMARK SMILES IDX 24 33
REMARK H PARENT 24 34
REMARK Flexibility Score: inf
ROOT
ATOM      1  C   UNL     1      13.418   9.173  22.000  1.00  0.00     0.017 C 
ATOM      2  C   UNL     1      12.710   8.540  20.755  1.00  0.00     0.014 C 
ATOM      3  C   UNL     1      12.419   9.104  23.192  1.00  0.00     0.014 C 
ATOM      4  C   UNL     1      14.800   8.483  22.438  1.00  0.00     0.030 C 
ATOM      5  C   UNL     1      13.659   7.917  19.745  1.00  0.00     0.004 C 
ATOM      6  C   UNL     1      12.402   7.685  23.793  1.00  0.00     0.013 C 
ATOM      7  C   UNL     1      14.884   8.004  23.904  1.00  0.00    -0.063 C 
ATOM      8  C   UNL     1      15.474   7.451  21.451  1.00  0.00    -0.003 C 
ATOM      9  C   UNL     1      14.466   6.822  20.448  1.00  0.00    -0.011 C 
ATOM     10  C   UNL     1      13.683   7.403  24.679  1.00  0.00    -0.006 C 
ATOM     11  C   UNL     1      16.035   8.262  24.538  1.00  0.00    -0.027 C 
ATOM     12  C   UNL     1      16.708   8.083  20.761  1.00  0.00     0.008 C 
ATOM     13  C   UNL     1      15.117   5.890  19.421  1.00  0.00     0.008 C 
ATOM     14  C   UNL     1      13.901   5.856  24.630  1.00  0.00     0.017 C 
ATOM     15  C   UNL     1      13.596   7.969  26.243  1.00  0.00    -0.020 C 
ATOM     16  C   UNL     1      16.019   8.639  25.989  1.00  0.00     0.032 C 
ATOM     17  C   UNL     1      14.613   9.162  26.455  1.00  0.00     0.006 C 
ATOM     18  C   UNL     1      13.982   6.871  27.344  1.00  0.00     0.008 C 
ATOM     19  C   UNL     1      12.107   8.416  26.514  1.00  0.00     0.012 C 
ATOM     20  C   UNL     1      14.614   9.830  27.928  1.00  0.00    -0.025 C 
ATOM     21  C   UNL     1      14.623   7.373  28.682  1.00  0.00     0.005 C 
ATOM     22  C   UNL     1      14.176   8.795  29.027  1.00  0.00     0.003 C 
ATOM     23  C   UNL     1      13.623  11.047  28.001  1.00  0.00     0.010 C 
ATOM     24  C   UNL     1      16.028  10.421  28.203  1.00  0.00     0.012 C 
ATOM     25  C   UNL     1      14.259   9.288  30.528  1.00  0.00    -0.006 C 
ATOM     26  C   UNL     1      12.972  11.273  29.396  1.00  0.00     0.033 C 
ATOM     27  C   UNL     1      13.847  10.821  30.597  1.00  0.00     0.120 C 
ATOM     28  C   UNL     1      15.665   9.074  31.142  1.00  0.00     0.014 C 
ATOM     29  C   UNL     1      13.288   8.438  31.404  1.00  0.00     0.014 C 
ENDROOT
BRANCH   1  30
ATOM     30  C   UNL     1      13.669  10.648  21.643  1.00  0.00     0.048 C 
ATOM     31  O   UNL     1      12.871  11.245  20.879  1.00  0.00    -0.550 OA
ATOM     32  O   UNL     1      14.718  11.373  22.206  1.00  0.00    -0.550 OA
ENDBRANCH   1  30
BRANCH  27  33
ATOM     33  O   UNL     1      13.143  11.113  31.777  1.00  0.00    -0.393 OA
ATOM     34  H   UNL     1      12.186  10.877  31.622  1.00  0.00     0.210 HD
ENDBRANCH  27  33
TORSDOF 2
ENDMDL
MODEL 5
REMARK VINA RESULT:    -8.470      1.951      3.143
REMARK INTER + INTRA:          -9.468
REMARK INTER:                  -9.189
REMARK INTRA:                  -0.279
REMARK UNBOUND:                -0.255
REMARK SMILES C[C@@H]1[C@H](C)CC[C@@]2(C(=O)[O-])CC[C@@]3(C)C(=CC[C@@H]4[C@@]5(C)CC[C@@H](O)C(C)(C)[C@@H]5CC[C@@]43C)[C@@H]12
REMARK SMILES IDX 7 1 6 2 11 3 33 4 5 5 12 6 15 7 2 8 3 9 13 10 16 11 1 12
REMARK SMILES IDX 4 13 14 14 31 15 17 16 18 17 30 18 32 19 19 20 29 21 28 22
REMARK SMILES IDX 21 23 20 24 25 25 22 26 23 27 26 28 27 29 8 30 9 31 10 32
REMARK SMILES IDX 24 33
REMARK H PARENT 24 34
REMARK Flexibility Score: inf
ROOT
ATOM      1  C   UNL     1      15.179   8.311  25.462  1.00  0.00     0.017 C 
ATOM      2  C   UNL     1      14.824   7.834  26.911  1.00  0.00     0.014 C 
ATOM      3  C   UNL     1      14.913   7.118  24.498  1.00  0.00     0.014 C 
ATOM      4  C   UNL     1      14.372   9.595  24.937  1.00  0.00     0.030 C 
ATOM      5  C   UNL     1      14.379   8.946  27.845  1.00  0.00     0.004 C 
ATOM      6  C   UNL     1      13.406   6.997  24.201  1.00  0.00     0.013 C 
ATOM      7  C   UNL     1      13.614   9.420  23.602  1.00  0.00    -0.063 C 
ATOM      8  C   UNL     1      13.530  10.434  25.977  1.00  0.00    -0.003 C 
ATOM      9  C   UNL     1      13.142   9.618  27.243  1.00  0.00    -0.011 C 
ATOM     10  C   UNL     1      12.915   8.103  23.180  1.00  0.00    -0.006 C 
ATOM     11  C   UNL     1      13.706  10.441  22.740  1.00  0.00    -0.027 C 
ATOM     12  C   UNL     1      14.241  11.769  26.304  1.00  0.00     0.008 C 
ATOM     13  C   UNL     1      12.406  10.442  28.305  1.00  0.00     0.008 C 
ATOM     14  C   UNL     1      11.400   8.327  23.495  1.00  0.00     0.017 C 
ATOM     15  C   UNL     1      13.169   7.741  21.575  1.00  0.00    -0.020 C 
ATOM     16  C   UNL     1      13.794  10.169  21.269  1.00  0.00     0.032 C 
ATOM     17  C   UNL     1      14.263   8.703  20.959  1.00  0.00     0.006 C 
ATOM     18  C   UNL     1      11.865   7.928  20.662  1.00  0.00     0.008 C 
ATOM     19  C   UNL     1      13.604   6.227  21.483  1.00  0.00     0.012 C 
ATOM     20  C   UNL     1      14.631   8.444  19.406  1.00  0.00    -0.025 C 
ATOM     21  C   UNL     1      12.075   8.323  19.162  1.00  0.00     0.005 C 
ATOM     22  C   UNL     1      13.418   7.820  18.625  1.00  0.00     0.003 C 
ATOM     23  C   UNL     1      15.843   7.454  19.266  1.00  0.00     0.010 C 
ATOM     24  C   UNL     1      15.109   9.787  18.779  1.00  0.00     0.012 C 
ATOM     25  C   UNL     1      13.606   7.637  17.065  1.00  0.00    -0.006 C 
ATOM     26  C   UNL     1      15.815   6.567  17.988  1.00  0.00     0.033 C 
ATOM     27  C   UNL     1      15.110   7.218  16.767  1.00  0.00     0.120 C 
ATOM     28  C   UNL     1      13.230   8.913  16.272  1.00  0.00     0.014 C 
ATOM     29  C   UNL     1      12.635   6.528  16.555  1.00  0.00     0.014 C 
ENDROOT
BRANCH   1  30
ATOM     30  C   UNL     1      16.687   8.619  25.472  1.00  0.00     0.048 C 
ATOM     31  O   UNL     1      17.080   9.791  25.253  1.00  0.00    -0.550 OA
ATOM     32  O   UNL     1      17.633   7.649  25.797  1.00  0.00    -0.550 OA
ENDBRANCH   1  30
BRANCH  27  33
ATOM     33  O   UNL     1      15.190   6.317  15.692  1.00  0.00    -0.393 OA
ATOM     34  H   UNL     1      14.548   6.625  14.993  1.00  0.00     0.210 HD
ENDBRANCH  27  33
TORSDOF 2
ENDMDL
MODEL 6
REMARK VINA RESULT:    -8.465      2.375      9.022
REMARK INTER + INTRA:          -9.462
REMARK INTER:                  -9.179
REMARK INTRA:                  -0.283
REMARK UNBOUND:                -0.255
REMARK SMILES C[C@@H]1[C@H](C)CC[C@@]2(C(=O)[O-])CC[C@@]3(C)C(=CC[C@@H]4[C@@]5(C)CC[C@@H](O)C(C)(C)[C@@H]5CC[C@@]43C)[C@@H]12
REMARK SMILES IDX 7 1 6 2 11 3 33 4 5 5 12 6 15 7 2 8 3 9 13 10 16 11 1 12
REMARK SMILES IDX 4 13 14 14 31 15 17 16 18 17 30 18 32 19 19 20 29 21 28 22
REMARK SMILES IDX 21 23 20 24 25 25 22 26 23 27 26 28 27 29 8 30 9 31 10 32
REMARK SMILES IDX 24 33
REMARK H PARENT 24 34
REMARK Flexibility Score: inf
ROOT
ATOM      1  C   UNL     1      15.585   7.184  17.549  1.00  0.00     0.017 C 
ATOM      2  C   UNL     1      16.058   7.619  16.121  1.00  0.00     0.014 C 
ATOM      3  C   UNL     1      16.241   8.155  18.575  1.00  0.00     0.014 C 
ATOM      4  C   UNL     1      13.997   7.176  17.782  1.00  0.00     0.030 C 
ATOM      5  C   UNL     1      15.080   7.282  15.008  1.00  0.00     0.004 C 
ATOM      6  C   UNL     1      15.472   9.490  18.613  1.00  0.00     0.013 C 
ATOM      7  C   UNL     1      13.481   8.013  18.973  1.00  0.00    -0.063 C 
ATOM      8  C   UNL     1      13.050   7.310  16.525  1.00  0.00    -0.003 C 
ATOM      9  C   UNL     1      13.748   7.977  15.307  1.00  0.00    -0.011 C 
ATOM     10  C   UNL     1      14.107   9.364  19.405  1.00  0.00    -0.006 C 
ATOM     11  C   UNL     1      12.530   7.440  19.722  1.00  0.00    -0.027 C 
ATOM     12  C   UNL     1      12.397   5.947  16.186  1.00  0.00     0.008 C 
ATOM     13  C   UNL     1      12.875   8.030  14.048  1.00  0.00     0.008 C 
ATOM     14  C   UNL     1      13.166  10.458  18.806  1.00  0.00     0.017 C 
ATOM     15  C   UNL     1      14.239   9.496  21.060  1.00  0.00    -0.020 C 
ATOM     16  C   UNL     1      12.524   7.647  21.207  1.00  0.00     0.032 C 
ATOM     17  C   UNL     1      13.922   8.109  21.751  1.00  0.00     0.006 C 
ATOM     18  C   UNL     1      13.212  10.544  21.702  1.00  0.00     0.008 C 
ATOM     19  C   UNL     1      15.700   9.993  21.391  1.00  0.00     0.012 C 
ATOM     20  C   UNL     1      14.043   8.085  23.363  1.00  0.00    -0.025 C 
ATOM     21  C   UNL     1      12.718  10.279  23.165  1.00  0.00     0.005 C 
ATOM     22  C   UNL     1      13.754   9.501  23.981  1.00  0.00     0.003 C 
ATOM     23  C   UNL     1      15.482   7.653  23.821  1.00  0.00     0.010 C 
ATOM     24  C   UNL     1      13.079   6.993  23.916  1.00  0.00     0.012 C 
ATOM     25  C   UNL     1      13.713   9.584  25.560  1.00  0.00    -0.006 C 
ATOM     26  C   UNL     1      15.955   8.284  25.163  1.00  0.00     0.033 C 
ATOM     27  C   UNL     1      14.811   8.606  26.162  1.00  0.00     0.120 C 
ATOM     28  C   UNL     1      12.313   9.247  26.132  1.00  0.00     0.014 C 
ATOM     29  C   UNL     1      14.004  11.049  26.008  1.00  0.00     0.014 C 
ENDROOT
BRANCH   1  30
ATOM     30  C   UNL     1      16.146   5.769  17.772  1.00  0.00     0.048 C 
ATOM     31  O   UNL     1      15.356   4.815  17.977  1.00  0.00    -0.550 OA
ATOM     32  O   UNL     1      17.509   5.494  17.674  1.00  0.00    -0.550 OA
ENDBRANCH   1  30
BRANCH  27  33
ATOM     33  O   UNL     1      15.392   9.138  27.326  1.00  0.00    -0.393 OA
ATOM     34  H   UNL     1      16.310   9.450  27.088  1.00  0.00     0.210 HD
ENDBRANCH  27  33
TORSDOF 2
ENDMDL
MODEL 7
REMARK VINA RESULT:    -8.371      1.559      2.105
REMARK INTER + INTRA:          -9.360
REMARK INTER:                  -9.202
REMARK INTRA:                  -0.158
REMARK UNBOUND:                -0.255
REMARK SMILES C[C@@H]1[C@H](C)CC[C@@]2(C(=O)[O-])CC[C@@]3(C)C(=CC[C@@H]4[C@@]5(C)CC[C@@H](O)C(C)(C)[C@@H]5CC[C@@]43C)[C@@H]12
REMARK SMILES IDX 7 1 6 2 11 3 33 4 5 5 12 6 15 7 2 8 3 9 13 10 16 11 1 12
REMARK SMILES IDX 4 13 14 14 31 15 17 16 18 17 30 18 32 19 19 20 29 21 28 22
REMARK SMILES IDX 21 23 20 24 25 25 22 26 23 27 26 28 27 29 8 30 9 31 10 32
REMARK SMILES IDX 24 33
REMARK H PARENT 24 34
REMARK Flexibility Score: inf
ROOT
ATOM      1  C   UNL     1      16.018   8.525  28.819  1.00  0.00     0.017 C 
ATOM      2  C   UNL     1      16.016   7.647  30.116  1.00  0.00     0.014 C 
ATOM      3  C   UNL     1      16.174   7.565  27.603  1.00  0.00     0.014 C 
ATOM      4  C   UNL     1      14.718   9.440  28.597  1.00  0.00     0.030 C 
ATOM      5  C   UNL     1      15.242   8.248  31.277  1.00  0.00     0.004 C 
ATOM      6  C   UNL     1      14.824   6.898  27.274  1.00  0.00     0.013 C 
ATOM      7  C   UNL     1      13.981   9.256  27.252  1.00  0.00    -0.063 C 
ATOM      8  C   UNL     1      13.703   9.611  29.795  1.00  0.00    -0.003 C 
ATOM      9  C   UNL     1      13.791   8.460  30.836  1.00  0.00    -0.011 C 
ATOM     10  C   UNL     1      13.840   7.890  26.532  1.00  0.00    -0.006 C 
ATOM     11  C   UNL     1      13.576  10.381  26.649  1.00  0.00    -0.027 C 
ATOM     12  C   UNL     1      13.840  11.018  30.428  1.00  0.00     0.008 C 
ATOM     13  C   UNL     1      12.882   8.657  32.053  1.00  0.00     0.008 C 
ATOM     14  C   UNL     1      12.399   7.396  26.877  1.00  0.00     0.017 C 
ATOM     15  C   UNL     1      14.076   8.018  24.888  1.00  0.00    -0.020 C 
ATOM     16  C   UNL     1      13.636  10.491  25.155  1.00  0.00     0.032 C 
ATOM     17  C   UNL     1      14.629   9.454  24.519  1.00  0.00     0.006 C 
ATOM     18  C   UNL     1      12.734   7.839  24.033  1.00  0.00     0.008 C 
ATOM     19  C   UNL     1      15.077   6.878  24.453  1.00  0.00     0.012 C 
ATOM     20  C   UNL     1      14.933   9.707  22.952  1.00  0.00    -0.025 C 
ATOM     21  C   UNL     1      12.633   8.595  22.665  1.00  0.00     0.005 C 
ATOM     22  C   UNL     1      14.012   8.820  22.038  1.00  0.00     0.003 C 
ATOM     23  C   UNL     1      16.424   9.363  22.598  1.00  0.00     0.010 C 
ATOM     24  C   UNL     1      14.770  11.227  22.656  1.00  0.00     0.012 C 
ATOM     25  C   UNL     1      14.120   9.068  20.480  1.00  0.00    -0.006 C 
ATOM     26  C   UNL     1      16.645   8.838  21.150  1.00  0.00     0.033 C 
ATOM     27  C   UNL     1      15.632   9.383  20.106  1.00  0.00     0.120 C 
ATOM     28  C   UNL     1      13.191  10.211  19.999  1.00  0.00     0.014 C 
ATOM     29  C   UNL     1      13.639   7.794  19.720  1.00  0.00     0.014 C 
ENDROOT
BRANCH   1  30
ATOM     30  C   UNL     1      17.267   9.420  28.912  1.00  0.00     0.048 C 
ATOM     31  O   UNL     1      17.488  10.269  28.015  1.00  0.00    -0.550 OA
ATOM     32  O   UNL     1      18.125   9.372  30.009  1.00  0.00    -0.550 OA
ENDBRANCH   1  30
BRANCH  27  33
ATOM     33  O   UNL     1      15.975   8.848  18.853  1.00  0.00    -0.393 OA
ATOM     34  H   UNL     1      16.170   7.877  18.983  1.00  0.00     0.210 HD
ENDBRANCH  27  33
TORSDOF 2
ENDMDL
MODEL 8
REMARK VINA RESULT:    -8.261      2.537      4.577
REMARK INTER + INTRA:          -9.240
REMARK INTER:                  -8.953
REMARK INTRA:                  -0.288
REMARK UNBOUND:                -0.255
REMARK SMILES C[C@@H]1[C@H](C)CC[C@@]2(C(=O)[O-])CC[C@@]3(C)C(=CC[C@@H]4[C@@]5(C)CC[C@@H](O)C(C)(C)[C@@H]5CC[C@@]43C)[C@@H]12
REMARK SMILES IDX 7 1 6 2 11 3 33 4 5 5 12 6 15 7 2 8 3 9 13 10 16 11 1 12
REMARK SMILES IDX 4 13 14 14 31 15 17 16 18 17 30 18 32 19 19 20 29 21 28 22
REMARK SMILES IDX 21 23 20 24 25 25 22 26 23 27 26 28 27 29 8 30 9 31 10 32
REMARK SMILES IDX 24 33
REMARK H PARENT 24 34
REMARK Flexibility Score: inf
ROOT
ATOM      1  C   UNL     1      13.463   7.681  24.081  1.00  0.00     0.017 C 
ATOM      2  C   UNL     1      12.599   8.110  25.315  1.00  0.00     0.014 C 
ATOM      3  C   UNL     1      12.488   7.414  22.897  1.00  0.00     0.014 C 
ATOM      4  C   UNL     1      14.576   8.738  23.612  1.00  0.00     0.030 C 
ATOM      5  C   UNL     1      13.319   9.016  26.299  1.00  0.00     0.004 C 
ATOM      6  C   UNL     1      12.049   8.746  22.257  1.00  0.00     0.013 C 
ATOM      7  C   UNL     1      14.512   9.178  22.133  1.00  0.00    -0.063 C 
ATOM      8  C   UNL     1      14.912   9.952  24.565  1.00  0.00    -0.003 C 
ATOM      9  C   UNL     1      13.762  10.280  25.559  1.00  0.00    -0.011 C 
ATOM     10  C   UNL     1      13.187   9.371  21.353  1.00  0.00    -0.006 C 
ATOM     11  C   UNL     1      15.688   9.257  21.495  1.00  0.00    -0.027 C 
ATOM     12  C   UNL     1      16.279   9.738  25.260  1.00  0.00     0.008 C 
ATOM     13  C   UNL     1      14.107  11.394  26.554  1.00  0.00     0.008 C 
ATOM     14  C   UNL     1      12.933  10.913  21.357  1.00  0.00     0.017 C 
ATOM     15  C   UNL     1      13.272   8.760  19.806  1.00  0.00    -0.020 C 
ATOM     16  C   UNL     1      15.784   8.850  20.055  1.00  0.00     0.032 C 
ATOM     17  C   UNL     1      14.598   7.919  19.617  1.00  0.00     0.006 C 
ATOM     18  C   UNL     1      13.312   9.891  18.672  1.00  0.00     0.008 C 
ATOM     19  C   UNL     1      11.984   7.882  19.561  1.00  0.00     0.012 C 
ATOM     20  C   UNL     1      14.797   7.239  18.163  1.00  0.00    -0.025 C 
ATOM     21  C   UNL     1      14.073   9.565  17.342  1.00  0.00     0.005 C 
ATOM     22  C   UNL     1      14.070   8.064  17.040  1.00  0.00     0.003 C 
ATOM     23  C   UNL     1      14.215   5.781  18.132  1.00  0.00     0.010 C 
ATOM     24  C   UNL     1      16.323   7.090  17.891  1.00  0.00     0.012 C 
ATOM     25  C   UNL     1      14.295   7.576  15.553  1.00  0.00    -0.006 C 
ATOM     26  C   UNL     1      13.660   5.331  16.750  1.00  0.00     0.033 C 
ATOM     27  C   UNL     1      14.360   5.988  15.529  1.00  0.00     0.120 C 
ATOM     28  C   UNL     1      15.573   8.181  14.920  1.00  0.00     0.014 C 
ATOM     29  C   UNL     1      13.115   8.072  14.663  1.00  0.00     0.014 C 
ENDROOT
BRANCH   1  30
ATOM     30  C   UNL     1      14.143   6.358  24.476  1.00  0.00     0.048 C 
ATOM     31  O   UNL     1      15.390   6.251  24.379  1.00  0.00    -0.550 OA
ATOM     32  O   UNL     1      13.423   5.294  25.017  1.00  0.00    -0.550 OA
ENDBRANCH   1  30
BRANCH  27  33
ATOM     33  O   UNL     1      13.774   5.466  14.364  1.00  0.00    -0.393 OA
ATOM     34  H   UNL     1      12.946   5.992  14.182  1.00  0.00     0.210 HD
ENDBRANCH  27  33
TORSDOF 2
ENDMDL
MODEL 9
REMARK VINA RESULT:    -8.222      2.768      5.389
REMARK INTER + INTRA:          -9.198
REMARK INTER:                  -8.984
REMARK INTRA:                  -0.214
REMARK UNBOUND:                -0.255
REMARK SMILES C[C@@H]1[C@H](C)CC[C@@]2(C(=O)[O-])CC[C@@]3(C)C(=CC[C@@H]4[C@@]5(C)CC[C@@H](O)C(C)(C)[C@@H]5CC[C@@]43C)[C@@H]12
REMARK SMILES IDX 7 1 6 2 11 3 33 4 5 5 12 6 15 7 2 8 3 9 13 10 16 11 1 12
REMARK SMILES IDX 4 13 14 14 31 15 17 16 18 17 30 18 32 19 19 20 29 21 28 22
REMARK SMILES IDX 21 23 20 24 25 25 22 26 23 27 26 28 27 29 8 30 9 31 10 32
REMARK SMILES IDX 24 33
REMARK H PARENT 24 34
REMARK Flexibility Score: inf
ROOT
ATOM      1  C   UNL     1      13.524   9.175  23.825  1.00  0.00     0.017 C 
ATOM      2  C   UNL     1      13.565  10.259  24.956  1.00  0.00     0.014 C 
ATOM      3  C   UNL     1      13.131   9.894  22.502  1.00  0.00     0.014 C 
ATOM      4  C   UNL     1      14.890   8.365  23.591  1.00  0.00     0.030 C 
ATOM      5  C   UNL     1      14.522   9.942  26.092  1.00  0.00     0.004 C 
ATOM      6  C   UNL     1      14.352  10.620  21.905  1.00  0.00     0.013 C 
ATOM      7  C   UNL     1      15.453   8.385  22.153  1.00  0.00    -0.063 C 
ATOM      8  C   UNL     1      16.040   8.498  24.667  1.00  0.00    -0.003 C 
ATOM      9  C   UNL     1      15.932   9.797  25.513  1.00  0.00    -0.011 C 
ATOM     10  C   UNL     1      15.359   9.614  21.214  1.00  0.00    -0.006 C 
ATOM     11  C   UNL     1      15.918   7.217  21.691  1.00  0.00    -0.027 C 
ATOM     12  C   UNL     1      16.134   7.214  25.526  1.00  0.00     0.008 C 
ATOM     13  C   UNL     1      16.983   9.899  26.624  1.00  0.00     0.008 C 
ATOM     14  C   UNL     1      16.762  10.296  21.294  1.00  0.00     0.017 C 
ATOM     15  C   UNL     1      14.964   9.185  19.653  1.00  0.00    -0.020 C 
ATOM     16  C   UNL     1      15.711   6.848  20.253  1.00  0.00     0.032 C 
ATOM     17  C   UNL     1      14.544   7.661  19.589  1.00  0.00     0.006 C 
ATOM     18  C   UNL     1      16.178   9.342  18.620  1.00  0.00     0.008 C 
ATOM     19  C   UNL     1      13.799  10.133  19.171  1.00  0.00     0.012 C 
ATOM     20  C   UNL     1      14.106   7.115  18.132  1.00  0.00    -0.025 C 
ATOM     21  C   UNL     1      16.219   8.376  17.388  1.00  0.00     0.005 C 
ATOM     22  C   UNL     1      14.816   7.917  16.982  1.00  0.00     0.003 C 
ATOM     23  C   UNL     1      12.555   7.250  17.916  1.00  0.00     0.010 C 
ATOM     24  C   UNL     1      14.410   5.589  18.063  1.00  0.00     0.012 C 
ATOM     25  C   UNL     1      14.571   7.396  15.508  1.00  0.00    -0.006 C 
ATOM     26  C   UNL     1      12.123   7.495  16.442  1.00  0.00     0.033 C 
ATOM     27  C   UNL     1      13.074   6.879  15.380  1.00  0.00     0.120 C 
ATOM     28  C   UNL     1      15.568   6.282  15.103  1.00  0.00     0.014 C 
ATOM     29  C   UNL     1      14.818   8.561  14.502  1.00  0.00     0.014 C 
ENDROOT
BRANCH   1  30
ATOM     30  C   UNL     1      12.404   8.195  24.214  1.00  0.00     0.048 C 
ATOM     31  O   UNL     1      11.375   8.117  23.500  1.00  0.00    -0.550 OA
ATOM     32  O   UNL     1      12.529   7.328  25.298  1.00  0.00    -0.550 OA
ENDBRANCH   1  30
BRANCH  27  33
ATOM     33  O   UNL     1      12.541   7.157  14.110  1.00  0.00    -0.393 OA
ATOM     34  H   UNL     1      11.558   7.297  14.221  1.00  0.00     0.210 HD
ENDBRANCH  27  33
TORSDOF 2
ENDMDL
