MODEL 1
REMARK VINA RESULT:     1.641      0.000      0.000
REMARK INTER + INTRA:           2.866
REMARK INTER:                   2.984
REMARK INTRA:                  -0.118
REMARK UNBOUND:                -0.118
REMARK SMILES CCCCCCCCCCCCCC[C@H](C)C(=O)[O-]
REMARK SMILES IDX 9 1 10 2 11 3 12 4 13 5 14 6 15 7 16 8 17 9 18 10 19 11 8 12
REMARK SMILES IDX 7 13 6 14 5 15 4 16 3 17 2 18 1 19
REMARK H PARENT
REMARK Flexibility Score: inf
ROOT
ATOM      1  C   UNL     1     -10.987 -10.463  -4.038  1.00  0.00     0.000 C 
ENDROOT
BRANCH   1   2
ATOM      2  C   UNL     1      -9.852 -10.739  -5.042  1.00  0.00     0.000 C 
BRANCH   2   3
ATOM      3  C   UNL     1     -10.136 -11.862  -6.056  1.00  0.00     0.000 C 
BRANCH   3   4
ATOM      4  C   UNL     1     -10.986 -11.395  -7.247  1.00  0.00     0.000 C 
BRANCH   4   5
ATOM      5  C   UNL     1     -10.241 -11.615  -8.572  1.00  0.00     0.001 C 
BRANCH   5   6
ATOM      6  C   UNL     1     -11.125 -11.364  -9.809  1.00  0.00     0.009 C 
BRANCH   6   7
ATOM      7  C   UNL     1     -10.453 -11.666 -11.168  1.00  0.00     0.032 C 
ATOM      8  C   UNL     1      -8.927 -11.799 -11.056  1.00  0.00     0.014 C 
BRANCH   7   9
ATOM      9  C   UNL     1     -10.801 -10.585 -12.155  1.00  0.00     0.044 C 
ATOM     10  O   UNL     1     -11.088  -9.424 -11.760  1.00  0.00    -0.550 OA
ATOM     11  O   UNL     1     -10.828 -10.871 -13.514  1.00  0.00    -0.550 OA
ENDBRANCH   7   9
ENDBRANCH   6   7
ENDBRANCH   5   6
ENDBRANCH   4   5
ENDBRANCH   3   4
ENDBRANCH   2   3
ENDBRANCH   1   2
BRANCH   1  12
ATOM     12  C   UNL     1     -10.497  -9.786  -2.749  1.00  0.00     0.000 C 
BRANCH  12  13
ATOM     13  C   UNL     1      -9.230  -8.961  -3.008  1.00  0.00    -0.000 C 
BRANCH  13  14
ATOM     14  C   UNL     1      -9.250  -7.654  -2.202  1.00  0.00    -0.000 C 
BRANCH  14  15
ATOM     15  C   UNL     1      -9.738  -7.861  -0.759  1.00  0.00    -0.000 C 
BRANCH  15  16
ATOM     16  C   UNL     1      -8.617  -8.335   0.182  1.00  0.00    -0.000 C 
BRANCH  16  17
ATOM     17  C   UNL     1      -7.232  -7.805  -0.249  1.00  0.00    -0.000 C 
BRANCH  17  18
ATOM     18  C   UNL     1      -6.512  -8.718  -1.256  1.00  0.00    -0.003 C 
ATOM     19  C   UNL     1      -5.335  -9.475  -0.643  1.00  0.00     0.004 C 
ENDBRANCH  17  18
ENDBRANCH  16  17
ENDBRANCH  15  16
ENDBRANCH  14  15
ENDBRANCH  13  14
ENDBRANCH  12  13
ENDBRANCH   1  12
TORSDOF 14
ENDMDL
MODEL 2
REMARK VINA RESULT:     2.273      1.611      2.324
REMARK INTER + INTRA:           4.016
REMARK INTER:                   3.418
REMARK INTRA:                   0.598
REMARK UNBOUND:                -0.118
REMARK SMILES CCCCCCCCCCCCCC[C@H](C)C(=O)[O-]
REMARK SMILES IDX 9 1 10 2 11 3 12 4 13 5 14 6 15 7 16 8 17 9 18 10 19 11 8 12
REMARK SMILES IDX 7 13 6 14 5 15 4 16 3 17 2 18 1 19
REMARK H PARENT
REMARK Flexibility Score: inf
ROOT
ATOM      1  C   UNL     1     -11.105 -11.089  -5.368  1.00  0.00     0.000 C 
ENDROOT
BRANCH   1   2
ATOM      2  C   UNL     1     -10.455 -12.036  -6.393  1.00  0.00     0.000 C 
BRANCH   2   3
ATOM      3  C   UNL     1     -11.125 -12.058  -7.778  1.00  0.00     0.000 C 
BRANCH   3   4
ATOM      4  C   UNL     1     -10.599 -10.962  -8.717  1.00  0.00     0.000 C 
BRANCH   4   5
ATOM      5  C   UNL     1     -10.742 -11.383 -10.187  1.00  0.00     0.001 C 
BRANCH   5   6
ATOM      6  C   UNL     1      -9.393 -11.451 -10.928  1.00  0.00     0.009 C 
BRANCH   6   7
ATOM      7  C   UNL     1      -9.451 -11.096 -12.432  1.00  0.00     0.032 C 
ATOM      8  C   UNL     1     -10.245 -12.124 -13.251  1.00  0.00     0.014 C 
BRANCH   7   9
ATOM      9  C   UNL     1      -8.053 -10.977 -12.976  1.00  0.00     0.044 C 
ATOM     10  O   UNL     1      -7.151 -11.775 -12.607  1.00  0.00    -0.550 OA
ATOM     11  O   UNL     1      -7.745  -9.967 -13.879  1.00  0.00    -0.550 OA
ENDBRANCH   7   9
ENDBRANCH   6   7
ENDBRANCH   5   6
ENDBRANCH   4   5
ENDBRANCH   3   4
ENDBRANCH   2   3
ENDBRANCH   1   2
BRANCH   1  12
ATOM     12  C   UNL     1     -10.376 -11.075  -4.015  1.00  0.00     0.000 C 
BRANCH  12  13
ATOM     13  C   UNL     1      -9.364  -9.926  -3.948  1.00  0.00    -0.000 C 
BRANCH  13  14
ATOM     14  C   UNL     1      -9.917  -8.753  -3.126  1.00  0.00    -0.000 C 
BRANCH  14  15
ATOM     15  C   UNL     1     -10.978  -9.198  -2.106  1.00  0.00    -0.000 C 
BRANCH  15  16
ATOM     16  C   UNL     1     -10.520  -8.999  -0.651  1.00  0.00    -0.000 C 
BRANCH  16  17
ATOM     17  C   UNL     1      -9.464  -7.879  -0.522  1.00  0.00    -0.000 C 
BRANCH  17  18
ATOM     18  C   UNL     1      -8.015  -8.392  -0.570  1.00  0.00    -0.003 C 
ATOM     19  C   UNL     1      -7.408  -8.341  -1.970  1.00  0.00     0.004 C 
ENDBRANCH  17  18
ENDBRANCH  16  17
ENDBRANCH  15  16
ENDBRANCH  14  15
ENDBRANCH  13  14
ENDBRANCH  12  13
ENDBRANCH   1  12
TORSDOF 14
ENDMDL
MODEL 3
REMARK VINA RESULT:     2.330     11.414     13.554
REMARK INTER + INTRA:           4.119
REMARK INTER:                   4.190
REMARK INTRA:                  -0.072
REMARK UNBOUND:                -0.118
REMARK SMILES CCCCCCCCCCCCCC[C@H](C)C(=O)[O-]
REMARK SMILES IDX 9 1 10 2 11 3 12 4 13 5 14 6 15 7 16 8 17 9 18 10 19 11 8 12
REMARK SMILES IDX 7 13 6 14 5 15 4 16 3 17 2 18 1 19
REMARK H PARENT
REMARK Flexibility Score: inf
ROOT
ATOM      1  C   UNL     1      -0.251  -5.162 -13.884  1.00  0.00     0.000 C 
ENDROOT
BRANCH   1   2
ATOM      2  C   UNL     1      -1.790  -5.198 -13.885  1.00  0.00     0.000 C 
BRANCH   2   3
ATOM      3  C   UNL     1      -2.410  -6.587 -14.125  1.00  0.00     0.000 C 
BRANCH   3   4
ATOM      4  C   UNL     1      -3.588  -6.889 -13.186  1.00  0.00     0.000 C 
BRANCH   4   5
ATOM      5  C   UNL     1      -4.021  -8.358 -13.305  1.00  0.00     0.001 C 
BRANCH   5   6
ATOM      6  C   UNL     1      -5.533  -8.559 -13.089  1.00  0.00     0.009 C 
BRANCH   6   7
ATOM      7  C   UNL     1      -6.212  -9.541 -14.072  1.00  0.00     0.032 C 
ATOM      8  C   UNL     1      -7.745  -9.462 -14.020  1.00  0.00     0.014 C 
BRANCH   7   9
ATOM      9  C   UNL     1      -5.761 -10.945 -13.774  1.00  0.00     0.044 C 
ATOM     10  O   UNL     1      -6.568 -11.909 -13.854  1.00  0.00    -0.550 OA
ATOM     11  O   UNL     1      -4.448 -11.184 -13.386  1.00  0.00    -0.550 OA
ENDBRANCH   7   9
ENDBRANCH   6   7
ENDBRANCH   5   6
ENDBRANCH   4   5
ENDBRANCH   3   4
ENDBRANCH   2   3
ENDBRANCH   1   2
BRANCH   1  12
ATOM     12  C   UNL     1       0.317  -3.754 -14.123  1.00  0.00     0.000 C 
BRANCH  12  13
ATOM     13  C   UNL     1       1.850  -3.770 -14.115  1.00  0.00    -0.000 C 
BRANCH  13  14
ATOM     14  C   UNL     1       2.410  -2.484 -13.490  1.00  0.00    -0.000 C 
BRANCH  14  15
ATOM     15  C   UNL     1       3.942  -2.402 -13.583  1.00  0.00    -0.000 C 
BRANCH  15  16
ATOM     16  C   UNL     1       4.570  -3.698 -14.125  1.00  0.00    -0.000 C 
BRANCH  16  17
ATOM     17  C   UNL     1       5.463  -4.394 -13.075  1.00  0.00    -0.000 C 
BRANCH  17  18
ATOM     18  C   UNL     1       6.090  -3.424 -12.060  1.00  0.00    -0.003 C 
ATOM     19  C   UNL     1       6.687  -4.130 -10.845  1.00  0.00     0.004 C 
ENDBRANCH  17  18
ENDBRANCH  16  17
ENDBRANCH  15  16
ENDBRANCH  14  15
ENDBRANCH  13  14
ENDBRANCH  12  13
ENDBRANCH   1  12
TORSDOF 14
ENDMDL
MODEL 4
REMARK VINA RESULT:     3.430     21.062     23.678
REMARK INTER + INTRA:           6.119
REMARK INTER:                   6.419
REMARK INTRA:                  -0.300
REMARK UNBOUND:                -0.118
REMARK SMILES CCCCCCCCCCCCCC[C@H](C)C(=O)[O-]
REMARK SMILES IDX 9 1 10 2 11 3 12 4 13 5 14 6 15 7 16 8 17 9 18 10 19 11 8 12
REMARK SMILES IDX 7 13 6 14 5 15 4 16 3 17 2 18 1 19
REMARK H PARENT
REMARK Flexibility Score: inf
ROOT
ATOM      1  C   UNL     1       3.286   8.002  -1.958  1.00  0.00     0.000 C 
ENDROOT
BRANCH   1   2
ATOM      2  C   UNL     1       2.324   7.321  -0.967  1.00  0.00     0.000 C 
BRANCH   2   3
ATOM      3  C   UNL     1       2.709   7.461   0.517  1.00  0.00     0.000 C 
BRANCH   3   4
ATOM      4  C   UNL     1       2.745   6.116   1.258  1.00  0.00     0.000 C 
BRANCH   4   5
ATOM      5  C   UNL     1       3.424   6.262   2.627  1.00  0.00     0.001 C 
BRANCH   5   6
ATOM      6  C   UNL     1       3.425   4.954   3.442  1.00  0.00     0.009 C 
BRANCH   6   7
ATOM      7  C   UNL     1       2.475   4.939   4.662  1.00  0.00     0.032 C 
ATOM      8  C   UNL     1       3.022   5.752   5.845  1.00  0.00     0.014 C 
BRANCH   7   9
ATOM      9  C   UNL     1       2.225   3.519   5.089  1.00  0.00     0.044 C 
ATOM     10  O   UNL     1       3.186   2.732   5.297  1.00  0.00    -0.550 OA
ATOM     11  O   UNL     1       0.922   3.059   5.237  1.00  0.00    -0.550 OA
ENDBRANCH   7   9
ENDBRANCH   6   7
ENDBRANCH   5   6
ENDBRANCH   4   5
ENDBRANCH   3   4
ENDBRANCH   2   3
ENDBRANCH   1   2
BRANCH   1  12
ATOM     12  C   UNL     1       2.702   8.124  -3.374  1.00  0.00     0.000 C 
BRANCH  12  13
ATOM     13  C   UNL     1       3.811   8.086  -4.432  1.00  0.00    -0.000 C 
BRANCH  13  14
ATOM     14  C   UNL     1       3.220   8.114  -5.849  1.00  0.00    -0.000 C 
BRANCH  14  15
ATOM     15  C   UNL     1       4.253   7.740  -6.925  1.00  0.00    -0.000 C 
BRANCH  15  16
ATOM     16  C   UNL     1       3.657   7.743  -8.343  1.00  0.00    -0.000 C 
BRANCH  16  17
ATOM     17  C   UNL     1       4.749   7.796  -9.433  1.00  0.00    -0.000 C 
BRANCH  17  18
ATOM     18  C   UNL     1       4.551   6.759 -10.552  1.00  0.00    -0.003 C 
ATOM     19  C   UNL     1       4.180   7.389 -11.893  1.00  0.00     0.004 C 
ENDBRANCH  17  18
ENDBRANCH  16  17
ENDBRANCH  15  16
ENDBRANCH  14  15
ENDBRANCH  13  14
ENDBRANCH  12  13
ENDBRANCH   1  12
TORSDOF 14
ENDMDL
MODEL 5
REMARK VINA RESULT:     3.484     12.297     15.316
REMARK INTER + INTRA:           6.218
REMARK INTER:                   6.792
REMARK INTRA:                  -0.574
REMARK UNBOUND:                -0.118
REMARK SMILES CCCCCCCCCCCCCC[C@H](C)C(=O)[O-]
REMARK SMILES IDX 9 1 10 2 11 3 12 4 13 5 14 6 15 7 16 8 17 9 18 10 19 11 8 12
REMARK SMILES IDX 7 13 6 14 5 15 4 16 3 17 2 18 1 19
REMARK H PARENT
REMARK Flexibility Score: inf
ROOT
ATOM      1  C   UNL     1      -1.084  -5.060 -12.135  1.00  0.00     0.000 C 
ENDROOT
BRANCH   1   2
ATOM      2  C   UNL     1      -0.980  -3.623 -12.679  1.00  0.00     0.000 C 
BRANCH   2   3
ATOM      3  C   UNL     1      -0.308  -3.494 -14.058  1.00  0.00     0.000 C 
BRANCH   3   4
ATOM      4  C   UNL     1       1.128  -4.042 -14.080  1.00  0.00     0.000 C 
BRANCH   4   5
ATOM      5  C   UNL     1       2.151  -2.897 -14.124  1.00  0.00     0.001 C 
BRANCH   5   6
ATOM      6  C   UNL     1       3.283  -3.062 -13.093  1.00  0.00     0.009 C 
BRANCH   6   7
ATOM      7  C   UNL     1       4.657  -3.456 -13.683  1.00  0.00     0.032 C 
ATOM      8  C   UNL     1       5.384  -4.508 -12.832  1.00  0.00     0.014 C 
BRANCH   7   9
ATOM      9  C   UNL     1       5.517  -2.229 -13.824  1.00  0.00     0.044 C 
ATOM     10  O   UNL     1       6.763  -2.297 -13.659  1.00  0.00    -0.550 OA
ATOM     11  O   UNL     1       4.931  -1.004 -14.118  1.00  0.00    -0.550 OA
ENDBRANCH   7   9
ENDBRANCH   6   7
ENDBRANCH   5   6
ENDBRANCH   4   5
ENDBRANCH   3   4
ENDBRANCH   2   3
ENDBRANCH   1   2
BRANCH   1  12
ATOM     12  C   UNL     1      -2.488  -5.663 -12.294  1.00  0.00     0.000 C 
BRANCH  12  13
ATOM     13  C   UNL     1      -2.751  -6.071 -13.749  1.00  0.00    -0.000 C 
BRANCH  13  14
ATOM     14  C   UNL     1      -4.109  -6.775 -13.886  1.00  0.00    -0.000 C 
BRANCH  14  15
ATOM     15  C   UNL     1      -3.966  -8.286 -14.124  1.00  0.00    -0.000 C 
BRANCH  15  16
ATOM     16  C   UNL     1      -4.993  -9.110 -13.326  1.00  0.00    -0.000 C 
BRANCH  16  17
ATOM     17  C   UNL     1      -5.388 -10.411 -14.056  1.00  0.00    -0.000 C 
BRANCH  17  18
ATOM     18  C   UNL     1      -6.894 -10.720 -13.989  1.00  0.00    -0.003 C 
ATOM     19  C   UNL     1      -7.314 -11.370 -12.672  1.00  0.00     0.004 C 
ENDBRANCH  17  18
ENDBRANCH  16  17
ENDBRANCH  15  16
ENDBRANCH  14  15
ENDBRANCH  13  14
ENDBRANCH  12  13
ENDBRANCH   1  12
TORSDOF 14
ENDMDL
MODEL 6
REMARK VINA RESULT:     3.724     12.779     15.584
REMARK INTER + INTRA:           6.655
REMARK INTER:                   7.189
REMARK INTRA:                  -0.534
REMARK UNBOUND:                -0.118
REMARK SMILES CCCCCCCCCCCCCC[C@H](C)C(=O)[O-]
REMARK SMILES IDX 9 1 10 2 11 3 12 4 13 5 14 6 15 7 16 8 17 9 18 10 19 11 8 12
REMARK SMILES IDX 7 13 6 14 5 15 4 16 3 17 2 18 1 19
REMARK H PARENT
REMARK Flexibility Score: inf
ROOT
ATOM      1  C   UNL     1      -0.422  -5.032 -12.059  1.00  0.00     0.000 C 
ENDROOT
BRANCH   1   2
ATOM      2  C   UNL     1      -0.148  -3.592 -12.529  1.00  0.00     0.000 C 
BRANCH   2   3
ATOM      3  C   UNL     1       0.419  -3.468 -13.955  1.00  0.00     0.000 C 
BRANCH   3   4
ATOM      4  C   UNL     1       1.779  -4.163 -14.124  1.00  0.00     0.000 C 
BRANCH   4   5
ATOM      5  C   UNL     1       2.927  -3.145 -14.056  1.00  0.00     0.001 C 
BRANCH   5   6
ATOM      6  C   UNL     1       4.315  -3.808 -13.973  1.00  0.00     0.009 C 
BRANCH   6   7
ATOM      7  C   UNL     1       5.373  -3.018 -13.167  1.00  0.00     0.032 C 
ATOM      8  C   UNL     1       6.348  -2.248 -14.069  1.00  0.00     0.014 C 
BRANCH   7   9
ATOM      9  C   UNL     1       6.135  -3.961 -12.277  1.00  0.00     0.044 C 
ATOM     10  O   UNL     1       6.645  -5.013 -12.744  1.00  0.00    -0.550 OA
ATOM     11  O   UNL     1       6.262  -3.683 -10.921  1.00  0.00    -0.550 OA
ENDBRANCH   7   9
ENDBRANCH   6   7
ENDBRANCH   5   6
ENDBRANCH   4   5
ENDBRANCH   3   4
ENDBRANCH   2   3
ENDBRANCH   1   2
BRANCH   1  12
ATOM     12  C   UNL     1      -1.881  -5.465 -12.268  1.00  0.00     0.000 C 
BRANCH  12  13
ATOM     13  C   UNL     1      -2.236  -5.500 -13.759  1.00  0.00    -0.000 C 
BRANCH  13  14
ATOM     14  C   UNL     1      -3.707  -5.891 -13.965  1.00  0.00    -0.000 C 
BRANCH  14  15
ATOM     15  C   UNL     1      -3.896  -7.408 -14.125  1.00  0.00    -0.000 C 
BRANCH  15  16
ATOM     16  C   UNL     1      -4.517  -8.061 -12.878  1.00  0.00    -0.000 C 
BRANCH  16  17
ATOM     17  C   UNL     1      -4.968  -9.513 -13.145  1.00  0.00    -0.000 C 
BRANCH  17  18
ATOM     18  C   UNL     1      -3.888 -10.379 -13.816  1.00  0.00    -0.003 C 
ATOM     19  C   UNL     1      -3.436 -11.552 -12.949  1.00  0.00     0.004 C 
ENDBRANCH  17  18
ENDBRANCH  16  17
ENDBRANCH  15  16
ENDBRANCH  14  15
ENDBRANCH  13  14
ENDBRANCH  12  13
ENDBRANCH   1  12
TORSDOF 14
ENDMDL
MODEL 7
REMARK VINA RESULT:     4.330     20.922     23.369
REMARK INTER + INTRA:           7.757
REMARK INTER:                   8.155
REMARK INTRA:                  -0.398
REMARK UNBOUND:                -0.118
REMARK SMILES CCCCCCCCCCCCCC[C@H](C)C(=O)[O-]
REMARK SMILES IDX 9 1 10 2 11 3 12 4 13 5 14 6 15 7 16 8 17 9 18 10 19 11 8 12
REMARK SMILES IDX 7 13 6 14 5 15 4 16 3 17 2 18 1 19
REMARK H PARENT
REMARK Flexibility Score: inf
ROOT
ATOM      1  C   UNL     1       3.336   6.874  -1.343  1.00  0.00     0.000 C 
ENDROOT
BRANCH   1   2
ATOM      2  C   UNL     1       2.743   6.928   0.076  1.00  0.00     0.000 C 
BRANCH   2   3
ATOM      3  C   UNL     1       3.503   6.106   1.133  1.00  0.00     0.000 C 
BRANCH   3   4
ATOM      4  C   UNL     1       3.099   6.458   2.573  1.00  0.00     0.000 C 
BRANCH   4   5
ATOM      5  C   UNL     1       2.768   5.192   3.375  1.00  0.00     0.001 C 
BRANCH   5   6
ATOM      6  C   UNL     1       3.434   5.167   4.764  1.00  0.00     0.009 C 
BRANCH   6   7
ATOM      7  C   UNL     1       3.238   3.858   5.564  1.00  0.00     0.032 C 
ATOM      8  C   UNL     1       4.224   2.758   5.145  1.00  0.00     0.014 C 
BRANCH   7   9
ATOM      9  C   UNL     1       1.825   3.371   5.395  1.00  0.00     0.044 C 
ATOM     10  O   UNL     1       0.854   4.072   5.783  1.00  0.00    -0.550 OA
ATOM     11  O   UNL     1       1.586   2.126   4.825  1.00  0.00    -0.550 OA
ENDBRANCH   7   9
ENDBRANCH   6   7
ENDBRANCH   5   6
ENDBRANCH   4   5
ENDBRANCH   3   4
ENDBRANCH   2   3
ENDBRANCH   1   2
BRANCH   1  12
ATOM     12  C   UNL     1       3.014   8.125  -2.176  1.00  0.00     0.000 C 
BRANCH  12  13
ATOM     13  C   UNL     1       3.542   7.982  -3.609  1.00  0.00    -0.000 C 
BRANCH  13  14
ATOM     14  C   UNL     1       2.384   7.898  -4.615  1.00  0.00    -0.000 C 
BRANCH  14  15
ATOM     15  C   UNL     1       2.846   8.124  -6.064  1.00  0.00    -0.000 C 
BRANCH  15  16
ATOM     16  C   UNL     1       4.180   7.423  -6.375  1.00  0.00    -0.000 C 
BRANCH  16  17
ATOM     17  C   UNL     1       4.254   6.938  -7.839  1.00  0.00    -0.000 C 
BRANCH  17  18
ATOM     18  C   UNL     1       4.021   8.056  -8.869  1.00  0.00    -0.003 C 
ATOM     19  C   UNL     1       4.943   7.956 -10.082  1.00  0.00     0.004 C 
ENDBRANCH  17  18
ENDBRANCH  16  17
ENDBRANCH  15  16
ENDBRANCH  14  15
ENDBRANCH  13  14
ENDBRANCH  12  13
ENDBRANCH   1  12
TORSDOF 14
ENDMDL
