MODEL 1
REMARK VINA RESULT:    -4.760      0.000      0.000
REMARK INTER + INTRA:          -6.967
REMARK INTER:                  -6.708
REMARK INTRA:                  -0.259
REMARK UNBOUND:                -0.259
REMARK SMILES CCCCCCCCC(=O)[O-]
REMARK SMILES IDX 6 1 7 2 8 3 9 4 10 5 11 6 5 7 4 8 3 9 2 10 1 11
REMARK H PARENT
REMARK Flexibility Score: inf
ROOT
ATOM      1  C   UNL     1       2.905  42.120  10.653  1.00  0.00     0.000 C 
ENDROOT
BRANCH   1   2
ATOM      2  C   UNL     1       3.719  41.407  11.745  1.00  0.00     0.006 C 
BRANCH   2   3
ATOM      3  C   UNL     1       2.910  40.323  12.472  1.00  0.00     0.053 C 
BRANCH   3   4
ATOM      4  C   UNL     1       3.739  39.091  12.655  1.00  0.00     0.041 C 
ATOM      5  O   UNL     1       3.381  38.003  12.132  1.00  0.00    -0.550 OA
ATOM      6  O   UNL     1       4.882  39.132  13.445  1.00  0.00    -0.550 OA
ENDBRANCH   3   4
ENDBRANCH   2   3
ENDBRANCH   1   2
BRANCH   1   7
ATOM      7  C   UNL     1       3.654  43.315  10.042  1.00  0.00     0.000 C 
BRANCH   7   8
ATOM      8  C   UNL     1       4.361  44.133  11.132  1.00  0.00    -0.000 C 
BRANCH   8   9
ATOM      9  C   UNL     1       4.182  45.649  10.944  1.00  0.00    -0.000 C 
BRANCH   9  10
ATOM     10  C   UNL     1       4.470  46.105   9.506  1.00  0.00    -0.003 C 
ATOM     11  C   UNL     1       5.709  46.995   9.450  1.00  0.00     0.004 C 
ENDBRANCH   9  10
ENDBRANCH   8   9
ENDBRANCH   7   8
ENDBRANCH   1   7
TORSDOF 7
ENDMDL
MODEL 2
REMARK VINA RESULT:    -4.703      1.878      2.990
REMARK INTER + INTRA:          -6.886
REMARK INTER:                  -6.551
REMARK INTRA:                  -0.335
REMARK UNBOUND:                -0.259
REMARK SMILES CCCCCCCCC(=O)[O-]
REMARK SMILES IDX 6 1 7 2 8 3 9 4 10 5 11 6 5 7 4 8 3 9 2 10 1 11
REMARK H PARENT
REMARK Flexibility Score: inf
ROOT
ATOM      1  C   UNL     1       4.193  44.374  11.230  1.00  0.00     0.000 C 
ENDROOT
BRANCH   1   2
ATOM      2  C   UNL     1       4.017  43.452  10.013  1.00  0.00     0.006 C 
BRANCH   2   3
ATOM      3  C   UNL     1       2.732  42.615  10.087  1.00  0.00     0.053 C 
BRANCH   3   4
ATOM      4  C   UNL     1       2.612  41.965  11.429  1.00  0.00     0.041 C 
ATOM      5  O   UNL     1       1.740  42.358  12.249  1.00  0.00    -0.550 OA
ATOM      6  O   UNL     1       3.495  40.956  11.795  1.00  0.00    -0.550 OA
ENDBRANCH   3   4
ENDBRANCH   2   3
ENDBRANCH   1   2
BRANCH   1   7
ATOM      7  C   UNL     1       4.465  45.834  10.833  1.00  0.00     0.000 C 
BRANCH   7   8
ATOM      8  C   UNL     1       4.032  46.096   9.383  1.00  0.00    -0.000 C 
BRANCH   8   9
ATOM      9  C   UNL     1       4.629  47.393   8.812  1.00  0.00    -0.000 C 
BRANCH   9  10
ATOM     10  C   UNL     1       6.104  47.585   9.195  1.00  0.00    -0.003 C 
ATOM     11  C   UNL     1       6.501  49.057   9.130  1.00  0.00     0.004 C 
ENDBRANCH   9  10
ENDBRANCH   8   9
ENDBRANCH   7   8
ENDBRANCH   1   7
TORSDOF 7
ENDMDL
MODEL 3
REMARK VINA RESULT:    -4.680      4.613      6.704
REMARK INTER + INTRA:          -6.855
REMARK INTER:                  -6.261
REMARK INTRA:                  -0.594
REMARK UNBOUND:                -0.259
REMARK SMILES CCCCCCCCC(=O)[O-]
REMARK SMILES IDX 6 1 7 2 8 3 9 4 10 5 11 6 5 7 4 8 3 9 2 10 1 11
REMARK H PARENT
REMARK Flexibility Score: inf
ROOT
ATOM      1  C   UNL     1       4.134  45.729  10.968  1.00  0.00     0.000 C 
ENDROOT
BRANCH   1   2
ATOM      2  C   UNL     1       4.786  45.907   9.587  1.00  0.00     0.006 C 
BRANCH   2   3
ATOM      3  C   UNL     1       4.703  47.353   9.078  1.00  0.00     0.053 C 
BRANCH   3   4
ATOM      4  C   UNL     1       6.060  47.984   9.085  1.00  0.00     0.041 C 
ATOM      5  O   UNL     1       7.064  47.327   9.466  1.00  0.00    -0.550 OA
ATOM      6  O   UNL     1       6.209  49.316   8.716  1.00  0.00    -0.550 OA
ENDBRANCH   3   4
ENDBRANCH   2   3
ENDBRANCH   1   2
BRANCH   1   7
ATOM      7  C   UNL     1       4.501  44.390  11.627  1.00  0.00     0.000 C 
BRANCH   7   8
ATOM      8  C   UNL     1       4.168  43.213  10.697  1.00  0.00    -0.000 C 
BRANCH   8   9
ATOM      9  C   UNL     1       2.656  42.958  10.583  1.00  0.00    -0.000 C 
BRANCH   9  10
ATOM     10  C   UNL     1       2.126  43.168   9.157  1.00  0.00    -0.003 C 
ATOM     11  C   UNL     1       1.186  44.369   9.092  1.00  0.00     0.004 C 
ENDBRANCH   9  10
ENDBRANCH   8   9
ENDBRANCH   7   8
ENDBRANCH   1   7
TORSDOF 7
ENDMDL
MODEL 4
REMARK VINA RESULT:    -4.665      4.582      7.123
REMARK INTER + INTRA:          -6.833
REMARK INTER:                  -6.488
REMARK INTRA:                  -0.346
REMARK UNBOUND:                -0.259
REMARK SMILES CCCCCCCCC(=O)[O-]
REMARK SMILES IDX 6 1 7 2 8 3 9 4 10 5 11 6 5 7 4 8 3 9 2 10 1 11
REMARK H PARENT
REMARK Flexibility Score: inf
ROOT
ATOM      1  C   UNL     1       4.155  46.156  10.628  1.00  0.00     0.000 C 
ENDROOT
BRANCH   1   2
ATOM      2  C   UNL     1       4.873  46.300   9.277  1.00  0.00     0.006 C 
BRANCH   2   3
ATOM      3  C   UNL     1       4.939  47.755   8.795  1.00  0.00     0.053 C 
BRANCH   3   4
ATOM      4  C   UNL     1       6.276  48.349   9.113  1.00  0.00     0.041 C 
ATOM      5  O   UNL     1       6.465  49.587   8.991  1.00  0.00    -0.550 OA
ATOM      6  O   UNL     1       7.328  47.527   9.498  1.00  0.00    -0.550 OA
ENDBRANCH   3   4
ENDBRANCH   2   3
ENDBRANCH   1   2
BRANCH   1   7
ATOM      7  C   UNL     1       3.904  44.689  11.013  1.00  0.00     0.000 C 
BRANCH   7   8
ATOM      8  C   UNL     1       3.818  43.803   9.761  1.00  0.00    -0.000 C 
BRANCH   8   9
ATOM      9  C   UNL     1       2.805  42.656   9.917  1.00  0.00    -0.000 C 
BRANCH   9  10
ATOM     10  C   UNL     1       2.517  42.316  11.387  1.00  0.00    -0.003 C 
ATOM     11  C   UNL     1       3.262  41.054  11.815  1.00  0.00     0.004 C 
ENDBRANCH   9  10
ENDBRANCH   8   9
ENDBRANCH   7   8
ENDBRANCH   1   7
TORSDOF 7
ENDMDL
MODEL 5
REMARK VINA RESULT:    -4.610      4.723      6.651
REMARK INTER + INTRA:          -6.756
REMARK INTER:                  -6.168
REMARK INTRA:                  -0.588
REMARK UNBOUND:                -0.259
REMARK SMILES CCCCCCCCC(=O)[O-]
REMARK SMILES IDX 6 1 7 2 8 3 9 4 10 5 11 6 5 7 4 8 3 9 2 10 1 11
REMARK H PARENT
REMARK Flexibility Score: inf
ROOT
ATOM      1  C   UNL     1       4.571  45.581  11.014  1.00  0.00     0.000 C 
ENDROOT
BRANCH   1   2
ATOM      2  C   UNL     1       4.219  45.544   9.518  1.00  0.00     0.006 C 
BRANCH   2   3
ATOM      3  C   UNL     1       3.365  46.742   9.082  1.00  0.00     0.053 C 
BRANCH   3   4
ATOM      4  C   UNL     1       4.198  47.726   8.323  1.00  0.00     0.041 C 
ATOM      5  O   UNL     1       3.759  48.246   7.264  1.00  0.00    -0.550 OA
ATOM      6  O   UNL     1       5.482  48.033   8.759  1.00  0.00    -0.550 OA
ENDBRANCH   3   4
ENDBRANCH   2   3
ENDBRANCH   1   2
BRANCH   1   7
ATOM      7  C   UNL     1       4.515  44.193  11.670  1.00  0.00     0.000 C 
BRANCH   7   8
ATOM      8  C   UNL     1       4.121  43.119  10.646  1.00  0.00    -0.000 C 
BRANCH   8   9
ATOM      9  C   UNL     1       2.877  42.322  11.073  1.00  0.00    -0.000 C 
BRANCH   9  10
ATOM     10  C   UNL     1       1.909  43.150  11.932  1.00  0.00    -0.003 C 
ATOM     11  C   UNL     1       1.034  44.049  11.063  1.00  0.00     0.004 C 
ENDBRANCH   9  10
ENDBRANCH   8   9
ENDBRANCH   7   8
ENDBRANCH   1   7
TORSDOF 7
ENDMDL
MODEL 6
REMARK VINA RESULT:    -4.598      4.225      6.508
REMARK INTER + INTRA:          -6.739
REMARK INTER:                  -6.363
REMARK INTRA:                  -0.376
REMARK UNBOUND:                -0.259
REMARK SMILES CCCCCCCCC(=O)[O-]
REMARK SMILES IDX 6 1 7 2 8 3 9 4 10 5 11 6 5 7 4 8 3 9 2 10 1 11
REMARK H PARENT
REMARK Flexibility Score: inf
ROOT
ATOM      1  C   UNL     1       4.006  44.227  11.722  1.00  0.00     0.000 C 
ENDROOT
BRANCH   1   2
ATOM      2  C   UNL     1       4.503  45.502  11.022  1.00  0.00     0.006 C 
BRANCH   2   3
ATOM      3  C   UNL     1       4.157  45.528   9.527  1.00  0.00     0.053 C 
BRANCH   3   4
ATOM      4  C   UNL     1       3.572  46.853   9.151  1.00  0.00     0.041 C 
ATOM      5  O   UNL     1       2.401  47.152   9.503  1.00  0.00    -0.550 OA
ATOM      6  O   UNL     1       4.302  47.739   8.368  1.00  0.00    -0.550 OA
ENDBRANCH   3   4
ENDBRANCH   2   3
ENDBRANCH   1   2
BRANCH   1   7
ATOM      7  C   UNL     1       2.535  43.912  11.405  1.00  0.00     0.000 C 
BRANCH   7   8
ATOM      8  C   UNL     1       2.147  42.523  11.933  1.00  0.00    -0.000 C 
BRANCH   8   9
ATOM      9  C   UNL     1       3.067  41.410  11.403  1.00  0.00    -0.000 C 
BRANCH   9  10
ATOM     10  C   UNL     1       3.084  40.172  12.311  1.00  0.00    -0.003 C 
ATOM     11  C   UNL     1       4.504  39.840  12.762  1.00  0.00     0.004 C 
ENDBRANCH   9  10
ENDBRANCH   8   9
ENDBRANCH   7   8
ENDBRANCH   1   7
TORSDOF 7
ENDMDL
MODEL 7
REMARK VINA RESULT:    -4.591      4.718      6.658
REMARK INTER + INTRA:          -6.729
REMARK INTER:                  -6.202
REMARK INTRA:                  -0.527
REMARK UNBOUND:                -0.259
REMARK SMILES CCCCCCCCC(=O)[O-]
REMARK SMILES IDX 6 1 7 2 8 3 9 4 10 5 11 6 5 7 4 8 3 9 2 10 1 11
REMARK H PARENT
REMARK Flexibility Score: inf
ROOT
ATOM      1  C   UNL     1       2.700  46.481   9.709  1.00  0.00     0.000 C 
ENDROOT
BRANCH   1   2
ATOM      2  C   UNL     1       3.949  46.976   8.962  1.00  0.00     0.006 C 
BRANCH   2   3
ATOM      3  C   UNL     1       5.240  46.764   9.764  1.00  0.00     0.053 C 
BRANCH   3   4
ATOM      4  C   UNL     1       6.308  47.695   9.285  1.00  0.00     0.041 C 
ATOM      5  O   UNL     1       7.523  47.404   9.448  1.00  0.00    -0.550 OA
ATOM      6  O   UNL     1       5.964  48.910   8.703  1.00  0.00    -0.550 OA
ENDBRANCH   3   4
ENDBRANCH   2   3
ENDBRANCH   1   2
BRANCH   1   7
ATOM      7  C   UNL     1       2.443  44.979   9.505  1.00  0.00     0.000 C 
BRANCH   7   8
ATOM      8  C   UNL     1       1.773  44.365  10.743  1.00  0.00    -0.000 C 
BRANCH   8   9
ATOM      9  C   UNL     1       2.456  43.067  11.204  1.00  0.00    -0.000 C 
BRANCH   9  10
ATOM     10  C   UNL     1       3.989  43.163  11.179  1.00  0.00    -0.003 C 
ATOM     11  C   UNL     1       4.499  44.098  12.272  1.00  0.00     0.004 C 
ENDBRANCH   9  10
ENDBRANCH   8   9
ENDBRANCH   7   8
ENDBRANCH   1   7
TORSDOF 7
ENDMDL
MODEL 8
REMARK VINA RESULT:    -4.489      2.240      3.303
REMARK INTER + INTRA:          -6.586
REMARK INTER:                  -6.052
REMARK INTRA:                  -0.533
REMARK UNBOUND:                -0.259
REMARK SMILES CCCCCCCCC(=O)[O-]
REMARK SMILES IDX 6 1 7 2 8 3 9 4 10 5 11 6 5 7 4 8 3 9 2 10 1 11
REMARK H PARENT
REMARK Flexibility Score: inf
ROOT
ATOM      1  C   UNL     1       4.345  44.411  11.168  1.00  0.00     0.000 C 
ENDROOT
BRANCH   1   2
ATOM      2  C   UNL     1       4.057  43.493   9.969  1.00  0.00     0.006 C 
BRANCH   2   3
ATOM      3  C   UNL     1       2.686  42.809  10.066  1.00  0.00     0.053 C 
BRANCH   3   4
ATOM      4  C   UNL     1       2.571  42.054  11.353  1.00  0.00     0.041 C 
ATOM      5  O   UNL     1       3.295  41.047  11.564  1.00  0.00    -0.550 OA
ATOM      6  O   UNL     1       1.628  42.435  12.300  1.00  0.00    -0.550 OA
ENDBRANCH   3   4
ENDBRANCH   2   3
ENDBRANCH   1   2
BRANCH   1   7
ATOM      7  C   UNL     1       4.144  45.898  10.837  1.00  0.00     0.000 C 
BRANCH   7   8
ATOM      8  C   UNL     1       4.774  46.247   9.480  1.00  0.00    -0.000 C 
BRANCH   8   9
ATOM      9  C   UNL     1       3.890  47.185   8.642  1.00  0.00    -0.000 C 
BRANCH   9  10
ATOM     10  C   UNL     1       2.427  47.196   9.108  1.00  0.00    -0.003 C 
ATOM     11  C   UNL     1       1.477  47.407   7.933  1.00  0.00     0.004 C 
ENDBRANCH   9  10
ENDBRANCH   8   9
ENDBRANCH   7   8
ENDBRANCH   1   7
TORSDOF 7
ENDMDL
MODEL 9
REMARK VINA RESULT:    -4.424      2.485      3.453
REMARK INTER + INTRA:          -6.494
REMARK INTER:                  -5.909
REMARK INTRA:                  -0.585
REMARK UNBOUND:                -0.259
REMARK SMILES CCCCCCCCC(=O)[O-]
REMARK SMILES IDX 6 1 7 2 8 3 9 4 10 5 11 6 5 7 4 8 3 9 2 10 1 11
REMARK H PARENT
REMARK Flexibility Score: inf
ROOT
ATOM      1  C   UNL     1       1.597  44.656  10.075  1.00  0.00     0.000 C 
ENDROOT
BRANCH   1   2
ATOM      2  C   UNL     1       2.187  43.424   9.371  1.00  0.00     0.006 C 
BRANCH   2   3
ATOM      3  C   UNL     1       3.700  43.286   9.590  1.00  0.00     0.053 C 
BRANCH   3   4
ATOM      4  C   UNL     1       3.992  42.992  11.028  1.00  0.00     0.041 C 
ATOM      5  O   UNL     1       3.693  41.872  11.519  1.00  0.00    -0.550 OA
ATOM      6  O   UNL     1       4.552  43.972  11.839  1.00  0.00    -0.550 OA
ENDBRANCH   3   4
ENDBRANCH   2   3
ENDBRANCH   1   2
BRANCH   1   7
ATOM      7  C   UNL     1       1.543  45.891   9.162  1.00  0.00     0.000 C 
BRANCH   7   8
ATOM      8  C   UNL     1       2.504  46.981   9.660  1.00  0.00    -0.000 C 
BRANCH   8   9
ATOM      9  C   UNL     1       3.794  47.058   8.827  1.00  0.00    -0.000 C 
BRANCH   9  10
ATOM     10  C   UNL     1       5.042  46.657   9.628  1.00  0.00    -0.003 C 
ATOM     11  C   UNL     1       6.231  47.546   9.274  1.00  0.00     0.004 C 
ENDBRANCH   9  10
ENDBRANCH   8   9
ENDBRANCH   7   8
ENDBRANCH   1   7
TORSDOF 7
ENDMDL
