MODEL 1
REMARK VINA RESULT:    -6.377      0.000      0.000
REMARK INTER + INTRA:          -8.964
REMARK INTER:                  -8.614
REMARK INTRA:                  -0.350
REMARK UNBOUND:                -0.350
REMARK SMILES O=c1c(-c2ccc(O)cc2)coc2c([C@@H]3O[C@@H](CO)[C@@H](O)[C@H](O)[C@@H]3O)c(O)ccc12
REMARK SMILES IDX 3 1 11 2 12 3 13 4 30 5 2 6 1 7 29 8 28 9 26 10 14 11 4 12
REMARK SMILES IDX 5 13 6 14 7 15 10 16 9 17 8 18 15 20 24 21 16 22 22 23 17 24
REMARK SMILES IDX 20 25 25 26 23 28 18 30 19 31 21 33 27 35
REMARK H PARENT 8 19 25 27 23 29 19 32 21 34 27 36
REMARK Flexibility Score: inf
ROOT
ATOM      1  C   UNL     1     -15.162  33.147  30.314  1.00  0.00     0.065 A 
ATOM      2  C   UNL     1     -14.267  33.760  29.427  1.00  0.00     0.208 A 
ATOM      3  O   UNL     1     -13.184  33.122  29.003  1.00  0.00    -0.463 OA
ATOM      4  C   UNL     1     -12.872  31.882  29.376  1.00  0.00     0.147 A 
ATOM      5  C   UNL     1     -13.721  31.190  30.269  1.00  0.00     0.066 A 
ATOM      6  C   UNL     1     -14.883  31.833  30.732  1.00  0.00     0.200 A 
ATOM      7  O   UNL     1     -15.680  31.231  31.504  1.00  0.00    -0.288 OA
ATOM      8  C   UNL     1     -13.391  29.889  30.670  1.00  0.00     0.020 A 
ATOM      9  C   UNL     1     -12.221  29.292  30.215  1.00  0.00     0.047 A 
ATOM     10  C   UNL     1     -11.356  29.964  29.346  1.00  0.00     0.125 A 
ATOM     11  C   UNL     1     -11.694  31.267  28.875  1.00  0.00     0.069 A 
ENDROOT
BRANCH   1  12
ATOM     12  C   UNL     1     -16.365  33.882  30.780  1.00  0.00    -0.011 A 
ATOM     13  C   UNL     1     -17.570  33.799  30.060  1.00  0.00     0.013 A 
ATOM     14  C   UNL     1     -18.702  34.497  30.491  1.00  0.00     0.047 A 
ATOM     15  C   UNL     1     -18.642  35.291  31.643  1.00  0.00     0.115 A 
ATOM     16  C   UNL     1     -16.312  34.688  31.932  1.00  0.00     0.013 A 
ATOM     17  C   UNL     1     -17.445  35.386  32.360  1.00  0.00     0.047 A 
BRANCH  15  18
ATOM     18  O   UNL     1     -19.763  35.992  32.083  1.00  0.00    -0.508 OA
ATOM     19  H   UNL     1     -19.730  36.990  32.253  1.00  0.00     0.293 HD
ENDBRANCH  15  18
ENDBRANCH   1  12
BRANCH  11  20
ATOM     20  C   UNL     1     -10.827  32.043  27.885  1.00  0.00     0.188 C 
ATOM     21  C   UNL     1     -11.334  31.840  26.440  1.00  0.00     0.179 C 
ATOM     22  O   UNL     1     -10.756  33.414  28.251  1.00  0.00    -0.362 OA
ATOM     23  C   UNL     1     -10.425  32.611  25.466  1.00  0.00     0.177 C 
ATOM     24  C   UNL     1      -9.890  34.169  27.412  1.00  0.00     0.176 C 
ATOM     25  C   UNL     1     -10.298  34.072  25.916  1.00  0.00     0.177 C 
BRANCH  21  26
ATOM     26  O   UNL     1     -12.664  32.281  26.320  1.00  0.00    -0.387 OA
ATOM     27  H   UNL     1     -12.969  32.038  25.406  1.00  0.00     0.211 HD
ENDBRANCH  21  26
BRANCH  23  28
ATOM     28  O   UNL     1     -10.951  32.568  24.165  1.00  0.00    -0.387 OA
ATOM     29  H   UNL     1     -11.555  31.780  24.127  1.00  0.00     0.211 HD
ENDBRANCH  23  28
BRANCH  24  30
ATOM     30  C   UNL     1      -8.400  33.859  27.697  1.00  0.00     0.191 C 
BRANCH  30  31
ATOM     31  O   UNL     1      -8.107  34.015  29.059  1.00  0.00    -0.394 OA
ATOM     32  H   UNL     1      -8.793  34.628  29.432  1.00  0.00     0.210 HD
ENDBRANCH  30  31
ENDBRANCH  24  30
BRANCH  25  33
ATOM     33  O   UNL     1      -9.371  34.736  25.096  1.00  0.00    -0.388 OA
ATOM     34  H   UNL     1      -9.748  35.635  24.909  1.00  0.00     0.211 HD
ENDBRANCH  25  33
ENDBRANCH  11  20
BRANCH  10  35
ATOM     35  O   UNL     1     -10.179  29.298  28.995  1.00  0.00    -0.507 OA
ATOM     36  H   UNL     1     -10.072  28.699  28.190  1.00  0.00     0.293 HD
ENDBRANCH  10  35
TORSDOF 9
ENDMDL
MODEL 2
REMARK VINA RESULT:    -6.340      4.063      6.144
REMARK INTER + INTRA:          -8.914
REMARK INTER:                  -8.460
REMARK INTRA:                  -0.454
REMARK UNBOUND:                -0.350
REMARK SMILES O=c1c(-c2ccc(O)cc2)coc2c([C@@H]3O[C@@H](CO)[C@@H](O)[C@H](O)[C@@H]3O)c(O)ccc12
REMARK SMILES IDX 3 1 11 2 12 3 13 4 30 5 2 6 1 7 29 8 28 9 26 10 14 11 4 12
REMARK SMILES IDX 5 13 6 14 7 15 10 16 9 17 8 18 15 20 24 21 16 22 22 23 17 24
REMARK SMILES IDX 20 25 25 26 23 28 18 30 19 31 21 33 27 35
REMARK H PARENT 8 19 25 27 23 29 19 32 21 34 27 36
REMARK Flexibility Score: inf
ROOT
ATOM      1  C   UNL     1     -15.149  34.312  24.806  1.00  0.00     0.065 A 
ATOM      2  C   UNL     1     -15.082  33.202  25.659  1.00  0.00     0.208 A 
ATOM      3  O   UNL     1     -13.957  32.896  26.294  1.00  0.00    -0.463 OA
ATOM      4  C   UNL     1     -12.835  33.602  26.173  1.00  0.00     0.147 A 
ATOM      5  C   UNL     1     -12.814  34.738  25.333  1.00  0.00     0.066 A 
ATOM      6  C   UNL     1     -13.992  35.097  24.651  1.00  0.00     0.200 A 
ATOM      7  O   UNL     1     -14.016  36.125  23.919  1.00  0.00    -0.288 OA
ATOM      8  C   UNL     1     -11.632  35.479  25.198  1.00  0.00     0.020 A 
ATOM      9  C   UNL     1     -10.478  35.082  25.864  1.00  0.00     0.047 A 
ATOM     10  C   UNL     1     -10.470  33.951  26.685  1.00  0.00     0.125 A 
ATOM     11  C   UNL     1     -11.672  33.211  26.888  1.00  0.00     0.069 A 
ENDROOT
BRANCH   1  12
ATOM     12  C   UNL     1     -16.416  34.631  24.102  1.00  0.00    -0.011 A 
ATOM     13  C   UNL     1     -17.486  33.719  24.122  1.00  0.00     0.013 A 
ATOM     14  C   UNL     1     -18.679  34.012  23.452  1.00  0.00     0.047 A 
ATOM     15  C   UNL     1     -18.813  35.216  22.751  1.00  0.00     0.115 A 
ATOM     16  C   UNL     1     -16.558  35.834  23.389  1.00  0.00     0.013 A 
ATOM     17  C   UNL     1     -17.751  36.124  22.720  1.00  0.00     0.047 A 
BRANCH  15  18
ATOM     18  O   UNL     1     -19.996  35.519  22.080  1.00  0.00    -0.508 OA
ATOM     19  H   UNL     1     -20.256  36.477  21.872  1.00  0.00     0.293 HD
ENDBRANCH  15  18
ENDBRANCH   1  12
BRANCH  11  20
ATOM     20  C   UNL     1     -11.753  31.996  27.811  1.00  0.00     0.188 C 
ATOM     21  C   UNL     1     -11.266  30.724  27.083  1.00  0.00     0.179 C 
ATOM     22  O   UNL     1     -11.044  32.239  29.018  1.00  0.00    -0.362 OA
ATOM     23  C   UNL     1     -11.384  29.516  28.029  1.00  0.00     0.177 C 
ATOM     24  C   UNL     1     -11.157  31.173  29.953  1.00  0.00     0.176 C 
ATOM     25  C   UNL     1     -10.678  29.821  29.356  1.00  0.00     0.177 C 
BRANCH  21  26
ATOM     26  O   UNL     1      -9.935  30.881  26.656  1.00  0.00    -0.387 OA
ATOM     27  H   UNL     1      -9.851  30.408  25.787  1.00  0.00     0.211 HD
ENDBRANCH  21  26
BRANCH  23  28
ATOM     28  O   UNL     1     -10.808  28.377  27.445  1.00  0.00    -0.387 OA
ATOM     29  H   UNL     1     -10.486  27.805  28.190  1.00  0.00     0.211 HD
ENDBRANCH  23  28
BRANCH  24  30
ATOM     30  C   UNL     1     -12.559  31.129  30.608  1.00  0.00     0.191 C 
BRANCH  30  31
ATOM     31  O   UNL     1     -12.472  30.746  31.954  1.00  0.00    -0.394 OA
ATOM     32  H   UNL     1     -13.350  30.353  32.198  1.00  0.00     0.210 HD
ENDBRANCH  30  31
ENDBRANCH  24  30
BRANCH  25  33
ATOM     33  O   UNL     1     -10.897  28.766  30.257  1.00  0.00    -0.388 OA
ATOM     34  H   UNL     1     -10.159  28.798  30.920  1.00  0.00     0.211 HD
ENDBRANCH  25  33
ENDBRANCH  11  20
BRANCH  10  35
ATOM     35  O   UNL     1      -9.244  33.606  27.262  1.00  0.00    -0.507 OA
ATOM     36  H   UNL     1      -8.460  34.232  27.370  1.00  0.00     0.293 HD
ENDBRANCH  10  35
TORSDOF 9
ENDMDL
MODEL 3
REMARK VINA RESULT:    -6.201      2.940      6.571
REMARK INTER + INTRA:          -8.726
REMARK INTER:                  -8.475
REMARK INTRA:                  -0.251
REMARK UNBOUND:                -0.350
REMARK SMILES O=c1c(-c2ccc(O)cc2)coc2c([C@@H]3O[C@@H](CO)[C@@H](O)[C@H](O)[C@@H]3O)c(O)ccc12
REMARK SMILES IDX 3 1 11 2 12 3 13 4 30 5 2 6 1 7 29 8 28 9 26 10 14 11 4 12
REMARK SMILES IDX 5 13 6 14 7 15 10 16 9 17 8 18 15 20 24 21 16 22 22 23 17 24
REMARK SMILES IDX 20 25 25 26 23 28 18 30 19 31 21 33 27 35
REMARK H PARENT 8 19 25 27 23 29 19 32 21 34 27 36
REMARK Flexibility Score: inf
ROOT
ATOM      1  C   UNL     1     -13.823  28.850  31.024  1.00  0.00     0.065 A 
ATOM      2  C   UNL     1     -14.739  29.911  31.029  1.00  0.00     0.208 A 
ATOM      3  O   UNL     1     -14.380  31.123  30.623  1.00  0.00    -0.463 OA
ATOM      4  C   UNL     1     -13.155  31.416  30.190  1.00  0.00     0.147 A 
ATOM      5  C   UNL     1     -12.170  30.404  30.152  1.00  0.00     0.066 A 
ATOM      6  C   UNL     1     -12.518  29.105  30.566  1.00  0.00     0.200 A 
ATOM      7  O   UNL     1     -11.671  28.171  30.513  1.00  0.00    -0.288 OA
ATOM      8  C   UNL     1     -10.878  30.711  29.704  1.00  0.00     0.020 A 
ATOM      9  C   UNL     1     -10.559  32.011  29.327  1.00  0.00     0.047 A 
ATOM     10  C   UNL     1     -11.512  33.032  29.374  1.00  0.00     0.125 A 
ATOM     11  C   UNL     1     -12.850  32.737  29.770  1.00  0.00     0.069 A 
ENDROOT
BRANCH   1  12
ATOM     12  C   UNL     1     -14.246  27.505  31.488  1.00  0.00    -0.011 A 
ATOM     13  C   UNL     1     -14.813  26.589  30.584  1.00  0.00     0.013 A 
ATOM     14  C   UNL     1     -15.221  25.324  31.020  1.00  0.00     0.047 A 
ATOM     15  C   UNL     1     -15.070  24.961  32.364  1.00  0.00     0.115 A 
ATOM     16  C   UNL     1     -14.105  27.134  32.837  1.00  0.00     0.013 A 
ATOM     17  C   UNL     1     -14.513  25.869  33.271  1.00  0.00     0.047 A 
BRANCH  15  18
ATOM     18  O   UNL     1     -15.471  23.704  32.810  1.00  0.00    -0.508 OA
ATOM     19  H   UNL     1     -15.684  23.532  33.786  1.00  0.00     0.293 HD
ENDBRANCH  15  18
ENDBRANCH   1  12
BRANCH  11  20
ATOM     20  C   UNL     1     -13.958  33.789  29.797  1.00  0.00     0.188 C 
ATOM     21  C   UNL     1     -14.604  33.937  28.402  1.00  0.00     0.179 C 
ATOM     22  O   UNL     1     -14.910  33.486  30.808  1.00  0.00    -0.362 OA
ATOM     23  C   UNL     1     -15.696  35.020  28.455  1.00  0.00     0.177 C 
ATOM     24  C   UNL     1     -15.919  34.479  30.936  1.00  0.00     0.176 C 
ATOM     25  C   UNL     1     -16.672  34.720  29.599  1.00  0.00     0.177 C 
BRANCH  21  26
ATOM     26  O   UNL     1     -15.151  32.712  27.980  1.00  0.00    -0.387 OA
ATOM     27  H   UNL     1     -14.393  32.137  27.696  1.00  0.00     0.211 HD
ENDBRANCH  21  26
BRANCH  23  28
ATOM     28  O   UNL     1     -16.400  35.068  27.241  1.00  0.00    -0.387 OA
ATOM     29  H   UNL     1     -16.004  34.372  26.653  1.00  0.00     0.211 HD
ENDBRANCH  23  28
BRANCH  24  30
ATOM     30  C   UNL     1     -15.381  35.762  31.615  1.00  0.00     0.191 C 
BRANCH  30  31
ATOM     31  O   UNL     1     -15.595  35.724  33.000  1.00  0.00    -0.394 OA
ATOM     32  H   UNL     1     -15.000  35.018  33.363  1.00  0.00     0.210 HD
ENDBRANCH  30  31
ENDBRANCH  24  30
BRANCH  25  33
ATOM     33  O   UNL     1     -17.591  35.776  29.720  1.00  0.00    -0.388 OA
ATOM     34  H   UNL     1     -17.410  36.400  28.970  1.00  0.00     0.211 HD
ENDBRANCH  25  33
ENDBRANCH  11  20
BRANCH  10  35
ATOM     35  O   UNL     1     -11.074  34.314  29.030  1.00  0.00    -0.507 OA
ATOM     36  H   UNL     1     -11.672  35.065  28.720  1.00  0.00     0.293 HD
ENDBRANCH  10  35
TORSDOF 9
ENDMDL
MODEL 4
REMARK VINA RESULT:    -5.991      1.848      3.712
REMARK INTER + INTRA:          -8.442
REMARK INTER:                  -8.175
REMARK INTRA:                  -0.267
REMARK UNBOUND:                -0.350
REMARK SMILES O=c1c(-c2ccc(O)cc2)coc2c([C@@H]3O[C@@H](CO)[C@@H](O)[C@H](O)[C@@H]3O)c(O)ccc12
REMARK SMILES IDX 3 1 11 2 12 3 13 4 30 5 2 6 1 7 29 8 28 9 26 10 14 11 4 12
REMARK SMILES IDX 5 13 6 14 7 15 10 16 9 17 8 18 15 20 24 21 16 22 22 23 17 24
REMARK SMILES IDX 20 25 25 26 23 28 18 30 19 31 21 33 27 35
REMARK H PARENT 8 19 25 27 23 29 19 32 21 34 27 36
REMARK Flexibility Score: inf
ROOT
ATOM      1  C   UNL     1     -15.135  34.171  30.831  1.00  0.00     0.065 A 
ATOM      2  C   UNL     1     -15.033  32.879  30.298  1.00  0.00     0.208 A 
ATOM      3  O   UNL     1     -13.878  32.424  29.829  1.00  0.00    -0.463 OA
ATOM      4  C   UNL     1     -12.756  33.140  29.827  1.00  0.00     0.147 A 
ATOM      5  C   UNL     1     -12.770  34.455  30.345  1.00  0.00     0.066 A 
ATOM      6  C   UNL     1     -13.975  34.967  30.860  1.00  0.00     0.200 A 
ATOM      7  O   UNL     1     -14.013  36.125  31.361  1.00  0.00    -0.288 OA
ATOM      8  C   UNL     1     -11.592  35.215  30.338  1.00  0.00     0.020 A 
ATOM      9  C   UNL     1     -10.424  34.689  29.797  1.00  0.00     0.047 A 
ATOM     10  C   UNL     1     -10.392  33.398  29.262  1.00  0.00     0.125 A 
ATOM     11  C   UNL     1     -11.560  32.580  29.308  1.00  0.00     0.069 A 
ENDROOT
BRANCH   1  12
ATOM     12  C   UNL     1     -16.438  34.662  31.345  1.00  0.00    -0.011 A 
ATOM     13  C   UNL     1     -17.566  34.689  30.504  1.00  0.00     0.013 A 
ATOM     14  C   UNL     1     -18.793  35.159  30.983  1.00  0.00     0.047 A 
ATOM     15  C   UNL     1     -18.907  35.611  32.303  1.00  0.00     0.115 A 
ATOM     16  C   UNL     1     -16.560  35.124  32.667  1.00  0.00     0.013 A 
ATOM     17  C   UNL     1     -17.789  35.593  33.142  1.00  0.00     0.047 A 
BRANCH  15  18
ATOM     18  O   UNL     1     -20.125  36.080  32.791  1.00  0.00    -0.508 OA
ATOM     19  H   UNL     1     -20.892  35.450  32.993  1.00  0.00     0.293 HD
ENDBRANCH  15  18
ENDBRANCH   1  12
BRANCH  11  20
ATOM     20  C   UNL     1     -11.587  31.143  28.791  1.00  0.00     0.188 C 
ATOM     21  C   UNL     1     -11.490  31.116  27.250  1.00  0.00     0.179 C 
ATOM     22  O   UNL     1     -10.572  30.369  29.414  1.00  0.00    -0.362 OA
ATOM     23  C   UNL     1     -11.547  29.658  26.759  1.00  0.00     0.177 C 
ATOM     24  C   UNL     1     -10.605  28.999  29.034  1.00  0.00     0.176 C 
ATOM     25  C   UNL     1     -10.495  28.819  27.495  1.00  0.00     0.177 C 
BRANCH  21  26
ATOM     26  O   UNL     1     -10.300  31.730  26.821  1.00  0.00    -0.387 OA
ATOM     27  H   UNL     1     -10.459  32.710  26.828  1.00  0.00     0.211 HD
ENDBRANCH  21  26
BRANCH  23  28
ATOM     28  O   UNL     1     -11.309  29.596  25.376  1.00  0.00    -0.387 OA
ATOM     29  H   UNL     1     -11.030  30.506  25.093  1.00  0.00     0.211 HD
ENDBRANCH  23  28
BRANCH  24  30
ATOM     30  C   UNL     1     -11.791  28.249  29.690  1.00  0.00     0.191 C 
BRANCH  30  31
ATOM     31  O   UNL     1     -11.631  28.178  31.081  1.00  0.00    -0.394 OA
ATOM     32  H   UNL     1     -10.779  28.639  31.296  1.00  0.00     0.210 HD
ENDBRANCH  30  31
ENDBRANCH  24  30
BRANCH  25  33
ATOM     33  O   UNL     1     -10.636  27.468  27.133  1.00  0.00    -0.388 OA
ATOM     34  H   UNL     1     -11.588  27.230  27.285  1.00  0.00     0.211 HD
ENDBRANCH  25  33
ENDBRANCH  11  20
BRANCH  10  35
ATOM     35  O   UNL     1      -9.184  32.987  28.691  1.00  0.00    -0.507 OA
ATOM     36  H   UNL     1      -8.270  33.175  29.075  1.00  0.00     0.293 HD
ENDBRANCH  10  35
TORSDOF 9
ENDMDL
MODEL 5
REMARK VINA RESULT:    -5.904      3.594      5.851
REMARK INTER + INTRA:          -8.325
REMARK INTER:                  -8.688
REMARK INTRA:                   0.363
REMARK UNBOUND:                -0.350
REMARK SMILES O=c1c(-c2ccc(O)cc2)coc2c([C@@H]3O[C@@H](CO)[C@@H](O)[C@H](O)[C@@H]3O)c(O)ccc12
REMARK SMILES IDX 3 1 11 2 12 3 13 4 30 5 2 6 1 7 29 8 28 9 26 10 14 11 4 12
REMARK SMILES IDX 5 13 6 14 7 15 10 16 9 17 8 18 15 20 24 21 16 22 22 23 17 24
REMARK SMILES IDX 20 25 25 26 23 28 18 30 19 31 21 33 27 35
REMARK H PARENT 8 19 25 27 23 29 19 32 21 34 27 36
REMARK Flexibility Score: inf
ROOT
ATOM      1  C   UNL     1     -14.489  34.367  25.352  1.00  0.00     0.065 A 
ATOM      2  C   UNL     1     -14.310  33.222  26.139  1.00  0.00     0.208 A 
ATOM      3  O   UNL     1     -13.095  32.809  26.475  1.00  0.00    -0.463 OA
ATOM      4  C   UNL     1     -11.980  33.433  26.100  1.00  0.00     0.147 A 
ATOM      5  C   UNL     1     -12.069  34.597  25.303  1.00  0.00     0.066 A 
ATOM      6  C   UNL     1     -13.343  35.069  24.936  1.00  0.00     0.200 A 
ATOM      7  O   UNL     1     -13.458  36.125  24.254  1.00  0.00    -0.288 OA
ATOM      8  C   UNL     1     -10.898  35.252  24.900  1.00  0.00     0.020 A 
ATOM      9  C   UNL     1      -9.654  34.743  25.257  1.00  0.00     0.047 A 
ATOM     10  C   UNL     1      -9.541  33.583  26.029  1.00  0.00     0.125 A 
ATOM     11  C   UNL     1     -10.716  32.928  26.502  1.00  0.00     0.069 A 
ENDROOT
BRANCH   1  12
ATOM     12  C   UNL     1     -15.858  34.808  24.984  1.00  0.00    -0.011 A 
ATOM     13  C   UNL     1     -16.406  34.452  23.738  1.00  0.00     0.013 A 
ATOM     14  C   UNL     1     -17.691  34.873  23.384  1.00  0.00     0.047 A 
ATOM     15  C   UNL     1     -18.442  35.658  24.268  1.00  0.00     0.115 A 
ATOM     16  C   UNL     1     -16.616  35.603  25.861  1.00  0.00     0.013 A 
ATOM     17  C   UNL     1     -17.902  36.023  25.504  1.00  0.00     0.047 A 
BRANCH  15  18
ATOM     18  O   UNL     1     -19.725  36.083  23.927  1.00  0.00    -0.508 OA
ATOM     19  H   UNL     1     -20.545  35.726  24.403  1.00  0.00     0.293 HD
ENDBRANCH  15  18
ENDBRANCH   1  12
BRANCH  11  20
ATOM     20  C   UNL     1     -10.672  31.686  27.392  1.00  0.00     0.188 C 
ATOM     21  C   UNL     1     -10.910  32.066  28.870  1.00  0.00     0.179 C 
ATOM     22  O   UNL     1     -11.589  30.706  26.927  1.00  0.00    -0.362 OA
ATOM     23  C   UNL     1     -10.834  30.801  29.743  1.00  0.00     0.177 C 
ATOM     24  C   UNL     1     -11.529  29.493  27.667  1.00  0.00     0.176 C 
ATOM     25  C   UNL     1     -11.773  29.724  29.184  1.00  0.00     0.177 C 
BRANCH  21  26
ATOM     26  O   UNL     1     -12.162  32.689  29.022  1.00  0.00    -0.387 OA
ATOM     27  H   UNL     1     -12.813  32.172  28.478  1.00  0.00     0.211 HD
ENDBRANCH  21  26
BRANCH  23  28
ATOM     28  O   UNL     1     -11.196  31.094  31.067  1.00  0.00    -0.387 OA
ATOM     29  H   UNL     1     -12.188  31.153  31.087  1.00  0.00     0.211 HD
ENDBRANCH  23  28
BRANCH  24  30
ATOM     30  C   UNL     1     -10.255  28.679  27.335  1.00  0.00     0.191 C 
BRANCH  30  31
ATOM     31  O   UNL     1      -9.261  29.504  26.790  1.00  0.00    -0.394 OA
ATOM     32  H   UNL     1      -9.046  29.139  25.892  1.00  0.00     0.210 HD
ENDBRANCH  30  31
ENDBRANCH  24  30
BRANCH  25  33
ATOM     33  O   UNL     1     -11.606  28.533  29.910  1.00  0.00    -0.388 OA
ATOM     34  H   UNL     1     -10.696  28.197  29.701  1.00  0.00     0.211 HD
ENDBRANCH  25  33
ENDBRANCH  11  20
BRANCH  10  35
ATOM     35  O   UNL     1      -8.246  33.124  26.283  1.00  0.00    -0.507 OA
ATOM     36  H   UNL     1      -7.401  33.643  26.090  1.00  0.00     0.293 HD
ENDBRANCH  10  35
TORSDOF 9
ENDMDL
MODEL 6
REMARK VINA RESULT:    -5.789      3.692      6.119
REMARK INTER + INTRA:          -8.169
REMARK INTER:                  -6.903
REMARK INTRA:                  -1.266
REMARK UNBOUND:                -0.350
REMARK SMILES O=c1c(-c2ccc(O)cc2)coc2c([C@@H]3O[C@@H](CO)[C@@H](O)[C@H](O)[C@@H]3O)c(O)ccc12
REMARK SMILES IDX 3 1 11 2 12 3 13 4 30 5 2 6 1 7 29 8 28 9 26 10 14 11 4 12
REMARK SMILES IDX 5 13 6 14 7 15 10 16 9 17 8 18 15 20 24 21 16 22 22 23 17 24
REMARK SMILES IDX 20 25 25 26 23 28 18 30 19 31 21 33 27 35
REMARK H PARENT 8 19 25 27 23 29 19 32 21 34 27 36
REMARK Flexibility Score: inf
ROOT
ATOM      1  C   UNL     1     -16.502  33.858  26.577  1.00  0.00     0.065 A 
ATOM      2  C   UNL     1     -16.102  32.558  26.916  1.00  0.00     0.208 A 
ATOM      3  O   UNL     1     -15.255  32.345  27.915  1.00  0.00    -0.463 OA
ATOM      4  C   UNL     1     -14.733  33.322  28.653  1.00  0.00     0.147 A 
ATOM      5  C   UNL     1     -15.083  34.664  28.378  1.00  0.00     0.066 A 
ATOM      6  C   UNL     1     -15.987  34.927  27.332  1.00  0.00     0.200 A 
ATOM      7  O   UNL     1     -16.346  36.111  27.083  1.00  0.00    -0.288 OA
ATOM      8  C   UNL     1     -14.530  35.696  29.148  1.00  0.00     0.020 A 
ATOM      9  C   UNL     1     -13.619  35.404  30.157  1.00  0.00     0.047 A 
ATOM     10  C   UNL     1     -13.243  34.086  30.434  1.00  0.00     0.125 A 
ATOM     11  C   UNL     1     -13.834  33.012  29.706  1.00  0.00     0.069 A 
ENDROOT
BRANCH   1  12
ATOM     12  C   UNL     1     -17.447  34.073  25.452  1.00  0.00    -0.011 A 
ATOM     13  C   UNL     1     -18.820  33.819  25.621  1.00  0.00     0.013 A 
ATOM     14  C   UNL     1     -19.711  34.012  24.561  1.00  0.00     0.047 A 
ATOM     15  C   UNL     1     -19.241  34.456  23.319  1.00  0.00     0.115 A 
ATOM     16  C   UNL     1     -16.983  34.513  24.199  1.00  0.00     0.013 A 
ATOM     17  C   UNL     1     -17.876  34.704  23.141  1.00  0.00     0.047 A 
BRANCH  15  18
ATOM     18  O   UNL     1     -20.119  34.653  22.255  1.00  0.00    -0.508 OA
ATOM     19  H   UNL     1     -19.818  34.544  21.293  1.00  0.00     0.293 HD
ENDBRANCH  15  18
ENDBRANCH   1  12
BRANCH  11  20
ATOM     20  C   UNL     1     -13.512  31.544  29.986  1.00  0.00     0.188 C 
ATOM     21  C   UNL     1     -12.291  31.085  29.159  1.00  0.00     0.179 C 
ATOM     22  O   UNL     1     -13.339  31.329  31.380  1.00  0.00    -0.362 OA
ATOM     23  C   UNL     1     -12.010  29.600  29.444  1.00  0.00     0.177 C 
ATOM     24  C   UNL     1     -13.122  29.963  31.709  1.00  0.00     0.176 C 
ATOM     25  C   UNL     1     -11.899  29.369  30.956  1.00  0.00     0.177 C 
BRANCH  21  26
ATOM     26  O   UNL     1     -11.164  31.865  29.474  1.00  0.00    -0.387 OA
ATOM     27  H   UNL     1     -11.315  32.244  30.379  1.00  0.00     0.211 HD
ENDBRANCH  21  26
BRANCH  23  28
ATOM     28  O   UNL     1     -10.816  29.198  28.822  1.00  0.00    -0.387 OA
ATOM     29  H   UNL     1     -10.598  29.893  28.147  1.00  0.00     0.211 HD
ENDBRANCH  23  28
BRANCH  24  30
ATOM     30  C   UNL     1     -14.421  29.129  31.588  1.00  0.00     0.191 C 
BRANCH  30  31
ATOM     31  O   UNL     1     -14.330  27.946  32.336  1.00  0.00    -0.394 OA
ATOM     32  H   UNL     1     -14.430  28.201  33.289  1.00  0.00     0.210 HD
ENDBRANCH  30  31
ENDBRANCH  24  30
BRANCH  25  33
ATOM     33  O   UNL     1     -11.767  27.995  31.213  1.00  0.00    -0.388 OA
ATOM     34  H   UNL     1     -10.798  27.819  31.338  1.00  0.00     0.211 HD
ENDBRANCH  25  33
ENDBRANCH  11  20
BRANCH  10  35
ATOM     35  O   UNL     1     -12.278  33.907  31.428  1.00  0.00    -0.507 OA
ATOM     36  H   UNL     1     -11.526  34.551  31.627  1.00  0.00     0.293 HD
ENDBRANCH  10  35
TORSDOF 9
ENDMDL
MODEL 7
REMARK VINA RESULT:    -5.634      4.395      6.195
REMARK INTER + INTRA:          -7.960
REMARK INTER:                  -6.769
REMARK INTRA:                  -1.191
REMARK UNBOUND:                -0.350
REMARK SMILES O=c1c(-c2ccc(O)cc2)coc2c([C@@H]3O[C@@H](CO)[C@@H](O)[C@H](O)[C@@H]3O)c(O)ccc12
REMARK SMILES IDX 3 1 11 2 12 3 13 4 30 5 2 6 1 7 29 8 28 9 26 10 14 11 4 12
REMARK SMILES IDX 5 13 6 14 7 15 10 16 9 17 8 18 15 20 24 21 16 22 22 23 17 24
REMARK SMILES IDX 20 25 25 26 23 28 18 30 19 31 21 33 27 35
REMARK H PARENT 8 19 25 27 23 29 19 32 21 34 27 36
REMARK Flexibility Score: inf
ROOT
ATOM      1  C   UNL     1     -17.262  34.047  25.270  1.00  0.00     0.065 A 
ATOM      2  C   UNL     1     -15.903  33.704  25.273  1.00  0.00     0.208 A 
ATOM      3  O   UNL     1     -15.293  33.344  26.395  1.00  0.00    -0.463 OA
ATOM      4  C   UNL     1     -15.908  33.281  27.574  1.00  0.00     0.147 A 
ATOM      5  C   UNL     1     -17.280  33.611  27.662  1.00  0.00     0.066 A 
ATOM      6  C   UNL     1     -17.961  33.988  26.490  1.00  0.00     0.200 A 
ATOM      7  O   UNL     1     -19.194  34.256  26.527  1.00  0.00    -0.288 OA
ATOM      8  C   UNL     1     -17.929  33.553  28.902  1.00  0.00     0.020 A 
ATOM      9  C   UNL     1     -17.220  33.203  30.046  1.00  0.00     0.047 A 
ATOM     10  C   UNL     1     -15.859  32.891  29.987  1.00  0.00     0.125 A 
ATOM     11  C   UNL     1     -15.186  32.885  28.730  1.00  0.00     0.069 A 
ENDROOT
BRANCH   1  12
ATOM     12  C   UNL     1     -17.922  34.452  24.004  1.00  0.00    -0.011 A 
ATOM     13  C   UNL     1     -17.706  35.736  23.472  1.00  0.00     0.013 A 
ATOM     14  C   UNL     1     -18.333  36.125  22.285  1.00  0.00     0.047 A 
ATOM     15  C   UNL     1     -19.187  35.238  21.617  1.00  0.00     0.115 A 
ATOM     16  C   UNL     1     -18.786  33.570  23.330  1.00  0.00     0.013 A 
ATOM     17  C   UNL     1     -19.412  33.962  22.143  1.00  0.00     0.047 A 
BRANCH  15  18
ATOM     18  O   UNL     1     -19.817  35.614  20.432  1.00  0.00    -0.508 OA
ATOM     19  H   UNL     1     -19.285  35.894  19.616  1.00  0.00     0.293 HD
ENDBRANCH  15  18
ENDBRANCH   1  12
BRANCH  11  20
ATOM     20  C   UNL     1     -13.713  32.505  28.579  1.00  0.00     0.188 C 
ATOM     21  C   UNL     1     -12.803  33.708  28.907  1.00  0.00     0.179 C 
ATOM     22  O   UNL     1     -13.410  31.362  29.367  1.00  0.00    -0.362 OA
ATOM     23  C   UNL     1     -11.330  33.302  28.721  1.00  0.00     0.177 C 
ATOM     24  C   UNL     1     -12.072  30.910  29.198  1.00  0.00     0.176 C 
ATOM     25  C   UNL     1     -11.037  32.025  29.517  1.00  0.00     0.177 C 
BRANCH  21  26
ATOM     26  O   UNL     1     -13.025  34.149  30.224  1.00  0.00    -0.387 OA
ATOM     27  H   UNL     1     -12.551  35.016  30.325  1.00  0.00     0.211 HD
ENDBRANCH  21  26
BRANCH  23  28
ATOM     28  O   UNL     1     -10.478  34.330  29.156  1.00  0.00    -0.387 OA
ATOM     29  H   UNL     1      -9.554  33.966  29.128  1.00  0.00     0.211 HD
ENDBRANCH  23  28
BRANCH  24  30
ATOM     30  C   UNL     1     -11.868  30.211  27.832  1.00  0.00     0.191 C 
BRANCH  30  31
ATOM     31  O   UNL     1     -10.951  29.156  27.941  1.00  0.00    -0.394 OA
ATOM     32  H   UNL     1     -10.473  29.278  28.802  1.00  0.00     0.210 HD
ENDBRANCH  30  31
ENDBRANCH  24  30
BRANCH  25  33
ATOM     33  O   UNL     1      -9.729  31.592  29.243  1.00  0.00    -0.388 OA
ATOM     34  H   UNL     1      -9.740  30.600  29.288  1.00  0.00     0.211 HD
ENDBRANCH  25  33
ENDBRANCH  11  20
BRANCH  10  35
ATOM     35  O   UNL     1     -15.228  32.609  31.202  1.00  0.00    -0.507 OA
ATOM     36  H   UNL     1     -14.529  33.192  31.639  1.00  0.00     0.293 HD
ENDBRANCH  10  35
TORSDOF 9
ENDMDL
MODEL 8
REMARK VINA RESULT:    -5.626      4.066      5.500
REMARK INTER + INTRA:          -7.949
REMARK INTER:                  -7.995
REMARK INTRA:                   0.046
REMARK UNBOUND:                -0.350
REMARK SMILES O=c1c(-c2ccc(O)cc2)coc2c([C@@H]3O[C@@H](CO)[C@@H](O)[C@H](O)[C@@H]3O)c(O)ccc12
REMARK SMILES IDX 3 1 11 2 12 3 13 4 30 5 2 6 1 7 29 8 28 9 26 10 14 11 4 12
REMARK SMILES IDX 5 13 6 14 7 15 10 16 9 17 8 18 15 20 24 21 16 22 22 23 17 24
REMARK SMILES IDX 20 25 25 26 23 28 18 30 19 31 21 33 27 35
REMARK H PARENT 8 19 25 27 23 29 19 32 21 34 27 36
REMARK Flexibility Score: inf
ROOT
ATOM      1  C   UNL     1     -16.217  34.471  25.620  1.00  0.00     0.065 A 
ATOM      2  C   UNL     1     -15.009  33.805  25.371  1.00  0.00     0.208 A 
ATOM      3  O   UNL     1     -14.121  33.618  26.340  1.00  0.00    -0.463 OA
ATOM      4  C   UNL     1     -14.304  34.037  27.590  1.00  0.00     0.147 A 
ATOM      5  C   UNL     1     -15.496  34.719  27.928  1.00  0.00     0.066 A 
ATOM      6  C   UNL     1     -16.463  34.926  26.928  1.00  0.00     0.200 A 
ATOM      7  O   UNL     1     -17.552  35.501  27.204  1.00  0.00    -0.288 OA
ATOM      8  C   UNL     1     -15.688  35.169  29.241  1.00  0.00     0.020 A 
ATOM      9  C   UNL     1     -14.700  34.971  30.199  1.00  0.00     0.047 A 
ATOM     10  C   UNL     1     -13.506  34.317  29.884  1.00  0.00     0.125 A 
ATOM     11  C   UNL     1     -13.307  33.797  28.571  1.00  0.00     0.069 A 
ENDROOT
BRANCH   1  12
ATOM     12  C   UNL     1     -17.192  34.673  24.519  1.00  0.00    -0.011 A 
ATOM     13  C   UNL     1     -18.150  33.685  24.231  1.00  0.00     0.013 A 
ATOM     14  C   UNL     1     -19.064  33.868  23.189  1.00  0.00     0.047 A 
ATOM     15  C   UNL     1     -19.029  35.038  22.420  1.00  0.00     0.115 A 
ATOM     16  C   UNL     1     -17.160  35.842  23.738  1.00  0.00     0.013 A 
ATOM     17  C   UNL     1     -18.075  36.022  22.696  1.00  0.00     0.047 A 
BRANCH  15  18
ATOM     18  O   UNL     1     -19.936  35.233  21.380  1.00  0.00    -0.508 OA
ATOM     19  H   UNL     1     -20.662  35.938  21.436  1.00  0.00     0.293 HD
ENDBRANCH  15  18
ENDBRANCH   1  12
BRANCH  11  20
ATOM     20  C   UNL     1     -12.051  33.026  28.166  1.00  0.00     0.188 C 
ATOM     21  C   UNL     1     -11.924  31.722  28.984  1.00  0.00     0.179 C 
ATOM     22  O   UNL     1     -12.039  32.793  26.764  1.00  0.00    -0.362 OA
ATOM     23  C   UNL     1     -10.639  30.982  28.572  1.00  0.00     0.177 C 
ATOM     24  C   UNL     1     -10.851  32.153  26.317  1.00  0.00     0.176 C 
ATOM     25  C   UNL     1     -10.605  30.805  27.049  1.00  0.00     0.177 C 
BRANCH  21  26
ATOM     26  O   UNL     1     -13.048  30.901  28.778  1.00  0.00    -0.387 OA
ATOM     27  H   UNL     1     -13.616  31.350  28.099  1.00  0.00     0.211 HD
ENDBRANCH  21  26
BRANCH  23  28
ATOM     28  O   UNL     1     -10.578  29.723  29.190  1.00  0.00    -0.387 OA
ATOM     29  H   UNL     1     -11.475  29.552  29.582  1.00  0.00     0.211 HD
ENDBRANCH  23  28
BRANCH  24  30
ATOM     30  C   UNL     1      -9.641  33.119  26.320  1.00  0.00     0.191 C 
BRANCH  30  31
ATOM     31  O   UNL     1      -8.593  32.613  25.539  1.00  0.00    -0.394 OA
ATOM     32  H   UNL     1      -8.878  31.717  25.222  1.00  0.00     0.210 HD
ENDBRANCH  30  31
ENDBRANCH  24  30
BRANCH  25  33
ATOM     33  O   UNL     1      -9.375  30.242  26.670  1.00  0.00    -0.388 OA
ATOM     34  H   UNL     1      -9.109  29.620  27.397  1.00  0.00     0.211 HD
ENDBRANCH  25  33
ENDBRANCH  11  20
BRANCH  10  35
ATOM     35  O   UNL     1     -12.556  34.222  30.904  1.00  0.00    -0.507 OA
ATOM     36  H   UNL     1     -12.180  33.358  31.265  1.00  0.00     0.293 HD
ENDBRANCH  10  35
TORSDOF 9
ENDMDL
MODEL 9
REMARK VINA RESULT:    -5.491      2.135      4.338
REMARK INTER + INTRA:          -7.767
REMARK INTER:                  -7.432
REMARK INTRA:                  -0.335
REMARK UNBOUND:                -0.350
REMARK SMILES O=c1c(-c2ccc(O)cc2)coc2c([C@@H]3O[C@@H](CO)[C@@H](O)[C@H](O)[C@@H]3O)c(O)ccc12
REMARK SMILES IDX 3 1 11 2 12 3 13 4 30 5 2 6 1 7 29 8 28 9 26 10 14 11 4 12
REMARK SMILES IDX 5 13 6 14 7 15 10 16 9 17 8 18 15 20 24 21 16 22 22 23 17 24
REMARK SMILES IDX 20 25 25 26 23 28 18 30 19 31 21 33 27 35
REMARK H PARENT 8 19 25 27 23 29 19 32 21 34 27 36
REMARK Flexibility Score: inf
ROOT
ATOM      1  C   UNL     1     -16.466  34.700  29.838  1.00  0.00     0.065 A 
ATOM      2  C   UNL     1     -15.368  33.848  30.020  1.00  0.00     0.208 A 
ATOM      3  O   UNL     1     -14.504  33.630  29.037  1.00  0.00    -0.463 OA
ATOM      4  C   UNL     1     -14.610  34.188  27.833  1.00  0.00     0.147 A 
ATOM      5  C   UNL     1     -15.689  35.060  27.563  1.00  0.00     0.066 A 
ATOM      6  C   UNL     1     -16.619  35.322  28.586  1.00  0.00     0.200 A 
ATOM      7  O   UNL     1     -17.575  36.123  28.388  1.00  0.00    -0.288 OA
ATOM      8  C   UNL     1     -15.808  35.643  26.294  1.00  0.00     0.020 A 
ATOM      9  C   UNL     1     -14.887  35.342  25.297  1.00  0.00     0.047 A 
ATOM     10  C   UNL     1     -13.823  34.467  25.535  1.00  0.00     0.125 A 
ATOM     11  C   UNL     1     -13.643  33.904  26.833  1.00  0.00     0.069 A 
ENDROOT
BRANCH   1  12
ATOM     12  C   UNL     1     -17.422  34.924  30.951  1.00  0.00    -0.011 A 
ATOM     13  C   UNL     1     -16.999  35.561  32.131  1.00  0.00     0.013 A 
ATOM     14  C   UNL     1     -17.895  35.767  33.185  1.00  0.00     0.047 A 
ATOM     15  C   UNL     1     -19.222  35.334  33.074  1.00  0.00     0.115 A 
ATOM     16  C   UNL     1     -18.755  34.487  30.851  1.00  0.00     0.013 A 
ATOM     17  C   UNL     1     -19.649  34.693  31.907  1.00  0.00     0.047 A 
BRANCH  15  18
ATOM     18  O   UNL     1     -20.124  35.533  34.117  1.00  0.00    -0.508 OA
ATOM     19  H   UNL     1     -19.812  35.812  35.040  1.00  0.00     0.293 HD
ENDBRANCH  15  18
ENDBRANCH   1  12
BRANCH  11  20
ATOM     20  C   UNL     1     -12.476  32.982  27.183  1.00  0.00     0.188 C 
ATOM     21  C   UNL     1     -11.362  33.764  27.913  1.00  0.00     0.179 C 
ATOM     22  O   UNL     1     -12.931  31.861  27.926  1.00  0.00    -0.362 OA
ATOM     23  C   UNL     1     -10.192  32.816  28.228  1.00  0.00     0.177 C 
ATOM     24  C   UNL     1     -11.900  30.923  28.206  1.00  0.00     0.176 C 
ATOM     25  C   UNL     1     -10.711  31.574  28.964  1.00  0.00     0.177 C 
BRANCH  21  26
ATOM     26  O   UNL     1     -11.860  34.336  29.098  1.00  0.00    -0.387 OA
ATOM     27  H   UNL     1     -12.496  33.683  29.492  1.00  0.00     0.211 HD
ENDBRANCH  21  26
BRANCH  23  28
ATOM     28  O   UNL     1      -9.234  33.465  29.024  1.00  0.00    -0.387 OA
ATOM     29  H   UNL     1      -8.419  33.565  28.465  1.00  0.00     0.211 HD
ENDBRANCH  23  28
BRANCH  24  30
ATOM     30  C   UNL     1     -11.498  30.117  26.946  1.00  0.00     0.191 C 
BRANCH  30  31
ATOM     31  O   UNL     1     -10.830  28.935  27.299  1.00  0.00    -0.394 OA
ATOM     32  H   UNL     1      -9.860  29.112  27.195  1.00  0.00     0.210 HD
ENDBRANCH  30  31
ENDBRANCH  24  30
BRANCH  25  33
ATOM     33  O   UNL     1      -9.659  30.659  29.137  1.00  0.00    -0.388 OA
ATOM     34  H   UNL     1      -9.247  30.525  28.244  1.00  0.00     0.211 HD
ENDBRANCH  25  33
ENDBRANCH  11  20
BRANCH  10  35
ATOM     35  O   UNL     1     -12.989  34.187  24.449  1.00  0.00    -0.507 OA
ATOM     36  H   UNL     1     -12.290  34.816  24.080  1.00  0.00     0.293 HD
ENDBRANCH  10  35
TORSDOF 9
ENDMDL
