MODEL 1
REMARK VINA RESULT:    -5.201      0.000      0.000
REMARK INTER + INTRA:          -5.201
REMARK INTER:                  -5.201
REMARK INTRA:                   0.000
REMARK UNBOUND:                 0.000
REMARK SMILES CC(C)=C1CC[C@H](C)CC1=O
REMARK SMILES IDX 8 1 7 2 6 3 5 4 4 5 2 6 1 7 3 8 10 9 11 10 9 11
REMARK H PARENT
REMARK Flexibility Score: inf
ROOT
ATOM      1  C   UNL     1      18.271  17.409  16.178  1.00  0.00     0.008 C 
ATOM      2  C   UNL     1      17.334  16.768  15.147  1.00  0.00    -0.006 C 
ATOM      3  C   UNL     1      15.976  16.435  15.784  1.00  0.00     0.008 C 
ATOM      4  C   UNL     1      15.061  15.700  14.795  1.00  0.00     0.039 C 
ATOM      5  C   UNL     1      14.920  16.438  13.471  1.00  0.00    -0.006 C 
ATOM      6  C   UNL     1      13.768  16.373  12.741  1.00  0.00    -0.070 C 
ATOM      7  C   UNL     1      13.597  17.146  11.453  1.00  0.00     0.039 C 
ATOM      8  C   UNL     1      12.589  15.551  13.209  1.00  0.00     0.039 C 
ATOM      9  C   UNL     1      16.147  17.130  12.973  1.00  0.00     0.159 C 
ATOM     10  O   UNL     1      16.381  17.240  11.739  1.00  0.00    -0.295 OA
ATOM     11  C   UNL     1      17.135  17.703  13.946  1.00  0.00     0.084 C 
ENDROOT
TORSDOF 0
ENDMDL
MODEL 2
REMARK VINA RESULT:    -5.117      2.011      5.004
REMARK INTER + INTRA:          -5.117
REMARK INTER:                  -5.117
REMARK INTRA:                   0.000
REMARK UNBOUND:                 0.000
REMARK SMILES CC(C)=C1CC[C@H](C)CC1=O
REMARK SMILES IDX 8 1 7 2 6 3 5 4 4 5 2 6 1 7 3 8 10 9 11 10 9 11
REMARK H PARENT
REMARK Flexibility Score: inf
ROOT
ATOM      1  C   UNL     1      14.479  15.494  14.202  1.00  0.00     0.008 C 
ATOM      2  C   UNL     1      15.822  16.203  14.411  1.00  0.00    -0.006 C 
ATOM      3  C   UNL     1      15.963  16.676  15.867  1.00  0.00     0.008 C 
ATOM      4  C   UNL     1      17.255  17.479  16.070  1.00  0.00     0.039 C 
ATOM      5  C   UNL     1      18.488  16.733  15.577  1.00  0.00    -0.006 C 
ATOM      6  C   UNL     1      19.703  16.895  16.178  1.00  0.00    -0.070 C 
ATOM      7  C   UNL     1      20.922  16.118  15.733  1.00  0.00     0.039 C 
ATOM      8  C   UNL     1      19.880  17.836  17.349  1.00  0.00     0.039 C 
ATOM      9  C   UNL     1      18.309  15.917  14.339  1.00  0.00     0.159 C 
ATOM     10  O   UNL     1      19.250  15.762  13.515  1.00  0.00    -0.295 OA
ATOM     11  C   UNL     1      16.987  15.270  14.050  1.00  0.00     0.084 C 
ENDROOT
TORSDOF 0
ENDMDL
MODEL 3
REMARK VINA RESULT:    -4.987      1.630      4.466
REMARK INTER + INTRA:          -4.987
REMARK INTER:                  -4.987
REMARK INTRA:                   0.000
REMARK UNBOUND:                 0.000
REMARK SMILES CC(C)=C1CC[C@H](C)CC1=O
REMARK SMILES IDX 8 1 7 2 6 3 5 4 4 5 2 6 1 7 3 8 10 9 11 10 9 11
REMARK H PARENT
REMARK Flexibility Score: inf
ROOT
ATOM      1  C   UNL     1      13.484  18.307  10.042  1.00  0.00     0.008 C 
ATOM      2  C   UNL     1      14.197  17.370  11.023  1.00  0.00    -0.006 C 
ATOM      3  C   UNL     1      15.445  18.048  11.609  1.00  0.00     0.008 C 
ATOM      4  C   UNL     1      16.228  17.088  12.515  1.00  0.00     0.039 C 
ATOM      5  C   UNL     1      15.352  16.451  13.586  1.00  0.00    -0.006 C 
ATOM      6  C   UNL     1      15.856  16.120  14.810  1.00  0.00    -0.070 C 
ATOM      7  C   UNL     1      14.983  15.539  15.900  1.00  0.00     0.039 C 
ATOM      8  C   UNL     1      17.311  16.354  15.149  1.00  0.00     0.039 C 
ATOM      9  C   UNL     1      13.957  16.111  13.174  1.00  0.00     0.159 C 
ATOM     10  O   UNL     1      13.355  15.117  13.662  1.00  0.00    -0.295 OA
ATOM     11  C   UNL     1      13.247  16.953  12.156  1.00  0.00     0.084 C 
ENDROOT
TORSDOF 0
ENDMDL
MODEL 4
REMARK VINA RESULT:    -4.959      9.201     10.588
REMARK INTER + INTRA:          -4.959
REMARK INTER:                  -4.959
REMARK INTRA:                   0.000
REMARK UNBOUND:                 0.000
REMARK SMILES CC(C)=C1CC[C@H](C)CC1=O
REMARK SMILES IDX 8 1 7 2 6 3 5 4 4 5 2 6 1 7 3 8 10 9 11 10 9 11
REMARK H PARENT
REMARK Flexibility Score: inf
ROOT
ATOM      1  C   UNL     1      13.291  19.855  22.445  1.00  0.00     0.008 C 
ATOM      2  C   UNL     1      14.289  19.042  23.276  1.00  0.00    -0.006 C 
ATOM      3  C   UNL     1      13.599  17.825  23.913  1.00  0.00     0.008 C 
ATOM      4  C   UNL     1      14.559  17.057  24.831  1.00  0.00     0.039 C 
ATOM      5  C   UNL     1      15.863  16.690  24.136  1.00  0.00    -0.006 C 
ATOM      6  C   UNL     1      16.542  15.550  24.457  1.00  0.00    -0.070 C 
ATOM      7  C   UNL     1      17.809  15.147  23.735  1.00  0.00     0.039 C 
ATOM      8  C   UNL     1      16.036  14.611  25.530  1.00  0.00     0.039 C 
ATOM      9  C   UNL     1      16.403  17.703  23.180  1.00  0.00     0.159 C 
ATOM     10  O   UNL     1      17.644  17.847  23.012  1.00  0.00    -0.295 OA
ATOM     11  C   UNL     1      15.465  18.578  22.403  1.00  0.00     0.084 C 
ENDROOT
TORSDOF 0
ENDMDL
MODEL 5
REMARK VINA RESULT:    -4.812      9.191     11.108
REMARK INTER + INTRA:          -4.812
REMARK INTER:                  -4.812
REMARK INTRA:                   0.000
REMARK UNBOUND:                 0.000
REMARK SMILES CC(C)=C1CC[C@H](C)CC1=O
REMARK SMILES IDX 8 1 7 2 6 3 5 4 4 5 2 6 1 7 3 8 10 9 11 10 9 11
REMARK H PARENT
REMARK Flexibility Score: inf
ROOT
ATOM      1  C   UNL     1      14.332  18.870  20.893  1.00  0.00     0.008 C 
ATOM      2  C   UNL     1      14.477  17.783  21.964  1.00  0.00    -0.006 C 
ATOM      3  C   UNL     1      15.653  18.100  22.901  1.00  0.00     0.008 C 
ATOM      4  C   UNL     1      15.877  16.972  23.916  1.00  0.00     0.039 C 
ATOM      5  C   UNL     1      14.608  16.609  24.675  1.00  0.00    -0.006 C 
ATOM      6  C   UNL     1      14.655  16.164  25.965  1.00  0.00    -0.070 C 
ATOM      7  C   UNL     1      13.398  15.853  26.746  1.00  0.00     0.039 C 
ATOM      8  C   UNL     1      15.971  15.995  26.689  1.00  0.00     0.039 C 
ATOM      9  C   UNL     1      13.338  16.658  23.889  1.00  0.00     0.159 C 
ATOM     10  O   UNL     1      12.385  15.870  24.136  1.00  0.00    -0.295 OA
ATOM     11  C   UNL     1      13.180  17.652  22.777  1.00  0.00     0.084 C 
ENDROOT
TORSDOF 0
ENDMDL
MODEL 6
REMARK VINA RESULT:    -4.789     10.359     11.688
REMARK INTER + INTRA:          -4.789
REMARK INTER:                  -4.789
REMARK INTRA:                   0.000
REMARK UNBOUND:                 0.000
REMARK SMILES CC(C)=C1CC[C@H](C)CC1=O
REMARK SMILES IDX 8 1 7 2 6 3 5 4 4 5 2 6 1 7 3 8 10 9 11 10 9 11
REMARK H PARENT
REMARK Flexibility Score: inf
ROOT
ATOM      1  C   UNL     1      14.613  16.933  24.635  1.00  0.00     0.008 C 
ATOM      2  C   UNL     1      15.936  16.225  24.950  1.00  0.00    -0.006 C 
ATOM      3  C   UNL     1      15.686  14.762  25.349  1.00  0.00     0.008 C 
ATOM      4  C   UNL     1      16.988  14.068  25.767  1.00  0.00     0.039 C 
ATOM      5  C   UNL     1      18.086  14.208  24.721  1.00  0.00    -0.006 C 
ATOM      6  C   UNL     1      19.022  13.230  24.539  1.00  0.00    -0.070 C 
ATOM      7  C   UNL     1      20.083  13.334  23.467  1.00  0.00     0.039 C 
ATOM      8  C   UNL     1      19.019  11.975  25.382  1.00  0.00     0.039 C 
ATOM      9  C   UNL     1      18.141  15.515  24.000  1.00  0.00     0.159 C 
ATOM     10  O   UNL     1      19.236  15.999  23.605  1.00  0.00    -0.295 OA
ATOM     11  C   UNL     1      16.880  16.284  23.740  1.00  0.00     0.084 C 
ENDROOT
TORSDOF 0
ENDMDL
MODEL 7
REMARK VINA RESULT:    -4.781      2.073      3.338
REMARK INTER + INTRA:          -4.781
REMARK INTER:                  -4.781
REMARK INTRA:                   0.000
REMARK UNBOUND:                 0.000
REMARK SMILES CC(C)=C1CC[C@H](C)CC1=O
REMARK SMILES IDX 8 1 7 2 6 3 5 4 4 5 2 6 1 7 3 8 10 9 11 10 9 11
REMARK H PARENT
REMARK Flexibility Score: inf
ROOT
ATOM      1  C   UNL     1      19.470  17.552  10.953  1.00  0.00     0.008 C 
ATOM      2  C   UNL     1      18.272  17.534  11.909  1.00  0.00    -0.006 C 
ATOM      3  C   UNL     1      17.012  17.029  11.189  1.00  0.00     0.008 C 
ATOM      4  C   UNL     1      15.781  17.101  12.101  1.00  0.00     0.039 C 
ATOM      5  C   UNL     1      16.005  16.408  13.439  1.00  0.00    -0.006 C 
ATOM      6  C   UNL     1      14.980  15.796  14.101  1.00  0.00    -0.070 C 
ATOM      7  C   UNL     1      15.202  15.058  15.403  1.00  0.00     0.039 C 
ATOM      8  C   UNL     1      13.575  15.795  13.544  1.00  0.00     0.039 C 
ATOM      9  C   UNL     1      17.372  16.544  14.026  1.00  0.00     0.159 C 
ATOM     10  O   UNL     1      17.548  16.580  15.273  1.00  0.00    -0.295 OA
ATOM     11  C   UNL     1      18.569  16.646  13.127  1.00  0.00     0.084 C 
ENDROOT
TORSDOF 0
ENDMDL
MODEL 8
REMARK VINA RESULT:    -4.768      2.279      2.986
REMARK INTER + INTRA:          -4.768
REMARK INTER:                  -4.768
REMARK INTRA:                   0.000
REMARK UNBOUND:                 0.000
REMARK SMILES CC(C)=C1CC[C@H](C)CC1=O
REMARK SMILES IDX 8 1 7 2 6 3 5 4 4 5 2 6 1 7 3 8 10 9 11 10 9 11
REMARK H PARENT
REMARK Flexibility Score: inf
ROOT
ATOM      1  C   UNL     1      19.761  17.021  17.064  1.00  0.00     0.008 C 
ATOM      2  C   UNL     1      18.840  16.647  15.898  1.00  0.00    -0.006 C 
ATOM      3  C   UNL     1      17.826  17.770  15.627  1.00  0.00     0.008 C 
ATOM      4  C   UNL     1      16.830  17.370  14.531  1.00  0.00     0.039 C 
ATOM      5  C   UNL     1      17.521  16.888  13.262  1.00  0.00    -0.006 C 
ATOM      6  C   UNL     1      16.965  17.089  12.032  1.00  0.00    -0.070 C 
ATOM      7  C   UNL     1      17.668  16.665  10.761  1.00  0.00     0.039 C 
ATOM      8  C   UNL     1      15.631  17.783  11.877  1.00  0.00     0.039 C 
ATOM      9  C   UNL     1      18.768  16.090  13.458  1.00  0.00     0.159 C 
ATOM     10  O   UNL     1      19.091  15.173  12.655  1.00  0.00    -0.295 OA
ATOM     11  C   UNL     1      19.661  16.366  14.631  1.00  0.00     0.084 C 
ENDROOT
TORSDOF 0
ENDMDL
MODEL 9
REMARK VINA RESULT:    -4.726      9.524     11.172
REMARK INTER + INTRA:          -4.726
REMARK INTER:                  -4.726
REMARK INTRA:                   0.000
REMARK UNBOUND:                 0.000
REMARK SMILES CC(C)=C1CC[C@H](C)CC1=O
REMARK SMILES IDX 8 1 7 2 6 3 5 4 4 5 2 6 1 7 3 8 10 9 11 10 9 11
REMARK H PARENT
REMARK Flexibility Score: inf
ROOT
ATOM      1  C   UNL     1      17.878  13.299  25.704  1.00  0.00     0.008 C 
ATOM      2  C   UNL     1      17.334  14.707  25.441  1.00  0.00    -0.006 C 
ATOM      3  C   UNL     1      17.665  15.156  24.009  1.00  0.00     0.008 C 
ATOM      4  C   UNL     1      17.218  16.603  23.760  1.00  0.00     0.039 C 
ATOM      5  C   UNL     1      15.756  16.832  24.120  1.00  0.00    -0.006 C 
ATOM      6  C   UNL     1      14.992  17.739  23.444  1.00  0.00    -0.070 C 
ATOM      7  C   UNL     1      13.525  17.935  23.756  1.00  0.00     0.039 C 
ATOM      8  C   UNL     1      15.571  18.569  22.321  1.00  0.00     0.039 C 
ATOM      9  C   UNL     1      15.254  16.096  25.319  1.00  0.00     0.159 C 
ATOM     10  O   UNL     1      14.363  16.588  26.064  1.00  0.00    -0.295 OA
ATOM     11  C   UNL     1      15.815  14.748  25.664  1.00  0.00     0.084 C 
ENDROOT
TORSDOF 0
ENDMDL
