MODEL 1
REMARK VINA RESULT:    -7.229      0.000      0.000
REMARK INTER + INTRA:          -8.766
REMARK INTER:                  -8.497
REMARK INTRA:                  -0.269
REMARK UNBOUND:                -0.269
REMARK SMILES O=c1cc(-c2ccc(O)c(O)c2)oc2cc(O)cc(O)c12
REMARK SMILES IDX 4 1 3 2 2 3 1 4 21 5 19 6 18 7 16 8 15 9 14 10 13 11 5 12
REMARK SMILES IDX 6 13 7 14 8 15 12 16 10 17 9 18 11 20 20 22 17 24
REMARK H PARENT 9 19 11 21 20 23 17 25
REMARK Flexibility Score: inf
ROOT
ATOM      1  C   UNL     1     -33.141  95.831   7.498  1.00  0.00     0.138 A 
ATOM      2  C   UNL     1     -34.404  95.225   7.441  1.00  0.00     0.100 A 
ATOM      3  C   UNL     1     -34.500  93.846   7.246  1.00  0.00     0.197 A 
ATOM      4  O   UNL     1     -35.644  93.323   7.262  1.00  0.00    -0.289 OA
ATOM      5  C   UNL     1     -33.325  93.077   7.074  1.00  0.00     0.107 A 
ATOM      6  C   UNL     1     -33.304  91.671   6.828  1.00  0.00     0.134 A 
ATOM      7  C   UNL     1     -32.077  90.996   6.790  1.00  0.00     0.093 A 
ATOM      8  C   UNL     1     -30.870  91.686   6.931  1.00  0.00     0.123 A 
ATOM      9  C   UNL     1     -30.879  93.067   7.119  1.00  0.00     0.094 A 
ATOM     10  C   UNL     1     -32.087  93.763   7.194  1.00  0.00     0.146 A 
ATOM     11  O   UNL     1     -32.052  95.077   7.388  1.00  0.00    -0.456 OA
ENDROOT
BRANCH   1  12
ATOM     12  C   UNL     1     -32.982  97.293   7.702  1.00  0.00     0.021 A 
ATOM     13  C   UNL     1     -33.095  98.206   6.637  1.00  0.00     0.016 A 
ATOM     14  C   UNL     1     -32.930  99.576   6.856  1.00  0.00     0.051 A 
ATOM     15  C   UNL     1     -32.642 100.058   8.140  1.00  0.00     0.157 A 
ATOM     16  C   UNL     1     -32.679  97.784   8.985  1.00  0.00     0.062 A 
ATOM     17  C   UNL     1     -32.514  99.156   9.208  1.00  0.00     0.158 A 
BRANCH  15  18
ATOM     18  O   UNL     1     -32.480 101.425   8.355  1.00  0.00    -0.504 OA
ATOM     19  H   UNL     1     -31.561 101.848   8.416  1.00  0.00     0.293 HD
ENDBRANCH  15  18
BRANCH  17  20
ATOM     20  O   UNL     1     -32.225  99.602  10.497  1.00  0.00    -0.504 OA
ATOM     21  H   UNL     1     -31.618 100.395  10.668  1.00  0.00     0.293 HD
ENDBRANCH  17  20
ENDBRANCH   1  12
BRANCH   6  22
ATOM     22  O   UNL     1     -34.447  90.902   6.589  1.00  0.00    -0.507 OA
ATOM     23  H   UNL     1     -35.393  91.214   6.739  1.00  0.00     0.293 HD
ENDBRANCH   6  22
BRANCH   8  24
ATOM     24  O   UNL     1     -29.654  91.008   6.877  1.00  0.00    -0.508 OA
ATOM     25  H   UNL     1     -28.829  91.429   6.469  1.00  0.00     0.293 HD
ENDBRANCH   8  24
TORSDOF 5
ENDMDL
MODEL 2
REMARK VINA RESULT:    -7.220      1.069      2.594
REMARK INTER + INTRA:          -8.756
REMARK INTER:                  -8.490
REMARK INTRA:                  -0.266
REMARK UNBOUND:                -0.269
REMARK SMILES O=c1cc(-c2ccc(O)c(O)c2)oc2cc(O)cc(O)c12
REMARK SMILES IDX 4 1 3 2 2 3 1 4 21 5 19 6 18 7 16 8 15 9 14 10 13 11 5 12
REMARK SMILES IDX 6 13 7 14 8 15 12 16 10 17 9 18 11 20 20 22 17 24
REMARK H PARENT 9 19 11 21 20 23 17 25
REMARK Flexibility Score: inf
ROOT
ATOM      1  C   UNL     1     -32.439  95.857   7.505  1.00  0.00     0.138 A 
ATOM      2  C   UNL     1     -31.200  95.244   7.737  1.00  0.00     0.100 A 
ATOM      3  C   UNL     1     -31.076  93.861   7.596  1.00  0.00     0.197 A 
ATOM      4  O   UNL     1     -29.938  93.348   7.749  1.00  0.00    -0.289 OA
ATOM      5  C   UNL     1     -32.209  93.085   7.252  1.00  0.00     0.107 A 
ATOM      6  C   UNL     1     -32.210  91.664   7.121  1.00  0.00     0.134 A 
ATOM      7  C   UNL     1     -33.364  91.015   6.663  1.00  0.00     0.093 A 
ATOM      8  C   UNL     1     -34.533  91.730   6.389  1.00  0.00     0.123 A 
ATOM      9  C   UNL     1     -34.556  93.112   6.565  1.00  0.00     0.094 A 
ATOM     10  C   UNL     1     -33.412  93.791   6.988  1.00  0.00     0.146 A 
ATOM     11  O   UNL     1     -33.473  95.112   7.130  1.00  0.00    -0.456 OA
ENDROOT
BRANCH   1  12
ATOM     12  C   UNL     1     -32.626  97.324   7.642  1.00  0.00     0.021 A 
ATOM     13  C   UNL     1     -33.030  98.122   6.557  1.00  0.00     0.016 A 
ATOM     14  C   UNL     1     -33.189  99.502   6.711  1.00  0.00     0.051 A 
ATOM     15  C   UNL     1     -32.941 100.109   7.950  1.00  0.00     0.157 A 
ATOM     16  C   UNL     1     -32.366  97.942   8.879  1.00  0.00     0.062 A 
ATOM     17  C   UNL     1     -32.525  99.323   9.037  1.00  0.00     0.158 A 
BRANCH  15  18
ATOM     18  O   UNL     1     -33.102 101.484   8.101  1.00  0.00    -0.504 OA
ATOM     19  H   UNL     1     -33.994 101.889   8.362  1.00  0.00     0.293 HD
ENDBRANCH  15  18
BRANCH  17  20
ATOM     20  O   UNL     1     -32.266  99.897  10.281  1.00  0.00    -0.504 OA
ATOM     21  H   UNL     1     -32.482 100.865  10.483  1.00  0.00     0.293 HD
ENDBRANCH  17  20
ENDBRANCH   1  12
BRANCH   6  22
ATOM     22  O   UNL     1     -31.124  90.848   7.450  1.00  0.00    -0.507 OA
ATOM     23  H   UNL     1     -31.093  89.849   7.320  1.00  0.00     0.293 HD
ENDBRANCH   6  22
BRANCH   8  24
ATOM     24  O   UNL     1     -35.679  91.074   5.948  1.00  0.00    -0.508 OA
ATOM     25  H   UNL     1     -36.194  90.443   6.549  1.00  0.00     0.293 HD
ENDBRANCH   8  24
TORSDOF 5
ENDMDL
MODEL 3
REMARK VINA RESULT:    -7.077      4.048      7.560
REMARK INTER + INTRA:          -8.587
REMARK INTER:                  -8.321
REMARK INTRA:                  -0.266
REMARK UNBOUND:                -0.269
REMARK SMILES O=c1cc(-c2ccc(O)c(O)c2)oc2cc(O)cc(O)c12
REMARK SMILES IDX 4 1 3 2 2 3 1 4 21 5 19 6 18 7 16 8 15 9 14 10 13 11 5 12
REMARK SMILES IDX 6 13 7 14 8 15 12 16 10 17 9 18 11 20 20 22 17 24
REMARK H PARENT 9 19 11 21 20 23 17 25
REMARK Flexibility Score: inf
ROOT
ATOM      1  C   UNL     1     -30.457  90.978   7.901  1.00  0.00     0.138 A 
ATOM      2  C   UNL     1     -30.502  90.918   6.501  1.00  0.00     0.100 A 
ATOM      3  C   UNL     1     -31.562  91.516   5.818  1.00  0.00     0.197 A 
ATOM      4  O   UNL     1     -31.543  91.500   4.561  1.00  0.00    -0.289 OA
ATOM      5  C   UNL     1     -32.599  92.148   6.545  1.00  0.00     0.107 A 
ATOM      6  C   UNL     1     -33.750  92.754   5.956  1.00  0.00     0.134 A 
ATOM      7  C   UNL     1     -34.653  93.452   6.769  1.00  0.00     0.093 A 
ATOM      8  C   UNL     1     -34.477  93.514   8.154  1.00  0.00     0.123 A 
ATOM      9  C   UNL     1     -33.386  92.880   8.742  1.00  0.00     0.094 A 
ATOM     10  C   UNL     1     -32.450  92.205   7.956  1.00  0.00     0.146 A 
ATOM     11  O   UNL     1     -31.415  91.625   8.556  1.00  0.00    -0.456 OA
ENDROOT
BRANCH   1  12
ATOM     12  C   UNL     1     -29.353  90.358   8.678  1.00  0.00     0.021 A 
ATOM     13  C   UNL     1     -29.599  89.395   9.674  1.00  0.00     0.016 A 
ATOM     14  C   UNL     1     -28.542  88.836  10.396  1.00  0.00     0.051 A 
ATOM     15  C   UNL     1     -27.222  89.233  10.142  1.00  0.00     0.157 A 
ATOM     16  C   UNL     1     -28.027  90.762   8.438  1.00  0.00     0.062 A 
ATOM     17  C   UNL     1     -26.966  90.202   9.159  1.00  0.00     0.158 A 
BRANCH  15  18
ATOM     18  O   UNL     1     -26.170  88.671  10.863  1.00  0.00    -0.504 OA
ATOM     19  H   UNL     1     -25.362  88.273  10.399  1.00  0.00     0.293 HD
ENDBRANCH  15  18
BRANCH  17  20
ATOM     20  O   UNL     1     -25.665  90.622   8.884  1.00  0.00    -0.504 OA
ATOM     21  H   UNL     1     -24.859  90.044   9.087  1.00  0.00     0.293 HD
ENDBRANCH  17  20
ENDBRANCH   1  12
BRANCH   6  22
ATOM     22  O   UNL     1     -34.063  92.679   4.596  1.00  0.00    -0.507 OA
ATOM     23  H   UNL     1     -34.238  91.824   4.091  1.00  0.00     0.293 HD
ENDBRANCH   6  22
BRANCH   8  24
ATOM     24  O   UNL     1     -35.389  94.198   8.955  1.00  0.00    -0.508 OA
ATOM     25  H   UNL     1     -35.085  94.807   9.704  1.00  0.00     0.293 HD
ENDBRANCH   8  24
TORSDOF 5
ENDMDL
MODEL 4
REMARK VINA RESULT:    -6.896     16.689     18.092
REMARK INTER + INTRA:          -8.374
REMARK INTER:                  -8.072
REMARK INTRA:                  -0.302
REMARK UNBOUND:                -0.269
REMARK SMILES O=c1cc(-c2ccc(O)c(O)c2)oc2cc(O)cc(O)c12
REMARK SMILES IDX 4 1 3 2 2 3 1 4 21 5 19 6 18 7 16 8 15 9 14 10 13 11 5 12
REMARK SMILES IDX 6 13 7 14 8 15 12 16 10 17 9 18 11 20 20 22 17 24
REMARK H PARENT 9 19 11 21 20 23 17 25
REMARK Flexibility Score: inf
ROOT
ATOM      1  C   UNL     1     -20.461  97.488  -5.482  1.00  0.00     0.138 A 
ATOM      2  C   UNL     1     -19.089  97.764  -5.396  1.00  0.00     0.100 A 
ATOM      3  C   UNL     1     -18.219  96.788  -4.908  1.00  0.00     0.197 A 
ATOM      4  O   UNL     1     -16.987  97.042  -4.902  1.00  0.00    -0.289 OA
ATOM      5  C   UNL     1     -18.731  95.543  -4.473  1.00  0.00     0.107 A 
ATOM      6  C   UNL     1     -17.943  94.490  -3.918  1.00  0.00     0.134 A 
ATOM      7  C   UNL     1     -18.543  93.257  -3.631  1.00  0.00     0.093 A 
ATOM      8  C   UNL     1     -19.914  93.061  -3.822  1.00  0.00     0.123 A 
ATOM      9  C   UNL     1     -20.700  94.101  -4.312  1.00  0.00     0.094 A 
ATOM     10  C   UNL     1     -20.125  95.330  -4.640  1.00  0.00     0.146 A 
ATOM     11  O   UNL     1     -20.909  96.291  -5.118  1.00  0.00    -0.456 OA
ENDROOT
BRANCH   1  12
ATOM     12  C   UNL     1     -21.432  98.490  -5.993  1.00  0.00     0.021 A 
ATOM     13  C   UNL     1     -21.083  99.412  -6.997  1.00  0.00     0.016 A 
ATOM     14  C   UNL     1     -22.013 100.350  -7.452  1.00  0.00     0.051 A 
ATOM     15  C   UNL     1     -23.304 100.388  -6.909  1.00  0.00     0.157 A 
ATOM     16  C   UNL     1     -22.725  98.543  -5.443  1.00  0.00     0.062 A 
ATOM     17  C   UNL     1     -23.659  99.481  -5.898  1.00  0.00     0.158 A 
BRANCH  15  18
ATOM     18  O   UNL     1     -24.230 101.324  -7.366  1.00  0.00    -0.504 OA
ATOM     19  H   UNL     1     -23.991 102.003  -8.080  1.00  0.00     0.293 HD
ENDBRANCH  15  18
BRANCH  17  20
ATOM     20  O   UNL     1     -24.934  99.495  -5.333  1.00  0.00    -0.504 OA
ATOM     21  H   UNL     1     -25.476  98.650  -5.206  1.00  0.00     0.293 HD
ENDBRANCH  17  20
ENDBRANCH   1  12
BRANCH   6  22
ATOM     22  O   UNL     1     -16.584  94.610  -3.610  1.00  0.00    -0.507 OA
ATOM     23  H   UNL     1     -16.059  93.953  -3.053  1.00  0.00     0.293 HD
ENDBRANCH   6  22
BRANCH   8  24
ATOM     24  O   UNL     1     -20.504  91.836  -3.518  1.00  0.00    -0.508 OA
ATOM     25  H   UNL     1     -21.196  91.415  -4.126  1.00  0.00     0.293 HD
ENDBRANCH   8  24
TORSDOF 5
ENDMDL
MODEL 5
REMARK VINA RESULT:    -6.787     17.010     18.131
REMARK INTER + INTRA:          -8.246
REMARK INTER:                  -7.982
REMARK INTRA:                  -0.264
REMARK UNBOUND:                -0.269
REMARK SMILES O=c1cc(-c2ccc(O)c(O)c2)oc2cc(O)cc(O)c12
REMARK SMILES IDX 4 1 3 2 2 3 1 4 21 5 19 6 18 7 16 8 15 9 14 10 13 11 5 12
REMARK SMILES IDX 6 13 7 14 8 15 12 16 10 17 9 18 11 20 20 22 17 24
REMARK H PARENT 9 19 11 21 20 23 17 25
REMARK Flexibility Score: inf
ROOT
ATOM      1  C   UNL     1     -21.045  97.317  -5.459  1.00  0.00     0.138 A 
ATOM      2  C   UNL     1     -21.851  96.175  -5.358  1.00  0.00     0.100 A 
ATOM      3  C   UNL     1     -21.299  94.978  -4.898  1.00  0.00     0.197 A 
ATOM      4  O   UNL     1     -22.061  93.987  -4.758  1.00  0.00    -0.289 OA
ATOM      5  C   UNL     1     -19.923  94.919  -4.569  1.00  0.00     0.107 A 
ATOM      6  C   UNL     1     -19.243  93.744  -4.130  1.00  0.00     0.134 A 
ATOM      7  C   UNL     1     -17.906  93.833  -3.722  1.00  0.00     0.093 A 
ATOM      8  C   UNL     1     -17.209  95.042  -3.794  1.00  0.00     0.123 A 
ATOM      9  C   UNL     1     -17.850  96.183  -4.272  1.00  0.00     0.094 A 
ATOM     10  C   UNL     1     -19.192  96.134  -4.655  1.00  0.00     0.146 A 
ATOM     11  O   UNL     1     -19.769  97.248  -5.092  1.00  0.00    -0.456 OA
ENDROOT
BRANCH   1  12
ATOM     12  C   UNL     1     -21.581  98.615  -5.943  1.00  0.00     0.021 A 
ATOM     13  C   UNL     1     -21.759  99.710  -5.078  1.00  0.00     0.016 A 
ATOM     14  C   UNL     1     -22.275 100.917  -5.558  1.00  0.00     0.051 A 
ATOM     15  C   UNL     1     -22.628 101.048  -6.908  1.00  0.00     0.157 A 
ATOM     16  C   UNL     1     -21.950  98.750  -7.293  1.00  0.00     0.062 A 
ATOM     17  C   UNL     1     -22.466  99.958  -7.777  1.00  0.00     0.158 A 
BRANCH  15  18
ATOM     18  O   UNL     1     -23.140 102.254  -7.384  1.00  0.00    -0.504 OA
ATOM     19  H   UNL     1     -22.732 102.726  -8.182  1.00  0.00     0.293 HD
ENDBRANCH  15  18
BRANCH  17  20
ATOM     20  O   UNL     1     -22.811 100.055  -9.125  1.00  0.00    -0.504 OA
ATOM     21  H   UNL     1     -23.045  99.242  -9.681  1.00  0.00     0.293 HD
ENDBRANCH  17  20
ENDBRANCH   1  12
BRANCH   6  22
ATOM     22  O   UNL     1     -19.821  92.471  -4.100  1.00  0.00    -0.507 OA
ATOM     23  H   UNL     1     -19.741  91.819  -3.336  1.00  0.00     0.293 HD
ENDBRANCH   6  22
BRANCH   8  24
ATOM     24  O   UNL     1     -15.875  95.117  -3.400  1.00  0.00    -0.508 OA
ATOM     25  H   UNL     1     -15.544  95.846  -2.781  1.00  0.00     0.293 HD
ENDBRANCH   8  24
TORSDOF 5
ENDMDL
MODEL 6
REMARK VINA RESULT:    -6.774      1.897      2.692
REMARK INTER + INTRA:          -8.231
REMARK INTER:                  -7.932
REMARK INTRA:                  -0.299
REMARK UNBOUND:                -0.269
REMARK SMILES O=c1cc(-c2ccc(O)c(O)c2)oc2cc(O)cc(O)c12
REMARK SMILES IDX 4 1 3 2 2 3 1 4 21 5 19 6 18 7 16 8 15 9 14 10 13 11 5 12
REMARK SMILES IDX 6 13 7 14 8 15 12 16 10 17 9 18 11 20 20 22 17 24
REMARK H PARENT 9 19 11 21 20 23 17 25
REMARK Flexibility Score: inf
ROOT
ATOM      1  C   UNL     1     -32.406  97.672   7.859  1.00  0.00     0.138 A 
ATOM      2  C   UNL     1     -33.805  97.592   7.865  1.00  0.00     0.100 A 
ATOM      3  C   UNL     1     -34.427  96.356   7.685  1.00  0.00     0.197 A 
ATOM      4  O   UNL     1     -35.682  96.306   7.758  1.00  0.00    -0.289 OA
ATOM      5  C   UNL     1     -33.643  95.199   7.463  1.00  0.00     0.107 A 
ATOM      6  C   UNL     1     -34.169  93.894   7.225  1.00  0.00     0.134 A 
ATOM      7  C   UNL     1     -33.294  92.804   7.135  1.00  0.00     0.093 A 
ATOM      8  C   UNL     1     -31.910  92.982   7.214  1.00  0.00     0.123 A 
ATOM      9  C   UNL     1     -31.385  94.259   7.392  1.00  0.00     0.094 A 
ATOM     10  C   UNL     1     -32.232  95.362   7.520  1.00  0.00     0.146 A 
ATOM     11  O   UNL     1     -31.691  96.562   7.703  1.00  0.00    -0.456 OA
ENDROOT
BRANCH   1  12
ATOM     12  C   UNL     1     -31.693  98.961   8.045  1.00  0.00     0.021 A 
ATOM     13  C   UNL     1     -32.163  99.944   8.935  1.00  0.00     0.016 A 
ATOM     14  C   UNL     1     -31.477 101.153   9.083  1.00  0.00     0.051 A 
ATOM     15  C   UNL     1     -30.316 101.403   8.342  1.00  0.00     0.157 A 
ATOM     16  C   UNL     1     -30.533  99.226   7.294  1.00  0.00     0.062 A 
ATOM     17  C   UNL     1     -29.844 100.435   7.441  1.00  0.00     0.158 A 
BRANCH  15  18
ATOM     18  O   UNL     1     -29.634 102.609   8.493  1.00  0.00    -0.504 OA
ATOM     19  H   UNL     1     -28.895 102.719   9.179  1.00  0.00     0.293 HD
ENDBRANCH  15  18
BRANCH  17  20
ATOM     20  O   UNL     1     -28.693 100.654   6.685  1.00  0.00    -0.504 OA
ATOM     21  H   UNL     1     -27.989 101.328   6.960  1.00  0.00     0.293 HD
ENDBRANCH  17  20
ENDBRANCH   1  12
BRANCH   6  22
ATOM     22  O   UNL     1     -35.528  93.620   7.046  1.00  0.00    -0.507 OA
ATOM     23  H   UNL     1     -36.260  94.313   7.040  1.00  0.00     0.293 HD
ENDBRANCH   6  22
BRANCH   8  24
ATOM     24  O   UNL     1     -31.048  91.893   7.108  1.00  0.00    -0.508 OA
ATOM     25  H   UNL     1     -31.334  90.960   7.378  1.00  0.00     0.293 HD
ENDBRANCH   8  24
TORSDOF 5
ENDMDL
MODEL 7
REMARK VINA RESULT:    -6.719     18.189     19.547
REMARK INTER + INTRA:          -8.167
REMARK INTER:                  -7.884
REMARK INTRA:                  -0.283
REMARK UNBOUND:                -0.269
REMARK SMILES O=c1cc(-c2ccc(O)c(O)c2)oc2cc(O)cc(O)c12
REMARK SMILES IDX 4 1 3 2 2 3 1 4 21 5 19 6 18 7 16 8 15 9 14 10 13 11 5 12
REMARK SMILES IDX 6 13 7 14 8 15 12 16 10 17 9 18 11 20 20 22 17 24
REMARK H PARENT 9 19 11 21 20 23 17 25
REMARK Flexibility Score: inf
ROOT
ATOM      1  C   UNL     1     -19.657  97.298  -5.952  1.00  0.00     0.138 A 
ATOM      2  C   UNL     1     -19.153  97.105  -4.659  1.00  0.00     0.100 A 
ATOM      3  C   UNL     1     -18.069  96.249  -4.461  1.00  0.00     0.197 A 
ATOM      4  O   UNL     1     -17.599  96.144  -3.299  1.00  0.00    -0.289 OA
ATOM      5  C   UNL     1     -17.509  95.557  -5.562  1.00  0.00     0.107 A 
ATOM      6  C   UNL     1     -16.430  94.627  -5.473  1.00  0.00     0.134 A 
ATOM      7  C   UNL     1     -15.884  94.091  -6.646  1.00  0.00     0.093 A 
ATOM      8  C   UNL     1     -16.416  94.406  -7.899  1.00  0.00     0.123 A 
ATOM      9  C   UNL     1     -17.504  95.271  -7.991  1.00  0.00     0.094 A 
ATOM     10  C   UNL     1     -18.050  95.848  -6.843  1.00  0.00     0.146 A 
ATOM     11  O   UNL     1     -19.078  96.679  -6.976  1.00  0.00    -0.456 OA
ENDROOT
BRANCH   1  12
ATOM     12  C   UNL     1     -20.809  98.198  -6.219  1.00  0.00     0.021 A 
ATOM     13  C   UNL     1     -20.889  98.969  -7.393  1.00  0.00     0.016 A 
ATOM     14  C   UNL     1     -21.979  99.814  -7.614  1.00  0.00     0.051 A 
ATOM     15  C   UNL     1     -23.005  99.910  -6.664  1.00  0.00     0.157 A 
ATOM     16  C   UNL     1     -21.835  98.309  -5.264  1.00  0.00     0.062 A 
ATOM     17  C   UNL     1     -22.929  99.154  -5.483  1.00  0.00     0.158 A 
BRANCH  15  18
ATOM     18  O   UNL     1     -24.091 100.752  -6.888  1.00  0.00    -0.504 OA
ATOM     19  H   UNL     1     -24.530 100.823  -7.799  1.00  0.00     0.293 HD
ENDBRANCH  15  18
BRANCH  17  20
ATOM     20  O   UNL     1     -23.931  99.229  -4.515  1.00  0.00    -0.504 OA
ATOM     21  H   UNL     1     -23.904  99.907  -3.763  1.00  0.00     0.293 HD
ENDBRANCH  17  20
ENDBRANCH   1  12
BRANCH   6  22
ATOM     22  O   UNL     1     -15.881  94.181  -4.268  1.00  0.00    -0.507 OA
ATOM     23  H   UNL     1     -16.412  93.941  -3.445  1.00  0.00     0.293 HD
ENDBRANCH   6  22
BRANCH   8  24
ATOM     24  O   UNL     1     -15.875  93.856  -9.059  1.00  0.00    -0.508 OA
ATOM     25  H   UNL     1     -14.948  94.105  -9.381  1.00  0.00     0.293 HD
ENDBRANCH   8  24
TORSDOF 5
ENDMDL
MODEL 8
REMARK VINA RESULT:    -6.611      2.579      7.017
REMARK INTER + INTRA:          -8.039
REMARK INTER:                  -7.769
REMARK INTRA:                  -0.270
REMARK UNBOUND:                -0.269
REMARK SMILES O=c1cc(-c2ccc(O)c(O)c2)oc2cc(O)cc(O)c12
REMARK SMILES IDX 4 1 3 2 2 3 1 4 21 5 19 6 18 7 16 8 15 9 14 10 13 11 5 12
REMARK SMILES IDX 6 13 7 14 8 15 12 16 10 17 9 18 11 20 20 22 17 24
REMARK H PARENT 9 19 11 21 20 23 17 25
REMARK Flexibility Score: inf
ROOT
ATOM      1  C   UNL     1     -31.007  91.852   8.121  1.00  0.00     0.138 A 
ATOM      2  C   UNL     1     -31.971  91.068   7.471  1.00  0.00     0.100 A 
ATOM      3  C   UNL     1     -33.200  91.632   7.126  1.00  0.00     0.197 A 
ATOM      4  O   UNL     1     -34.020  90.923   6.488  1.00  0.00    -0.289 OA
ATOM      5  C   UNL     1     -33.476  92.978   7.462  1.00  0.00     0.107 A 
ATOM      6  C   UNL     1     -34.710  93.645   7.197  1.00  0.00     0.134 A 
ATOM      7  C   UNL     1     -34.827  95.014   7.472  1.00  0.00     0.093 A 
ATOM      8  C   UNL     1     -33.775  95.724   8.057  1.00  0.00     0.123 A 
ATOM      9  C   UNL     1     -32.586  95.069   8.369  1.00  0.00     0.094 A 
ATOM     10  C   UNL     1     -32.427  93.713   8.077  1.00  0.00     0.146 A 
ATOM     11  O   UNL     1     -31.271  93.129   8.377  1.00  0.00    -0.456 OA
ENDROOT
BRANCH   1  12
ATOM     12  C   UNL     1     -29.684  91.303   8.513  1.00  0.00     0.021 A 
ATOM     13  C   UNL     1     -28.482  91.910   8.106  1.00  0.00     0.016 A 
ATOM     14  C   UNL     1     -27.250  91.366   8.480  1.00  0.00     0.051 A 
ATOM     15  C   UNL     1     -27.197  90.204   9.261  1.00  0.00     0.157 A 
ATOM     16  C   UNL     1     -29.623  90.129   9.284  1.00  0.00     0.062 A 
ATOM     17  C   UNL     1     -28.391  89.582   9.662  1.00  0.00     0.158 A 
BRANCH  15  18
ATOM     18  O   UNL     1     -25.968  89.665   9.634  1.00  0.00    -0.504 OA
ATOM     19  H   UNL     1     -25.093  90.087   9.344  1.00  0.00     0.293 HD
ENDBRANCH  15  18
BRANCH  17  20
ATOM     20  O   UNL     1     -28.373  88.422  10.436  1.00  0.00    -0.504 OA
ATOM     21  H   UNL     1     -27.631  88.226  11.095  1.00  0.00     0.293 HD
ENDBRANCH  17  20
ENDBRANCH   1  12
BRANCH   6  22
ATOM     22  O   UNL     1     -35.849  93.010   6.693  1.00  0.00    -0.507 OA
ATOM     23  H   UNL     1     -36.691  93.482   6.401  1.00  0.00     0.293 HD
ENDBRANCH   6  22
BRANCH   8  24
ATOM     24  O   UNL     1     -33.907  97.082   8.341  1.00  0.00    -0.508 OA
ATOM     25  H   UNL     1     -33.110  97.649   8.605  1.00  0.00     0.293 HD
ENDBRANCH   8  24
TORSDOF 5
ENDMDL
MODEL 9
REMARK VINA RESULT:    -6.546      1.853      2.860
REMARK INTER + INTRA:          -7.963
REMARK INTER:                  -7.647
REMARK INTRA:                  -0.316
REMARK UNBOUND:                -0.269
REMARK SMILES O=c1cc(-c2ccc(O)c(O)c2)oc2cc(O)cc(O)c12
REMARK SMILES IDX 4 1 3 2 2 3 1 4 21 5 19 6 18 7 16 8 15 9 14 10 13 11 5 12
REMARK SMILES IDX 6 13 7 14 8 15 12 16 10 17 9 18 11 20 20 22 17 24
REMARK H PARENT 9 19 11 21 20 23 17 25
REMARK Flexibility Score: inf
ROOT
ATOM      1  C   UNL     1     -32.182  95.915   8.344  1.00  0.00     0.138 A 
ATOM      2  C   UNL     1     -31.590  95.445   9.525  1.00  0.00     0.100 A 
ATOM      3  C   UNL     1     -31.264  94.093   9.643  1.00  0.00     0.197 A 
ATOM      4  O   UNL     1     -30.677  93.713  10.689  1.00  0.00    -0.289 OA
ATOM      5  C   UNL     1     -31.564  93.202   8.585  1.00  0.00     0.107 A 
ATOM      6  C   UNL     1     -31.315  91.797   8.611  1.00  0.00     0.134 A 
ATOM      7  C   UNL     1     -31.547  91.034   7.460  1.00  0.00     0.093 A 
ATOM      8  C   UNL     1     -32.074  91.616   6.303  1.00  0.00     0.123 A 
ATOM      9  C   UNL     1     -32.370  92.976   6.287  1.00  0.00     0.094 A 
ATOM     10  C   UNL     1     -32.119  93.770   7.407  1.00  0.00     0.146 A 
ATOM     11  O   UNL     1     -32.403  95.067   7.345  1.00  0.00    -0.456 OA
ENDROOT
BRANCH   1  12
ATOM     12  C   UNL     1     -32.550  97.343   8.166  1.00  0.00     0.021 A 
ATOM     13  C   UNL     1     -32.582  98.239   9.250  1.00  0.00     0.016 A 
ATOM     14  C   UNL     1     -32.941  99.575   9.055  1.00  0.00     0.051 A 
ATOM     15  C   UNL     1     -33.282 100.037   7.777  1.00  0.00     0.157 A 
ATOM     16  C   UNL     1     -32.907  97.811   6.889  1.00  0.00     0.062 A 
ATOM     17  C   UNL     1     -33.266  99.149   6.690  1.00  0.00     0.158 A 
BRANCH  15  18
ATOM     18  O   UNL     1     -33.638 101.371   7.586  1.00  0.00    -0.504 OA
ATOM     19  H   UNL     1     -33.296 101.904   6.795  1.00  0.00     0.293 HD
ENDBRANCH  15  18
BRANCH  17  20
ATOM     20  O   UNL     1     -33.604  99.576   5.406  1.00  0.00    -0.504 OA
ATOM     21  H   UNL     1     -33.270 100.452   5.025  1.00  0.00     0.293 HD
ENDBRANCH  17  20
ENDBRANCH   1  12
BRANCH   6  22
ATOM     22  O   UNL     1     -30.869  91.103   9.740  1.00  0.00    -0.507 OA
ATOM     23  H   UNL     1     -31.267  90.243  10.083  1.00  0.00     0.293 HD
ENDBRANCH   6  22
BRANCH   8  24
ATOM     24  O   UNL     1     -32.315  90.845   5.168  1.00  0.00    -0.508 OA
ATOM     25  H   UNL     1     -31.804  89.989   4.989  1.00  0.00     0.293 HD
ENDBRANCH   8  24
TORSDOF 5
ENDMDL
