MODEL 1
REMARK VINA RESULT:    -3.011      0.000      0.000
REMARK INTER + INTRA:          -4.061
REMARK INTER:                  -3.803
REMARK INTRA:                  -0.259
REMARK UNBOUND:                -0.259
REMARK SMILES CSCC[C@@H]([NH3+])C(=O)[O-]
REMARK SMILES IDX 4 1 5 2 6 3 7 7 8 8 9 9 3 10 2 11 1 12
REMARK H PARENT 6 4 6 5 6 6
REMARK Flexibility Score: inf
ROOT
ATOM      1  C   UNL     1      27.119  24.089 -19.204  1.00  0.00     0.082 C 
ENDROOT
BRANCH   1   2
ATOM      2  C   UNL     1      27.215  23.686 -17.715  1.00  0.00     0.228 C 
BRANCH   2   3
ATOM      3  N   UNL     1      28.591  23.842 -17.232  1.00  0.00    -0.350 N 
ATOM      4  H   UNL     1      29.210  23.131 -17.687  1.00  0.00     0.345 HD
ATOM      5  H   UNL     1      28.949  24.793 -17.482  1.00  0.00     0.345 HD
ATOM      6  H   UNL     1      28.635  23.721 -16.193  1.00  0.00     0.345 HD
ENDBRANCH   2   3
BRANCH   2   7
ATOM      7  C   UNL     1      26.280  24.509 -16.867  1.00  0.00     0.099 C 
ATOM      8  O   UNL     1      25.053  24.229 -16.822  1.00  0.00    -0.544 OA
ATOM      9  O   UNL     1      26.768  25.571 -16.113  1.00  0.00    -0.544 OA
ENDBRANCH   2   7
ENDBRANCH   1   2
BRANCH   1  10
ATOM     10  C   UNL     1      28.279  24.982 -19.667  1.00  0.00     0.076 C 
BRANCH  10  11
ATOM     11  S   UNL     1      27.764  26.739 -19.744  1.00  0.00    -0.165 SA
ATOM     12  C   UNL     1      28.856  27.322 -18.407  1.00  0.00     0.085 C 
ENDBRANCH  10  11
ENDBRANCH   1  10
TORSDOF 5
ENDMDL
MODEL 2
REMARK VINA RESULT:    -3.009      1.190      1.201
REMARK INTER + INTRA:          -4.059
REMARK INTER:                  -3.947
REMARK INTRA:                  -0.112
REMARK UNBOUND:                -0.259
REMARK SMILES CSCC[C@@H]([NH3+])C(=O)[O-]
REMARK SMILES IDX 4 1 5 2 6 3 7 7 8 8 9 9 3 10 2 11 1 12
REMARK H PARENT 6 4 6 5 6 6
REMARK Flexibility Score: inf
ROOT
ATOM      1  C   UNL     1      27.151  24.062 -19.161  1.00  0.00     0.082 C 
ENDROOT
BRANCH   1   2
ATOM      2  C   UNL     1      27.232  23.688 -17.662  1.00  0.00     0.228 C 
BRANCH   2   3
ATOM      3  N   UNL     1      28.601  23.868 -17.166  1.00  0.00    -0.350 N 
ATOM      4  H   UNL     1      29.177  24.367 -17.884  1.00  0.00     0.345 HD
ATOM      5  H   UNL     1      28.589  24.451 -16.297  1.00  0.00     0.345 HD
ATOM      6  H   UNL     1      29.042  22.944 -16.953  1.00  0.00     0.345 HD
ENDBRANCH   2   3
BRANCH   2   7
ATOM      7  C   UNL     1      26.278  24.518 -16.842  1.00  0.00     0.099 C 
ATOM      8  O   UNL     1      25.049  24.246 -16.834  1.00  0.00    -0.544 OA
ATOM      9  O   UNL     1      26.751  25.575 -16.073  1.00  0.00    -0.544 OA
ENDBRANCH   2   7
ENDBRANCH   1   2
BRANCH   1  10
ATOM     10  C   UNL     1      27.877  25.371 -19.500  1.00  0.00     0.076 C 
BRANCH  10  11
ATOM     11  S   UNL     1      28.984  25.153 -20.944  1.00  0.00    -0.165 SA
ATOM     12  C   UNL     1      29.684  26.835 -20.910  1.00  0.00     0.085 C 
ENDBRANCH  10  11
ENDBRANCH   1  10
TORSDOF 5
ENDMDL
MODEL 3
REMARK VINA RESULT:    -2.968      2.929      4.043
REMARK INTER + INTRA:          -4.008
REMARK INTER:                  -3.933
REMARK INTRA:                  -0.075
REMARK UNBOUND:                -0.259
REMARK SMILES CSCC[C@@H]([NH3+])C(=O)[O-]
REMARK SMILES IDX 4 1 5 2 6 3 7 7 8 8 9 9 3 10 2 11 1 12
REMARK H PARENT 6 4 6 5 6 6
REMARK Flexibility Score: inf
ROOT
ATOM      1  C   UNL     1      26.346  24.623 -17.545  1.00  0.00     0.082 C 
ENDROOT
BRANCH   1   2
ATOM      2  C   UNL     1      27.830  24.616 -17.980  1.00  0.00     0.228 C 
BRANCH   2   3
ATOM      3  N   UNL     1      28.541  23.501 -17.346  1.00  0.00    -0.350 N 
ATOM      4  H   UNL     1      28.162  22.591 -17.697  1.00  0.00     0.345 HD
ATOM      5  H   UNL     1      29.558  23.545 -17.589  1.00  0.00     0.345 HD
ATOM      6  H   UNL     1      28.435  23.538 -16.306  1.00  0.00     0.345 HD
ENDBRANCH   2   3
BRANCH   2   7
ATOM      7  C   UNL     1      27.957  24.516 -19.479  1.00  0.00     0.099 C 
ATOM      8  O   UNL     1      29.070  24.705 -20.034  1.00  0.00    -0.544 OA
ATOM      9  O   UNL     1      26.850  24.195 -20.256  1.00  0.00    -0.544 OA
ENDBRANCH   2   7
ENDBRANCH   1   2
BRANCH   1  10
ATOM     10  C   UNL     1      26.003  25.761 -16.574  1.00  0.00     0.076 C 
BRANCH  10  11
ATOM     11  S   UNL     1      25.376  25.101 -14.984  1.00  0.00    -0.165 SA
ATOM     12  C   UNL     1      24.303  23.822 -15.712  1.00  0.00     0.085 C 
ENDBRANCH  10  11
ENDBRANCH   1  10
TORSDOF 5
ENDMDL
MODEL 4
REMARK VINA RESULT:    -2.899      2.565      3.182
REMARK INTER + INTRA:          -3.921
REMARK INTER:                  -3.751
REMARK INTRA:                  -0.170
REMARK UNBOUND:                -0.259
REMARK SMILES CSCC[C@@H]([NH3+])C(=O)[O-]
REMARK SMILES IDX 4 1 5 2 6 3 7 7 8 8 9 9 3 10 2 11 1 12
REMARK H PARENT 6 4 6 5 6 6
REMARK Flexibility Score: inf
ROOT
ATOM      1  C   UNL     1      26.325  24.361 -17.387  1.00  0.00     0.082 C 
ENDROOT
BRANCH   1   2
ATOM      2  C   UNL     1      27.786  24.545 -17.862  1.00  0.00     0.228 C 
BRANCH   2   3
ATOM      3  N   UNL     1      28.652  23.534 -17.246  1.00  0.00    -0.350 N 
ATOM      4  H   UNL     1      28.837  22.761 -17.926  1.00  0.00     0.345 HD
ATOM      5  H   UNL     1      29.570  23.965 -16.986  1.00  0.00     0.345 HD
ATOM      6  H   UNL     1      28.205  23.137 -16.388  1.00  0.00     0.345 HD
ENDBRANCH   2   3
BRANCH   2   7
ATOM      7  C   UNL     1      27.885  24.455 -19.363  1.00  0.00     0.099 C 
ATOM      8  O   UNL     1      26.866  24.180 -20.050  1.00  0.00    -0.544 OA
ATOM      9  O   UNL     1      29.096  24.695 -20.002  1.00  0.00    -0.544 OA
ENDBRANCH   2   7
ENDBRANCH   1   2
BRANCH   1  10
ATOM     10  C   UNL     1      25.914  25.354 -16.291  1.00  0.00     0.076 C 
BRANCH  10  11
ATOM     11  S   UNL     1      26.296  27.076 -16.788  1.00  0.00    -0.165 SA
ATOM     12  C   UNL     1      25.130  27.139 -18.187  1.00  0.00     0.085 C 
ENDBRANCH  10  11
ENDBRANCH   1  10
TORSDOF 5
ENDMDL
MODEL 5
REMARK VINA RESULT:    -2.792      1.547      2.168
REMARK INTER + INTRA:          -3.786
REMARK INTER:                  -3.633
REMARK INTRA:                  -0.153
REMARK UNBOUND:                -0.259
REMARK SMILES CSCC[C@@H]([NH3+])C(=O)[O-]
REMARK SMILES IDX 4 1 5 2 6 3 7 7 8 8 9 9 3 10 2 11 1 12
REMARK H PARENT 6 4 6 5 6 6
REMARK Flexibility Score: inf
ROOT
ATOM      1  C   UNL     1      27.266  24.420 -19.113  1.00  0.00     0.082 C 
ENDROOT
BRANCH   1   2
ATOM      2  C   UNL     1      27.486  24.466 -17.583  1.00  0.00     0.228 C 
BRANCH   2   3
ATOM      3  N   UNL     1      28.544  23.527 -17.192  1.00  0.00    -0.350 N 
ATOM      4  H   UNL     1      28.119  22.663 -16.783  1.00  0.00     0.345 HD
ATOM      5  H   UNL     1      29.100  23.250 -18.034  1.00  0.00     0.345 HD
ATOM      6  H   UNL     1      29.182  23.963 -16.487  1.00  0.00     0.345 HD
ENDBRANCH   2   3
BRANCH   2   7
ATOM      7  C   UNL     1      27.842  25.857 -17.125  1.00  0.00     0.099 C 
ATOM      8  O   UNL     1      28.889  26.413 -17.548  1.00  0.00    -0.544 OA
ATOM      9  O   UNL     1      27.007  26.543 -16.250  1.00  0.00    -0.544 OA
ENDBRANCH   2   7
ENDBRANCH   1   2
BRANCH   1  10
ATOM     10  C   UNL     1      26.526  25.649 -19.657  1.00  0.00     0.076 C 
BRANCH  10  11
ATOM     11  S   UNL     1      27.502  26.476 -20.969  1.00  0.00    -0.165 SA
ATOM     12  C   UNL     1      28.868  25.270 -20.986  1.00  0.00     0.085 C 
ENDBRANCH  10  11
ENDBRANCH   1  10
TORSDOF 5
ENDMDL
MODEL 6
REMARK VINA RESULT:    -2.733     13.132     13.563
REMARK INTER + INTRA:          -3.711
REMARK INTER:                  -3.564
REMARK INTRA:                  -0.147
REMARK UNBOUND:                -0.259
REMARK SMILES CSCC[C@@H]([NH3+])C(=O)[O-]
REMARK SMILES IDX 4 1 5 2 6 3 7 7 8 8 9 9 3 10 2 11 1 12
REMARK H PARENT 6 4 6 5 6 6
REMARK Flexibility Score: inf
ROOT
ATOM      1  C   UNL     1      39.384  17.314 -19.997  1.00  0.00     0.082 C 
ENDROOT
BRANCH   1   2
ATOM      2  C   UNL     1      37.878  16.960 -19.978  1.00  0.00     0.228 C 
BRANCH   2   3
ATOM      3  N   UNL     1      37.648  15.681 -20.659  1.00  0.00    -0.350 N 
ATOM      4  H   UNL     1      38.539  15.342 -21.090  1.00  0.00     0.345 HD
ATOM      5  H   UNL     1      37.327  14.964 -19.967  1.00  0.00     0.345 HD
ATOM      6  H   UNL     1      36.923  15.786 -21.406  1.00  0.00     0.345 HD
ENDBRANCH   2   3
BRANCH   2   7
ATOM      7  C   UNL     1      37.353  16.890 -18.568  1.00  0.00     0.099 C 
ATOM      8  O   UNL     1      36.142  16.620 -18.355  1.00  0.00    -0.544 OA
ATOM      9  O   UNL     1      38.206  17.103 -17.490  1.00  0.00    -0.544 OA
ENDBRANCH   2   7
ENDBRANCH   1   2
BRANCH   1  10
ATOM     10  C   UNL     1      39.836  17.976 -21.306  1.00  0.00     0.076 C 
BRANCH  10  11
ATOM     11  S   UNL     1      38.556  19.125 -21.938  1.00  0.00    -0.165 SA
ATOM     12  C   UNL     1      38.402  18.359 -23.584  1.00  0.00     0.085 C 
ENDBRANCH  10  11
ENDBRANCH   1  10
TORSDOF 5
ENDMDL
MODEL 7
REMARK VINA RESULT:    -2.716      3.052      4.190
REMARK INTER + INTRA:          -3.690
REMARK INTER:                  -3.569
REMARK INTRA:                  -0.120
REMARK UNBOUND:                -0.259
REMARK SMILES CSCC[C@@H]([NH3+])C(=O)[O-]
REMARK SMILES IDX 4 1 5 2 6 3 7 7 8 8 9 9 3 10 2 11 1 12
REMARK H PARENT 6 4 6 5 6 6
REMARK Flexibility Score: inf
ROOT
ATOM      1  C   UNL     1      28.975  27.315 -18.642  1.00  0.00     0.082 C 
ENDROOT
BRANCH   1   2
ATOM      2  C   UNL     1      28.839  27.410 -17.104  1.00  0.00     0.228 C 
BRANCH   2   3
ATOM      3  N   UNL     1      28.800  26.068 -16.513  1.00  0.00    -0.350 N 
ATOM      4  H   UNL     1      28.329  26.104 -15.579  1.00  0.00     0.345 HD
ATOM      5  H   UNL     1      28.250  25.425 -17.129  1.00  0.00     0.345 HD
ATOM      6  H   UNL     1      29.767  25.687 -16.396  1.00  0.00     0.345 HD
ENDBRANCH   2   3
BRANCH   2   7
ATOM      7  C   UNL     1      29.975  28.199 -16.505  1.00  0.00     0.099 C 
ATOM      8  O   UNL     1      30.477  29.165 -17.137  1.00  0.00    -0.544 OA
ATOM      9  O   UNL     1      30.462  27.879 -15.243  1.00  0.00    -0.544 OA
ENDBRANCH   2   7
ENDBRANCH   1   2
BRANCH   1  10
ATOM     10  C   UNL     1      27.762  26.664 -19.320  1.00  0.00     0.076 C 
BRANCH  10  11
ATOM     11  S   UNL     1      28.227  25.083 -20.121  1.00  0.00    -0.165 SA
ATOM     12  C   UNL     1      27.188  24.018 -19.070  1.00  0.00     0.085 C 
ENDBRANCH  10  11
ENDBRANCH   1  10
TORSDOF 5
ENDMDL
MODEL 8
REMARK VINA RESULT:    -2.636     14.037     14.319
REMARK INTER + INTRA:          -3.589
REMARK INTER:                  -3.515
REMARK INTRA:                  -0.074
REMARK UNBOUND:                -0.259
REMARK SMILES CSCC[C@@H]([NH3+])C(=O)[O-]
REMARK SMILES IDX 4 1 5 2 6 3 7 7 8 8 9 9 3 10 2 11 1 12
REMARK H PARENT 6 4 6 5 6 6
REMARK Flexibility Score: inf
ROOT
ATOM      1  C   UNL     1      38.797  17.644 -16.815  1.00  0.00     0.082 C 
ENDROOT
BRANCH   1   2
ATOM      2  C   UNL     1      38.810  16.757 -18.081  1.00  0.00     0.228 C 
BRANCH   2   3
ATOM      3  N   UNL     1      38.985  15.347 -17.713  1.00  0.00    -0.350 N 
ATOM      4  H   UNL     1      38.665  15.195 -16.728  1.00  0.00     0.345 HD
ATOM      5  H   UNL     1      38.406  14.742 -18.341  1.00  0.00     0.345 HD
ATOM      6  H   UNL     1      39.989  15.066 -17.796  1.00  0.00     0.345 HD
ENDBRANCH   2   3
BRANCH   2   7
ATOM      7  C   UNL     1      37.540  16.923 -18.876  1.00  0.00     0.099 C 
ATOM      8  O   UNL     1      36.422  16.728 -18.331  1.00  0.00    -0.544 OA
ATOM      9  O   UNL     1      37.593  17.313 -20.209  1.00  0.00    -0.544 OA
ENDBRANCH   2   7
ENDBRANCH   1   2
BRANCH   1  10
ATOM     10  C   UNL     1      40.012  17.422 -15.905  1.00  0.00     0.076 C 
BRANCH  10  11
ATOM     11  S   UNL     1      41.536  18.099 -16.666  1.00  0.00    -0.165 SA
ATOM     12  C   UNL     1      41.774  19.446 -15.461  1.00  0.00     0.085 C 
ENDBRANCH  10  11
ENDBRANCH   1  10
TORSDOF 5
ENDMDL
MODEL 9
REMARK VINA RESULT:    -2.626     14.129     14.577
REMARK INTER + INTRA:          -3.576
REMARK INTER:                  -3.304
REMARK INTRA:                  -0.272
REMARK UNBOUND:                -0.259
REMARK SMILES CSCC[C@@H]([NH3+])C(=O)[O-]
REMARK SMILES IDX 4 1 5 2 6 3 7 7 8 8 9 9 3 10 2 11 1 12
REMARK H PARENT 6 4 6 5 6 6
REMARK Flexibility Score: inf
ROOT
ATOM      1  C   UNL     1      39.658  16.861 -19.367  1.00  0.00     0.082 C 
ENDROOT
BRANCH   1   2
ATOM      2  C   UNL     1      38.150  17.071 -19.638  1.00  0.00     0.228 C 
BRANCH   2   3
ATOM      3  N   UNL     1      37.658  16.064 -20.585  1.00  0.00    -0.350 N 
ATOM      4  H   UNL     1      36.872  16.461 -21.150  1.00  0.00     0.345 HD
ATOM      5  H   UNL     1      38.425  15.789 -21.241  1.00  0.00     0.345 HD
ATOM      6  H   UNL     1      37.320  15.213 -20.077  1.00  0.00     0.345 HD
ENDBRANCH   2   3
BRANCH   2   7
ATOM      7  C   UNL     1      37.353  17.005 -18.361  1.00  0.00     0.099 C 
ATOM      8  O   UNL     1      36.162  16.596 -18.378  1.00  0.00    -0.544 OA
ATOM      9  O   UNL     1      37.932  17.374 -17.152  1.00  0.00    -0.544 OA
ENDBRANCH   2   7
ENDBRANCH   1   2
BRANCH   1  10
ATOM     10  C   UNL     1      40.098  15.395 -19.484  1.00  0.00     0.076 C 
BRANCH  10  11
ATOM     11  S   UNL     1      40.274  14.628 -17.829  1.00  0.00    -0.165 SA
ATOM     12  C   UNL     1      38.747  13.638 -17.909  1.00  0.00     0.085 C 
ENDBRANCH  10  11
ENDBRANCH   1  10
TORSDOF 5
ENDMDL
