MODEL 1
REMARK VINA RESULT:    -2.422      0.000      0.000
REMARK INTER + INTRA:          -4.290
REMARK INTER:                  -3.696
REMARK INTRA:                  -0.594
REMARK UNBOUND:                -0.594
REMARK SMILES OC[C@H]1O[C@H](O[C@]2(CO)O[C@H](CO)[C@@H](O)[C@H]2O)[C@H](O)[C@@H](O)[C@@H]1O
REMARK SMILES IDX 6 1 5 2 3 3 22 4 4 5 20 6 18 7 2 8 1 9 23 11 21 13 19 15
REMARK SMILES IDX 7 17 16 18 10 19 14 20 11 21 8 22 9 23 17 25 15 27 12 29
REMARK SMILES IDX 13 30
REMARK H PARENT 1 10 23 12 21 14 19 16 9 24 17 26 15 28 13 31
REMARK Flexibility Score: inf
ROOT
ATOM      1  O   UNL     1      -9.093  -6.628 -14.782  1.00  0.00    -0.313 OA
ENDROOT
BRANCH   1   2
ATOM      2  C   UNL     1     -10.172  -5.822 -14.310  1.00  0.00     0.285 C 
ATOM      3  C   UNL     1      -9.562  -4.035 -15.721  1.00  0.00     0.178 C 
ATOM      4  C   UNL     1     -10.807  -4.198 -16.625  1.00  0.00     0.177 C 
ATOM      5  O   UNL     1      -9.845  -4.442 -14.389  1.00  0.00    -0.341 OA
ATOM      6  C   UNL     1     -11.290  -5.658 -16.580  1.00  0.00     0.179 C 
ATOM      7  C   UNL     1     -11.455  -6.114 -15.115  1.00  0.00     0.202 C 
BRANCH   3   8
ATOM      8  C   UNL     1      -9.109  -2.570 -15.693  1.00  0.00     0.191 C 
BRANCH   8   9
ATOM      9  O   UNL     1      -9.891  -1.850 -14.780  1.00  0.00    -0.394 OA
ATOM     10  H   UNL     1      -9.280  -1.200 -14.345  1.00  0.00     0.210 HD
ENDBRANCH   8   9
ENDBRANCH   3   8
BRANCH   4  11
ATOM     11  O   UNL     1     -10.480  -3.851 -17.947  1.00  0.00    -0.387 OA
ATOM     12  H   UNL     1     -11.104  -3.127 -18.216  1.00  0.00     0.211 HD
ENDBRANCH   4  11
BRANCH   6  13
ATOM     13  O   UNL     1     -12.495  -5.816 -17.290  1.00  0.00    -0.387 OA
ATOM     14  H   UNL     1     -12.304  -5.650 -18.250  1.00  0.00     0.211 HD
ENDBRANCH   6  13
BRANCH   7  15
ATOM     15  O   UNL     1     -11.809  -7.473 -15.035  1.00  0.00    -0.385 OA
ATOM     16  H   UNL     1     -11.791  -7.736 -14.078  1.00  0.00     0.211 HD
ENDBRANCH   7  15
ENDBRANCH   1   2
BRANCH   1  17
ATOM     17  C   UNL     1      -7.965  -6.705 -13.907  1.00  0.00     0.224 C 
ATOM     18  C   UNL     1      -7.075  -7.919 -14.260  1.00  0.00     0.208 C 
ATOM     19  O   UNL     1      -7.184  -5.553 -14.155  1.00  0.00    -0.337 OA
ATOM     20  C   UNL     1      -6.234  -7.378 -15.395  1.00  0.00     0.180 C 
ATOM     21  C   UNL     1      -6.171  -5.882 -15.085  1.00  0.00     0.179 C 
BRANCH  17  22
ATOM     22  C   UNL     1      -8.375  -6.661 -12.408  1.00  0.00     0.225 C 
BRANCH  22  23
ATOM     23  O   UNL     1      -7.409  -5.988 -11.645  1.00  0.00    -0.391 OA
ATOM     24  H   UNL     1      -7.885  -5.283 -11.134  1.00  0.00     0.210 HD
ENDBRANCH  22  23
ENDBRANCH  17  22
BRANCH  18  25
ATOM     25  O   UNL     1      -6.278  -8.339 -13.173  1.00  0.00    -0.385 OA
ATOM     26  H   UNL     1      -6.316  -9.330 -13.122  1.00  0.00     0.211 HD
ENDBRANCH  18  25
BRANCH  20  27
ATOM     27  O   UNL     1      -4.948  -7.944 -15.427  1.00  0.00    -0.387 OA
ATOM     28  H   UNL     1      -4.402  -7.436 -14.772  1.00  0.00     0.211 HD
ENDBRANCH  20  27
BRANCH  21  29
ATOM     29  C   UNL     1      -6.327  -5.028 -16.350  1.00  0.00     0.191 C 
BRANCH  29  30
ATOM     30  O   UNL     1      -5.165  -4.277 -16.580  1.00  0.00    -0.394 OA
ATOM     31  H   UNL     1      -5.451  -3.444 -17.038  1.00  0.00     0.210 HD
ENDBRANCH  29  30
ENDBRANCH  21  29
ENDBRANCH   1  17
TORSDOF 13
ENDMDL
MODEL 2
REMARK VINA RESULT:    -1.545      0.935      5.732
REMARK INTER + INTRA:          -2.951
REMARK INTER:                  -1.720
REMARK INTRA:                  -1.232
REMARK UNBOUND:                -0.594
REMARK SMILES OC[C@H]1O[C@H](O[C@]2(CO)O[C@H](CO)[C@@H](O)[C@H]2O)[C@H](O)[C@@H](O)[C@@H]1O
REMARK SMILES IDX 6 1 5 2 3 3 22 4 4 5 20 6 18 7 2 8 1 9 23 11 21 13 19 15
REMARK SMILES IDX 7 17 16 18 10 19 14 20 11 21 8 22 9 23 17 25 15 27 12 29
REMARK SMILES IDX 13 30
REMARK H PARENT 1 10 23 12 21 14 19 16 9 24 17 26 15 28 13 31
REMARK Flexibility Score: inf
ROOT
ATOM      1  O   UNL     1      -8.757  -5.219 -15.909  1.00  0.00    -0.313 OA
ENDROOT
BRANCH   1   2
ATOM      2  C   UNL     1      -7.727  -4.810 -15.010  1.00  0.00     0.285 C 
ATOM      3  C   UNL     1      -8.175  -6.605 -13.549  1.00  0.00     0.178 C 
ATOM      4  C   UNL     1      -6.845  -7.326 -13.872  1.00  0.00     0.177 C 
ATOM      5  O   UNL     1      -8.034  -5.196 -13.678  1.00  0.00    -0.341 OA
ATOM      6  C   UNL     1      -6.379  -6.940 -15.288  1.00  0.00     0.179 C 
ATOM      7  C   UNL     1      -6.370  -5.404 -15.439  1.00  0.00     0.202 C 
BRANCH   3   8
ATOM      8  C   UNL     1      -8.618  -6.917 -12.114  1.00  0.00     0.191 C 
BRANCH   8   9
ATOM      9  O   UNL     1      -7.504  -6.925 -11.265  1.00  0.00    -0.394 OA
ATOM     10  H   UNL     1      -7.545  -7.779 -10.762  1.00  0.00     0.210 HD
ENDBRANCH   8   9
ENDBRANCH   3   8
BRANCH   4  11
ATOM     11  O   UNL     1      -7.031  -8.717 -13.801  1.00  0.00    -0.387 OA
ATOM     12  H   UNL     1      -7.085  -9.047 -14.736  1.00  0.00     0.211 HD
ENDBRANCH   4  11
BRANCH   6  13
ATOM     13  O   UNL     1      -5.109  -7.477 -15.568  1.00  0.00    -0.387 OA
ATOM     14  H   UNL     1      -4.532  -7.320 -14.775  1.00  0.00     0.211 HD
ENDBRANCH   6  13
BRANCH   7  15
ATOM     15  O   UNL     1      -6.035  -5.018 -16.749  1.00  0.00    -0.385 OA
ATOM     16  H   UNL     1      -6.695  -4.337 -17.044  1.00  0.00     0.211 HD
ENDBRANCH   7  15
ENDBRANCH   1   2
BRANCH   1  17
ATOM     17  C   UNL     1      -9.835  -4.292 -16.059  1.00  0.00     0.224 C 
ATOM     18  C   UNL     1     -10.579  -4.522 -17.395  1.00  0.00     0.208 C 
ATOM     19  O   UNL     1     -10.762  -4.582 -15.032  1.00  0.00    -0.337 OA
ATOM     20  C   UNL     1     -11.520  -5.653 -17.044  1.00  0.00     0.180 C 
ATOM     21  C   UNL     1     -11.758  -5.442 -15.548  1.00  0.00     0.179 C 
BRANCH  17  22
ATOM     22  C   UNL     1      -9.380  -2.818 -15.857  1.00  0.00     0.225 C 
BRANCH  22  23
ATOM     23  O   UNL     1     -10.039  -2.238 -14.763  1.00  0.00    -0.391 OA
ATOM     24  H   UNL     1      -9.795  -2.773 -13.963  1.00  0.00     0.210 HD
ENDBRANCH  22  23
ENDBRANCH  17  22
BRANCH  18  25
ATOM     25  O   UNL     1     -11.277  -3.375 -17.829  1.00  0.00    -0.385 OA
ATOM     26  H   UNL     1     -11.705  -2.952 -17.039  1.00  0.00     0.211 HD
ENDBRANCH  18  25
BRANCH  20  27
ATOM     27  O   UNL     1     -12.726  -5.589 -17.763  1.00  0.00    -0.387 OA
ATOM     28  H   UNL     1     -12.480  -5.611 -18.724  1.00  0.00     0.211 HD
ENDBRANCH  20  27
BRANCH  21  29
ATOM     29  C   UNL     1     -11.755  -6.768 -14.775  1.00  0.00     0.191 C 
BRANCH  29  30
ATOM     30  O   UNL     1     -10.866  -7.677 -15.366  1.00  0.00    -0.394 OA
ATOM     31  H   UNL     1     -10.224  -7.947 -14.660  1.00  0.00     0.210 HD
ENDBRANCH  29  30
ENDBRANCH  21  29
ENDBRANCH   1  17
TORSDOF 13
ENDMDL
MODEL 3
REMARK VINA RESULT:    -1.131      1.690      4.293
REMARK INTER + INTRA:          -2.320
REMARK INTER:                  -1.491
REMARK INTRA:                  -0.829
REMARK UNBOUND:                -0.594
REMARK SMILES OC[C@H]1O[C@H](O[C@]2(CO)O[C@H](CO)[C@@H](O)[C@H]2O)[C@H](O)[C@@H](O)[C@@H]1O
REMARK SMILES IDX 6 1 5 2 3 3 22 4 4 5 20 6 18 7 2 8 1 9 23 11 21 13 19 15
REMARK SMILES IDX 7 17 16 18 10 19 14 20 11 21 8 22 9 23 17 25 15 27 12 29
REMARK SMILES IDX 13 30
REMARK H PARENT 1 10 23 12 21 14 19 16 9 24 17 26 15 28 13 31
REMARK Flexibility Score: inf
ROOT
ATOM      1  O   UNL     1      -7.633  -6.397 -15.580  1.00  0.00    -0.313 OA
ENDROOT
BRANCH   1   2
ATOM      2  C   UNL     1      -8.019  -6.675 -14.235  1.00  0.00     0.285 C 
ATOM      3  C   UNL     1     -10.309  -6.567 -14.783  1.00  0.00     0.178 C 
ATOM      4  C   UNL     1     -10.529  -8.084 -14.577  1.00  0.00     0.177 C 
ATOM      5  O   UNL     1      -9.275  -6.084 -13.935  1.00  0.00    -0.341 OA
ATOM      6  C   UNL     1      -9.209  -8.836 -14.825  1.00  0.00     0.179 C 
ATOM      7  C   UNL     1      -8.075  -8.198 -13.995  1.00  0.00     0.202 C 
BRANCH   3   8
ATOM      8  C   UNL     1     -11.595  -5.792 -14.466  1.00  0.00     0.191 C 
BRANCH   8   9
ATOM      9  O   UNL     1     -12.535  -5.996 -15.483  1.00  0.00    -0.394 OA
ATOM     10  H   UNL     1     -13.252  -5.328 -15.336  1.00  0.00     0.210 HD
ENDBRANCH   8   9
ENDBRANCH   3   8
BRANCH   4  11
ATOM     11  O   UNL     1     -11.509  -8.546 -15.471  1.00  0.00    -0.387 OA
ATOM     12  H   UNL     1     -12.310  -8.771 -14.929  1.00  0.00     0.211 HD
ENDBRANCH   4  11
BRANCH   6  13
ATOM     13  O   UNL     1      -9.339 -10.204 -14.525  1.00  0.00    -0.387 OA
ATOM     14  H   UNL     1      -8.485 -10.508 -14.120  1.00  0.00     0.211 HD
ENDBRANCH   6  13
BRANCH   7  15
ATOM     15  O   UNL     1      -6.835  -8.804 -14.267  1.00  0.00    -0.385 OA
ATOM     16  H   UNL     1      -6.773  -8.944 -15.247  1.00  0.00     0.211 HD
ENDBRANCH   7  15
ENDBRANCH   1   2
BRANCH   1  17
ATOM     17  C   UNL     1      -6.943  -5.159 -15.769  1.00  0.00     0.224 C 
ATOM     18  C   UNL     1      -6.537  -4.974 -17.250  1.00  0.00     0.208 C 
ATOM     19  O   UNL     1      -7.871  -4.132 -15.480  1.00  0.00    -0.337 OA
ATOM     20  C   UNL     1      -7.808  -4.429 -17.863  1.00  0.00     0.180 C 
ATOM     21  C   UNL     1      -8.463  -3.701 -16.689  1.00  0.00     0.179 C 
BRANCH  17  22
ATOM     22  C   UNL     1      -5.754  -4.988 -14.782  1.00  0.00     0.225 C 
BRANCH  22  23
ATOM     23  O   UNL     1      -4.645  -5.737 -15.202  1.00  0.00    -0.391 OA
ATOM     24  H   UNL     1      -3.980  -5.092 -15.560  1.00  0.00     0.210 HD
ENDBRANCH  22  23
ENDBRANCH  17  22
BRANCH  18  25
ATOM     25  O   UNL     1      -5.456  -4.081 -17.406  1.00  0.00    -0.385 OA
ATOM     26  H   UNL     1      -5.427  -3.787 -18.354  1.00  0.00     0.211 HD
ENDBRANCH  18  25
BRANCH  20  27
ATOM     27  O   UNL     1      -7.554  -3.548 -18.928  1.00  0.00    -0.387 OA
ATOM     28  H   UNL     1      -7.672  -4.075 -19.761  1.00  0.00     0.211 HD
ENDBRANCH  20  27
BRANCH  21  29
ATOM     29  C   UNL     1      -9.978  -3.938 -16.641  1.00  0.00     0.191 C 
BRANCH  29  30
ATOM     30  O   UNL     1     -10.514  -3.942 -17.937  1.00  0.00    -0.394 OA
ATOM     31  H   UNL     1     -10.036  -3.236 -18.445  1.00  0.00     0.210 HD
ENDBRANCH  29  30
ENDBRANCH  21  29
ENDBRANCH   1  17
TORSDOF 13
ENDMDL
MODEL 4
REMARK VINA RESULT:    -1.072      1.706      4.206
REMARK INTER + INTRA:          -2.230
REMARK INTER:                  -1.322
REMARK INTRA:                  -0.909
REMARK UNBOUND:                -0.594
REMARK SMILES OC[C@H]1O[C@H](O[C@]2(CO)O[C@H](CO)[C@@H](O)[C@H]2O)[C@H](O)[C@@H](O)[C@@H]1O
REMARK SMILES IDX 6 1 5 2 3 3 22 4 4 5 20 6 18 7 2 8 1 9 23 11 21 13 19 15
REMARK SMILES IDX 7 17 16 18 10 19 14 20 11 21 8 22 9 23 17 25 15 27 12 29
REMARK SMILES IDX 13 30
REMARK H PARENT 1 10 23 12 21 14 19 16 9 24 17 26 15 28 13 31
REMARK Flexibility Score: inf
ROOT
ATOM      1  O   UNL     1      -9.885  -6.040 -15.916  1.00  0.00    -0.313 OA
ENDROOT
BRANCH   1   2
ATOM      2  C   UNL     1      -9.611  -4.665 -15.652  1.00  0.00     0.285 C 
ATOM      3  C   UNL     1      -7.284  -5.045 -15.648  1.00  0.00     0.178 C 
ATOM      4  C   UNL     1      -7.057  -4.268 -16.965  1.00  0.00     0.177 C 
ATOM      5  O   UNL     1      -8.395  -4.520 -14.933  1.00  0.00    -0.341 OA
ATOM      6  C   UNL     1      -8.338  -4.311 -17.817  1.00  0.00     0.179 C 
ATOM      7  C   UNL     1      -9.549  -3.866 -16.971  1.00  0.00     0.202 C 
BRANCH   3   8
ATOM      8  C   UNL     1      -6.043  -4.951 -14.750  1.00  0.00     0.191 C 
BRANCH   8   9
ATOM      9  O   UNL     1      -5.008  -5.726 -15.288  1.00  0.00    -0.394 OA
ATOM     10  H   UNL     1      -4.877  -6.485 -14.662  1.00  0.00     0.210 HD
ENDBRANCH   8   9
ENDBRANCH   3   8
BRANCH   4  11
ATOM     11  O   UNL     1      -5.996  -4.849 -17.681  1.00  0.00    -0.387 OA
ATOM     12  H   UNL     1      -5.628  -4.143 -18.274  1.00  0.00     0.211 HD
ENDBRANCH   4  11
BRANCH   6  13
ATOM     13  O   UNL     1      -8.210  -3.509 -18.966  1.00  0.00    -0.387 OA
ATOM     14  H   UNL     1      -8.686  -2.654 -18.793  1.00  0.00     0.211 HD
ENDBRANCH   6  13
BRANCH   7  15
ATOM     15  O   UNL     1     -10.751  -3.979 -17.693  1.00  0.00    -0.385 OA
ATOM     16  H   UNL     1     -10.792  -3.224 -18.335  1.00  0.00     0.211 HD
ENDBRANCH   7  15
ENDBRANCH   1   2
BRANCH   1  17
ATOM     17  C   UNL     1     -10.574  -6.732 -14.872  1.00  0.00     0.224 C 
ATOM     18  C   UNL     1     -10.910  -8.180 -15.297  1.00  0.00     0.208 C 
ATOM     19  O   UNL     1      -9.669  -6.835 -13.790  1.00  0.00    -0.337 OA
ATOM     20  C   UNL     1      -9.616  -8.906 -15.005  1.00  0.00     0.180 C 
ATOM     21  C   UNL     1      -9.023  -8.090 -13.856  1.00  0.00     0.179 C 
BRANCH  17  22
ATOM     22  C   UNL     1     -11.811  -5.943 -14.355  1.00  0.00     0.225 C 
BRANCH  22  23
ATOM     23  O   UNL     1     -12.860  -5.995 -15.285  1.00  0.00    -0.391 OA
ATOM     24  H   UNL     1     -12.541  -6.541 -16.050  1.00  0.00     0.210 HD
ENDBRANCH  22  23
ENDBRANCH  17  22
BRANCH  18  25
ATOM     25  O   UNL     1     -11.990  -8.721 -14.567  1.00  0.00    -0.385 OA
ATOM     26  H   UNL     1     -12.537  -9.276 -15.181  1.00  0.00     0.211 HD
ENDBRANCH  18  25
BRANCH  20  27
ATOM     27  O   UNL     1      -9.825 -10.242 -14.624  1.00  0.00    -0.387 OA
ATOM     28  H   UNL     1      -9.236 -10.794 -15.202  1.00  0.00     0.211 HD
ENDBRANCH  20  27
BRANCH  21  29
ATOM     29  C   UNL     1      -7.510  -7.890 -14.016  1.00  0.00     0.191 C 
BRANCH  29  30
ATOM     30  O   UNL     1      -6.860  -9.129 -14.107  1.00  0.00    -0.394 OA
ATOM     31  H   UNL     1      -6.888  -9.394 -15.063  1.00  0.00     0.210 HD
ENDBRANCH  29  30
ENDBRANCH  21  29
ENDBRANCH   1  17
TORSDOF 13
ENDMDL
MODEL 5
REMARK VINA RESULT:    -0.977      1.752      3.356
REMARK INTER + INTRA:          -2.085
REMARK INTER:                  -1.949
REMARK INTRA:                  -0.136
REMARK UNBOUND:                -0.594
REMARK SMILES OC[C@H]1O[C@H](O[C@]2(CO)O[C@H](CO)[C@@H](O)[C@H]2O)[C@H](O)[C@@H](O)[C@@H]1O
REMARK SMILES IDX 6 1 5 2 3 3 22 4 4 5 20 6 18 7 2 8 1 9 23 11 21 13 19 15
REMARK SMILES IDX 7 17 16 18 10 19 14 20 11 21 8 22 9 23 17 25 15 27 12 29
REMARK SMILES IDX 13 30
REMARK H PARENT 1 10 23 12 21 14 19 16 9 24 17 26 15 28 13 31
REMARK Flexibility Score: inf
ROOT
ATOM      1  O   UNL     1      -7.760  -6.005 -15.400  1.00  0.00    -0.313 OA
ENDROOT
BRANCH   1   2
ATOM      2  C   UNL     1      -7.804  -4.579 -15.379  1.00  0.00     0.285 C 
ATOM      3  C   UNL     1      -6.668  -4.432 -17.439  1.00  0.00     0.178 C 
ATOM      4  C   UNL     1      -7.910  -3.910 -18.198  1.00  0.00     0.177 C 
ATOM      5  O   UNL     1      -6.697  -4.028 -16.077  1.00  0.00    -0.341 OA
ATOM      6  C   UNL     1      -9.189  -4.404 -17.497  1.00  0.00     0.179 C 
ATOM      7  C   UNL     1      -9.126  -4.072 -15.992  1.00  0.00     0.202 C 
BRANCH   3   8
ATOM      8  C   UNL     1      -5.383  -3.888 -18.077  1.00  0.00     0.191 C 
BRANCH   8   9
ATOM      9  O   UNL     1      -4.358  -3.853 -17.123  1.00  0.00    -0.394 OA
ATOM     10  H   UNL     1      -4.510  -3.034 -16.584  1.00  0.00     0.210 HD
ENDBRANCH   8   9
ENDBRANCH   3   8
BRANCH   4  11
ATOM     11  O   UNL     1      -7.888  -4.379 -19.522  1.00  0.00    -0.387 OA
ATOM     12  H   UNL     1      -7.202  -5.095 -19.562  1.00  0.00     0.211 HD
ENDBRANCH   4  11
BRANCH   6  13
ATOM     13  O   UNL     1     -10.338  -3.845 -18.085  1.00  0.00    -0.387 OA
ATOM     14  H   UNL     1     -10.075  -3.470 -18.966  1.00  0.00     0.211 HD
ENDBRANCH   6  13
BRANCH   7  15
ATOM     15  O   UNL     1     -10.239  -4.590 -15.304  1.00  0.00    -0.385 OA
ATOM     16  H   UNL     1     -10.765  -5.137 -15.944  1.00  0.00     0.211 HD
ENDBRANCH   7  15
ENDBRANCH   1   2
BRANCH   1  17
ATOM     17  C   UNL     1      -8.262  -6.644 -14.223  1.00  0.00     0.224 C 
ATOM     18  C   UNL     1      -9.383  -7.649 -14.576  1.00  0.00     0.208 C 
ATOM     19  O   UNL     1      -7.196  -7.408 -13.694  1.00  0.00    -0.337 OA
ATOM     20  C   UNL     1      -8.596  -8.876 -14.981  1.00  0.00     0.180 C 
ATOM     21  C   UNL     1      -7.311  -8.736 -14.165  1.00  0.00     0.179 C 
BRANCH  17  22
ATOM     22  C   UNL     1      -8.677  -5.623 -13.126  1.00  0.00     0.225 C 
BRANCH  22  23
ATOM     23  O   UNL     1      -8.724  -6.237 -11.866  1.00  0.00    -0.391 OA
ATOM     24  H   UNL     1      -8.172  -7.059 -11.924  1.00  0.00     0.210 HD
ENDBRANCH  22  23
ENDBRANCH  17  22
BRANCH  18  25
ATOM     25  O   UNL     1     -10.237  -7.912 -13.484  1.00  0.00    -0.385 OA
ATOM     26  H   UNL     1     -10.412  -7.057 -13.011  1.00  0.00     0.211 HD
ENDBRANCH  18  25
BRANCH  20  27
ATOM     27  O   UNL     1      -9.267 -10.070 -14.670  1.00  0.00    -0.387 OA
ATOM     28  H   UNL     1      -9.277 -10.612 -15.502  1.00  0.00     0.211 HD
ENDBRANCH  20  27
BRANCH  21  29
ATOM     29  C   UNL     1      -6.068  -9.109 -14.983  1.00  0.00     0.191 C 
BRANCH  29  30
ATOM     30  O   UNL     1      -5.316  -7.963 -15.281  1.00  0.00    -0.394 OA
ATOM     31  H   UNL     1      -5.935  -7.191 -15.209  1.00  0.00     0.210 HD
ENDBRANCH  29  30
ENDBRANCH  21  29
ENDBRANCH   1  17
TORSDOF 13
ENDMDL
MODEL 6
REMARK VINA RESULT:    -0.360      1.952      5.228
REMARK INTER + INTRA:          -1.143
REMARK INTER:                  -0.633
REMARK INTRA:                  -0.510
REMARK UNBOUND:                -0.594
REMARK SMILES OC[C@H]1O[C@H](O[C@]2(CO)O[C@H](CO)[C@@H](O)[C@H]2O)[C@H](O)[C@@H](O)[C@@H]1O
REMARK SMILES IDX 6 1 5 2 3 3 22 4 4 5 20 6 18 7 2 8 1 9 23 11 21 13 19 15
REMARK SMILES IDX 7 17 16 18 10 19 14 20 11 21 8 22 9 23 17 25 15 27 12 29
REMARK SMILES IDX 13 30
REMARK H PARENT 1 10 23 12 21 14 19 16 9 24 17 26 15 28 13 31
REMARK Flexibility Score: inf
ROOT
ATOM      1  O   UNL     1      -9.789  -5.968 -15.523  1.00  0.00    -0.313 OA
ENDROOT
BRANCH   1   2
ATOM      2  C   UNL     1      -9.789  -6.457 -14.183  1.00  0.00     0.285 C 
ATOM      3  C   UNL     1     -10.690  -8.530 -14.852  1.00  0.00     0.178 C 
ATOM      4  C   UNL     1      -9.386  -9.304 -14.549  1.00  0.00     0.177 C 
ATOM      5  O   UNL     1     -10.827  -7.407 -13.990  1.00  0.00    -0.341 OA
ATOM      6  C   UNL     1      -8.181  -8.355 -14.676  1.00  0.00     0.179 C 
ATOM      7  C   UNL     1      -8.422  -7.082 -13.838  1.00  0.00     0.202 C 
BRANCH   3   8
ATOM      8  C   UNL     1     -11.910  -9.440 -14.656  1.00  0.00     0.191 C 
BRANCH   8   9
ATOM      9  O   UNL     1     -12.935  -8.729 -14.019  1.00  0.00    -0.394 OA
ATOM     10  H   UNL     1     -13.407  -8.225 -14.731  1.00  0.00     0.210 HD
ENDBRANCH   8   9
ENDBRANCH   3   8
BRANCH   4  11
ATOM     11  O   UNL     1      -9.245 -10.368 -15.456  1.00  0.00    -0.387 OA
ATOM     12  H   UNL     1     -10.160 -10.694 -15.661  1.00  0.00     0.211 HD
ENDBRANCH   4  11
BRANCH   6  13
ATOM     13  O   UNL     1      -6.989  -8.992 -14.284  1.00  0.00    -0.387 OA
ATOM     14  H   UNL     1      -6.251  -8.334 -14.373  1.00  0.00     0.211 HD
ENDBRANCH   6  13
BRANCH   7  15
ATOM     15  O   UNL     1      -7.379  -6.152 -14.002  1.00  0.00    -0.385 OA
ATOM     16  H   UNL     1      -7.735  -5.385 -14.522  1.00  0.00     0.211 HD
ENDBRANCH   7  15
ENDBRANCH   1   2
BRANCH   1  17
ATOM     17  C   UNL     1      -9.527  -4.569 -15.659  1.00  0.00     0.224 C 
ATOM     18  C   UNL     1      -8.225  -4.326 -16.457  1.00  0.00     0.208 C 
ATOM     19  O   UNL     1     -10.578  -4.037 -16.441  1.00  0.00    -0.337 OA
ATOM     20  C   UNL     1      -8.703  -4.437 -17.888  1.00  0.00     0.180 C 
ATOM     21  C   UNL     1     -10.162  -3.993 -17.792  1.00  0.00     0.179 C 
BRANCH  17  22
ATOM     22  C   UNL     1      -9.557  -3.827 -14.293  1.00  0.00     0.225 C 
BRANCH  22  23
ATOM     23  O   UNL     1      -9.892  -2.476 -14.466  1.00  0.00    -0.391 OA
ATOM     24  H   UNL     1     -10.163  -2.130 -13.576  1.00  0.00     0.210 HD
ENDBRANCH  22  23
ENDBRANCH  17  22
BRANCH  18  25
ATOM     25  O   UNL     1      -7.657  -3.062 -16.191  1.00  0.00    -0.385 OA
ATOM     26  H   UNL     1      -6.681  -3.114 -16.365  1.00  0.00     0.211 HD
ENDBRANCH  18  25
BRANCH  20  27
ATOM     27  O   UNL     1      -7.977  -3.609 -18.761  1.00  0.00    -0.387 OA
ATOM     28  H   UNL     1      -7.944  -2.713 -18.335  1.00  0.00     0.211 HD
ENDBRANCH  20  27
BRANCH  21  29
ATOM     29  C   UNL     1     -11.085  -4.867 -18.650  1.00  0.00     0.191 C 
BRANCH  29  30
ATOM     30  O   UNL     1     -12.270  -5.155 -17.958  1.00  0.00    -0.394 OA
ATOM     31  H   UNL     1     -12.784  -4.307 -17.910  1.00  0.00     0.210 HD
ENDBRANCH  29  30
ENDBRANCH  21  29
ENDBRANCH   1  17
TORSDOF 13
ENDMDL
MODEL 7
REMARK VINA RESULT:    -0.122      1.781      5.249
REMARK INTER + INTRA:          -0.780
REMARK INTER:                  -0.050
REMARK INTRA:                  -0.730
REMARK UNBOUND:                -0.594
REMARK SMILES OC[C@H]1O[C@H](O[C@]2(CO)O[C@H](CO)[C@@H](O)[C@H]2O)[C@H](O)[C@@H](O)[C@@H]1O
REMARK SMILES IDX 6 1 5 2 3 3 22 4 4 5 20 6 18 7 2 8 1 9 23 11 21 13 19 15
REMARK SMILES IDX 7 17 16 18 10 19 14 20 11 21 8 22 9 23 17 25 15 27 12 29
REMARK SMILES IDX 13 30
REMARK H PARENT 1 10 23 12 21 14 19 16 9 24 17 26 15 28 13 31
REMARK Flexibility Score: inf
ROOT
ATOM      1  O   UNL     1      -9.268  -6.005 -15.374  1.00  0.00    -0.313 OA
ENDROOT
BRANCH   1   2
ATOM      2  C   UNL     1      -9.272  -6.556 -14.058  1.00  0.00     0.285 C 
ATOM      3  C   UNL     1     -10.176  -8.594 -14.826  1.00  0.00     0.178 C 
ATOM      4  C   UNL     1      -8.874  -9.384 -14.557  1.00  0.00     0.177 C 
ATOM      5  O   UNL     1     -10.312  -7.512 -13.913  1.00  0.00    -0.341 OA
ATOM      6  C   UNL     1      -7.667  -8.432 -14.636  1.00  0.00     0.179 C 
ATOM      7  C   UNL     1      -7.907  -7.200 -13.740  1.00  0.00     0.202 C 
BRANCH   3   8
ATOM      8  C   UNL     1     -11.398  -9.509 -14.677  1.00  0.00     0.191 C 
BRANCH   8   9
ATOM      9  O   UNL     1     -12.502  -8.760 -14.250  1.00  0.00    -0.394 OA
ATOM     10  H   UNL     1     -12.453  -8.734 -13.260  1.00  0.00     0.210 HD
ENDBRANCH   8   9
ENDBRANCH   3   8
BRANCH   4  11
ATOM     11  O   UNL     1      -8.733 -10.403 -15.513  1.00  0.00    -0.387 OA
ATOM     12  H   UNL     1      -9.563 -10.404 -16.057  1.00  0.00     0.211 HD
ENDBRANCH   4  11
BRANCH   6  13
ATOM     13  O   UNL     1      -6.477  -9.090 -14.273  1.00  0.00    -0.387 OA
ATOM     14  H   UNL     1      -6.296  -8.882 -13.319  1.00  0.00     0.211 HD
ENDBRANCH   6  13
BRANCH   7  15
ATOM     15  O   UNL     1      -6.862  -6.265 -13.857  1.00  0.00    -0.385 OA
ATOM     16  H   UNL     1      -6.532  -6.061 -12.944  1.00  0.00     0.211 HD
ENDBRANCH   7  15
ENDBRANCH   1   2
BRANCH   1  17
ATOM     17  C   UNL     1     -10.165  -4.909 -15.575  1.00  0.00     0.224 C 
ATOM     18  C   UNL     1      -9.734  -3.682 -14.738  1.00  0.00     0.208 C 
ATOM     19  O   UNL     1     -10.039  -4.530 -16.931  1.00  0.00    -0.337 OA
ATOM     20  C   UNL     1      -8.674  -3.054 -15.616  1.00  0.00     0.180 C 
ATOM     21  C   UNL     1      -9.112  -3.465 -17.021  1.00  0.00     0.179 C 
BRANCH  17  22
ATOM     22  C   UNL     1     -11.650  -5.312 -15.353  1.00  0.00     0.225 C 
BRANCH  22  23
ATOM     23  O   UNL     1     -12.228  -5.769 -16.546  1.00  0.00    -0.391 OA
ATOM     24  H   UNL     1     -11.817  -5.247 -17.284  1.00  0.00     0.210 HD
ENDBRANCH  22  23
ENDBRANCH  17  22
BRANCH  18  25
ATOM     25  O   UNL     1     -10.803  -2.794 -14.492  1.00  0.00    -0.385 OA
ATOM     26  H   UNL     1     -10.731  -2.468 -13.557  1.00  0.00     0.211 HD
ENDBRANCH  18  25
BRANCH  20  27
ATOM     27  O   UNL     1      -8.630  -1.656 -15.486  1.00  0.00    -0.387 OA
ATOM     28  H   UNL     1      -8.692  -1.287 -16.406  1.00  0.00     0.211 HD
ENDBRANCH  20  27
BRANCH  21  29
ATOM     29  C   UNL     1      -7.922  -3.882 -17.895  1.00  0.00     0.191 C 
BRANCH  29  30
ATOM     30  O   UNL     1      -6.911  -4.449 -17.105  1.00  0.00    -0.394 OA
ATOM     31  H   UNL     1      -6.911  -3.954 -16.245  1.00  0.00     0.210 HD
ENDBRANCH  29  30
ENDBRANCH  21  29
ENDBRANCH   1  17
TORSDOF 13
ENDMDL
MODEL 8
REMARK VINA RESULT:     0.322      1.842      3.942
REMARK INTER + INTRA:          -0.103
REMARK INTER:                   0.842
REMARK INTRA:                  -0.945
REMARK UNBOUND:                -0.594
REMARK SMILES OC[C@H]1O[C@H](O[C@]2(CO)O[C@H](CO)[C@@H](O)[C@H]2O)[C@H](O)[C@@H](O)[C@@H]1O
REMARK SMILES IDX 6 1 5 2 3 3 22 4 4 5 20 6 18 7 2 8 1 9 23 11 21 13 19 15
REMARK SMILES IDX 7 17 16 18 10 19 14 20 11 21 8 22 9 23 17 25 15 27 12 29
REMARK SMILES IDX 13 30
REMARK H PARENT 1 10 23 12 21 14 19 16 9 24 17 26 15 28 13 31
REMARK Flexibility Score: inf
ROOT
ATOM      1  O   UNL     1      -7.795  -6.003 -15.738  1.00  0.00    -0.313 OA
ENDROOT
BRANCH   1   2
ATOM      2  C   UNL     1      -7.874  -4.580 -15.687  1.00  0.00     0.285 C 
ATOM      3  C   UNL     1      -6.778  -4.364 -17.764  1.00  0.00     0.178 C 
ATOM      4  C   UNL     1      -8.046  -3.858 -18.490  1.00  0.00     0.177 C 
ATOM      5  O   UNL     1      -6.793  -3.987 -16.393  1.00  0.00    -0.341 OA
ATOM      6  C   UNL     1      -9.299  -4.398 -17.777  1.00  0.00     0.179 C 
ATOM      7  C   UNL     1      -9.219  -4.095 -16.267  1.00  0.00     0.202 C 
BRANCH   3   8
ATOM      8  C   UNL     1      -5.519  -3.775 -18.413  1.00  0.00     0.191 C 
BRANCH   8   9
ATOM      9  O   UNL     1      -4.476  -3.741 -17.479  1.00  0.00    -0.394 OA
ATOM     10  H   UNL     1      -4.218  -4.685 -17.317  1.00  0.00     0.210 HD
ENDBRANCH   8   9
ENDBRANCH   3   8
BRANCH   4  11
ATOM     11  O   UNL     1      -8.036  -4.300 -19.824  1.00  0.00    -0.387 OA
ATOM     12  H   UNL     1      -8.980  -4.481 -20.073  1.00  0.00     0.211 HD
ENDBRANCH   4  11
BRANCH   6  13
ATOM     13  O   UNL     1     -10.473  -3.857 -18.334  1.00  0.00    -0.387 OA
ATOM     14  H   UNL     1     -10.530  -4.164 -19.276  1.00  0.00     0.211 HD
ENDBRANCH   6  13
BRANCH   7  15
ATOM     15  O   UNL     1     -10.306  -4.653 -15.570  1.00  0.00    -0.385 OA
ATOM     16  H   UNL     1      -9.945  -5.310 -14.919  1.00  0.00     0.211 HD
ENDBRANCH   7  15
ENDBRANCH   1   2
BRANCH   1  17
ATOM     17  C   UNL     1      -7.207  -6.619 -14.589  1.00  0.00     0.224 C 
ATOM     18  C   UNL     1      -7.641  -5.897 -13.292  1.00  0.00     0.208 C 
ATOM     19  O   UNL     1      -7.740  -7.926 -14.515  1.00  0.00    -0.337 OA
ATOM     20  C   UNL     1      -8.989  -6.527 -13.015  1.00  0.00     0.180 C 
ATOM     21  C   UNL     1      -8.847  -7.917 -13.635  1.00  0.00     0.179 C 
BRANCH  17  22
ATOM     22  C   UNL     1      -5.664  -6.765 -14.721  1.00  0.00     0.225 C 
BRANCH  22  23
ATOM     23  O   UNL     1      -5.073  -5.537 -15.056  1.00  0.00    -0.391 OA
ATOM     24  H   UNL     1      -4.722  -5.630 -15.980  1.00  0.00     0.210 HD
ENDBRANCH  22  23
ENDBRANCH  17  22
BRANCH  18  25
ATOM     25  O   UNL     1      -6.737  -6.106 -12.229  1.00  0.00    -0.385 OA
ATOM     26  H   UNL     1      -6.567  -5.233 -11.787  1.00  0.00     0.211 HD
ENDBRANCH  18  25
BRANCH  20  27
ATOM     27  O   UNL     1      -9.268  -6.611 -11.640  1.00  0.00    -0.387 OA
ATOM     28  H   UNL     1      -9.695  -7.495 -11.494  1.00  0.00     0.211 HD
ENDBRANCH  20  27
BRANCH  21  29
ATOM     29  C   UNL     1     -10.115  -8.341 -14.387  1.00  0.00     0.191 C 
BRANCH  29  30
ATOM     30  O   UNL     1     -10.241  -9.738 -14.383  1.00  0.00    -0.394 OA
ATOM     31  H   UNL     1     -10.303 -10.020 -15.332  1.00  0.00     0.210 HD
ENDBRANCH  29  30
ENDBRANCH  21  29
ENDBRANCH   1  17
TORSDOF 13
ENDMDL
