MODEL 1
REMARK VINA RESULT:    -5.110      0.000      0.000
REMARK INTER + INTRA:         -15.537
REMARK INTER:                 -11.682
REMARK INTRA:                  -3.855
REMARK UNBOUND:                -3.855
REMARK SMILES CCCCCCCCCCCCCCCCCCCCCCCC(=O)[O-]
REMARK SMILES IDX 13 1 14 2 15 3 16 4 17 5 18 6 19 7 20 8 21 9 22 10 23 11
REMARK SMILES IDX 24 12 25 13 26 14 12 15 11 16 10 17 9 18 8 19 7 20 6 21 5 22
REMARK SMILES IDX 4 23 3 24 2 25 1 26
REMARK H PARENT
REMARK Flexibility Score: inf
ROOT
ATOM      1  C   UNL     1      23.701  36.621 147.431  1.00  0.00     0.000 C 
ENDROOT
BRANCH   1   2
ATOM      2  C   UNL     1      23.222  35.186 147.154  1.00  0.00     0.000 C 
BRANCH   2   3
ATOM      3  C   UNL     1      24.385  34.188 147.010  1.00  0.00     0.000 C 
BRANCH   3   4
ATOM      4  C   UNL     1      24.499  33.148 148.143  1.00  0.00     0.000 C 
BRANCH   4   5
ATOM      5  C   UNL     1      24.792  33.729 149.540  1.00  0.00     0.000 C 
BRANCH   5   6
ATOM      6  C   UNL     1      26.027  34.648 149.617  1.00  0.00     0.000 C 
BRANCH   6   7
ATOM      7  C   UNL     1      27.304  34.072 148.973  1.00  0.00     0.000 C 
BRANCH   7   8
ATOM      8  C   UNL     1      28.148  35.086 148.175  1.00  0.00     0.000 C 
BRANCH   8   9
ATOM      9  C   UNL     1      27.391  35.829 147.059  1.00  0.00     0.000 C 
BRANCH   9  10
ATOM     10  C   UNL     1      27.369  37.353 147.265  1.00  0.00     0.006 C 
BRANCH  10  11
ATOM     11  C   UNL     1      28.513  37.833 148.168  1.00  0.00     0.053 C 
BRANCH  11  12
ATOM     12  C   UNL     1      28.006  38.584 149.361  1.00  0.00     0.041 C 
ATOM     13  O   UNL     1      28.581  39.640 149.737  1.00  0.00    -0.550 OA
ATOM     14  O   UNL     1      26.919  38.099 150.077  1.00  0.00    -0.550 OA
ENDBRANCH  11  12
ENDBRANCH  10  11
ENDBRANCH   9  10
ENDBRANCH   8   9
ENDBRANCH   7   8
ENDBRANCH   6   7
ENDBRANCH   5   6
ENDBRANCH   4   5
ENDBRANCH   3   4
ENDBRANCH   2   3
ENDBRANCH   1   2
BRANCH   1  15
ATOM     15  C   UNL     1      23.351  37.099 148.849  1.00  0.00     0.000 C 
BRANCH  15  16
ATOM     16  C   UNL     1      23.646  38.594 149.068  1.00  0.00     0.000 C 
BRANCH  16  17
ATOM     17  C   UNL     1      24.093  39.300 147.772  1.00  0.00     0.000 C 
BRANCH  17  18
ATOM     18  C   UNL     1      23.467  40.694 147.563  1.00  0.00    -0.000 C 
BRANCH  18  19
ATOM     19  C   UNL     1      24.495  41.835 147.433  1.00  0.00    -0.000 C 
BRANCH  19  20
ATOM     20  C   UNL     1      25.784  41.559 148.227  1.00  0.00    -0.000 C 
BRANCH  20  21
ATOM     21  C   UNL     1      27.054  41.777 147.389  1.00  0.00    -0.000 C 
BRANCH  21  22
ATOM     22  C   UNL     1      27.132  40.839 146.177  1.00  0.00    -0.000 C 
BRANCH  22  23
ATOM     23  C   UNL     1      28.590  40.547 145.801  1.00  0.00    -0.000 C 
BRANCH  23  24
ATOM     24  C   UNL     1      28.778  40.277 144.297  1.00  0.00    -0.000 C 
BRANCH  24  25
ATOM     25  C   UNL     1      29.274  38.850 143.983  1.00  0.00    -0.003 C 
ATOM     26  C   UNL     1      30.338  38.372 144.970  1.00  0.00     0.004 C 
ENDBRANCH  24  25
ENDBRANCH  23  24
ENDBRANCH  22  23
ENDBRANCH  21  22
ENDBRANCH  20  21
ENDBRANCH  19  20
ENDBRANCH  18  19
ENDBRANCH  17  18
ENDBRANCH  16  17
ENDBRANCH  15  16
ENDBRANCH   1  15
TORSDOF 22
ENDMDL
MODEL 2
REMARK VINA RESULT:    -5.053      1.764      4.190
REMARK INTER + INTRA:         -15.407
REMARK INTER:                 -11.313
REMARK INTRA:                  -4.095
REMARK UNBOUND:                -3.855
REMARK SMILES CCCCCCCCCCCCCCCCCCCCCCCC(=O)[O-]
REMARK SMILES IDX 13 1 14 2 15 3 16 4 17 5 18 6 19 7 20 8 21 9 22 10 23 11
REMARK SMILES IDX 24 12 25 13 26 14 12 15 11 16 10 17 9 18 8 19 7 20 6 21 5 22
REMARK SMILES IDX 4 23 3 24 2 25 1 26
REMARK H PARENT
REMARK Flexibility Score: inf
ROOT
ATOM      1  C   UNL     1      27.764  34.045 148.504  1.00  0.00     0.000 C 
ENDROOT
BRANCH   1   2
ATOM      2  C   UNL     1      26.452  34.127 149.301  1.00  0.00     0.000 C 
BRANCH   2   3
ATOM      3  C   UNL     1      25.351  33.216 148.730  1.00  0.00     0.000 C 
BRANCH   3   4
ATOM      4  C   UNL     1      23.997  33.907 148.470  1.00  0.00     0.000 C 
BRANCH   4   5
ATOM      5  C   UNL     1      23.918  34.723 147.164  1.00  0.00     0.000 C 
BRANCH   5   6
ATOM      6  C   UNL     1      23.604  36.221 147.351  1.00  0.00     0.000 C 
BRANCH   6   7
ATOM      7  C   UNL     1      23.596  36.704 148.815  1.00  0.00     0.000 C 
BRANCH   7   8
ATOM      8  C   UNL     1      23.489  38.231 148.998  1.00  0.00     0.000 C 
BRANCH   8   9
ATOM      9  C   UNL     1      23.318  39.033 147.695  1.00  0.00     0.000 C 
BRANCH   9  10
ATOM     10  C   UNL     1      24.410  40.099 147.502  1.00  0.00     0.006 C 
BRANCH  10  11
ATOM     11  C   UNL     1      23.838  41.523 147.506  1.00  0.00     0.053 C 
BRANCH  11  12
ATOM     12  C   UNL     1      24.179  42.258 148.766  1.00  0.00     0.041 C 
ATOM     13  O   UNL     1      24.366  43.504 148.742  1.00  0.00    -0.550 OA
ATOM     14  O   UNL     1      24.321  41.563 149.960  1.00  0.00    -0.550 OA
ENDBRANCH  11  12
ENDBRANCH  10  11
ENDBRANCH   9  10
ENDBRANCH   8   9
ENDBRANCH   7   8
ENDBRANCH   6   7
ENDBRANCH   5   6
ENDBRANCH   4   5
ENDBRANCH   3   4
ENDBRANCH   2   3
ENDBRANCH   1   2
BRANCH   1  15
ATOM     15  C   UNL     1      28.297  35.428 148.097  1.00  0.00     0.000 C 
BRANCH  15  16
ATOM     16  C   UNL     1      27.443  36.104 147.009  1.00  0.00     0.000 C 
BRANCH  16  17
ATOM     17  C   UNL     1      26.933  37.493 147.441  1.00  0.00     0.000 C 
BRANCH  17  18
ATOM     18  C   UNL     1      27.224  37.843 148.914  1.00  0.00    -0.000 C 
BRANCH  18  19
ATOM     19  C   UNL     1      27.538  39.332 149.160  1.00  0.00    -0.000 C 
BRANCH  19  20
ATOM     20  C   UNL     1      28.551  39.894 148.146  1.00  0.00    -0.000 C 
BRANCH  20  21
ATOM     21  C   UNL     1      30.003  39.538 148.499  1.00  0.00    -0.000 C 
BRANCH  21  22
ATOM     22  C   UNL     1      30.548  38.374 147.659  1.00  0.00    -0.000 C 
BRANCH  22  23
ATOM     23  C   UNL     1      31.186  38.886 146.360  1.00  0.00    -0.000 C 
BRANCH  23  24
ATOM     24  C   UNL     1      30.653  38.166 145.109  1.00  0.00    -0.000 C 
BRANCH  24  25
ATOM     25  C   UNL     1      29.191  38.522 144.767  1.00  0.00    -0.003 C 
ATOM     26  C   UNL     1      29.080  39.810 143.951  1.00  0.00     0.004 C 
ENDBRANCH  24  25
ENDBRANCH  23  24
ENDBRANCH  22  23
ENDBRANCH  21  22
ENDBRANCH  20  21
ENDBRANCH  19  20
ENDBRANCH  18  19
ENDBRANCH  17  18
ENDBRANCH  16  17
ENDBRANCH  15  16
ENDBRANCH   1  15
TORSDOF 22
ENDMDL
MODEL 3
REMARK VINA RESULT:    -5.018      2.111      6.087
REMARK INTER + INTRA:         -15.326
REMARK INTER:                 -11.129
REMARK INTRA:                  -4.197
REMARK UNBOUND:                -3.855
REMARK SMILES CCCCCCCCCCCCCCCCCCCCCCCC(=O)[O-]
REMARK SMILES IDX 13 1 14 2 15 3 16 4 17 5 18 6 19 7 20 8 21 9 22 10 23 11
REMARK SMILES IDX 24 12 25 13 26 14 12 15 11 16 10 17 9 18 8 19 7 20 6 21 5 22
REMARK SMILES IDX 4 23 3 24 2 25 1 26
REMARK H PARENT
REMARK Flexibility Score: inf
ROOT
ATOM      1  C   UNL     1      25.525  40.824 147.093  1.00  0.00     0.000 C 
ENDROOT
BRANCH   1   2
ATOM      2  C   UNL     1      24.568  41.877 147.675  1.00  0.00     0.000 C 
BRANCH   2   3
ATOM      3  C   UNL     1      25.063  42.458 149.012  1.00  0.00     0.000 C 
BRANCH   3   4
ATOM      4  C   UNL     1      24.367  41.896 150.268  1.00  0.00     0.000 C 
BRANCH   4   5
ATOM      5  C   UNL     1      25.101  40.730 150.959  1.00  0.00     0.000 C 
BRANCH   5   6
ATOM      6  C   UNL     1      26.631  40.888 151.051  1.00  0.00     0.000 C 
BRANCH   6   7
ATOM      7  C   UNL     1      27.439  39.849 150.248  1.00  0.00     0.000 C 
BRANCH   7   8
ATOM      8  C   UNL     1      28.839  40.314 149.800  1.00  0.00     0.000 C 
BRANCH   8   9
ATOM      9  C   UNL     1      28.925  40.813 148.346  1.00  0.00     0.000 C 
BRANCH   9  10
ATOM     10  C   UNL     1      29.458  39.744 147.378  1.00  0.00     0.006 C 
BRANCH  10  11
ATOM     11  C   UNL     1      28.932  39.940 145.950  1.00  0.00     0.053 C 
BRANCH  11  12
ATOM     12  C   UNL     1      29.185  38.739 145.091  1.00  0.00     0.041 C 
ATOM     13  O   UNL     1      29.487  37.635 145.617  1.00  0.00    -0.550 OA
ATOM     14  O   UNL     1      29.118  38.847 143.707  1.00  0.00    -0.550 OA
ENDBRANCH  11  12
ENDBRANCH  10  11
ENDBRANCH   9  10
ENDBRANCH   8   9
ENDBRANCH   7   8
ENDBRANCH   6   7
ENDBRANCH   5   6
ENDBRANCH   4   5
ENDBRANCH   3   4
ENDBRANCH   2   3
ENDBRANCH   1   2
BRANCH   1  15
ATOM     15  C   UNL     1      25.116  39.388 147.454  1.00  0.00     0.000 C 
BRANCH  15  16
ATOM     16  C   UNL     1      23.591  39.210 147.572  1.00  0.00     0.000 C 
BRANCH  16  17
ATOM     17  C   UNL     1      23.195  38.328 148.773  1.00  0.00     0.000 C 
BRANCH  17  18
ATOM     18  C   UNL     1      23.691  36.872 148.678  1.00  0.00    -0.000 C 
BRANCH  18  19
ATOM     19  C   UNL     1      23.393  36.189 147.328  1.00  0.00    -0.000 C 
BRANCH  19  20
ATOM     20  C   UNL     1      24.267  34.944 147.094  1.00  0.00    -0.000 C 
BRANCH  20  21
ATOM     21  C   UNL     1      23.981  33.821 148.103  1.00  0.00    -0.000 C 
BRANCH  21  22
ATOM     22  C   UNL     1      25.259  33.267 148.749  1.00  0.00    -0.000 C 
BRANCH  22  23
ATOM     23  C   UNL     1      25.708  34.148 149.923  1.00  0.00    -0.000 C 
BRANCH  23  24
ATOM     24  C   UNL     1      27.142  34.681 149.757  1.00  0.00    -0.000 C 
BRANCH  24  25
ATOM     25  C   UNL     1      27.219  36.217 149.635  1.00  0.00    -0.003 C 
ATOM     26  C   UNL     1      27.441  36.677 148.194  1.00  0.00     0.004 C 
ENDBRANCH  24  25
ENDBRANCH  23  24
ENDBRANCH  22  23
ENDBRANCH  21  22
ENDBRANCH  20  21
ENDBRANCH  19  20
ENDBRANCH  18  19
ENDBRANCH  17  18
ENDBRANCH  16  17
ENDBRANCH  15  16
ENDBRANCH   1  15
TORSDOF 22
ENDMDL
MODEL 4
REMARK VINA RESULT:    -5.004      1.614      5.482
REMARK INTER + INTRA:         -15.294
REMARK INTER:                 -11.234
REMARK INTRA:                  -4.061
REMARK UNBOUND:                -3.855
REMARK SMILES CCCCCCCCCCCCCCCCCCCCCCCC(=O)[O-]
REMARK SMILES IDX 13 1 14 2 15 3 16 4 17 5 18 6 19 7 20 8 21 9 22 10 23 11
REMARK SMILES IDX 24 12 25 13 26 14 12 15 11 16 10 17 9 18 8 19 7 20 6 21 5 22
REMARK SMILES IDX 4 23 3 24 2 25 1 26
REMARK H PARENT
REMARK Flexibility Score: inf
ROOT
ATOM      1  C   UNL     1      26.261  41.433 148.685  1.00  0.00     0.000 C 
ENDROOT
BRANCH   1   2
ATOM      2  C   UNL     1      25.583  41.398 150.065  1.00  0.00     0.000 C 
BRANCH   2   3
ATOM      3  C   UNL     1      25.776  40.054 150.789  1.00  0.00     0.000 C 
BRANCH   3   4
ATOM      4  C   UNL     1      27.191  39.450 150.684  1.00  0.00     0.000 C 
BRANCH   4   5
ATOM      5  C   UNL     1      27.261  38.050 150.042  1.00  0.00     0.000 C 
BRANCH   5   6
ATOM      6  C   UNL     1      28.083  37.972 148.740  1.00  0.00     0.000 C 
BRANCH   6   7
ATOM      7  C   UNL     1      27.278  37.564 147.490  1.00  0.00     0.000 C 
BRANCH   7   8
ATOM      8  C   UNL     1      28.122  37.018 146.320  1.00  0.00     0.000 C 
BRANCH   8   9
ATOM      9  C   UNL     1      29.556  37.570 146.238  1.00  0.00     0.000 C 
BRANCH   9  10
ATOM     10  C   UNL     1      29.844  38.291 144.911  1.00  0.00     0.006 C 
BRANCH  10  11
ATOM     11  C   UNL     1      30.305  39.739 145.125  1.00  0.00     0.053 C 
BRANCH  11  12
ATOM     12  C   UNL     1      29.214  40.594 145.695  1.00  0.00     0.041 C 
ATOM     13  O   UNL     1      29.426  41.288 146.725  1.00  0.00    -0.550 OA
ATOM     14  O   UNL     1      27.956  40.600 145.107  1.00  0.00    -0.550 OA
ENDBRANCH  11  12
ENDBRANCH  10  11
ENDBRANCH   9  10
ENDBRANCH   8   9
ENDBRANCH   7   8
ENDBRANCH   6   7
ENDBRANCH   5   6
ENDBRANCH   4   5
ENDBRANCH   3   4
ENDBRANCH   2   3
ENDBRANCH   1   2
BRANCH   1  15
ATOM     15  C   UNL     1      25.567  40.521 147.661  1.00  0.00     0.000 C 
BRANCH  15  16
ATOM     16  C   UNL     1      24.031  40.633 147.702  1.00  0.00     0.000 C 
BRANCH  16  17
ATOM     17  C   UNL     1      23.341  39.256 147.627  1.00  0.00     0.000 C 
BRANCH  17  18
ATOM     18  C   UNL     1      23.257  38.517 148.977  1.00  0.00    -0.000 C 
BRANCH  18  19
ATOM     19  C   UNL     1      23.631  37.024 148.905  1.00  0.00    -0.000 C 
BRANCH  19  20
ATOM     20  C   UNL     1      23.661  36.495 147.460  1.00  0.00    -0.000 C 
BRANCH  20  21
ATOM     21  C   UNL     1      24.590  35.283 147.291  1.00  0.00    -0.000 C 
BRANCH  21  22
ATOM     22  C   UNL     1      24.095  34.047 148.056  1.00  0.00    -0.000 C 
BRANCH  22  23
ATOM     23  C   UNL     1      25.248  33.365 148.804  1.00  0.00    -0.000 C 
BRANCH  23  24
ATOM     24  C   UNL     1      26.075  34.348 149.650  1.00  0.00    -0.000 C 
BRANCH  24  25
ATOM     25  C   UNL     1      27.571  34.382 149.271  1.00  0.00    -0.003 C 
ATOM     26  C   UNL     1      27.919  33.371 148.179  1.00  0.00     0.004 C 
ENDBRANCH  24  25
ENDBRANCH  23  24
ENDBRANCH  22  23
ENDBRANCH  21  22
ENDBRANCH  20  21
ENDBRANCH  19  20
ENDBRANCH  18  19
ENDBRANCH  17  18
ENDBRANCH  16  17
ENDBRANCH  15  16
ENDBRANCH   1  15
TORSDOF 22
ENDMDL
MODEL 5
REMARK VINA RESULT:    -4.989      2.361      5.227
REMARK INTER + INTRA:         -15.260
REMARK INTER:                 -11.313
REMARK INTRA:                  -3.946
REMARK UNBOUND:                -3.855
REMARK SMILES CCCCCCCCCCCCCCCCCCCCCCCC(=O)[O-]
REMARK SMILES IDX 13 1 14 2 15 3 16 4 17 5 18 6 19 7 20 8 21 9 22 10 23 11
REMARK SMILES IDX 24 12 25 13 26 14 12 15 11 16 10 17 9 18 8 19 7 20 6 21 5 22
REMARK SMILES IDX 4 23 3 24 2 25 1 26
REMARK H PARENT
REMARK Flexibility Score: inf
ROOT
ATOM      1  C   UNL     1      24.378  34.645 147.268  1.00  0.00     0.000 C 
ENDROOT
BRANCH   1   2
ATOM      2  C   UNL     1      23.729  36.037 147.350  1.00  0.00     0.000 C 
BRANCH   2   3
ATOM      3  C   UNL     1      23.675  36.585 148.787  1.00  0.00     0.000 C 
BRANCH   3   4
ATOM      4  C   UNL     1      23.254  38.064 148.909  1.00  0.00     0.000 C 
BRANCH   4   5
ATOM      5  C   UNL     1      23.537  38.930 147.666  1.00  0.00     0.000 C 
BRANCH   5   6
ATOM      6  C   UNL     1      24.929  39.590 147.635  1.00  0.00     0.000 C 
BRANCH   6   7
ATOM      7  C   UNL     1      25.567  39.823 149.020  1.00  0.00     0.000 C 
BRANCH   7   8
ATOM      8  C   UNL     1      27.005  40.377 148.991  1.00  0.00     0.000 C 
BRANCH   8   9
ATOM      9  C   UNL     1      27.361  41.324 150.151  1.00  0.00     0.000 C 
BRANCH   9  10
ATOM     10  C   UNL     1      26.122  41.861 150.887  1.00  0.00     0.006 C 
BRANCH  10  11
ATOM     11  C   UNL     1      25.708  43.252 150.389  1.00  0.00     0.053 C 
BRANCH  11  12
ATOM     12  C   UNL     1      24.259  43.303 150.012  1.00  0.00     0.041 C 
ATOM     13  O   UNL     1      23.405  43.733 150.833  1.00  0.00    -0.550 OA
ATOM     14  O   UNL     1      23.847  42.845 148.767  1.00  0.00    -0.550 OA
ENDBRANCH  11  12
ENDBRANCH  10  11
ENDBRANCH   9  10
ENDBRANCH   8   9
ENDBRANCH   7   8
ENDBRANCH   6   7
ENDBRANCH   5   6
ENDBRANCH   4   5
ENDBRANCH   3   4
ENDBRANCH   2   3
ENDBRANCH   1   2
BRANCH   1  15
ATOM     15  C   UNL     1      24.053  33.767 148.486  1.00  0.00     0.000 C 
BRANCH  15  16
ATOM     16  C   UNL     1      25.307  33.349 149.276  1.00  0.00     0.000 C 
BRANCH  16  17
ATOM     17  C   UNL     1      26.600  33.504 148.450  1.00  0.00     0.000 C 
BRANCH  17  18
ATOM     18  C   UNL     1      27.773  34.138 149.225  1.00  0.00    -0.000 C 
BRANCH  18  19
ATOM     19  C   UNL     1      27.351  35.235 150.223  1.00  0.00    -0.000 C 
BRANCH  19  20
ATOM     20  C   UNL     1      27.203  36.613 149.553  1.00  0.00    -0.000 C 
BRANCH  20  21
ATOM     21  C   UNL     1      28.203  36.825 148.406  1.00  0.00    -0.000 C 
BRANCH  21  22
ATOM     22  C   UNL     1      27.513  36.998 147.045  1.00  0.00    -0.000 C 
BRANCH  22  23
ATOM     23  C   UNL     1      28.494  37.536 145.996  1.00  0.00    -0.000 C 
BRANCH  23  24
ATOM     24  C   UNL     1      28.812  39.030 146.185  1.00  0.00    -0.000 C 
BRANCH  24  25
ATOM     25  C   UNL     1      30.296  39.311 146.498  1.00  0.00    -0.003 C 
ATOM     26  C   UNL     1      30.519  39.713 147.956  1.00  0.00     0.004 C 
ENDBRANCH  24  25
ENDBRANCH  23  24
ENDBRANCH  22  23
ENDBRANCH  21  22
ENDBRANCH  20  21
ENDBRANCH  19  20
ENDBRANCH  18  19
ENDBRANCH  17  18
ENDBRANCH  16  17
ENDBRANCH  15  16
ENDBRANCH   1  15
TORSDOF 22
ENDMDL
MODEL 6
REMARK VINA RESULT:    -4.978      2.026      5.937
REMARK INTER + INTRA:         -15.235
REMARK INTER:                 -10.485
REMARK INTRA:                  -4.750
REMARK UNBOUND:                -3.855
REMARK SMILES CCCCCCCCCCCCCCCCCCCCCCCC(=O)[O-]
REMARK SMILES IDX 13 1 14 2 15 3 16 4 17 5 18 6 19 7 20 8 21 9 22 10 23 11
REMARK SMILES IDX 24 12 25 13 26 14 12 15 11 16 10 17 9 18 8 19 7 20 6 21 5 22
REMARK SMILES IDX 4 23 3 24 2 25 1 26
REMARK H PARENT
REMARK Flexibility Score: inf
ROOT
ATOM      1  C   UNL     1      23.251  40.035 147.708  1.00  0.00     0.000 C 
ENDROOT
BRANCH   1   2
ATOM      2  C   UNL     1      24.527  40.848 147.439  1.00  0.00     0.000 C 
BRANCH   2   3
ATOM      3  C   UNL     1      24.903  41.772 148.612  1.00  0.00     0.000 C 
BRANCH   3   4
ATOM      4  C   UNL     1      24.353  41.342 149.987  1.00  0.00     0.000 C 
BRANCH   4   5
ATOM      5  C   UNL     1      25.331  40.530 150.859  1.00  0.00     0.000 C 
BRANCH   5   6
ATOM      6  C   UNL     1      26.824  40.807 150.594  1.00  0.00     0.000 C 
BRANCH   6   7
ATOM      7  C   UNL     1      27.642  39.578 150.151  1.00  0.00     0.000 C 
BRANCH   7   8
ATOM      8  C   UNL     1      28.731  39.864 149.097  1.00  0.00     0.000 C 
BRANCH   8   9
ATOM      9  C   UNL     1      28.234  40.570 147.823  1.00  0.00     0.000 C 
BRANCH   9  10
ATOM     10  C   UNL     1      29.126  40.293 146.600  1.00  0.00     0.006 C 
BRANCH  10  11
ATOM     11  C   UNL     1      30.087  39.120 146.837  1.00  0.00     0.053 C 
BRANCH  11  12
ATOM     12  C   UNL     1      30.126  38.185 145.667  1.00  0.00     0.041 C 
ATOM     13  O   UNL     1      29.149  38.119 144.875  1.00  0.00    -0.550 OA
ATOM     14  O   UNL     1      31.229  37.364 145.470  1.00  0.00    -0.550 OA
ENDBRANCH  11  12
ENDBRANCH  10  11
ENDBRANCH   9  10
ENDBRANCH   8   9
ENDBRANCH   7   8
ENDBRANCH   6   7
ENDBRANCH   5   6
ENDBRANCH   4   5
ENDBRANCH   3   4
ENDBRANCH   2   3
ENDBRANCH   1   2
BRANCH   1  15
ATOM     15  C   UNL     1      23.434  38.535 147.430  1.00  0.00     0.000 C 
BRANCH  15  16
ATOM     16  C   UNL     1      23.819  37.734 148.688  1.00  0.00     0.000 C 
BRANCH  16  17
ATOM     17  C   UNL     1      25.330  37.437 148.755  1.00  0.00     0.000 C 
BRANCH  17  18
ATOM     18  C   UNL     1      26.071  37.625 147.417  1.00  0.00    -0.000 C 
BRANCH  18  19
ATOM     19  C   UNL     1      27.042  36.480 147.066  1.00  0.00    -0.000 C 
BRANCH  19  20
ATOM     20  C   UNL     1      28.126  36.278 148.140  1.00  0.00    -0.000 C 
BRANCH  20  21
ATOM     21  C   UNL     1      28.184  34.833 148.659  1.00  0.00    -0.000 C 
BRANCH  21  22
ATOM     22  C   UNL     1      27.676  34.702 150.102  1.00  0.00    -0.000 C 
BRANCH  22  23
ATOM     23  C   UNL     1      26.162  34.458 150.132  1.00  0.00    -0.000 C 
BRANCH  23  24
ATOM     24  C   UNL     1      25.656  33.685 148.902  1.00  0.00    -0.000 C 
BRANCH  24  25
ATOM     25  C   UNL     1      24.172  33.950 148.572  1.00  0.00    -0.003 C 
ATOM     26  C   UNL     1      23.954  34.300 147.101  1.00  0.00     0.004 C 
ENDBRANCH  24  25
ENDBRANCH  23  24
ENDBRANCH  22  23
ENDBRANCH  21  22
ENDBRANCH  20  21
ENDBRANCH  19  20
ENDBRANCH  18  19
ENDBRANCH  17  18
ENDBRANCH  16  17
ENDBRANCH  15  16
ENDBRANCH   1  15
TORSDOF 22
ENDMDL
MODEL 7
REMARK VINA RESULT:    -4.967      2.299      5.053
REMARK INTER + INTRA:         -15.209
REMARK INTER:                 -11.544
REMARK INTRA:                  -3.665
REMARK UNBOUND:                -3.855
REMARK SMILES CCCCCCCCCCCCCCCCCCCCCCCC(=O)[O-]
REMARK SMILES IDX 13 1 14 2 15 3 16 4 17 5 18 6 19 7 20 8 21 9 22 10 23 11
REMARK SMILES IDX 24 12 25 13 26 14 12 15 11 16 10 17 9 18 8 19 7 20 6 21 5 22
REMARK SMILES IDX 4 23 3 24 2 25 1 26
REMARK H PARENT
REMARK Flexibility Score: inf
ROOT
ATOM      1  C   UNL     1      26.844  33.517 148.450  1.00  0.00     0.000 C 
ENDROOT
BRANCH   1   2
ATOM      2  C   UNL     1      27.907  34.439 149.068  1.00  0.00     0.000 C 
BRANCH   2   3
ATOM      3  C   UNL     1      27.364  35.271 150.244  1.00  0.00     0.000 C 
BRANCH   3   4
ATOM      4  C   UNL     1      27.163  36.771 149.948  1.00  0.00     0.000 C 
BRANCH   4   5
ATOM      5  C   UNL     1      28.052  37.343 148.825  1.00  0.00     0.000 C 
BRANCH   5   6
ATOM      6  C   UNL     1      27.337  37.566 147.478  1.00  0.00     0.000 C 
BRANCH   6   7
ATOM      7  C   UNL     1      28.147  37.143 146.237  1.00  0.00     0.000 C 
BRANCH   7   8
ATOM      8  C   UNL     1      29.656  37.450 146.306  1.00  0.00     0.000 C 
BRANCH   8   9
ATOM      9  C   UNL     1      30.092  38.742 145.592  1.00  0.00     0.000 C 
BRANCH   9  10
ATOM     10  C   UNL     1      29.406  38.931 144.229  1.00  0.00     0.006 C 
BRANCH  10  11
ATOM     11  C   UNL     1      30.304  39.666 143.224  1.00  0.00     0.053 C 
BRANCH  11  12
ATOM     12  C   UNL     1      29.909  41.102 143.067  1.00  0.00     0.041 C 
ATOM     13  O   UNL     1      30.697  41.920 142.521  1.00  0.00    -0.550 OA
ATOM     14  O   UNL     1      28.686  41.544 143.553  1.00  0.00    -0.550 OA
ENDBRANCH  11  12
ENDBRANCH  10  11
ENDBRANCH   9  10
ENDBRANCH   8   9
ENDBRANCH   7   8
ENDBRANCH   6   7
ENDBRANCH   5   6
ENDBRANCH   4   5
ENDBRANCH   3   4
ENDBRANCH   2   3
ENDBRANCH   1   2
BRANCH   1  15
ATOM     15  C   UNL     1      25.434  33.785 149.001  1.00  0.00     0.000 C 
BRANCH  15  16
ATOM     16  C   UNL     1      24.325  33.505 147.971  1.00  0.00     0.000 C 
BRANCH  16  17
ATOM     17  C   UNL     1      23.792  34.795 147.315  1.00  0.00     0.000 C 
BRANCH  17  18
ATOM     18  C   UNL     1      24.006  36.067 148.159  1.00  0.00    -0.000 C 
BRANCH  18  19
ATOM     19  C   UNL     1      23.760  37.382 147.393  1.00  0.00    -0.000 C 
BRANCH  19  20
ATOM     20  C   UNL     1      23.137  38.473 148.283  1.00  0.00    -0.000 C 
BRANCH  20  21
ATOM     21  C   UNL     1      23.700  38.465 149.712  1.00  0.00    -0.000 C 
BRANCH  21  22
ATOM     22  C   UNL     1      24.247  39.834 150.140  1.00  0.00    -0.000 C 
BRANCH  22  23
ATOM     23  C   UNL     1      25.584  40.132 149.448  1.00  0.00    -0.000 C 
BRANCH  23  24
ATOM     24  C   UNL     1      25.486  41.282 148.430  1.00  0.00    -0.000 C 
BRANCH  24  25
ATOM     25  C   UNL     1      25.754  40.843 146.975  1.00  0.00    -0.003 C 
ATOM     26  C   UNL     1      27.205  41.071 146.555  1.00  0.00     0.004 C 
ENDBRANCH  24  25
ENDBRANCH  23  24
ENDBRANCH  22  23
ENDBRANCH  21  22
ENDBRANCH  20  21
ENDBRANCH  19  20
ENDBRANCH  18  19
ENDBRANCH  17  18
ENDBRANCH  16  17
ENDBRANCH  15  16
ENDBRANCH   1  15
TORSDOF 22
ENDMDL
MODEL 8
REMARK VINA RESULT:    -4.963      1.708      4.730
REMARK INTER + INTRA:         -15.200
REMARK INTER:                 -11.107
REMARK INTRA:                  -4.093
REMARK UNBOUND:                -3.855
REMARK SMILES CCCCCCCCCCCCCCCCCCCCCCCC(=O)[O-]
REMARK SMILES IDX 13 1 14 2 15 3 16 4 17 5 18 6 19 7 20 8 21 9 22 10 23 11
REMARK SMILES IDX 24 12 25 13 26 14 12 15 11 16 10 17 9 18 8 19 7 20 6 21 5 22
REMARK SMILES IDX 4 23 3 24 2 25 1 26
REMARK H PARENT
REMARK Flexibility Score: inf
ROOT
ATOM      1  C   UNL     1      26.349  41.792 149.902  1.00  0.00     0.000 C 
ENDROOT
BRANCH   1   2
ATOM      2  C   UNL     1      24.853  41.472 150.057  1.00  0.00     0.000 C 
BRANCH   2   3
ATOM      3  C   UNL     1      24.023  41.899 148.832  1.00  0.00     0.000 C 
BRANCH   3   4
ATOM      4  C   UNL     1      24.502  41.324 147.484  1.00  0.00     0.000 C 
BRANCH   4   5
ATOM      5  C   UNL     1      24.612  39.788 147.427  1.00  0.00     0.000 C 
BRANCH   5   6
ATOM      6  C   UNL     1      23.326  39.029 147.807  1.00  0.00     0.000 C 
BRANCH   6   7
ATOM      7  C   UNL     1      23.554  37.644 148.443  1.00  0.00     0.000 C 
BRANCH   7   8
ATOM      8  C   UNL     1      23.562  36.463 147.452  1.00  0.00     0.000 C 
BRANCH   8   9
ATOM      9  C   UNL     1      24.817  35.573 147.509  1.00  0.00     0.000 C 
BRANCH   9  10
ATOM     10  C   UNL     1      25.113  35.047 148.924  1.00  0.00     0.006 C 
BRANCH  10  11
ATOM     11  C   UNL     1      26.226  33.990 148.929  1.00  0.00     0.053 C 
BRANCH  11  12
ATOM     12  C   UNL     1      27.534  34.558 149.388  1.00  0.00     0.041 C 
ATOM     13  O   UNL     1      28.476  34.723 148.568  1.00  0.00    -0.550 OA
ATOM     14  O   UNL     1      27.722  34.876 150.727  1.00  0.00    -0.550 OA
ENDBRANCH  11  12
ENDBRANCH  10  11
ENDBRANCH   9  10
ENDBRANCH   8   9
ENDBRANCH   7   8
ENDBRANCH   6   7
ENDBRANCH   5   6
ENDBRANCH   4   5
ENDBRANCH   3   4
ENDBRANCH   2   3
ENDBRANCH   1   2
BRANCH   1  15
ATOM     15  C   UNL     1      27.253  40.661 150.417  1.00  0.00     0.000 C 
BRANCH  15  16
ATOM     16  C   UNL     1      26.470  39.388 150.784  1.00  0.00     0.000 C 
BRANCH  16  17
ATOM     17  C   UNL     1      26.935  38.159 149.977  1.00  0.00     0.000 C 
BRANCH  17  18
ATOM     18  C   UNL     1      27.979  38.478 148.887  1.00  0.00    -0.000 C 
BRANCH  18  19
ATOM     19  C   UNL     1      27.595  37.981 147.480  1.00  0.00    -0.000 C 
BRANCH  19  20
ATOM     20  C   UNL     1      28.236  38.824 146.363  1.00  0.00    -0.000 C 
BRANCH  20  21
ATOM     21  C   UNL     1      28.276  40.322 146.701  1.00  0.00    -0.000 C 
BRANCH  21  22
ATOM     22  C   UNL     1      27.543  41.183 145.662  1.00  0.00    -0.000 C 
BRANCH  22  23
ATOM     23  C   UNL     1      28.302  41.201 144.329  1.00  0.00    -0.000 C 
BRANCH  23  24
ATOM     24  C   UNL     1      29.733  41.752 144.464  1.00  0.00    -0.000 C 
BRANCH  24  25
ATOM     25  C   UNL     1      30.821  40.767 143.988  1.00  0.00    -0.003 C 
ATOM     26  C   UNL     1      30.236  39.561 143.254  1.00  0.00     0.004 C 
ENDBRANCH  24  25
ENDBRANCH  23  24
ENDBRANCH  22  23
ENDBRANCH  21  22
ENDBRANCH  20  21
ENDBRANCH  19  20
ENDBRANCH  18  19
ENDBRANCH  17  18
ENDBRANCH  16  17
ENDBRANCH  15  16
ENDBRANCH   1  15
TORSDOF 22
ENDMDL
MODEL 9
REMARK VINA RESULT:    -4.950      2.289      5.808
REMARK INTER + INTRA:         -15.170
REMARK INTER:                 -11.122
REMARK INTRA:                  -4.048
REMARK UNBOUND:                -3.855
REMARK SMILES CCCCCCCCCCCCCCCCCCCCCCCC(=O)[O-]
REMARK SMILES IDX 13 1 14 2 15 3 16 4 17 5 18 6 19 7 20 8 21 9 22 10 23 11
REMARK SMILES IDX 24 12 25 13 26 14 12 15 11 16 10 17 9 18 8 19 7 20 6 21 5 22
REMARK SMILES IDX 4 23 3 24 2 25 1 26
REMARK H PARENT
REMARK Flexibility Score: inf
ROOT
ATOM      1  C   UNL     1      24.456  38.199 147.503  1.00  0.00     0.000 C 
ENDROOT
BRANCH   1   2
ATOM      2  C   UNL     1      23.947  39.451 148.236  1.00  0.00     0.000 C 
BRANCH   2   3
ATOM      3  C   UNL     1      24.001  39.308 149.767  1.00  0.00     0.000 C 
BRANCH   3   4
ATOM      4  C   UNL     1      25.272  39.872 150.434  1.00  0.00     0.000 C 
BRANCH   4   5
ATOM      5  C   UNL     1      26.517  38.967 150.344  1.00  0.00     0.000 C 
BRANCH   5   6
ATOM      6  C   UNL     1      27.839  39.705 150.055  1.00  0.00     0.000 C 
BRANCH   6   7
ATOM      7  C   UNL     1      27.689  41.014 149.256  1.00  0.00     0.000 C 
BRANCH   7   8
ATOM      8  C   UNL     1      27.245  40.837 147.790  1.00  0.00     0.000 C 
BRANCH   8   9
ATOM      9  C   UNL     1      26.422  42.003 147.213  1.00  0.00     0.000 C 
BRANCH   9  10
ATOM     10  C   UNL     1      25.836  42.917 148.302  1.00  0.00     0.006 C 
BRANCH  10  11
ATOM     11  C   UNL     1      24.328  43.139 148.125  1.00  0.00     0.053 C 
BRANCH  11  12
ATOM     12  C   UNL     1      23.692  43.676 149.370  1.00  0.00     0.041 C 
ATOM     13  O   UNL     1      22.872  44.630 149.303  1.00  0.00    -0.550 OA
ATOM     14  O   UNL     1      24.029  43.144 150.608  1.00  0.00    -0.550 OA
ENDBRANCH  11  12
ENDBRANCH  10  11
ENDBRANCH   9  10
ENDBRANCH   8   9
ENDBRANCH   7   8
ENDBRANCH   6   7
ENDBRANCH   5   6
ENDBRANCH   4   5
ENDBRANCH   3   4
ENDBRANCH   2   3
ENDBRANCH   1   2
BRANCH   1  15
ATOM     15  C   UNL     1      24.137  36.899 148.258  1.00  0.00     0.000 C 
BRANCH  15  16
ATOM     16  C   UNL     1      23.352  35.886 147.404  1.00  0.00     0.000 C 
BRANCH  16  17
ATOM     17  C   UNL     1      24.209  34.669 147.002  1.00  0.00     0.000 C 
BRANCH  17  18
ATOM     18  C   UNL     1      23.909  33.391 147.811  1.00  0.00    -0.000 C 
BRANCH  18  19
ATOM     19  C   UNL     1      25.006  33.013 148.826  1.00  0.00    -0.000 C 
BRANCH  19  20
ATOM     20  C   UNL     1      26.347  33.706 148.526  1.00  0.00    -0.000 C 
BRANCH  20  21
ATOM     21  C   UNL     1      26.780  34.669 149.643  1.00  0.00    -0.000 C 
BRANCH  21  22
ATOM     22  C   UNL     1      27.743  35.756 149.146  1.00  0.00    -0.000 C 
BRANCH  22  23
ATOM     23  C   UNL     1      27.686  35.885 147.618  1.00  0.00    -0.000 C 
BRANCH  23  24
ATOM     24  C   UNL     1      27.842  37.337 147.134  1.00  0.00    -0.000 C 
BRANCH  24  25
ATOM     25  C   UNL     1      28.874  37.503 145.999  1.00  0.00    -0.003 C 
ATOM     26  C   UNL     1      29.776  38.719 146.204  1.00  0.00     0.004 C 
ENDBRANCH  24  25
ENDBRANCH  23  24
ENDBRANCH  22  23
ENDBRANCH  21  22
ENDBRANCH  20  21
ENDBRANCH  19  20
ENDBRANCH  18  19
ENDBRANCH  17  18
ENDBRANCH  16  17
ENDBRANCH  15  16
ENDBRANCH   1  15
TORSDOF 22
ENDMDL
