MODEL 1
REMARK VINA RESULT:    -4.574      0.000      0.000
REMARK INTER + INTRA:          -6.095
REMARK INTER:                  -5.911
REMARK INTRA:                  -0.184
REMARK UNBOUND:                -0.184
REMARK SMILES CCO[C@H]1O[C@@H](CO)[C@@H](O)[C@H](O)[C@@H]1O
REMARK SMILES IDX 4 1 13 2 11 3 9 4 6 5 5 6 3 7 2 8 1 9 14 10 12 12 7 14 8 15
REMARK SMILES IDX 10 17
REMARK H PARENT 14 11 12 13 8 16 10 18
REMARK Flexibility Score: inf
ROOT
ATOM      1  C   UNL     1     -15.623  -6.074  19.558  1.00  0.00     0.281 C 
ATOM      2  C   UNL     1     -17.120  -6.244  19.130  1.00  0.00     0.202 C 
ATOM      3  C   UNL     1     -17.268  -6.369  17.597  1.00  0.00     0.179 C 
ATOM      4  C   UNL     1     -16.471  -5.276  16.842  1.00  0.00     0.177 C 
ATOM      5  C   UNL     1     -15.167  -4.892  17.603  1.00  0.00     0.178 C 
ATOM      6  O   UNL     1     -14.742  -5.953  18.444  1.00  0.00    -0.341 OA
ENDROOT
BRANCH   1   7
ATOM      7  O   UNL     1     -15.220  -7.125  20.424  1.00  0.00    -0.350 OA
BRANCH   7   8
ATOM      8  C   UNL     1     -14.724  -6.641  21.658  1.00  0.00     0.160 C 
ATOM      9  C   UNL     1     -15.882  -6.108  22.487  1.00  0.00     0.035 C 
ENDBRANCH   7   8
ENDBRANCH   1   7
BRANCH   2  10
ATOM     10  O   UNL     1     -17.916  -5.193  19.627  1.00  0.00    -0.385 OA
ATOM     11  H   UNL     1     -17.431  -4.776  20.386  1.00  0.00     0.211 HD
ENDBRANCH   2  10
BRANCH   3  12
ATOM     12  O   UNL     1     -18.627  -6.308  17.247  1.00  0.00    -0.387 OA
ATOM     13  H   UNL     1     -19.112  -5.919  18.022  1.00  0.00     0.211 HD
ENDBRANCH   3  12
BRANCH   5  14
ATOM     14  C   UNL     1     -14.013  -4.477  16.673  1.00  0.00     0.191 C 
BRANCH  14  15
ATOM     15  O   UNL     1     -12.875  -5.262  16.916  1.00  0.00    -0.394 OA
ATOM     16  H   UNL     1     -12.322  -5.221  16.090  1.00  0.00     0.210 HD
ENDBRANCH  14  15
ENDBRANCH   5  14
BRANCH   4  17
ATOM     17  O   UNL     1     -16.182  -5.740  15.545  1.00  0.00    -0.387 OA
ATOM     18  H   UNL     1     -15.252  -6.085  15.559  1.00  0.00     0.211 HD
ENDBRANCH   4  17
TORSDOF 7
ENDMDL
MODEL 2
REMARK VINA RESULT:    -4.522      1.786      2.700
REMARK INTER + INTRA:          -6.028
REMARK INTER:                  -5.623
REMARK INTRA:                  -0.405
REMARK UNBOUND:                -0.184
REMARK SMILES CCO[C@H]1O[C@@H](CO)[C@@H](O)[C@H](O)[C@@H]1O
REMARK SMILES IDX 4 1 13 2 11 3 9 4 6 5 5 6 3 7 2 8 1 9 14 10 12 12 7 14 8 15
REMARK SMILES IDX 10 17
REMARK H PARENT 14 11 12 13 8 16 10 18
REMARK Flexibility Score: inf
ROOT
ATOM      1  C   UNL     1     -16.117  -5.641  19.025  1.00  0.00     0.281 C 
ATOM      2  C   UNL     1     -15.680  -6.442  17.751  1.00  0.00     0.202 C 
ATOM      3  C   UNL     1     -14.309  -5.969  17.218  1.00  0.00     0.179 C 
ATOM      4  C   UNL     1     -14.227  -4.426  17.105  1.00  0.00     0.177 C 
ATOM      5  C   UNL     1     -15.061  -3.727  18.220  1.00  0.00     0.178 C 
ATOM      6  O   UNL     1     -15.219  -4.580  19.342  1.00  0.00    -0.341 OA
ENDROOT
BRANCH   1   7
ATOM      7  O   UNL     1     -16.302  -6.511  20.132  1.00  0.00    -0.350 OA
BRANCH   7   8
ATOM      8  C   UNL     1     -15.252  -6.407  21.075  1.00  0.00     0.160 C 
ATOM      9  C   UNL     1     -15.843  -6.330  22.474  1.00  0.00     0.035 C 
ENDBRANCH   7   8
ENDBRANCH   1   7
BRANCH   2  10
ATOM     10  O   UNL     1     -16.663  -6.372  16.743  1.00  0.00    -0.385 OA
ATOM     11  H   UNL     1     -16.198  -6.315  15.868  1.00  0.00     0.211 HD
ENDBRANCH   2  10
BRANCH   3  12
ATOM     12  O   UNL     1     -14.059  -6.561  15.969  1.00  0.00    -0.387 OA
ATOM     13  H   UNL     1     -13.638  -7.445  16.142  1.00  0.00     0.211 HD
ENDBRANCH   3  12
BRANCH   5  14
ATOM     14  C   UNL     1     -14.471  -2.380  18.674  1.00  0.00     0.191 C 
BRANCH  14  15
ATOM     15  O   UNL     1     -14.315  -1.515  17.579  1.00  0.00    -0.394 OA
ATOM     16  H   UNL     1     -13.568  -0.899  17.809  1.00  0.00     0.210 HD
ENDBRANCH  14  15
ENDBRANCH   5  14
BRANCH   4  17
ATOM     17  O   UNL     1     -12.875  -4.039  17.166  1.00  0.00    -0.387 OA
ATOM     18  H   UNL     1     -12.851  -3.051  17.077  1.00  0.00     0.211 HD
ENDBRANCH   4  17
TORSDOF 7
ENDMDL
MODEL 3
REMARK VINA RESULT:    -4.402      1.704      4.336
REMARK INTER + INTRA:          -5.872
REMARK INTER:                  -5.455
REMARK INTRA:                  -0.417
REMARK UNBOUND:                -0.184
REMARK SMILES CCO[C@H]1O[C@@H](CO)[C@@H](O)[C@H](O)[C@@H]1O
REMARK SMILES IDX 4 1 13 2 11 3 9 4 6 5 5 6 3 7 2 8 1 9 14 10 12 12 7 14 8 15
REMARK SMILES IDX 10 17
REMARK H PARENT 14 11 12 13 8 16 10 18
REMARK Flexibility Score: inf
ROOT
ATOM      1  C   UNL     1     -15.394  -6.245  18.016  1.00  0.00     0.281 C 
ATOM      2  C   UNL     1     -15.151  -6.343  19.560  1.00  0.00     0.202 C 
ATOM      3  C   UNL     1     -16.386  -6.901  20.301  1.00  0.00     0.179 C 
ATOM      4  C   UNL     1     -17.695  -6.195  19.868  1.00  0.00     0.177 C 
ATOM      5  C   UNL     1     -17.647  -5.771  18.370  1.00  0.00     0.178 C 
ATOM      6  O   UNL     1     -16.730  -6.576  17.647  1.00  0.00    -0.341 OA
ENDROOT
BRANCH   1   7
ATOM      7  O   UNL     1     -14.450  -7.031  17.303  1.00  0.00    -0.350 OA
BRANCH   7   8
ATOM      8  C   UNL     1     -14.027  -6.405  16.106  1.00  0.00     0.160 C 
ATOM      9  C   UNL     1     -13.733  -4.939  16.387  1.00  0.00     0.035 C 
ENDBRANCH   7   8
ENDBRANCH   1   7
BRANCH   2  10
ATOM     10  O   UNL     1     -14.763  -5.098  20.096  1.00  0.00    -0.385 OA
ATOM     11  H   UNL     1     -15.443  -4.426  19.828  1.00  0.00     0.211 HD
ENDBRANCH   2  10
BRANCH   3  12
ATOM     12  O   UNL     1     -16.202  -6.774  21.688  1.00  0.00    -0.387 OA
ATOM     13  H   UNL     1     -17.083  -6.939  22.118  1.00  0.00     0.211 HD
ENDBRANCH   3  12
BRANCH   5  14
ATOM     14  C   UNL     1     -19.021  -5.804  17.678  1.00  0.00     0.191 C 
BRANCH  14  15
ATOM     15  O   UNL     1     -19.394  -7.125  17.383  1.00  0.00    -0.394 OA
ATOM     16  H   UNL     1     -19.467  -7.599  18.255  1.00  0.00     0.210 HD
ENDBRANCH  14  15
ENDBRANCH   5  14
BRANCH   4  17
ATOM     17  O   UNL     1     -18.779  -7.058  20.114  1.00  0.00    -0.387 OA
ATOM     18  H   UNL     1     -19.106  -6.863  21.030  1.00  0.00     0.211 HD
ENDBRANCH   4  17
TORSDOF 7
ENDMDL
MODEL 4
REMARK VINA RESULT:    -4.306      1.764      2.031
REMARK INTER + INTRA:          -5.749
REMARK INTER:                  -5.393
REMARK INTRA:                  -0.356
REMARK UNBOUND:                -0.184
REMARK SMILES CCO[C@H]1O[C@@H](CO)[C@@H](O)[C@H](O)[C@@H]1O
REMARK SMILES IDX 4 1 13 2 11 3 9 4 6 5 5 6 3 7 2 8 1 9 14 10 12 12 7 14 8 15
REMARK SMILES IDX 10 17
REMARK H PARENT 14 11 12 13 8 16 10 18
REMARK Flexibility Score: inf
ROOT
ATOM      1  C   UNL     1     -15.136  -6.269  19.042  1.00  0.00     0.281 C 
ATOM      2  C   UNL     1     -15.757  -4.831  19.021  1.00  0.00     0.202 C 
ATOM      3  C   UNL     1     -16.559  -4.571  17.726  1.00  0.00     0.179 C 
ATOM      4  C   UNL     1     -15.770  -4.983  16.458  1.00  0.00     0.177 C 
ATOM      5  C   UNL     1     -14.853  -6.214  16.731  1.00  0.00     0.178 C 
ATOM      6  O   UNL     1     -15.343  -6.976  17.822  1.00  0.00    -0.341 OA
ENDROOT
BRANCH   1   7
ATOM      7  O   UNL     1     -15.611  -7.010  20.157  1.00  0.00    -0.350 OA
BRANCH   7   8
ATOM      8  C   UNL     1     -14.855  -6.760  21.327  1.00  0.00     0.160 C 
ATOM      9  C   UNL     1     -15.797  -6.384  22.459  1.00  0.00     0.035 C 
ENDBRANCH   7   8
ENDBRANCH   1   7
BRANCH   2  10
ATOM     10  O   UNL     1     -14.767  -3.845  19.206  1.00  0.00    -0.385 OA
ATOM     11  H   UNL     1     -15.176  -2.962  19.010  1.00  0.00     0.211 HD
ENDBRANCH   2  10
BRANCH   3  12
ATOM     12  O   UNL     1     -16.915  -3.214  17.656  1.00  0.00    -0.387 OA
ATOM     13  H   UNL     1     -17.588  -3.050  18.369  1.00  0.00     0.211 HD
ENDBRANCH   3  12
BRANCH   5  14
ATOM     14  C   UNL     1     -14.670  -7.125  15.505  1.00  0.00     0.191 C 
BRANCH  14  15
ATOM     15  O   UNL     1     -14.407  -6.361  14.356  1.00  0.00    -0.394 OA
ATOM     16  H   UNL     1     -14.674  -5.427  14.570  1.00  0.00     0.210 HD
ENDBRANCH  14  15
ENDBRANCH   5  14
BRANCH   4  17
ATOM     17  O   UNL     1     -16.684  -5.253  15.423  1.00  0.00    -0.387 OA
ATOM     18  H   UNL     1     -17.581  -4.978  15.746  1.00  0.00     0.211 HD
ENDBRANCH   4  17
TORSDOF 7
ENDMDL
MODEL 5
REMARK VINA RESULT:    -4.272     17.667     19.373
REMARK INTER + INTRA:          -5.705
REMARK INTER:                  -5.323
REMARK INTRA:                  -0.382
REMARK UNBOUND:                -0.184
REMARK SMILES CCO[C@H]1O[C@@H](CO)[C@@H](O)[C@H](O)[C@@H]1O
REMARK SMILES IDX 4 1 13 2 11 3 9 4 6 5 5 6 3 7 2 8 1 9 14 10 12 12 7 14 8 15
REMARK SMILES IDX 10 17
REMARK H PARENT 14 11 12 13 8 16 10 18
REMARK Flexibility Score: inf
ROOT
ATOM      1  C   UNL     1     -14.296   8.172  29.559  1.00  0.00     0.281 C 
ATOM      2  C   UNL     1     -14.579   9.535  28.841  1.00  0.00     0.202 C 
ATOM      3  C   UNL     1     -14.493  10.728  29.819  1.00  0.00     0.179 C 
ATOM      4  C   UNL     1     -15.292  10.474  31.121  1.00  0.00     0.177 C 
ATOM      5  C   UNL     1     -15.273   8.967  31.518  1.00  0.00     0.178 C 
ATOM      6  O   UNL     1     -14.140   8.315  30.968  1.00  0.00    -0.341 OA
ENDROOT
BRANCH   1   7
ATOM      7  O   UNL     1     -13.179   7.515  28.978  1.00  0.00    -0.350 OA
BRANCH   7   8
ATOM      8  C   UNL     1     -13.544   6.725  27.862  1.00  0.00     0.160 C 
ATOM      9  C   UNL     1     -13.662   5.273  28.296  1.00  0.00     0.035 C 
ENDBRANCH   7   8
ENDBRANCH   1   7
BRANCH   2  10
ATOM     10  O   UNL     1     -15.824   9.516  28.180  1.00  0.00    -0.385 OA
ATOM     11  H   UNL     1     -15.650   9.488  27.203  1.00  0.00     0.211 HD
ENDBRANCH   2  10
BRANCH   3  12
ATOM     12  O   UNL     1     -14.956  11.893  29.185  1.00  0.00    -0.387 OA
ATOM     13  H   UNL     1     -14.601  12.667  29.697  1.00  0.00     0.211 HD
ENDBRANCH   3  12
BRANCH   5  14
ATOM     14  C   UNL     1     -15.318   8.733  33.038  1.00  0.00     0.191 C 
BRANCH  14  15
ATOM     15  O   UNL     1     -14.041   8.890  33.600  1.00  0.00    -0.394 OA
ATOM     16  H   UNL     1     -13.988   9.829  33.925  1.00  0.00     0.210 HD
ENDBRANCH  14  15
ENDBRANCH   5  14
BRANCH   4  17
ATOM     17  O   UNL     1     -14.754  11.273  32.147  1.00  0.00    -0.387 OA
ATOM     18  H   UNL     1     -14.969  12.216  31.926  1.00  0.00     0.211 HD
ENDBRANCH   4  17
TORSDOF 7
ENDMDL
MODEL 6
REMARK VINA RESULT:    -4.240      1.887      3.548
REMARK INTER + INTRA:          -5.662
REMARK INTER:                  -5.253
REMARK INTRA:                  -0.409
REMARK UNBOUND:                -0.184
REMARK SMILES CCO[C@H]1O[C@@H](CO)[C@@H](O)[C@H](O)[C@@H]1O
REMARK SMILES IDX 4 1 13 2 11 3 9 4 6 5 5 6 3 7 2 8 1 9 14 10 12 12 7 14 8 15
REMARK SMILES IDX 10 17
REMARK H PARENT 14 11 12 13 8 16 10 18
REMARK Flexibility Score: inf
ROOT
ATOM      1  C   UNL     1     -16.364  -6.369  18.476  1.00  0.00     0.281 C 
ATOM      2  C   UNL     1     -15.698  -5.070  19.043  1.00  0.00     0.202 C 
ATOM      3  C   UNL     1     -15.057  -4.219  17.923  1.00  0.00     0.179 C 
ATOM      4  C   UNL     1     -14.176  -5.069  16.975  1.00  0.00     0.177 C 
ATOM      5  C   UNL     1     -14.741  -6.512  16.811  1.00  0.00     0.178 C 
ATOM      6  O   UNL     1     -16.133  -6.542  17.081  1.00  0.00    -0.341 OA
ENDROOT
BRANCH   1   7
ATOM      7  O   UNL     1     -17.751  -6.402  18.779  1.00  0.00    -0.350 OA
BRANCH   7   8
ATOM      8  C   UNL     1     -18.553  -6.108  17.650  1.00  0.00     0.160 C 
ATOM      9  C   UNL     1     -19.956  -6.647  17.881  1.00  0.00     0.035 C 
ENDBRANCH   7   8
ENDBRANCH   1   7
BRANCH   2  10
ATOM     10  O   UNL     1     -14.754  -5.375  20.045  1.00  0.00    -0.385 OA
ATOM     11  H   UNL     1     -14.815  -4.674  20.744  1.00  0.00     0.211 HD
ENDBRANCH   2  10
BRANCH   3  12
ATOM     12  O   UNL     1     -14.297  -3.184  18.494  1.00  0.00    -0.387 OA
ATOM     13  H   UNL     1     -14.625  -2.330  18.105  1.00  0.00     0.211 HD
ENDBRANCH   3  12
BRANCH   5  14
ATOM     14  C   UNL     1     -14.469  -7.124  15.426  1.00  0.00     0.191 C 
BRANCH  14  15
ATOM     15  O   UNL     1     -15.445  -6.715  14.504  1.00  0.00    -0.394 OA
ATOM     16  H   UNL     1     -15.498  -5.724  14.569  1.00  0.00     0.210 HD
ENDBRANCH  14  15
ENDBRANCH   5  14
BRANCH   4  17
ATOM     17  O   UNL     1     -14.089  -4.417  15.731  1.00  0.00    -0.387 OA
ATOM     18  H   UNL     1     -13.487  -4.960  15.158  1.00  0.00     0.211 HD
ENDBRANCH   4  17
TORSDOF 7
ENDMDL
MODEL 7
REMARK VINA RESULT:    -4.186      2.601      4.911
REMARK INTER + INTRA:          -5.594
REMARK INTER:                  -5.236
REMARK INTRA:                  -0.358
REMARK UNBOUND:                -0.184
REMARK SMILES CCO[C@H]1O[C@@H](CO)[C@@H](O)[C@H](O)[C@@H]1O
REMARK SMILES IDX 4 1 13 2 11 3 9 4 6 5 5 6 3 7 2 8 1 9 14 10 12 12 7 14 8 15
REMARK SMILES IDX 10 17
REMARK H PARENT 14 11 12 13 8 16 10 18
REMARK Flexibility Score: inf
ROOT
ATOM      1  C   UNL     1     -16.417  -2.582  17.973  1.00  0.00     0.281 C 
ATOM      2  C   UNL     1     -14.995  -3.234  18.046  1.00  0.00     0.202 C 
ATOM      3  C   UNL     1     -14.895  -4.494  17.158  1.00  0.00     0.179 C 
ATOM      4  C   UNL     1     -16.089  -5.457  17.374  1.00  0.00     0.177 C 
ATOM      5  C   UNL     1     -17.397  -4.678  17.706  1.00  0.00     0.178 C 
ATOM      6  O   UNL     1     -17.336  -3.353  17.204  1.00  0.00    -0.341 OA
ENDROOT
BRANCH   1   7
ATOM      7  O   UNL     1     -16.339  -1.245  17.499  1.00  0.00    -0.350 OA
BRANCH   7   8
ATOM      8  C   UNL     1     -15.006  -0.848  17.238  1.00  0.00     0.160 C 
ATOM      9  C   UNL     1     -15.008   0.229  16.164  1.00  0.00     0.035 C 
ENDBRANCH   7   8
ENDBRANCH   1   7
BRANCH   2  10
ATOM     10  O   UNL     1     -14.635  -3.527  19.377  1.00  0.00    -0.385 OA
ATOM     11  H   UNL     1     -14.637  -4.514  19.483  1.00  0.00     0.211 HD
ENDBRANCH   2  10
BRANCH   3  12
ATOM     12  O   UNL     1     -13.684  -5.158  17.415  1.00  0.00    -0.387 OA
ATOM     13  H   UNL     1     -13.559  -5.831  16.695  1.00  0.00     0.211 HD
ENDBRANCH   3  12
BRANCH   5  14
ATOM     14  C   UNL     1     -18.671  -5.369  17.189  1.00  0.00     0.191 C 
BRANCH  14  15
ATOM     15  O   UNL     1     -18.687  -6.722  17.566  1.00  0.00    -0.394 OA
ATOM     16  H   UNL     1     -18.261  -7.228  16.822  1.00  0.00     0.210 HD
ENDBRANCH  14  15
ENDBRANCH   5  14
BRANCH   4  17
ATOM     17  O   UNL     1     -16.250  -6.246  16.219  1.00  0.00    -0.387 OA
ATOM     18  H   UNL     1     -15.533  -6.931  16.232  1.00  0.00     0.211 HD
ENDBRANCH   4  17
TORSDOF 7
ENDMDL
MODEL 8
REMARK VINA RESULT:    -4.058      2.403      4.081
REMARK INTER + INTRA:          -5.427
REMARK INTER:                  -4.993
REMARK INTRA:                  -0.434
REMARK UNBOUND:                -0.184
REMARK SMILES CCO[C@H]1O[C@@H](CO)[C@@H](O)[C@H](O)[C@@H]1O
REMARK SMILES IDX 4 1 13 2 11 3 9 4 6 5 5 6 3 7 2 8 1 9 14 10 12 12 7 14 8 15
REMARK SMILES IDX 10 17
REMARK H PARENT 14 11 12 13 8 16 10 18
REMARK Flexibility Score: inf
ROOT
ATOM      1  C   UNL     1     -17.937  -4.449  21.096  1.00  0.00     0.281 C 
ATOM      2  C   UNL     1     -17.579  -5.540  22.161  1.00  0.00     0.202 C 
ATOM      3  C   UNL     1     -16.111  -6.005  22.034  1.00  0.00     0.179 C 
ATOM      4  C   UNL     1     -15.729  -6.340  20.571  1.00  0.00     0.177 C 
ATOM      5  C   UNL     1     -16.485  -5.428  19.560  1.00  0.00     0.178 C 
ATOM      6  O   UNL     1     -16.877  -4.211  20.174  1.00  0.00    -0.341 OA
ENDROOT
BRANCH   1   7
ATOM      7  O   UNL     1     -18.358  -3.246  21.723  1.00  0.00    -0.350 OA
BRANCH   7   8
ATOM      8  C   UNL     1     -17.282  -2.354  21.945  1.00  0.00     0.160 C 
ATOM      9  C   UNL     1     -17.234  -1.987  23.420  1.00  0.00     0.035 C 
ENDBRANCH   7   8
ENDBRANCH   1   7
BRANCH   2  10
ATOM     10  O   UNL     1     -18.462  -6.637  22.086  1.00  0.00    -0.385 OA
ATOM     11  H   UNL     1     -19.375  -6.308  22.294  1.00  0.00     0.211 HD
ENDBRANCH   2  10
BRANCH   3  12
ATOM     12  O   UNL     1     -15.897  -7.121  22.860  1.00  0.00    -0.387 OA
ATOM     13  H   UNL     1     -16.687  -7.716  22.761  1.00  0.00     0.211 HD
ENDBRANCH   3  12
BRANCH   5  14
ATOM     14  C   UNL     1     -15.680  -5.127  18.283  1.00  0.00     0.191 C 
BRANCH  14  15
ATOM     15  O   UNL     1     -14.707  -4.146  18.532  1.00  0.00    -0.394 OA
ATOM     16  H   UNL     1     -15.156  -3.430  19.059  1.00  0.00     0.210 HD
ENDBRANCH  14  15
ENDBRANCH   5  14
BRANCH   4  17
ATOM     17  O   UNL     1     -14.335  -6.209  20.425  1.00  0.00    -0.387 OA
ATOM     18  H   UNL     1     -14.114  -6.462  19.492  1.00  0.00     0.211 HD
ENDBRANCH   4  17
TORSDOF 7
ENDMDL
MODEL 9
REMARK VINA RESULT:    -4.056      2.395      4.922
REMARK INTER + INTRA:          -5.425
REMARK INTER:                  -5.078
REMARK INTRA:                  -0.347
REMARK UNBOUND:                -0.184
REMARK SMILES CCO[C@H]1O[C@@H](CO)[C@@H](O)[C@H](O)[C@@H]1O
REMARK SMILES IDX 4 1 13 2 11 3 9 4 6 5 5 6 3 7 2 8 1 9 14 10 12 12 7 14 8 15
REMARK SMILES IDX 10 17
REMARK H PARENT 14 11 12 13 8 16 10 18
REMARK Flexibility Score: inf
ROOT
ATOM      1  C   UNL     1     -14.775  -3.135  17.499  1.00  0.00     0.281 C 
ATOM      2  C   UNL     1     -14.227  -4.289  16.593  1.00  0.00     0.202 C 
ATOM      3  C   UNL     1     -15.088  -5.567  16.707  1.00  0.00     0.179 C 
ATOM      4  C   UNL     1     -15.375  -5.947  18.181  1.00  0.00     0.177 C 
ATOM      5  C   UNL     1     -15.497  -4.682  19.083  1.00  0.00     0.178 C 
ATOM      6  O   UNL     1     -15.867  -3.549  18.316  1.00  0.00    -0.341 OA
ENDROOT
BRANCH   1   7
ATOM      7  O   UNL     1     -15.112  -1.995  16.722  1.00  0.00    -0.350 OA
BRANCH   7   8
ATOM      8  C   UNL     1     -14.569  -0.803  17.258  1.00  0.00     0.160 C 
ATOM      9  C   UNL     1     -14.740   0.321  16.248  1.00  0.00     0.035 C 
ENDBRANCH   7   8
ENDBRANCH   1   7
BRANCH   2  10
ATOM     10  O   UNL     1     -12.875  -4.566  16.880  1.00  0.00    -0.385 OA
ATOM     11  H   UNL     1     -12.321  -3.870  16.440  1.00  0.00     0.211 HD
ENDBRANCH   2  10
BRANCH   3  12
ATOM     12  O   UNL     1     -14.446  -6.629  16.048  1.00  0.00    -0.387 OA
ATOM     13  H   UNL     1     -14.164  -6.294  15.156  1.00  0.00     0.211 HD
ENDBRANCH   3  12
BRANCH   5  14
ATOM     14  C   UNL     1     -16.480  -4.857  20.254  1.00  0.00     0.191 C 
BRANCH  14  15
ATOM     15  O   UNL     1     -17.797  -4.604  19.837  1.00  0.00    -0.394 OA
ATOM     16  H   UNL     1     -17.899  -3.615  19.808  1.00  0.00     0.210 HD
ENDBRANCH  14  15
ENDBRANCH   5  14
BRANCH   4  17
ATOM     17  O   UNL     1     -16.552  -6.718  18.229  1.00  0.00    -0.387 OA
ATOM     18  H   UNL     1     -17.084  -6.390  19.000  1.00  0.00     0.211 HD
ENDBRANCH   4  17
TORSDOF 7
ENDMDL
