MODEL 1
REMARK VINA RESULT:    -3.459      0.000      0.000
REMARK INTER + INTRA:          -5.254
REMARK INTER:                  -5.279
REMARK INTRA:                   0.025
REMARK UNBOUND:                 0.025
REMARK SMILES CC1=CCC[C@@H](C)C(=O)C[C@H](C(C)C)C(=O)C1
REMARK SMILES IDX 8 1 9 2 6 3 7 4 5 5 4 6 3 7 2 8 1 9 10 11 11 12 15 13 16 14
REMARK SMILES IDX 17 15 12 17 13 18 14 19
REMARK H PARENT
REMARK Flexibility Score: 70.00
ROOT
ATOM      1  C   UNL     1      -6.456  69.849  24.475  1.00  0.00     0.136 C 
ATOM      2  O   UNL     1      -5.992  69.872  23.346  1.00  0.00    -0.299 OA
ENDROOT
BRANCH   1   3
ATOM      3  C   UNL     1      -6.413  71.135  25.287  1.00  0.00     0.053 C 
ATOM      4  C   UNL     1      -7.546  72.118  24.950  1.00  0.00     0.016 C 
BRANCH   3   5
ATOM      5  C   UNL     1      -4.987  71.752  25.345  1.00  0.00     0.015 C 
BRANCH   5   6
ATOM      6  C   UNL     1      -3.824  70.880  25.859  1.00  0.00     0.028 C 
BRANCH   6   7
ATOM      7  C   UNL     1      -3.939  70.327  27.260  1.00  0.00    -0.028 C 
ATOM      8  C   UNL     1      -4.139  69.034  27.597  1.00  0.00    -0.070 CG0
ATOM      9  C   UNL     1      -4.462  68.723  29.037  1.00  0.00     0.039 C 
ATOM     10  G   UNL     1      -4.023  67.889  26.609  1.00  0.00     0.000 G0
ENDBRANCH   6   7
ENDBRANCH   5   6
ENDBRANCH   3   5
ENDBRANCH   1   3
BRANCH   1  11
ATOM     11  C   UNL     1      -7.036  68.547  24.997  1.00  0.00     0.087 C 
BRANCH  11  12
ATOM     12  C   UNL     1      -6.051  67.339  25.007  1.00  0.00     0.066 C 
BRANCH  12  13
ATOM     13  C   UNL     1      -5.324  67.189  26.339  1.00  0.00     0.140 C 
ATOM     14  O   UNL     1      -5.791  66.464  27.205  1.00  0.00    -0.299 OA
BRANCH  13  15
ATOM     15  C   UNL     1      -4.008  67.884  26.622  1.00  0.00     0.106 CG0
ATOM     16  G   UNL     1      -4.157  69.045  27.586  1.00  0.00     0.000 G0
ENDBRANCH  13  15
ENDBRANCH  12  13
BRANCH  12  17
ATOM     17  C   UNL     1      -6.625  65.985  24.471  1.00  0.00    -0.006 C 
ATOM     18  C   UNL     1      -7.431  66.099  23.168  1.00  0.00     0.008 C 
ATOM     19  C   UNL     1      -5.520  64.928  24.301  1.00  0.00     0.008 C 
ENDBRANCH  12  17
ENDBRANCH  11  12
ENDBRANCH   1  11
TORSDOF 1
ENDMDL
MODEL 2
REMARK VINA RESULT:    -3.313      1.546      4.197
REMARK INTER + INTRA:          -5.031
REMARK INTER:                  -4.806
REMARK INTRA:                  -0.225
REMARK UNBOUND:                 0.025
REMARK SMILES CC1=CCC[C@@H](C)C(=O)C[C@H](C(C)C)C(=O)C1
REMARK SMILES IDX 8 1 9 2 6 3 7 4 5 5 4 6 3 7 2 8 1 9 10 11 11 12 15 13 16 14
REMARK SMILES IDX 17 15 12 17 13 18 14 19
REMARK H PARENT
REMARK Flexibility Score: 70.00
ROOT
ATOM      1  C   UNL     1      -6.384  68.499  24.606  1.00  0.00     0.136 C 
ATOM      2  O   UNL     1      -7.504  68.930  24.833  1.00  0.00    -0.299 OA
ENDROOT
BRANCH   1   3
ATOM      3  C   UNL     1      -6.185  66.990  24.635  1.00  0.00     0.053 C 
ATOM      4  C   UNL     1      -7.067  66.231  23.631  1.00  0.00     0.016 C 
BRANCH   3   5
ATOM      5  C   UNL     1      -6.175  66.422  26.082  1.00  0.00     0.015 C 
BRANCH   5   6
ATOM      6  C   UNL     1      -4.840  66.384  26.852  1.00  0.00     0.028 C 
BRANCH   6   7
ATOM      7  C   UNL     1      -4.640  67.413  27.940  1.00  0.00    -0.028 C 
ATOM      8  C   UNL     1      -3.843  68.503  27.874  1.00  0.00    -0.070 CG0
ATOM      9  C   UNL     1      -3.597  69.274  29.147  1.00  0.00     0.039 C 
ATOM     10  G   UNL     1      -3.217  69.000  26.585  1.00  0.00     0.000 G0
ENDBRANCH   6   7
ENDBRANCH   5   6
ENDBRANCH   3   5
ENDBRANCH   1   3
BRANCH   1  11
ATOM     11  C   UNL     1      -5.269  69.486  24.317  1.00  0.00     0.087 C 
BRANCH  11  12
ATOM     12  C   UNL     1      -5.025  70.554  25.426  1.00  0.00     0.066 C 
BRANCH  12  13
ATOM     13  C   UNL     1      -3.690  70.364  26.138  1.00  0.00     0.140 C 
ATOM     14  O   UNL     1      -3.000  71.338  26.400  1.00  0.00    -0.299 OA
BRANCH  13  15
ATOM     15  C   UNL     1      -3.196  68.999  26.572  1.00  0.00     0.106 CG0
ATOM     16  G   UNL     1      -3.850  68.521  27.853  1.00  0.00     0.000 G0
ENDBRANCH  13  15
ENDBRANCH  12  13
BRANCH  12  17
ATOM     17  C   UNL     1      -5.287  72.041  25.011  1.00  0.00    -0.006 C 
ATOM     18  C   UNL     1      -4.696  72.444  23.652  1.00  0.00     0.008 C 
ATOM     19  C   UNL     1      -6.788  72.381  25.040  1.00  0.00     0.008 C 
ENDBRANCH  12  17
ENDBRANCH  11  12
ENDBRANCH   1  11
TORSDOF 1
ENDMDL
MODEL 3
REMARK VINA RESULT:    -3.252      4.065      6.591
REMARK INTER + INTRA:          -4.938
REMARK INTER:                  -5.439
REMARK INTRA:                   0.501
REMARK UNBOUND:                 0.025
REMARK SMILES CC1=CCC[C@@H](C)C(=O)C[C@H](C(C)C)C(=O)C1
REMARK SMILES IDX 8 1 9 2 6 3 7 4 5 5 4 6 3 7 2 8 1 9 10 11 11 12 15 13 16 14
REMARK SMILES IDX 17 15 12 17 13 18 14 19
REMARK H PARENT
REMARK Flexibility Score: 70.00
ROOT
ATOM      1  C   UNL     1      -9.798  74.390  23.741  1.00  0.00     0.136 C 
ATOM      2  O   UNL     1     -10.709  73.599  23.551  1.00  0.00    -0.299 OA
ENDROOT
BRANCH   1   3
ATOM      3  C   UNL     1      -9.152  75.037  22.525  1.00  0.00     0.053 C 
ATOM      4  C   UNL     1     -10.152  75.407  21.417  1.00  0.00     0.016 C 
BRANCH   3   5
ATOM      5  C   UNL     1      -7.881  74.275  22.053  1.00  0.00     0.015 C 
BRANCH   5   6
ATOM      6  C   UNL     1      -6.666  74.207  22.999  1.00  0.00     0.028 C 
BRANCH   6   7
ATOM      7  C   UNL     1      -6.026  72.855  23.209  1.00  0.00    -0.028 C 
ATOM      8  C   UNL     1      -6.526  71.840  23.948  1.00  0.00    -0.070 CG0
ATOM      9  C   UNL     1      -5.626  70.661  24.226  1.00  0.00     0.039 C 
ATOM     10  G   UNL     1      -7.946  71.816  24.478  1.00  0.00     0.000 G0
ENDBRANCH   6   7
ENDBRANCH   5   6
ENDBRANCH   3   5
ENDBRANCH   1   3
BRANCH   1  11
ATOM     11  C   UNL     1      -9.366  74.672  25.169  1.00  0.00     0.087 C 
BRANCH  11  12
ATOM     12  C   UNL     1      -9.305  73.424  26.101  1.00  0.00     0.066 C 
BRANCH  12  13
ATOM     13  C   UNL     1      -8.104  72.532  25.807  1.00  0.00     0.140 C 
ATOM     14  O   UNL     1      -7.242  72.378  26.659  1.00  0.00    -0.299 OA
BRANCH  13  15
ATOM     15  C   UNL     1      -7.953  71.791  24.495  1.00  0.00     0.106 CG0
ATOM     16  G   UNL     1      -6.539  71.850  23.950  1.00  0.00     0.000 G0
ENDBRANCH  13  15
ENDBRANCH  12  13
BRANCH  12  17
ATOM     17  C   UNL     1      -9.495  73.705  27.630  1.00  0.00    -0.006 C 
ATOM     18  C   UNL     1      -9.379  75.182  28.032  1.00  0.00     0.008 C 
ATOM     19  C   UNL     1     -10.826  73.133  28.149  1.00  0.00     0.008 C 
ENDBRANCH  12  17
ENDBRANCH  11  12
ENDBRANCH   1  11
TORSDOF 1
ENDMDL
MODEL 4
REMARK VINA RESULT:    -3.197      8.088      9.468
REMARK INTER + INTRA:          -4.854
REMARK INTER:                  -5.092
REMARK INTRA:                   0.238
REMARK UNBOUND:                 0.025
REMARK SMILES CC1=CCC[C@@H](C)C(=O)C[C@H](C(C)C)C(=O)C1
REMARK SMILES IDX 8 1 9 2 6 3 7 4 5 5 4 6 3 7 2 8 1 9 10 11 11 12 15 13 16 14
REMARK SMILES IDX 17 15 12 17 13 18 14 19
REMARK H PARENT
REMARK Flexibility Score: 70.00
ROOT
ATOM      1  C   UNL     1     -12.035  72.699  29.978  1.00  0.00     0.136 C 
ATOM      2  O   UNL     1     -11.980  71.571  29.514  1.00  0.00    -0.299 OA
ENDROOT
BRANCH   1   3
ATOM      3  C   UNL     1     -12.060  73.868  29.003  1.00  0.00     0.053 C 
ATOM      4  C   UNL     1     -13.351  73.954  28.174  1.00  0.00     0.016 C 
BRANCH   3   5
ATOM      5  C   UNL     1     -10.736  73.995  28.197  1.00  0.00     0.015 C 
BRANCH   5   6
ATOM      6  C   UNL     1      -9.633  74.931  28.729  1.00  0.00     0.028 C 
BRANCH   6   7
ATOM      7  C   UNL     1      -9.938  75.718  29.982  1.00  0.00    -0.028 C 
ATOM      8  C   UNL     1      -9.680  75.334  31.251  1.00  0.00    -0.070 CG0
ATOM      9  C   UNL     1     -10.274  76.153  32.370  1.00  0.00     0.039 C 
ATOM     10  G   UNL     1      -8.802  74.148  31.600  1.00  0.00     0.000 G0
ENDBRANCH   6   7
ENDBRANCH   5   6
ENDBRANCH   3   5
ENDBRANCH   1   3
BRANCH   1  11
ATOM     11  C   UNL     1     -12.069  72.865  31.486  1.00  0.00     0.087 C 
BRANCH  11  12
ATOM     12  C   UNL     1     -10.759  72.461  32.227  1.00  0.00     0.066 C 
BRANCH  12  13
ATOM     13  C   UNL     1      -9.505  72.820  31.438  1.00  0.00     0.140 C 
ATOM     14  O   UNL     1      -9.055  72.027  30.624  1.00  0.00    -0.299 OA
BRANCH  13  15
ATOM     15  C   UNL     1      -8.805  74.154  31.599  1.00  0.00     0.106 CG0
ATOM     16  G   UNL     1      -9.697  75.328  31.246  1.00  0.00     0.000 G0
ENDBRANCH  13  15
ENDBRANCH  12  13
BRANCH  12  17
ATOM     17  C   UNL     1     -10.670  72.878  33.734  1.00  0.00    -0.006 C 
ATOM     18  C   UNL     1     -11.967  73.455  34.319  1.00  0.00     0.008 C 
ATOM     19  C   UNL     1     -10.180  71.715  34.616  1.00  0.00     0.008 C 
ENDBRANCH  12  17
ENDBRANCH  11  12
ENDBRANCH   1  11
TORSDOF 1
ENDMDL
MODEL 5
REMARK VINA RESULT:    -3.158      2.802      4.453
REMARK INTER + INTRA:          -4.795
REMARK INTER:                  -4.927
REMARK INTRA:                   0.132
REMARK UNBOUND:                 0.025
REMARK SMILES CC1=CCC[C@@H](C)C(=O)C[C@H](C(C)C)C(=O)C1
REMARK SMILES IDX 8 1 9 2 6 3 7 4 5 5 4 6 3 7 2 8 1 9 10 11 11 12 15 13 16 14
REMARK SMILES IDX 17 15 12 17 13 18 14 19
REMARK H PARENT
REMARK Flexibility Score: 70.00
ROOT
ATOM      1  C   UNL     1      -6.861  71.378  25.342  1.00  0.00     0.136 C 
ATOM      2  O   UNL     1      -7.399  70.387  24.872  1.00  0.00    -0.299 OA
ENDROOT
BRANCH   1   3
ATOM      3  C   UNL     1      -7.483  72.734  25.041  1.00  0.00     0.053 C 
ATOM      4  C   UNL     1      -8.903  72.902  25.605  1.00  0.00     0.016 C 
BRANCH   3   5
ATOM      5  C   UNL     1      -7.297  73.154  23.556  1.00  0.00     0.015 C 
BRANCH   5   6
ATOM      6  C   UNL     1      -5.866  73.316  23.006  1.00  0.00     0.028 C 
BRANCH   6   7
ATOM      7  C   UNL     1      -5.277  72.146  22.253  1.00  0.00    -0.028 C 
ATOM      8  C   UNL     1      -4.222  71.395  22.639  1.00  0.00    -0.070 CG0
ATOM      9  C   UNL     1      -3.642  70.428  21.637  1.00  0.00     0.039 C 
ATOM     10  G   UNL     1      -3.620  71.457  24.029  1.00  0.00     0.000 G0
ENDBRANCH   6   7
ENDBRANCH   5   6
ENDBRANCH   3   5
ENDBRANCH   1   3
BRANCH   1  11
ATOM     11  C   UNL     1      -5.614  71.196  26.187  1.00  0.00     0.087 C 
BRANCH  11  12
ATOM     12  C   UNL     1      -4.787  69.911  25.880  1.00  0.00     0.066 C 
BRANCH  12  13
ATOM     13  C   UNL     1      -3.749  70.130  24.785  1.00  0.00     0.140 C 
ATOM     14  O   UNL     1      -3.008  69.213  24.461  1.00  0.00    -0.299 OA
BRANCH  13  15
ATOM     15  C   UNL     1      -3.620  71.447  24.048  1.00  0.00     0.106 CG0
ATOM     16  G   UNL     1      -4.214  71.396  22.654  1.00  0.00     0.000 G0
ENDBRANCH  13  15
ENDBRANCH  12  13
BRANCH  12  17
ATOM     17  C   UNL     1      -4.209  69.157  27.125  1.00  0.00    -0.006 C 
ATOM     18  C   UNL     1      -4.497  69.831  28.475  1.00  0.00     0.008 C 
ATOM     19  C   UNL     1      -4.680  67.693  27.170  1.00  0.00     0.008 C 
ENDBRANCH  12  17
ENDBRANCH  11  12
ENDBRANCH   1  11
TORSDOF 1
ENDMDL
MODEL 6
REMARK VINA RESULT:    -3.147      1.963      5.213
REMARK INTER + INTRA:          -4.777
REMARK INTER:                  -4.967
REMARK INTRA:                   0.189
REMARK UNBOUND:                 0.025
REMARK SMILES CC1=CCC[C@@H](C)C(=O)C[C@H](C(C)C)C(=O)C1
REMARK SMILES IDX 8 1 9 2 6 3 7 4 5 5 4 6 3 7 2 8 1 9 10 11 11 12 15 13 16 14
REMARK SMILES IDX 17 15 12 17 13 18 14 19
REMARK H PARENT
REMARK Flexibility Score: 70.00
ROOT
ATOM      1  C   UNL     1      -4.152  69.291  26.884  1.00  0.00     0.136 C 
ATOM      2  O   UNL     1      -3.044  69.508  26.420  1.00  0.00    -0.299 OA
ENDROOT
BRANCH   1   3
ATOM      3  C   UNL     1      -4.357  67.994  27.655  1.00  0.00     0.053 C 
ATOM      4  C   UNL     1      -3.218  67.671  28.635  1.00  0.00     0.016 C 
BRANCH   3   5
ATOM      5  C   UNL     1      -4.803  66.823  26.735  1.00  0.00     0.015 C 
BRANCH   5   6
ATOM      6  C   UNL     1      -6.253  66.804  26.212  1.00  0.00     0.028 C 
BRANCH   6   7
ATOM      7  C   UNL     1      -6.448  66.691  24.718  1.00  0.00    -0.028 C 
ATOM      8  C   UNL     1      -6.898  67.663  23.894  1.00  0.00    -0.070 CG0
ATOM      9  C   UNL     1      -7.247  67.279  22.477  1.00  0.00     0.039 C 
ATOM     10  G   UNL     1      -7.034  69.113  24.314  1.00  0.00     0.000 G0
ENDBRANCH   6   7
ENDBRANCH   5   6
ENDBRANCH   3   5
ENDBRANCH   1   3
BRANCH   1  11
ATOM     11  C   UNL     1      -5.249  70.316  26.661  1.00  0.00     0.087 C 
BRANCH  11  12
ATOM     12  C   UNL     1      -5.303  70.928  25.229  1.00  0.00     0.066 C 
BRANCH  12  13
ATOM     13  C   UNL     1      -5.746  69.916  24.177  1.00  0.00     0.140 C 
ATOM     14  O   UNL     1      -5.035  69.704  23.206  1.00  0.00    -0.299 OA
BRANCH  13  15
ATOM     15  C   UNL     1      -7.032  69.128  24.308  1.00  0.00     0.106 CG0
ATOM     16  G   UNL     1      -6.876  67.680  23.885  1.00  0.00     0.000 G0
ENDBRANCH  13  15
ENDBRANCH  12  13
BRANCH  12  17
ATOM     17  C   UNL     1      -6.042  72.302  25.101  1.00  0.00    -0.006 C 
ATOM     18  C   UNL     1      -6.231  72.800  23.661  1.00  0.00     0.008 C 
ATOM     19  C   UNL     1      -7.401  72.284  25.823  1.00  0.00     0.008 C 
ENDBRANCH  12  17
ENDBRANCH  11  12
ENDBRANCH   1  11
TORSDOF 1
ENDMDL
MODEL 7
REMARK VINA RESULT:    -3.098      8.734     10.488
REMARK INTER + INTRA:          -4.702
REMARK INTER:                  -4.578
REMARK INTRA:                  -0.124
REMARK UNBOUND:                 0.025
REMARK SMILES CC1=CCC[C@@H](C)C(=O)C[C@H](C(C)C)C(=O)C1
REMARK SMILES IDX 8 1 9 2 6 3 7 4 5 5 4 6 3 7 2 8 1 9 10 11 11 12 15 13 16 14
REMARK SMILES IDX 17 15 12 17 13 18 14 19
REMARK H PARENT
REMARK Flexibility Score: 70.00
ROOT
ATOM      1  C   UNL     1      -4.883  69.663  36.809  1.00  0.00     0.136 C 
ATOM      2  O   UNL     1      -5.200  70.835  36.946  1.00  0.00    -0.299 OA
ENDROOT
BRANCH   1   3
ATOM      3  C   UNL     1      -3.443  69.357  36.425  1.00  0.00     0.053 C 
ATOM      4  C   UNL     1      -2.428  69.659  37.540  1.00  0.00     0.016 C 
BRANCH   3   5
ATOM      5  C   UNL     1      -3.075  69.906  35.018  1.00  0.00     0.015 C 
BRANCH   5   6
ATOM      6  C   UNL     1      -3.223  68.975  33.798  1.00  0.00     0.028 C 
BRANCH   6   7
ATOM      7  C   UNL     1      -3.214  67.487  34.059  1.00  0.00    -0.028 C 
ATOM      8  C   UNL     1      -4.298  66.691  34.191  1.00  0.00    -0.070 CG0
ATOM      9  C   UNL     1      -4.080  65.281  34.682  1.00  0.00     0.039 C 
ATOM     10  G   UNL     1      -5.705  67.135  33.841  1.00  0.00     0.000 G0
ENDBRANCH   6   7
ENDBRANCH   5   6
ENDBRANCH   3   5
ENDBRANCH   1   3
BRANCH   1  11
ATOM     11  C   UNL     1      -5.939  68.594  37.024  1.00  0.00     0.087 C 
BRANCH  11  12
ATOM     12  C   UNL     1      -6.939  68.403  35.844  1.00  0.00     0.066 C 
BRANCH  12  13
ATOM     13  C   UNL     1      -6.647  67.149  35.027  1.00  0.00     0.140 C 
ATOM     14  O   UNL     1      -7.210  66.101  35.307  1.00  0.00    -0.299 OA
BRANCH  13  15
ATOM     15  C   UNL     1      -5.700  67.159  33.845  1.00  0.00     0.106 CG0
ATOM     16  G   UNL     1      -4.307  66.684  34.208  1.00  0.00     0.000 G0
ENDBRANCH  13  15
ENDBRANCH  12  13
BRANCH  12  17
ATOM     17  C   UNL     1      -8.455  68.557  36.203  1.00  0.00    -0.006 C 
ATOM     18  C   UNL     1      -8.823  68.144  37.635  1.00  0.00     0.008 C 
ATOM     19  C   UNL     1      -8.958  69.986  35.934  1.00  0.00     0.008 C 
ENDBRANCH  12  17
ENDBRANCH  11  12
ENDBRANCH   1  11
TORSDOF 1
ENDMDL
MODEL 8
REMARK VINA RESULT:    -3.079      2.085      4.076
REMARK INTER + INTRA:          -4.674
REMARK INTER:                  -4.694
REMARK INTRA:                   0.020
REMARK UNBOUND:                 0.025
REMARK SMILES CC1=CCC[C@@H](C)C(=O)C[C@H](C(C)C)C(=O)C1
REMARK SMILES IDX 8 1 9 2 6 3 7 4 5 5 4 6 3 7 2 8 1 9 10 11 11 12 15 13 16 14
REMARK SMILES IDX 17 15 12 17 13 18 14 19
REMARK H PARENT
REMARK Flexibility Score: 70.00
ROOT
ATOM      1  C   UNL     1      -5.426  71.104  25.534  1.00  0.00     0.136 C 
ATOM      2  O   UNL     1      -4.605  71.852  25.025  1.00  0.00    -0.299 OA
ENDROOT
BRANCH   1   3
ATOM      3  C   UNL     1      -6.662  70.747  24.720  1.00  0.00     0.053 C 
ATOM      4  C   UNL     1      -7.745  71.838  24.729  1.00  0.00     0.016 C 
BRANCH   3   5
ATOM      5  C   UNL     1      -7.162  69.303  25.006  1.00  0.00     0.015 C 
BRANCH   5   6
ATOM      6  C   UNL     1      -6.594  68.143  24.163  1.00  0.00     0.028 C 
BRANCH   6   7
ATOM      7  C   UNL     1      -5.444  68.459  23.237  1.00  0.00    -0.028 C 
ATOM      8  C   UNL     1      -4.132  68.464  23.563  1.00  0.00    -0.070 CG0
ATOM      9  C   UNL     1      -3.160  69.035  22.561  1.00  0.00     0.039 C 
ATOM     10  G   UNL     1      -3.595  67.897  24.862  1.00  0.00     0.000 G0
ENDBRANCH   6   7
ENDBRANCH   5   6
ENDBRANCH   3   5
ENDBRANCH   1   3
BRANCH   1  11
ATOM     11  C   UNL     1      -5.168  70.587  26.937  1.00  0.00     0.087 C 
BRANCH  11  12
ATOM     12  C   UNL     1      -4.530  69.166  27.012  1.00  0.00     0.066 C 
BRANCH  12  13
ATOM     13  C   UNL     1      -3.450  68.952  25.957  1.00  0.00     0.140 C 
ATOM     14  O   UNL     1      -2.425  69.616  25.998  1.00  0.00    -0.299 OA
BRANCH  13  15
ATOM     15  C   UNL     1      -3.585  67.911  24.865  1.00  0.00     0.106 CG0
ATOM     16  G   UNL     1      -4.117  68.489  23.568  1.00  0.00     0.000 G0
ENDBRANCH  13  15
ENDBRANCH  12  13
BRANCH  12  17
ATOM     17  C   UNL     1      -4.092  68.690  28.438  1.00  0.00    -0.006 C 
ATOM     18  C   UNL     1      -4.482  69.638  29.581  1.00  0.00     0.008 C 
ATOM     19  C   UNL     1      -4.607  67.273  28.745  1.00  0.00     0.008 C 
ENDBRANCH  12  17
ENDBRANCH  11  12
ENDBRANCH   1  11
TORSDOF 1
ENDMDL
MODEL 9
REMARK VINA RESULT:    -3.031      1.788      4.519
REMARK INTER + INTRA:          -4.601
REMARK INTER:                  -4.642
REMARK INTRA:                   0.042
REMARK UNBOUND:                 0.025
REMARK SMILES CC1=CCC[C@@H](C)C(=O)C[C@H](C(C)C)C(=O)C1
REMARK SMILES IDX 8 1 9 2 6 3 7 4 5 5 4 6 3 7 2 8 1 9 10 11 11 12 15 13 16 14
REMARK SMILES IDX 17 15 12 17 13 18 14 19
REMARK H PARENT
REMARK Flexibility Score: 70.00
ROOT
ATOM      1  C   UNL     1      -4.311  70.216  26.999  1.00  0.00     0.136 C 
ATOM      2  O   UNL     1      -3.294  70.767  26.606  1.00  0.00    -0.299 OA
ENDROOT
BRANCH   1   3
ATOM      3  C   UNL     1      -4.178  69.192  28.117  1.00  0.00     0.053 C 
ATOM      4  C   UNL     1      -3.661  69.783  29.439  1.00  0.00     0.016 C 
BRANCH   3   5
ATOM      5  C   UNL     1      -3.474  67.889  27.645  1.00  0.00     0.015 C 
BRANCH   5   6
ATOM      6  C   UNL     1      -3.464  67.557  26.139  1.00  0.00     0.028 C 
BRANCH   6   7
ATOM      7  C   UNL     1      -4.389  66.460  25.666  1.00  0.00    -0.028 C 
ATOM      8  C   UNL     1      -5.382  66.586  24.758  1.00  0.00    -0.070 CG0
ATOM      9  C   UNL     1      -6.341  65.433  24.598  1.00  0.00     0.039 C 
ATOM     10  G   UNL     1      -5.556  67.809  23.879  1.00  0.00     0.000 G0
ENDBRANCH   6   7
ENDBRANCH   5   6
ENDBRANCH   3   5
ENDBRANCH   1   3
BRANCH   1  11
ATOM     11  C   UNL     1      -5.633  70.582  26.349  1.00  0.00     0.087 C 
BRANCH  11  12
ATOM     12  C   UNL     1      -5.725  70.286  24.822  1.00  0.00     0.066 C 
BRANCH  12  13
ATOM     13  C   UNL     1      -6.346  68.925  24.525  1.00  0.00     0.140 C 
ATOM     14  O   UNL     1      -7.521  68.725  24.796  1.00  0.00    -0.299 OA
BRANCH  13  15
ATOM     15  C   UNL     1      -5.563  67.808  23.867  1.00  0.00     0.106 CG0
ATOM     16  G   UNL     1      -5.384  66.607  24.775  1.00  0.00     0.000 G0
ENDBRANCH  13  15
ENDBRANCH  12  13
BRANCH  12  17
ATOM     17  C   UNL     1      -6.321  71.433  23.939  1.00  0.00    -0.006 C 
ATOM     18  C   UNL     1      -7.395  72.285  24.631  1.00  0.00     0.008 C 
ATOM     19  C   UNL     1      -5.218  72.349  23.380  1.00  0.00     0.008 C 
ENDBRANCH  12  17
ENDBRANCH  11  12
ENDBRANCH   1  11
TORSDOF 1
ENDMDL
