MODEL 1
REMARK VINA RESULT:    -3.990      0.000      0.000
REMARK INTER + INTRA:          -4.107
REMARK INTER:                  -4.107
REMARK INTRA:                   0.000
REMARK UNBOUND:                 0.000
REMARK SMILES O=c1ccc2ccc(O)cc2o1
REMARK SMILES IDX 6 1 7 2 8 3 10 4 11 5 5 6 4 7 3 8 2 9 1 10 12 11 9 12
REMARK H PARENT 9 13
REMARK Flexibility Score: inf
ROOT
ATOM      1  C   UNL     1      22.831  22.591  19.251  1.00  0.00     0.016 A 
ATOM      2  C   UNL     1      22.749  21.330  19.849  1.00  0.00     0.047 A 
ATOM      3  C   UNL     1      21.502  20.717  20.042  1.00  0.00     0.119 A 
ATOM      4  C   UNL     1      20.332  21.370  19.633  1.00  0.00     0.094 A 
ATOM      5  C   UNL     1      20.405  22.632  19.034  1.00  0.00     0.142 A 
ATOM      6  C   UNL     1      21.662  23.247  18.841  1.00  0.00     0.018 A 
ATOM      7  C   UNL     1      21.702  24.508  18.239  1.00  0.00     0.019 A 
ATOM      8  C   UNL     1      20.510  25.118  17.848  1.00  0.00     0.094 A 
ATOM      9  C   UNL     1      19.302  24.450  18.070  1.00  0.00     0.336 A 
ATOM     10  O   UNL     1      18.216  24.984  17.726  1.00  0.00    -0.246 OA
ATOM     11  O   UNL     1      19.291  23.250  18.646  1.00  0.00    -0.423 OA
ENDROOT
BRANCH   3  12
ATOM     12  O   UNL     1      21.413  19.461  20.638  1.00  0.00    -0.508 OA
ATOM     13  H   UNL     1      21.431  18.611  20.086  1.00  0.00     0.293 HD
ENDBRANCH   3  12
TORSDOF 1
ENDMDL
MODEL 2
REMARK VINA RESULT:    -3.690     15.542     16.885
REMARK INTER + INTRA:          -3.798
REMARK INTER:                  -3.798
REMARK INTRA:                   0.000
REMARK UNBOUND:                 0.000
REMARK SMILES O=c1ccc2ccc(O)cc2o1
REMARK SMILES IDX 6 1 7 2 8 3 10 4 11 5 5 6 4 7 3 8 2 9 1 10 12 11 9 12
REMARK H PARENT 9 13
REMARK Flexibility Score: inf
ROOT
ATOM      1  C   UNL     1      23.624   7.829  18.188  1.00  0.00     0.016 A 
ATOM      2  C   UNL     1      24.810   8.225  18.816  1.00  0.00     0.047 A 
ATOM      3  C   UNL     1      26.053   7.876  18.265  1.00  0.00     0.119 A 
ATOM      4  C   UNL     1      26.107   7.129  17.081  1.00  0.00     0.094 A 
ATOM      5  C   UNL     1      24.926   6.730  16.447  1.00  0.00     0.142 A 
ATOM      6  C   UNL     1      23.676   7.082  17.004  1.00  0.00     0.018 A 
ATOM      7  C   UNL     1      22.514   6.668  16.346  1.00  0.00     0.019 A 
ATOM      8  C   UNL     1      22.619   5.927  15.170  1.00  0.00     0.094 A 
ATOM      9  C   UNL     1      23.891   5.614  14.677  1.00  0.00     0.336 A 
ATOM     10  O   UNL     1      24.008   4.946  13.617  1.00  0.00    -0.246 OA
ATOM     11  O   UNL     1      24.982   6.020  15.322  1.00  0.00    -0.423 OA
ENDROOT
BRANCH   3  12
ATOM     12  O   UNL     1      27.237   8.266  18.885  1.00  0.00    -0.508 OA
ATOM     13  H   UNL     1      27.241   8.656  19.821  1.00  0.00     0.293 HD
ENDBRANCH   3  12
TORSDOF 1
ENDMDL
MODEL 3
REMARK VINA RESULT:    -3.620      1.919      1.998
REMARK INTER + INTRA:          -3.726
REMARK INTER:                  -3.726
REMARK INTRA:                   0.000
REMARK UNBOUND:                 0.000
REMARK SMILES O=c1ccc2ccc(O)cc2o1
REMARK SMILES IDX 6 1 7 2 8 3 10 4 11 5 5 6 4 7 3 8 2 9 1 10 12 11 9 12
REMARK H PARENT 9 13
REMARK Flexibility Score: inf
ROOT
ATOM      1  C   UNL     1      22.815  21.265  18.834  1.00  0.00     0.016 A 
ATOM      2  C   UNL     1      22.376  19.941  18.932  1.00  0.00     0.047 A 
ATOM      3  C   UNL     1      21.183  19.638  19.607  1.00  0.00     0.119 A 
ATOM      4  C   UNL     1      20.428  20.667  20.185  1.00  0.00     0.094 A 
ATOM      5  C   UNL     1      20.860  21.994  20.092  1.00  0.00     0.142 A 
ATOM      6  C   UNL     1      22.061  22.295  19.411  1.00  0.00     0.018 A 
ATOM      7  C   UNL     1      22.466  23.631  19.334  1.00  0.00     0.019 A 
ATOM      8  C   UNL     1      21.680  24.620  19.925  1.00  0.00     0.094 A 
ATOM      9  C   UNL     1      20.502  24.248  20.583  1.00  0.00     0.336 A 
ATOM     10  O   UNL     1      19.780  25.125  21.123  1.00  0.00    -0.246 OA
ATOM     11  O   UNL     1      20.140  22.969  20.642  1.00  0.00    -0.423 OA
ENDROOT
BRANCH   3  12
ATOM     12  O   UNL     1      20.740  18.322  19.709  1.00  0.00    -0.508 OA
ATOM     13  H   UNL     1      19.862  18.025  19.298  1.00  0.00     0.293 HD
ENDBRANCH   3  12
TORSDOF 1
ENDMDL
MODEL 4
REMARK VINA RESULT:    -3.563     14.023     15.811
REMARK INTER + INTRA:          -3.667
REMARK INTER:                  -3.667
REMARK INTRA:                   0.000
REMARK UNBOUND:                 0.000
REMARK SMILES O=c1ccc2ccc(O)cc2o1
REMARK SMILES IDX 6 1 7 2 8 3 10 4 11 5 5 6 4 7 3 8 2 9 1 10 12 11 9 12
REMARK H PARENT 9 13
REMARK Flexibility Score: inf
ROOT
ATOM      1  C   UNL     1      23.221   5.998  15.464  1.00  0.00     0.016 A 
ATOM      2  C   UNL     1      24.619   6.003  15.480  1.00  0.00     0.047 A 
ATOM      3  C   UNL     1      25.315   6.939  16.261  1.00  0.00     0.119 A 
ATOM      4  C   UNL     1      24.607   7.873  17.027  1.00  0.00     0.094 A 
ATOM      5  C   UNL     1      23.208   7.875  17.017  1.00  0.00     0.142 A 
ATOM      6  C   UNL     1      22.510   6.931  16.230  1.00  0.00     0.018 A 
ATOM      7  C   UNL     1      21.112   6.958  16.241  1.00  0.00     0.019 A 
ATOM      8  C   UNL     1      20.451   7.907  17.021  1.00  0.00     0.094 A 
ATOM      9  C   UNL     1      21.208   8.810  17.775  1.00  0.00     0.336 A 
ATOM     10  O   UNL     1      20.631   9.674  18.485  1.00  0.00    -0.246 OA
ATOM     11  O   UNL     1      22.537   8.764  17.747  1.00  0.00    -0.423 OA
ENDROOT
BRANCH   3  12
ATOM     12  O   UNL     1      26.707   6.950  16.282  1.00  0.00    -0.508 OA
ATOM     13  H   UNL     1      27.251   6.475  15.570  1.00  0.00     0.293 HD
ENDBRANCH   3  12
TORSDOF 1
ENDMDL
MODEL 5
REMARK VINA RESULT:    -3.367     11.805     13.795
REMARK INTER + INTRA:          -3.465
REMARK INTER:                  -3.465
REMARK INTRA:                   0.000
REMARK UNBOUND:                 0.000
REMARK SMILES O=c1ccc2ccc(O)cc2o1
REMARK SMILES IDX 6 1 7 2 8 3 10 4 11 5 5 6 4 7 3 8 2 9 1 10 12 11 9 12
REMARK H PARENT 9 13
REMARK Flexibility Score: inf
ROOT
ATOM      1  C   UNL     1      18.101   8.681  16.215  1.00  0.00     0.016 A 
ATOM      2  C   UNL     1      18.625   7.421  15.910  1.00  0.00     0.047 A 
ATOM      3  C   UNL     1      20.010   7.201  15.953  1.00  0.00     0.119 A 
ATOM      4  C   UNL     1      20.873   8.248  16.302  1.00  0.00     0.094 A 
ATOM      5  C   UNL     1      20.357   9.511  16.608  1.00  0.00     0.142 A 
ATOM      6  C   UNL     1      18.961   9.730  16.565  1.00  0.00     0.018 A 
ATOM      7  C   UNL     1      18.476  11.003  16.876  1.00  0.00     0.019 A 
ATOM      8  C   UNL     1      19.375  12.014  17.218  1.00  0.00     0.094 A 
ATOM      9  C   UNL     1      20.744  11.725  17.241  1.00  0.00     0.336 A 
ATOM     10  O   UNL     1      21.570  12.623  17.547  1.00  0.00    -0.246 OA
ATOM     11  O   UNL     1      21.179  10.504  16.940  1.00  0.00    -0.423 OA
ENDROOT
BRANCH   3  12
ATOM     12  O   UNL     1      20.539   5.949  15.651  1.00  0.00    -0.508 OA
ATOM     13  H   UNL     1      21.515   5.731  15.820  1.00  0.00     0.293 HD
ENDBRANCH   3  12
TORSDOF 1
ENDMDL
MODEL 6
REMARK VINA RESULT:    -3.352     12.263     14.451
REMARK INTER + INTRA:          -3.450
REMARK INTER:                  -3.450
REMARK INTRA:                   0.000
REMARK UNBOUND:                 0.000
REMARK SMILES O=c1ccc2ccc(O)cc2o1
REMARK SMILES IDX 6 1 7 2 8 3 10 4 11 5 5 6 4 7 3 8 2 9 1 10 12 11 9 12
REMARK H PARENT 9 13
REMARK Flexibility Score: inf
ROOT
ATOM      1  C   UNL     1      21.042  10.119  17.039  1.00  0.00     0.016 A 
ATOM      2  C   UNL     1      20.439  11.360  17.267  1.00  0.00     0.047 A 
ATOM      3  C   UNL     1      19.066  11.534  17.030  1.00  0.00     0.119 A 
ATOM      4  C   UNL     1      18.297  10.461  16.564  1.00  0.00     0.094 A 
ATOM      5  C   UNL     1      18.892   9.217  16.334  1.00  0.00     0.142 A 
ATOM      6  C   UNL     1      20.274   9.044  16.573  1.00  0.00     0.018 A 
ATOM      7  C   UNL     1      20.840   7.788  16.334  1.00  0.00     0.019 A 
ATOM      8  C   UNL     1      20.032   6.750  15.871  1.00  0.00     0.094 A 
ATOM      9  C   UNL     1      18.671   6.994  15.656  1.00  0.00     0.336 A 
ATOM     10  O   UNL     1      17.925   6.070  15.238  1.00  0.00    -0.246 OA
ATOM     11  O   UNL     1      18.157   8.198  15.891  1.00  0.00    -0.423 OA
ENDROOT
BRANCH   3  12
ATOM     12  O   UNL     1      18.460  12.767  17.255  1.00  0.00    -0.508 OA
ATOM     13  H   UNL     1      18.956  13.638  17.102  1.00  0.00     0.293 HD
ENDBRANCH   3  12
TORSDOF 1
ENDMDL
MODEL 7
REMARK VINA RESULT:    -3.348     13.707     14.901
REMARK INTER + INTRA:          -3.446
REMARK INTER:                  -3.446
REMARK INTRA:                   0.000
REMARK UNBOUND:                 0.000
REMARK SMILES O=c1ccc2ccc(O)cc2o1
REMARK SMILES IDX 6 1 7 2 8 3 10 4 11 5 5 6 4 7 3 8 2 9 1 10 12 11 9 12
REMARK H PARENT 9 13
REMARK Flexibility Score: inf
ROOT
ATOM      1  C   UNL     1      24.949   8.239  19.495  1.00  0.00     0.016 A 
ATOM      2  C   UNL     1      25.985   7.734  18.702  1.00  0.00     0.047 A 
ATOM      3  C   UNL     1      25.787   7.523  17.329  1.00  0.00     0.119 A 
ATOM      4  C   UNL     1      24.547   7.819  16.749  1.00  0.00     0.094 A 
ATOM      5  C   UNL     1      23.506   8.324  17.535  1.00  0.00     0.142 A 
ATOM      6  C   UNL     1      23.708   8.536  18.917  1.00  0.00     0.018 A 
ATOM      7  C   UNL     1      22.649   9.043  19.676  1.00  0.00     0.019 A 
ATOM      8  C   UNL     1      21.433   9.323  19.052  1.00  0.00     0.094 A 
ATOM      9  C   UNL     1      21.305   9.088  17.679  1.00  0.00     0.336 A 
ATOM     10  O   UNL     1      20.216   9.334  17.098  1.00  0.00    -0.246 OA
ATOM     11  O   UNL     1      22.329   8.605  16.980  1.00  0.00    -0.423 OA
ENDROOT
BRANCH   3  12
ATOM     12  O   UNL     1      26.813   7.020  16.534  1.00  0.00    -0.508 OA
ATOM     13  H   UNL     1      26.809   7.137  15.526  1.00  0.00     0.293 HD
ENDBRANCH   3  12
TORSDOF 1
ENDMDL
MODEL 8
REMARK VINA RESULT:    -3.330     15.360     16.842
REMARK INTER + INTRA:          -3.427
REMARK INTER:                  -3.427
REMARK INTRA:                   0.000
REMARK UNBOUND:                 0.000
REMARK SMILES O=c1ccc2ccc(O)cc2o1
REMARK SMILES IDX 6 1 7 2 8 3 10 4 11 5 5 6 4 7 3 8 2 9 1 10 12 11 9 12
REMARK H PARENT 9 13
REMARK Flexibility Score: inf
ROOT
ATOM      1  C   UNL     1      22.571   6.209  16.814  1.00  0.00     0.016 A 
ATOM      2  C   UNL     1      22.698   5.589  15.567  1.00  0.00     0.047 A 
ATOM      3  C   UNL     1      23.912   5.657  14.864  1.00  0.00     0.119 A 
ATOM      4  C   UNL     1      24.999   6.346  15.414  1.00  0.00     0.094 A 
ATOM      5  C   UNL     1      24.880   6.969  16.661  1.00  0.00     0.142 A 
ATOM      6  C   UNL     1      23.658   6.899  17.366  1.00  0.00     0.018 A 
ATOM      7  C   UNL     1      23.569   7.531  18.610  1.00  0.00     0.019 A 
ATOM      8  C   UNL     1      24.681   8.205  19.116  1.00  0.00     0.094 A 
ATOM      9  C   UNL     1      25.859   8.232  18.362  1.00  0.00     0.336 A 
ATOM     10  O   UNL     1      26.872   8.836  18.801  1.00  0.00    -0.246 OA
ATOM     11  O   UNL     1      25.916   7.623  17.181  1.00  0.00    -0.423 OA
ENDROOT
BRANCH   3  12
ATOM     12  O   UNL     1      24.046   5.043  13.622  1.00  0.00    -0.508 OA
ATOM     13  H   UNL     1      24.748   4.330  13.456  1.00  0.00     0.293 HD
ENDBRANCH   3  12
TORSDOF 1
ENDMDL
MODEL 9
REMARK VINA RESULT:    -2.223      0.854      4.221
REMARK INTER + INTRA:          -2.288
REMARK INTER:                  -2.288
REMARK INTRA:                   0.000
REMARK UNBOUND:                 0.000
REMARK SMILES O=c1ccc2ccc(O)cc2o1
REMARK SMILES IDX 6 1 7 2 8 3 10 4 11 5 5 6 4 7 3 8 2 9 1 10 12 11 9 12
REMARK H PARENT 9 13
REMARK Flexibility Score: inf
ROOT
ATOM      1  C   UNL     1      21.581  24.354  18.120  1.00  0.00     0.016 A 
ATOM      2  C   UNL     1      20.378  24.942  17.717  1.00  0.00     0.047 A 
ATOM      3  C   UNL     1      19.151  24.370  18.088  1.00  0.00     0.119 A 
ATOM      4  C   UNL     1      19.131  23.206  18.865  1.00  0.00     0.094 A 
ATOM      5  C   UNL     1      20.330  22.611  19.273  1.00  0.00     0.142 A 
ATOM      6  C   UNL     1      21.563  23.189  18.898  1.00  0.00     0.018 A 
ATOM      7  C   UNL     1      22.744  22.573  19.321  1.00  0.00     0.019 A 
ATOM      8  C   UNL     1      22.672  21.414  20.095  1.00  0.00     0.094 A 
ATOM      9  C   UNL     1      21.415  20.898  20.428  1.00  0.00     0.336 A 
ATOM     10  O   UNL     1      21.329  19.854  21.125  1.00  0.00    -0.246 OA
ATOM     11  O   UNL     1      20.307  21.504  20.012  1.00  0.00    -0.423 OA
ENDROOT
BRANCH   3  12
ATOM     12  O   UNL     1      17.949  24.950  17.689  1.00  0.00    -0.508 OA
ATOM     13  H   UNL     1      17.911  25.623  16.932  1.00  0.00     0.293 HD
ENDBRANCH   3  12
TORSDOF 1
ENDMDL
