MODEL 1
REMARK VINA RESULT:    -5.158      0.000      0.000
REMARK INTER + INTRA:          -5.158
REMARK INTER:                  -5.158
REMARK INTRA:                   0.000
REMARK UNBOUND:                 0.000
REMARK SMILES CC(C)=C1CC[C@@H](C)CC1=O
REMARK SMILES IDX 8 1 7 2 6 3 5 4 4 5 2 6 1 7 3 8 10 9 11 10 9 11
REMARK H PARENT
REMARK Flexibility Score: inf
ROOT
ATOM      1  C   UNL     1       5.260  27.327  57.030  1.00  0.00     0.008 C 
ATOM      2  C   UNL     1       4.057  28.253  56.817  1.00  0.00    -0.006 C 
ATOM      3  C   UNL     1       2.945  27.938  57.829  1.00  0.00     0.008 C 
ATOM      4  C   UNL     1       1.775  28.922  57.698  1.00  0.00     0.039 C 
ATOM      5  C   UNL     1       1.255  29.023  56.270  1.00  0.00    -0.006 C 
ATOM      6  C   UNL     1      -0.061  29.276  56.010  1.00  0.00    -0.070 C 
ATOM      7  C   UNL     1      -0.600  29.321  54.599  1.00  0.00     0.039 C 
ATOM      8  C   UNL     1      -1.056  29.484  57.130  1.00  0.00     0.039 C 
ATOM      9  C   UNL     1       2.284  28.945  55.190  1.00  0.00     0.159 C 
ATOM     10  O   UNL     1       2.145  29.573  54.107  1.00  0.00    -0.295 OA
ATOM     11  C   UNL     1       3.519  28.114  55.385  1.00  0.00     0.084 C 
ENDROOT
TORSDOF 0
ENDMDL
MODEL 2
REMARK VINA RESULT:    -4.950      1.195      4.171
REMARK INTER + INTRA:          -4.950
REMARK INTER:                  -4.950
REMARK INTRA:                   0.000
REMARK UNBOUND:                 0.000
REMARK SMILES CC(C)=C1CC[C@@H](C)CC1=O
REMARK SMILES IDX 8 1 7 2 6 3 5 4 4 5 2 6 1 7 3 8 10 9 11 10 9 11
REMARK H PARENT
REMARK Flexibility Score: inf
ROOT
ATOM      1  C   UNL     1      -0.588  29.242  55.779  1.00  0.00     0.008 C 
ATOM      2  C   UNL     1       0.816  28.639  55.902  1.00  0.00    -0.006 C 
ATOM      3  C   UNL     1       1.367  28.835  57.323  1.00  0.00     0.008 C 
ATOM      4  C   UNL     1       2.728  28.148  57.494  1.00  0.00     0.039 C 
ATOM      5  C   UNL     1       3.727  28.556  56.419  1.00  0.00    -0.006 C 
ATOM      6  C   UNL     1       5.065  28.620  56.681  1.00  0.00    -0.070 C 
ATOM      7  C   UNL     1       6.059  29.078  55.639  1.00  0.00     0.039 C 
ATOM      8  C   UNL     1       5.614  28.272  58.046  1.00  0.00     0.039 C 
ATOM      9  C   UNL     1       3.168  28.764  55.050  1.00  0.00     0.159 C 
ATOM     10  O   UNL     1       3.847  28.510  54.020  1.00  0.00    -0.295 OA
ATOM     11  C   UNL     1       1.767  29.278  54.878  1.00  0.00     0.084 C 
ENDROOT
TORSDOF 0
ENDMDL
MODEL 3
REMARK VINA RESULT:    -4.757      7.898      9.200
REMARK INTER + INTRA:          -4.757
REMARK INTER:                  -4.757
REMARK INTRA:                   0.000
REMARK UNBOUND:                 0.000
REMARK SMILES CC(C)=C1CC[C@@H](C)CC1=O
REMARK SMILES IDX 8 1 7 2 6 3 5 4 4 5 2 6 1 7 3 8 10 9 11 10 9 11
REMARK H PARENT
REMARK Flexibility Score: inf
ROOT
ATOM      1  C   UNL     1      -4.200  31.600  60.071  1.00  0.00     0.008 C 
ATOM      2  C   UNL     1      -5.318  30.755  59.450  1.00  0.00    -0.006 C 
ATOM      3  C   UNL     1      -4.730  29.664  58.541  1.00  0.00     0.008 C 
ATOM      4  C   UNL     1      -5.828  28.744  57.992  1.00  0.00     0.039 C 
ATOM      5  C   UNL     1      -6.957  29.517  57.323  1.00  0.00    -0.006 C 
ATOM      6  C   UNL     1      -7.651  28.992  56.271  1.00  0.00    -0.070 C 
ATOM      7  C   UNL     1      -8.735  29.772  55.563  1.00  0.00     0.039 C 
ATOM      8  C   UNL     1      -7.340  27.613  55.737  1.00  0.00     0.039 C 
ATOM      9  C   UNL     1      -7.328  30.817  57.958  1.00  0.00     0.159 C 
ATOM     10  O   UNL     1      -8.514  31.243  57.935  1.00  0.00    -0.295 OA
ATOM     11  C   UNL     1      -6.281  31.644  58.649  1.00  0.00     0.084 C 
ENDROOT
TORSDOF 0
ENDMDL
MODEL 4
REMARK VINA RESULT:    -4.703      1.594      2.475
REMARK INTER + INTRA:          -4.703
REMARK INTER:                  -4.703
REMARK INTRA:                   0.000
REMARK UNBOUND:                 0.000
REMARK SMILES CC(C)=C1CC[C@@H](C)CC1=O
REMARK SMILES IDX 8 1 7 2 6 3 5 4 4 5 2 6 1 7 3 8 10 9 11 10 9 11
REMARK H PARENT
REMARK Flexibility Score: inf
ROOT
ATOM      1  C   UNL     1       6.125  28.452  56.370  1.00  0.00     0.008 C 
ATOM      2  C   UNL     1       4.632  28.142  56.210  1.00  0.00    -0.006 C 
ATOM      3  C   UNL     1       4.041  28.923  55.026  1.00  0.00     0.008 C 
ATOM      4  C   UNL     1       2.573  28.548  54.787  1.00  0.00     0.039 C 
ATOM      5  C   UNL     1       1.727  28.669  56.047  1.00  0.00    -0.006 C 
ATOM      6  C   UNL     1       0.407  29.015  55.987  1.00  0.00    -0.070 C 
ATOM      7  C   UNL     1      -0.427  29.194  57.234  1.00  0.00     0.039 C 
ATOM      8  C   UNL     1      -0.275  29.274  54.663  1.00  0.00     0.039 C 
ATOM      9  C   UNL     1       2.394  28.278  57.325  1.00  0.00     0.159 C 
ATOM     10  O   UNL     1       1.743  27.762  58.273  1.00  0.00    -0.295 OA
ATOM     11  C   UNL     1       3.871  28.488  57.499  1.00  0.00     0.084 C 
ENDROOT
TORSDOF 0
ENDMDL
MODEL 5
REMARK VINA RESULT:    -4.576      1.591      4.440
REMARK INTER + INTRA:          -4.576
REMARK INTER:                  -4.576
REMARK INTRA:                   0.000
REMARK UNBOUND:                 0.000
REMARK SMILES CC(C)=C1CC[C@@H](C)CC1=O
REMARK SMILES IDX 8 1 7 2 6 3 5 4 4 5 2 6 1 7 3 8 10 9 11 10 9 11
REMARK H PARENT
REMARK Flexibility Score: inf
ROOT
ATOM      1  C   UNL     1      -1.893  29.383  57.233  1.00  0.00     0.008 C 
ATOM      2  C   UNL     1      -0.426  29.546  56.817  1.00  0.00    -0.006 C 
ATOM      3  C   UNL     1      -0.289  29.498  55.287  1.00  0.00     0.008 C 
ATOM      4  C   UNL     1       1.157  29.762  54.849  1.00  0.00     0.039 C 
ATOM      5  C   UNL     1       2.156  28.855  55.553  1.00  0.00    -0.006 C 
ATOM      6  C   UNL     1       3.304  28.446  54.936  1.00  0.00    -0.070 C 
ATOM      7  C   UNL     1       4.274  27.500  55.605  1.00  0.00     0.039 C 
ATOM      8  C   UNL     1       3.639  28.893  53.532  1.00  0.00     0.039 C 
ATOM      9  C   UNL     1       1.861  28.540  56.984  1.00  0.00     0.159 C 
ATOM     10  O   UNL     1       2.787  28.353  57.818  1.00  0.00    -0.295 OA
ATOM     11  C   UNL     1       0.438  28.449  57.457  1.00  0.00     0.084 C 
ENDROOT
TORSDOF 0
ENDMDL
MODEL 6
REMARK VINA RESULT:    -4.498      8.082      9.477
REMARK INTER + INTRA:          -4.498
REMARK INTER:                  -4.498
REMARK INTRA:                   0.000
REMARK UNBOUND:                 0.000
REMARK SMILES CC(C)=C1CC[C@@H](C)CC1=O
REMARK SMILES IDX 8 1 7 2 6 3 5 4 4 5 2 6 1 7 3 8 10 9 11 10 9 11
REMARK H PARENT
REMARK Flexibility Score: inf
ROOT
ATOM      1  C   UNL     1      -4.374  31.164  60.015  1.00  0.00     0.008 C 
ATOM      2  C   UNL     1      -5.273  30.964  58.790  1.00  0.00    -0.006 C 
ATOM      3  C   UNL     1      -6.588  31.743  58.949  1.00  0.00     0.008 C 
ATOM      4  C   UNL     1      -7.455  31.637  57.688  1.00  0.00     0.039 C 
ATOM      5  C   UNL     1      -7.680  30.195  57.253  1.00  0.00    -0.006 C 
ATOM      6  C   UNL     1      -8.835  29.811  56.635  1.00  0.00    -0.070 C 
ATOM      7  C   UNL     1      -9.093  28.373  56.251  1.00  0.00     0.039 C 
ATOM      8  C   UNL     1      -9.934  30.807  56.340  1.00  0.00     0.039 C 
ATOM      9  C   UNL     1      -6.524  29.267  57.439  1.00  0.00     0.159 C 
ATOM     10  O   UNL     1      -6.322  28.307  56.648  1.00  0.00    -0.295 OA
ATOM     11  C   UNL     1      -5.570  29.471  58.580  1.00  0.00     0.084 C 
ENDROOT
TORSDOF 0
ENDMDL
MODEL 7
REMARK VINA RESULT:    -4.439      8.559      9.530
REMARK INTER + INTRA:          -4.439
REMARK INTER:                  -4.439
REMARK INTRA:                   0.000
REMARK UNBOUND:                 0.000
REMARK SMILES CC(C)=C1CC[C@@H](C)CC1=O
REMARK SMILES IDX 8 1 7 2 6 3 5 4 4 5 2 6 1 7 3 8 10 9 11 10 9 11
REMARK H PARENT
REMARK Flexibility Score: inf
ROOT
ATOM      1  C   UNL     1      -7.669  26.325  56.006  1.00  0.00     0.008 C 
ATOM      2  C   UNL     1      -7.042  27.687  56.324  1.00  0.00    -0.006 C 
ATOM      3  C   UNL     1      -6.658  27.772  57.810  1.00  0.00     0.008 C 
ATOM      4  C   UNL     1      -5.936  29.088  58.125  1.00  0.00     0.039 C 
ATOM      5  C   UNL     1      -6.714  30.309  57.651  1.00  0.00    -0.006 C 
ATOM      6  C   UNL     1      -6.648  31.497  58.321  1.00  0.00    -0.070 C 
ATOM      7  C   UNL     1      -7.460  32.698  57.894  1.00  0.00     0.039 C 
ATOM      8  C   UNL     1      -5.785  31.656  59.552  1.00  0.00     0.039 C 
ATOM      9  C   UNL     1      -7.450  30.157  56.360  1.00  0.00     0.159 C 
ATOM     10  O   UNL     1      -7.607  31.132  55.578  1.00  0.00    -0.295 OA
ATOM     11  C   UNL     1      -8.014  28.822  55.967  1.00  0.00     0.084 C 
ENDROOT
TORSDOF 0
ENDMDL
MODEL 8
REMARK VINA RESULT:    -4.368      2.483      4.521
REMARK INTER + INTRA:          -4.368
REMARK INTER:                  -4.368
REMARK INTRA:                   0.000
REMARK UNBOUND:                 0.000
REMARK SMILES CC(C)=C1CC[C@@H](C)CC1=O
REMARK SMILES IDX 8 1 7 2 6 3 5 4 4 5 2 6 1 7 3 8 10 9 11 10 9 11
REMARK H PARENT
REMARK Flexibility Score: inf
ROOT
ATOM      1  C   UNL     1       3.826  29.503  52.983  1.00  0.00     0.008 C 
ATOM      2  C   UNL     1       3.969  29.385  54.505  1.00  0.00    -0.006 C 
ATOM      3  C   UNL     1       5.383  28.916  54.880  1.00  0.00     0.008 C 
ATOM      4  C   UNL     1       5.577  28.890  56.402  1.00  0.00     0.039 C 
ATOM      5  C   UNL     1       4.490  28.098  57.116  1.00  0.00    -0.006 C 
ATOM      6  C   UNL     1       4.749  27.415  58.269  1.00  0.00    -0.070 C 
ATOM      7  C   UNL     1       3.693  26.579  58.955  1.00  0.00     0.039 C 
ATOM      8  C   UNL     1       6.125  27.430  58.896  1.00  0.00     0.039 C 
ATOM      9  C   UNL     1       3.114  28.212  56.545  1.00  0.00     0.159 C 
ATOM     10  O   UNL     1       2.093  28.152  57.281  1.00  0.00    -0.295 OA
ATOM     11  C   UNL     1       2.925  28.409  55.068  1.00  0.00     0.084 C 
ENDROOT
TORSDOF 0
ENDMDL
MODEL 9
REMARK VINA RESULT:    -4.283      7.891     10.346
REMARK INTER + INTRA:          -4.283
REMARK INTER:                  -4.283
REMARK INTRA:                   0.000
REMARK UNBOUND:                 0.000
REMARK SMILES CC(C)=C1CC[C@@H](C)CC1=O
REMARK SMILES IDX 8 1 7 2 6 3 5 4 4 5 2 6 1 7 3 8 10 9 11 10 9 11
REMARK H PARENT
REMARK Flexibility Score: inf
ROOT
ATOM      1  C   UNL     1      -9.528  32.822  55.393  1.00  0.00     0.008 C 
ATOM      2  C   UNL     1      -8.836  32.074  56.539  1.00  0.00    -0.006 C 
ATOM      3  C   UNL     1      -7.722  32.937  57.153  1.00  0.00     0.008 C 
ATOM      4  C   UNL     1      -7.088  32.246  58.367  1.00  0.00     0.039 C 
ATOM      5  C   UNL     1      -6.625  30.829  58.057  1.00  0.00    -0.006 C 
ATOM      6  C   UNL     1      -5.540  30.283  58.680  1.00  0.00    -0.070 C 
ATOM      7  C   UNL     1      -5.038  28.899  58.340  1.00  0.00     0.039 C 
ATOM      8  C   UNL     1      -4.761  31.058  59.719  1.00  0.00     0.039 C 
ATOM      9  C   UNL     1      -7.493  30.044  57.128  1.00  0.00     0.159 C 
ATOM     10  O   UNL     1      -7.610  28.795  57.239  1.00  0.00    -0.295 OA
ATOM     11  C   UNL     1      -8.255  30.743  56.038  1.00  0.00     0.084 C 
ENDROOT
TORSDOF 0
ENDMDL
