MODEL 1
REMARK VINA RESULT:    -3.571      0.000      0.000
REMARK INTER + INTRA:          -4.993
REMARK INTER:                  -4.615
REMARK INTRA:                  -0.378
REMARK UNBOUND:                -0.378
REMARK SMILES CCO[C@H]1O[C@H](CO)[C@H](O)[C@H](O)[C@@H]1O
REMARK SMILES IDX 4 1 13 2 11 3 9 4 6 5 5 6 3 7 2 8 1 9 14 10 12 12 7 14 8 15
REMARK SMILES IDX 10 17
REMARK H PARENT 14 11 12 13 8 16 10 18
REMARK Flexibility Score: inf
ROOT
ATOM      1  C   UNL     1       8.579  -5.804  -2.419  1.00  0.00     0.281 C 
ATOM      2  C   UNL     1       9.250  -4.769  -1.480  1.00  0.00     0.202 C 
ATOM      3  C   UNL     1       8.213  -4.099  -0.557  1.00  0.00     0.179 C 
ATOM      4  C   UNL     1       6.974  -3.631  -1.340  1.00  0.00     0.177 C 
ATOM      5  C   UNL     1       6.465  -4.787  -2.233  1.00  0.00     0.178 C 
ATOM      6  O   UNL     1       7.484  -5.229  -3.118  1.00  0.00    -0.341 OA
ENDROOT
BRANCH   1   7
ATOM      7  O   UNL     1       8.147  -6.943  -1.682  1.00  0.00    -0.350 OA
BRANCH   7   8
ATOM      8  C   UNL     1       9.246  -7.725  -1.264  1.00  0.00     0.160 C 
ATOM      9  C   UNL     1       8.732  -8.941  -0.509  1.00  0.00     0.035 C 
ENDBRANCH   7   8
ENDBRANCH   1   7
BRANCH   2  10
ATOM     10  O   UNL     1       9.984  -3.812  -2.206  1.00  0.00    -0.385 OA
ATOM     11  H   UNL     1       9.948  -2.950  -1.717  1.00  0.00     0.211 HD
ENDBRANCH   2  10
BRANCH   3  12
ATOM     12  O   UNL     1       8.806  -3.021   0.123  1.00  0.00    -0.387 OA
ATOM     13  H   UNL     1       9.598  -3.382   0.599  1.00  0.00     0.211 HD
ENDBRANCH   3  12
BRANCH   5  14
ATOM     14  C   UNL     1       5.245  -4.373  -3.067  1.00  0.00     0.191 C 
BRANCH  14  15
ATOM     15  O   UNL     1       4.427  -3.504  -2.332  1.00  0.00    -0.394 OA
ATOM     16  H   UNL     1       4.081  -4.032  -1.567  1.00  0.00     0.210 HD
ENDBRANCH  14  15
ENDBRANCH   5  14
BRANCH   4  17
ATOM     17  O   UNL     1       7.296  -2.504  -2.118  1.00  0.00    -0.387 OA
ATOM     18  H   UNL     1       7.518  -1.768  -1.490  1.00  0.00     0.211 HD
ENDBRANCH   4  17
TORSDOF 7
ENDMDL
MODEL 2
REMARK VINA RESULT:    -3.500      1.319      4.119
REMARK INTER + INTRA:          -4.901
REMARK INTER:                  -4.513
REMARK INTRA:                  -0.389
REMARK UNBOUND:                -0.378
REMARK SMILES CCO[C@H]1O[C@H](CO)[C@H](O)[C@H](O)[C@@H]1O
REMARK SMILES IDX 4 1 13 2 11 3 9 4 6 5 5 6 3 7 2 8 1 9 14 10 12 12 7 14 8 15
REMARK SMILES IDX 10 17
REMARK H PARENT 14 11 12 13 8 16 10 18
REMARK Flexibility Score: inf
ROOT
ATOM      1  C   UNL     1       7.054  -4.772  -1.561  1.00  0.00     0.281 C 
ATOM      2  C   UNL     1       8.143  -3.669  -1.620  1.00  0.00     0.202 C 
ATOM      3  C   UNL     1       9.313  -4.088  -2.531  1.00  0.00     0.179 C 
ATOM      4  C   UNL     1       9.786  -5.521  -2.225  1.00  0.00     0.177 C 
ATOM      5  C   UNL     1       8.564  -6.467  -2.185  1.00  0.00     0.178 C 
ATOM      6  O   UNL     1       7.617  -6.031  -1.219  1.00  0.00    -0.341 OA
ENDROOT
BRANCH   1   7
ATOM      7  O   UNL     1       6.366  -4.864  -2.804  1.00  0.00    -0.350 OA
BRANCH   7   8
ATOM      8  C   UNL     1       5.527  -3.746  -3.004  1.00  0.00     0.160 C 
ATOM      9  C   UNL     1       4.087  -4.220  -3.125  1.00  0.00     0.035 C 
ENDBRANCH   7   8
ENDBRANCH   1   7
BRANCH   2  10
ATOM     10  O   UNL     1       8.594  -3.320  -0.332  1.00  0.00    -0.385 OA
ATOM     11  H   UNL     1       8.045  -3.805   0.336  1.00  0.00     0.211 HD
ENDBRANCH   2  10
BRANCH   3  12
ATOM     12  O   UNL     1      10.374  -3.176  -2.395  1.00  0.00    -0.387 OA
ATOM     13  H   UNL     1      10.216  -2.452  -3.055  1.00  0.00     0.211 HD
ENDBRANCH   3  12
BRANCH   5  14
ATOM     14  C   UNL     1       8.966  -7.910  -1.852  1.00  0.00     0.191 C 
BRANCH  14  15
ATOM     15  O   UNL     1       9.215  -8.040  -0.479  1.00  0.00    -0.394 OA
ATOM     16  H   UNL     1       8.761  -7.273  -0.042  1.00  0.00     0.210 HD
ENDBRANCH  14  15
ENDBRANCH   5  14
BRANCH   4  17
ATOM     17  O   UNL     1      10.477  -5.545  -0.999  1.00  0.00    -0.387 OA
ATOM     18  H   UNL     1      11.272  -6.128  -1.122  1.00  0.00     0.211 HD
ENDBRANCH   4  17
TORSDOF 7
ENDMDL
MODEL 3
REMARK VINA RESULT:    -3.342      1.707      3.337
REMARK INTER + INTRA:          -4.697
REMARK INTER:                  -4.451
REMARK INTRA:                  -0.246
REMARK UNBOUND:                -0.378
REMARK SMILES CCO[C@H]1O[C@H](CO)[C@H](O)[C@H](O)[C@@H]1O
REMARK SMILES IDX 4 1 13 2 11 3 9 4 6 5 5 6 3 7 2 8 1 9 14 10 12 12 7 14 8 15
REMARK SMILES IDX 10 17
REMARK H PARENT 14 11 12 13 8 16 10 18
REMARK Flexibility Score: inf
ROOT
ATOM      1  C   UNL     1       8.012  -5.687  -1.576  1.00  0.00     0.281 C 
ATOM      2  C   UNL     1       6.972  -4.569  -1.307  1.00  0.00     0.202 C 
ATOM      3  C   UNL     1       7.037  -3.473  -2.389  1.00  0.00     0.179 C 
ATOM      4  C   UNL     1       8.485  -3.028  -2.660  1.00  0.00     0.177 C 
ATOM      5  C   UNL     1       9.373  -4.276  -2.880  1.00  0.00     0.178 C 
ATOM      6  O   UNL     1       9.313  -5.144  -1.757  1.00  0.00    -0.341 OA
ENDROOT
BRANCH   1   7
ATOM      7  O   UNL     1       7.639  -6.455  -2.715  1.00  0.00    -0.350 OA
BRANCH   7   8
ATOM      8  C   UNL     1       6.678  -7.433  -2.376  1.00  0.00     0.160 C 
ATOM      9  C   UNL     1       7.227  -8.304  -1.258  1.00  0.00     0.035 C 
ENDBRANCH   7   8
ENDBRANCH   1   7
BRANCH   2  10
ATOM     10  O   UNL     1       7.120  -4.025  -0.016  1.00  0.00    -0.385 OA
ATOM     11  H   UNL     1       6.257  -4.116   0.464  1.00  0.00     0.211 HD
ENDBRANCH   2  10
BRANCH   3  12
ATOM     12  O   UNL     1       6.245  -2.377  -2.006  1.00  0.00    -0.387 OA
ATOM     13  H   UNL     1       6.479  -2.169  -1.064  1.00  0.00     0.211 HD
ENDBRANCH   3  12
BRANCH   5  14
ATOM     14  C   UNL     1      10.840  -3.900  -3.125  1.00  0.00     0.191 C 
BRANCH  14  15
ATOM     15  O   UNL     1      11.676  -4.620  -2.262  1.00  0.00    -0.394 OA
ATOM     16  H   UNL     1      12.559  -4.673  -2.713  1.00  0.00     0.210 HD
ENDBRANCH  14  15
ENDBRANCH   5  14
BRANCH   4  17
ATOM     17  O   UNL     1       8.960  -2.262  -1.580  1.00  0.00    -0.387 OA
ATOM     18  H   UNL     1       9.045  -2.872  -0.801  1.00  0.00     0.211 HD
ENDBRANCH   4  17
TORSDOF 7
ENDMDL
MODEL 4
REMARK VINA RESULT:    -3.141      2.906      5.030
REMARK INTER + INTRA:          -4.437
REMARK INTER:                  -4.014
REMARK INTRA:                  -0.423
REMARK UNBOUND:                -0.378
REMARK SMILES CCO[C@H]1O[C@H](CO)[C@H](O)[C@H](O)[C@@H]1O
REMARK SMILES IDX 4 1 13 2 11 3 9 4 6 5 5 6 3 7 2 8 1 9 14 10 12 12 7 14 8 15
REMARK SMILES IDX 10 17
REMARK H PARENT 14 11 12 13 8 16 10 18
REMARK Flexibility Score: inf
ROOT
ATOM      1  C   UNL     1       9.557  -7.187  -1.278  1.00  0.00     0.281 C 
ATOM      2  C   UNL     1       9.580  -5.647  -1.453  1.00  0.00     0.202 C 
ATOM      3  C   UNL     1      10.635  -5.220  -2.493  1.00  0.00     0.179 C 
ATOM      4  C   UNL     1      11.986  -5.916  -2.251  1.00  0.00     0.177 C 
ATOM      5  C   UNL     1      11.757  -7.436  -2.077  1.00  0.00     0.178 C 
ATOM      6  O   UNL     1      10.857  -7.693  -1.008  1.00  0.00    -0.341 OA
ENDROOT
BRANCH   1   7
ATOM      7  O   UNL     1       9.016  -7.815  -2.435  1.00  0.00    -0.350 OA
BRANCH   7   8
ATOM      8  C   UNL     1       7.615  -7.955  -2.330  1.00  0.00     0.160 C 
ATOM      9  C   UNL     1       7.276  -8.583  -0.987  1.00  0.00     0.035 C 
ENDBRANCH   7   8
ENDBRANCH   1   7
BRANCH   2  10
ATOM     10  O   UNL     1       9.777  -4.989  -0.224  1.00  0.00    -0.385 OA
ATOM     11  H   UNL     1      10.338  -4.187  -0.382  1.00  0.00     0.211 HD
ENDBRANCH   2  10
BRANCH   3  12
ATOM     12  O   UNL     1      10.786  -3.823  -2.474  1.00  0.00    -0.387 OA
ATOM     13  H   UNL     1      10.232  -3.463  -3.215  1.00  0.00     0.211 HD
ENDBRANCH   3  12
BRANCH   5  14
ATOM     14  C   UNL     1      13.066  -8.185  -1.800  1.00  0.00     0.191 C 
BRANCH  14  15
ATOM     15  O   UNL     1      14.154  -7.471  -2.320  1.00  0.00    -0.394 OA
ATOM     16  H   UNL     1      14.537  -6.960  -1.560  1.00  0.00     0.210 HD
ENDBRANCH  14  15
ENDBRANCH   5  14
BRANCH   4  17
ATOM     17  O   UNL     1      12.607  -5.371  -1.112  1.00  0.00    -0.387 OA
ATOM     18  H   UNL     1      11.991  -5.512  -0.346  1.00  0.00     0.211 HD
ENDBRANCH   4  17
TORSDOF 7
ENDMDL
MODEL 5
REMARK VINA RESULT:    -3.070      2.101      4.072
REMARK INTER + INTRA:          -4.346
REMARK INTER:                  -3.972
REMARK INTRA:                  -0.374
REMARK UNBOUND:                -0.378
REMARK SMILES CCO[C@H]1O[C@H](CO)[C@H](O)[C@H](O)[C@@H]1O
REMARK SMILES IDX 4 1 13 2 11 3 9 4 6 5 5 6 3 7 2 8 1 9 14 10 12 12 7 14 8 15
REMARK SMILES IDX 10 17
REMARK H PARENT 14 11 12 13 8 16 10 18
REMARK Flexibility Score: inf
ROOT
ATOM      1  C   UNL     1      10.659  -6.446  -1.225  1.00  0.00     0.281 C 
ATOM      2  C   UNL     1       9.644  -7.542  -1.639  1.00  0.00     0.202 C 
ATOM      3  C   UNL     1       8.696  -7.037  -2.745  1.00  0.00     0.179 C 
ATOM      4  C   UNL     1       8.125  -5.647  -2.412  1.00  0.00     0.177 C 
ATOM      5  C   UNL     1       9.280  -4.703  -2.001  1.00  0.00     0.178 C 
ATOM      6  O   UNL     1       9.997  -5.232  -0.895  1.00  0.00    -0.341 OA
ENDROOT
BRANCH   1   7
ATOM      7  O   UNL     1      11.605  -6.221  -2.264  1.00  0.00    -0.350 OA
BRANCH   7   8
ATOM      8  C   UNL     1      12.886  -5.948  -1.735  1.00  0.00     0.160 C 
ATOM      9  C   UNL     1      13.414  -4.660  -2.347  1.00  0.00     0.035 C 
ENDBRANCH   7   8
ENDBRANCH   1   7
BRANCH   2  10
ATOM     10  O   UNL     1       8.925  -8.027  -0.529  1.00  0.00    -0.385 OA
ATOM     11  H   UNL     1       9.091  -7.423   0.240  1.00  0.00     0.211 HD
ENDBRANCH   2  10
BRANCH   3  12
ATOM     12  O   UNL     1       7.659  -7.964  -2.945  1.00  0.00    -0.387 OA
ATOM     13  H   UNL     1       7.452  -7.957  -3.916  1.00  0.00     0.211 HD
ENDBRANCH   3  12
BRANCH   5  14
ATOM     14  C   UNL     1       8.771  -3.305  -1.625  1.00  0.00     0.191 C 
BRANCH  14  15
ATOM     15  O   UNL     1       8.612  -3.204  -0.236  1.00  0.00    -0.394 OA
ATOM     16  H   UNL     1       8.125  -4.021   0.046  1.00  0.00     0.210 HD
ENDBRANCH  14  15
ENDBRANCH   5  14
BRANCH   4  17
ATOM     17  O   UNL     1       7.176  -5.754  -1.379  1.00  0.00    -0.387 OA
ATOM     18  H   UNL     1       7.372  -6.594  -0.886  1.00  0.00     0.211 HD
ENDBRANCH   4  17
TORSDOF 7
ENDMDL
MODEL 6
REMARK VINA RESULT:    -2.925      2.295      4.356
REMARK INTER + INTRA:          -4.158
REMARK INTER:                  -3.781
REMARK INTRA:                  -0.377
REMARK UNBOUND:                -0.378
REMARK SMILES CCO[C@H]1O[C@H](CO)[C@H](O)[C@H](O)[C@@H]1O
REMARK SMILES IDX 4 1 13 2 11 3 9 4 6 5 5 6 3 7 2 8 1 9 14 10 12 12 7 14 8 15
REMARK SMILES IDX 10 17
REMARK H PARENT 14 11 12 13 8 16 10 18
REMARK Flexibility Score: inf
ROOT
ATOM      1  C   UNL     1       9.146  -4.933  -1.576  1.00  0.00     0.281 C 
ATOM      2  C   UNL     1      10.494  -5.640  -1.279  1.00  0.00     0.202 C 
ATOM      3  C   UNL     1      10.572  -7.010  -1.982  1.00  0.00     0.179 C 
ATOM      4  C   UNL     1       9.289  -7.833  -1.765  1.00  0.00     0.177 C 
ATOM      5  C   UNL     1       8.056  -6.956  -2.087  1.00  0.00     0.178 C 
ATOM      6  O   UNL     1       8.046  -5.783  -1.285  1.00  0.00    -0.341 OA
ENDROOT
BRANCH   1   7
ATOM      7  O   UNL     1       9.092  -4.507  -2.933  1.00  0.00    -0.350 OA
BRANCH   7   8
ATOM      8  C   UNL     1       8.399  -3.283  -3.055  1.00  0.00     0.160 C 
ATOM      9  C   UNL     1       8.605  -2.466  -1.789  1.00  0.00     0.035 C 
ENDBRANCH   7   8
ENDBRANCH   1   7
BRANCH   2  10
ATOM     10  O   UNL     1      10.721  -5.759   0.105  1.00  0.00    -0.385 OA
ATOM     11  H   UNL     1      10.395  -6.648   0.402  1.00  0.00     0.211 HD
ENDBRANCH   2  10
BRANCH   3  12
ATOM     12  O   UNL     1      11.698  -7.717  -1.525  1.00  0.00    -0.387 OA
ATOM     13  H   UNL     1      11.786  -7.520  -0.556  1.00  0.00     0.211 HD
ENDBRANCH   3  12
BRANCH   5  14
ATOM     14  C   UNL     1       6.741  -7.711  -1.860  1.00  0.00     0.191 C 
BRANCH  14  15
ATOM     15  O   UNL     1       6.938  -9.089  -2.016  1.00  0.00    -0.394 OA
ATOM     16  H   UNL     1       7.904  -9.249  -1.855  1.00  0.00     0.210 HD
ENDBRANCH  14  15
ENDBRANCH   5  14
BRANCH   4  17
ATOM     17  O   UNL     1       9.238  -8.298  -0.438  1.00  0.00    -0.387 OA
ATOM     18  H   UNL     1       9.962  -7.839   0.062  1.00  0.00     0.211 HD
ENDBRANCH   4  17
TORSDOF 7
ENDMDL
MODEL 7
REMARK VINA RESULT:    -2.900      2.374      5.327
REMARK INTER + INTRA:          -4.126
REMARK INTER:                  -3.967
REMARK INTRA:                  -0.159
REMARK UNBOUND:                -0.378
REMARK SMILES CCO[C@H]1O[C@H](CO)[C@H](O)[C@H](O)[C@@H]1O
REMARK SMILES IDX 4 1 13 2 11 3 9 4 6 5 5 6 3 7 2 8 1 9 14 10 12 12 7 14 8 15
REMARK SMILES IDX 10 17
REMARK H PARENT 14 11 12 13 8 16 10 18
REMARK Flexibility Score: inf
ROOT
ATOM      1  C   UNL     1       9.329  -5.342  -2.045  1.00  0.00     0.281 C 
ATOM      2  C   UNL     1       9.126  -6.850  -1.747  1.00  0.00     0.202 C 
ATOM      3  C   UNL     1      10.327  -7.432  -0.975  1.00  0.00     0.179 C 
ATOM      4  C   UNL     1      11.666  -7.020  -1.613  1.00  0.00     0.177 C 
ATOM      5  C   UNL     1      11.670  -5.493  -1.855  1.00  0.00     0.178 C 
ATOM      6  O   UNL     1      10.579  -5.108  -2.679  1.00  0.00    -0.341 OA
ENDROOT
BRANCH   1   7
ATOM      7  O   UNL     1       9.235  -4.577  -0.849  1.00  0.00    -0.350 OA
BRANCH   7   8
ATOM      8  C   UNL     1       8.377  -3.468  -1.020  1.00  0.00     0.160 C 
ATOM      9  C   UNL     1       7.001  -3.814  -0.475  1.00  0.00     0.035 C 
ENDBRANCH   7   8
ENDBRANCH   1   7
BRANCH   2  10
ATOM     10  O   UNL     1       8.870  -7.580  -2.924  1.00  0.00    -0.385 OA
ATOM     11  H   UNL     1       9.402  -7.184  -3.661  1.00  0.00     0.211 HD
ENDBRANCH   2  10
BRANCH   3  12
ATOM     12  O   UNL     1      10.219  -8.832  -0.910  1.00  0.00    -0.387 OA
ATOM     13  H   UNL     1       9.364  -9.033  -0.446  1.00  0.00     0.211 HD
ENDBRANCH   3  12
BRANCH   5  14
ATOM     14  C   UNL     1      12.970  -5.022  -2.521  1.00  0.00     0.191 C 
BRANCH  14  15
ATOM     15  O   UNL     1      13.736  -4.275  -1.616  1.00  0.00    -0.394 OA
ATOM     16  H   UNL     1      14.620  -4.724  -1.567  1.00  0.00     0.210 HD
ENDBRANCH  14  15
ENDBRANCH   5  14
BRANCH   4  17
ATOM     17  O   UNL     1      11.856  -7.718  -2.820  1.00  0.00    -0.387 OA
ATOM     18  H   UNL     1      12.717  -8.207  -2.744  1.00  0.00     0.211 HD
ENDBRANCH   4  17
TORSDOF 7
ENDMDL
MODEL 8
REMARK VINA RESULT:    -2.892      1.508      1.988
REMARK INTER + INTRA:          -4.115
REMARK INTER:                  -3.912
REMARK INTRA:                  -0.203
REMARK UNBOUND:                -0.378
REMARK SMILES CCO[C@H]1O[C@H](CO)[C@H](O)[C@H](O)[C@@H]1O
REMARK SMILES IDX 4 1 13 2 11 3 9 4 6 5 5 6 3 7 2 8 1 9 14 10 12 12 7 14 8 15
REMARK SMILES IDX 10 17
REMARK H PARENT 14 11 12 13 8 16 10 18
REMARK Flexibility Score: inf
ROOT
ATOM      1  C   UNL     1       7.838  -6.397  -2.895  1.00  0.00     0.281 C 
ATOM      2  C   UNL     1       9.231  -6.516  -2.224  1.00  0.00     0.202 C 
ATOM      3  C   UNL     1       9.313  -5.651  -0.951  1.00  0.00     0.179 C 
ATOM      4  C   UNL     1       8.774  -4.229  -1.195  1.00  0.00     0.177 C 
ATOM      5  C   UNL     1       7.395  -4.315  -1.889  1.00  0.00     0.178 C 
ATOM      6  O   UNL     1       7.486  -5.037  -3.109  1.00  0.00    -0.341 OA
ENDROOT
BRANCH   1   7
ATOM      7  O   UNL     1       6.844  -7.041  -2.105  1.00  0.00    -0.350 OA
BRANCH   7   8
ATOM      8  C   UNL     1       7.008  -8.444  -2.128  1.00  0.00     0.160 C 
ATOM      9  C   UNL     1       6.957  -8.974  -0.704  1.00  0.00     0.035 C 
ENDBRANCH   7   8
ENDBRANCH   1   7
BRANCH   2  10
ATOM     10  O   UNL     1      10.267  -6.203  -3.125  1.00  0.00    -0.385 OA
ATOM     11  H   UNL     1      10.200  -5.242  -3.359  1.00  0.00     0.211 HD
ENDBRANCH   2  10
BRANCH   3  12
ATOM     12  O   UNL     1      10.639  -5.606  -0.489  1.00  0.00    -0.387 OA
ATOM     13  H   UNL     1      10.652  -6.061   0.393  1.00  0.00     0.211 HD
ENDBRANCH   3  12
BRANCH   5  14
ATOM     14  C   UNL     1       6.817  -2.926  -2.189  1.00  0.00     0.191 C 
BRANCH  14  15
ATOM     15  O   UNL     1       5.502  -3.039  -2.661  1.00  0.00    -0.394 OA
ATOM     16  H   UNL     1       5.297  -4.010  -2.678  1.00  0.00     0.210 HD
ENDBRANCH  14  15
ENDBRANCH   5  14
BRANCH   4  17
ATOM     17  O   UNL     1       9.685  -3.501  -1.982  1.00  0.00    -0.387 OA
ATOM     18  H   UNL     1      10.578  -3.591  -1.556  1.00  0.00     0.211 HD
ENDBRANCH   4  17
TORSDOF 7
ENDMDL
MODEL 9
REMARK VINA RESULT:    -2.646      2.557      4.979
REMARK INTER + INTRA:          -3.798
REMARK INTER:                  -3.368
REMARK INTRA:                  -0.430
REMARK UNBOUND:                -0.378
REMARK SMILES CCO[C@H]1O[C@H](CO)[C@H](O)[C@H](O)[C@@H]1O
REMARK SMILES IDX 4 1 13 2 11 3 9 4 6 5 5 6 3 7 2 8 1 9 14 10 12 12 7 14 8 15
REMARK SMILES IDX 10 17
REMARK H PARENT 14 11 12 13 8 16 10 18
REMARK Flexibility Score: inf
ROOT
ATOM      1  C   UNL     1       9.917  -5.354  -1.692  1.00  0.00     0.281 C 
ATOM      2  C   UNL     1      11.410  -5.642  -1.996  1.00  0.00     0.202 C 
ATOM      3  C   UNL     1      11.569  -6.909  -2.859  1.00  0.00     0.179 C 
ATOM      4  C   UNL     1      10.730  -8.078  -2.312  1.00  0.00     0.177 C 
ATOM      5  C   UNL     1       9.285  -7.594  -2.049  1.00  0.00     0.178 C 
ATOM      6  O   UNL     1       9.275  -6.498  -1.145  1.00  0.00    -0.341 OA
ENDROOT
BRANCH   1   7
ATOM      7  O   UNL     1       9.239  -4.927  -2.868  1.00  0.00    -0.350 OA
BRANCH   7   8
ATOM      8  C   UNL     1       9.261  -3.520  -2.986  1.00  0.00     0.160 C 
ATOM      9  C   UNL     1       8.664  -2.907  -1.729  1.00  0.00     0.035 C 
ENDBRANCH   7   8
ENDBRANCH   1   7
BRANCH   2  10
ATOM     10  O   UNL     1      12.171  -5.727  -0.815  1.00  0.00    -0.385 OA
ATOM     11  H   UNL     1      12.231  -6.680  -0.547  1.00  0.00     0.211 HD
ENDBRANCH   2  10
BRANCH   3  12
ATOM     12  O   UNL     1      12.927  -7.267  -2.936  1.00  0.00    -0.387 OA
ATOM     13  H   UNL     1      13.442  -6.527  -2.521  1.00  0.00     0.211 HD
ENDBRANCH   3  12
BRANCH   5  14
ATOM     14  C   UNL     1       8.403  -8.708  -1.471  1.00  0.00     0.191 C 
BRANCH  14  15
ATOM     15  O   UNL     1       8.549  -8.768  -0.078  1.00  0.00    -0.394 OA
ATOM     16  H   UNL     1       8.492  -9.729   0.163  1.00  0.00     0.210 HD
ENDBRANCH  14  15
ENDBRANCH   5  14
BRANCH   4  17
ATOM     17  O   UNL     1      11.313  -8.574  -1.131  1.00  0.00    -0.387 OA
ATOM     18  H   UNL     1      10.818  -9.398  -0.883  1.00  0.00     0.211 HD
ENDBRANCH   4  17
TORSDOF 7
ENDMDL
