MODEL 1
REMARK VINA RESULT:    -4.034      0.000      0.000
REMARK INTER + INTRA:          -4.929
REMARK INTER:                  -4.741
REMARK INTRA:                  -0.188
REMARK UNBOUND:                -0.188
REMARK SMILES O=C([O-])C=Cc1ccc(O)c(O)c1
REMARK SMILES IDX 6 1 13 2 7 3 11 4 8 5 9 6 5 7 4 8 2 9 1 10 3 11 12 12 10 14
REMARK H PARENT 12 13 10 15
REMARK Flexibility Score: inf
ROOT
ATOM      1  C   UNL     1      54.495  39.626 123.441  1.00  0.00    -0.022 A 
ATOM      2  C   UNL     1      55.670  39.083 122.892  1.00  0.00     0.058 A 
ATOM      3  C   UNL     1      53.842  38.944 124.478  1.00  0.00     0.012 A 
ATOM      4  C   UNL     1      56.212  37.898 123.410  1.00  0.00     0.157 A 
ATOM      5  C   UNL     1      54.383  37.764 124.995  1.00  0.00     0.051 A 
ATOM      6  C   UNL     1      55.570  37.240 124.467  1.00  0.00     0.157 A 
ENDROOT
BRANCH   1   7
ATOM      7  C   UNL     1      53.878  40.843 122.875  1.00  0.00     0.010 C 
ATOM      8  C   UNL     1      54.407  42.075 122.920  1.00  0.00     0.025 C 
BRANCH   8   9
ATOM      9  C   UNL     1      55.595  42.467 123.701  1.00  0.00     0.064 C 
ATOM     10  O   UNL     1      56.664  42.747 123.097  1.00  0.00    -0.545 OA
ATOM     11  O   UNL     1      55.544  42.606 125.083  1.00  0.00    -0.545 OA
ENDBRANCH   8   9
ENDBRANCH   1   7
BRANCH   4  12
ATOM     12  O   UNL     1      57.387  37.368 122.878  1.00  0.00    -0.504 OA
ATOM     13  H   UNL     1      57.375  36.552 122.277  1.00  0.00     0.293 HD
ENDBRANCH   4  12
BRANCH   6  14
ATOM     14  O   UNL     1      56.115  36.065 124.983  1.00  0.00    -0.504 OA
ATOM     15  H   UNL     1      57.115  35.911 125.009  1.00  0.00     0.293 HD
ENDBRANCH   6  14
TORSDOF 4
ENDMDL
MODEL 2
REMARK VINA RESULT:    -3.787      2.115      3.245
REMARK INTER + INTRA:          -4.639
REMARK INTER:                  -4.371
REMARK INTRA:                  -0.269
REMARK UNBOUND:                -0.188
REMARK SMILES O=C([O-])C=Cc1ccc(O)c(O)c1
REMARK SMILES IDX 6 1 13 2 7 3 11 4 8 5 9 6 5 7 4 8 2 9 1 10 3 11 12 12 10 14
REMARK H PARENT 12 13 10 15
REMARK Flexibility Score: inf
ROOT
ATOM      1  C   UNL     1      55.221  40.401 123.068  1.00  0.00    -0.022 A 
ATOM      2  C   UNL     1      55.637  39.069 122.889  1.00  0.00     0.058 A 
ATOM      3  C   UNL     1      56.150  41.356 123.507  1.00  0.00     0.012 A 
ATOM      4  C   UNL     1      56.976  38.711 123.099  1.00  0.00     0.157 A 
ATOM      5  C   UNL     1      57.485  41.000 123.714  1.00  0.00     0.051 A 
ATOM      6  C   UNL     1      57.903  39.678 123.507  1.00  0.00     0.157 A 
ENDROOT
BRANCH   1   7
ATOM      7  C   UNL     1      53.806  40.790 122.904  1.00  0.00     0.010 C 
ATOM      8  C   UNL     1      52.871  40.742 123.864  1.00  0.00     0.025 C 
BRANCH   8   9
ATOM      9  C   UNL     1      53.039  40.120 125.191  1.00  0.00     0.064 C 
ATOM     10  O   UNL     1      53.217  40.855 126.198  1.00  0.00    -0.545 OA
ATOM     11  O   UNL     1      52.934  38.745 125.368  1.00  0.00    -0.545 OA
ENDBRANCH   8   9
ENDBRANCH   1   7
BRANCH   4  12
ATOM     12  O   UNL     1      57.392  37.394 122.906  1.00  0.00    -0.504 OA
ATOM     13  H   UNL     1      58.306  37.078 123.206  1.00  0.00     0.293 HD
ENDBRANCH   4  12
BRANCH   6  14
ATOM     14  O   UNL     1      59.234  39.319 123.711  1.00  0.00    -0.504 OA
ATOM     15  H   UNL     1      59.894  39.276 122.944  1.00  0.00     0.293 HD
ENDBRANCH   6  14
TORSDOF 4
ENDMDL
MODEL 3
REMARK VINA RESULT:    -3.777     12.434     14.628
REMARK INTER + INTRA:          -4.627
REMARK INTER:                  -4.396
REMARK INTRA:                  -0.232
REMARK UNBOUND:                -0.188
REMARK SMILES O=C([O-])C=Cc1ccc(O)c(O)c1
REMARK SMILES IDX 6 1 13 2 7 3 11 4 8 5 9 6 5 7 4 8 2 9 1 10 3 11 12 12 10 14
REMARK H PARENT 12 13 10 15
REMARK Flexibility Score: inf
ROOT
ATOM      1  C   UNL     1      55.406  52.898 127.939  1.00  0.00    -0.022 A 
ATOM      2  C   UNL     1      56.283  52.681 126.861  1.00  0.00     0.058 A 
ATOM      3  C   UNL     1      55.404  54.144 128.581  1.00  0.00     0.012 A 
ATOM      4  C   UNL     1      57.110  53.716 126.401  1.00  0.00     0.157 A 
ATOM      5  C   UNL     1      56.227  55.176 128.122  1.00  0.00     0.051 A 
ATOM      6  C   UNL     1      57.078  54.967 127.029  1.00  0.00     0.157 A 
ENDROOT
BRANCH   1   7
ATOM      7  C   UNL     1      54.566  51.807 128.473  1.00  0.00     0.010 C 
ATOM      8  C   UNL     1      54.985  50.835 129.297  1.00  0.00     0.025 C 
BRANCH   8   9
ATOM      9  C   UNL     1      56.389  50.573 129.665  1.00  0.00     0.064 C 
ATOM     10  O   UNL     1      57.069  49.772 128.970  1.00  0.00    -0.545 OA
ATOM     11  O   UNL     1      57.002  51.243 130.717  1.00  0.00    -0.545 OA
ENDBRANCH   8   9
ENDBRANCH   1   7
BRANCH   4  12
ATOM     12  O   UNL     1      57.967  53.507 125.321  1.00  0.00    -0.504 OA
ATOM     13  H   UNL     1      57.823  52.744 124.671  1.00  0.00     0.293 HD
ENDBRANCH   4  12
BRANCH   6  14
ATOM     14  O   UNL     1      57.898  55.995 126.566  1.00  0.00    -0.504 OA
ATOM     15  H   UNL     1      57.713  56.964 126.796  1.00  0.00     0.293 HD
ENDBRANCH   6  14
TORSDOF 4
ENDMDL
MODEL 4
REMARK VINA RESULT:    -3.760     13.758     15.365
REMARK INTER + INTRA:          -4.607
REMARK INTER:                  -4.422
REMARK INTRA:                  -0.186
REMARK UNBOUND:                -0.188
REMARK SMILES O=C([O-])C=Cc1ccc(O)c(O)c1
REMARK SMILES IDX 6 1 13 2 7 3 11 4 8 5 9 6 5 7 4 8 2 9 1 10 3 11 12 12 10 14
REMARK H PARENT 12 13 10 15
REMARK Flexibility Score: inf
ROOT
ATOM      1  C   UNL     1      54.726  54.209 127.840  1.00  0.00    -0.022 A 
ATOM      2  C   UNL     1      55.601  55.228 127.423  1.00  0.00     0.058 A 
ATOM      3  C   UNL     1      54.945  52.895 127.401  1.00  0.00     0.012 A 
ATOM      4  C   UNL     1      56.710  54.925 126.620  1.00  0.00     0.157 A 
ATOM      5  C   UNL     1      56.050  52.592 126.602  1.00  0.00     0.051 A 
ATOM      6  C   UNL     1      56.937  53.604 126.212  1.00  0.00     0.157 A 
ENDROOT
BRANCH   1   7
ATOM      7  C   UNL     1      53.524  54.513 128.642  1.00  0.00     0.010 C 
ATOM      8  C   UNL     1      52.261  54.486 128.191  1.00  0.00     0.025 C 
BRANCH   8   9
ATOM      9  C   UNL     1      51.861  54.335 126.780  1.00  0.00     0.064 C 
ATOM     10  O   UNL     1      51.603  53.186 126.333  1.00  0.00    -0.545 OA
ATOM     11  O   UNL     1      51.691  55.436 125.950  1.00  0.00    -0.545 OA
ENDBRANCH   8   9
ENDBRANCH   1   7
BRANCH   4  12
ATOM     12  O   UNL     1      57.587  55.932 126.220  1.00  0.00    -0.504 OA
ATOM     13  H   UNL     1      58.229  55.799 125.448  1.00  0.00     0.293 HD
ENDBRANCH   4  12
BRANCH   6  14
ATOM     14  O   UNL     1      58.043  53.306 125.417  1.00  0.00    -0.504 OA
ATOM     15  H   UNL     1      58.930  53.036 125.823  1.00  0.00     0.293 HD
ENDBRANCH   6  14
TORSDOF 4
ENDMDL
MODEL 5
REMARK VINA RESULT:    -3.734     13.203     15.002
REMARK INTER + INTRA:          -4.577
REMARK INTER:                  -4.296
REMARK INTRA:                  -0.281
REMARK UNBOUND:                -0.188
REMARK SMILES O=C([O-])C=Cc1ccc(O)c(O)c1
REMARK SMILES IDX 6 1 13 2 7 3 11 4 8 5 9 6 5 7 4 8 2 9 1 10 3 11 12 12 10 14
REMARK H PARENT 12 13 10 15
REMARK Flexibility Score: inf
ROOT
ATOM      1  C   UNL     1      54.636  54.242 127.701  1.00  0.00    -0.022 A 
ATOM      2  C   UNL     1      54.999  52.898 127.503  1.00  0.00     0.058 A 
ATOM      3  C   UNL     1      55.451  55.257 127.179  1.00  0.00     0.012 A 
ATOM      4  C   UNL     1      56.137  52.575 126.748  1.00  0.00     0.157 A 
ATOM      5  C   UNL     1      56.583  54.936 126.426  1.00  0.00     0.051 A 
ATOM      6  C   UNL     1      56.927  53.596 126.205  1.00  0.00     0.157 A 
ENDROOT
BRANCH   1   7
ATOM      7  C   UNL     1      53.473  54.605 128.535  1.00  0.00     0.010 C 
ATOM      8  C   UNL     1      52.192  54.585 128.136  1.00  0.00     0.025 C 
BRANCH   8   9
ATOM      9  C   UNL     1      51.733  54.384 126.749  1.00  0.00     0.064 C 
ATOM     10  O   UNL     1      51.656  55.374 125.975  1.00  0.00    -0.545 OA
ATOM     11  O   UNL     1      51.451  53.116 126.253  1.00  0.00    -0.545 OA
ENDBRANCH   8   9
ENDBRANCH   1   7
BRANCH   4  12
ATOM     12  O   UNL     1      56.488  51.243 126.538  1.00  0.00    -0.504 OA
ATOM     13  H   UNL     1      57.187  50.783 127.109  1.00  0.00     0.293 HD
ENDBRANCH   4  12
BRANCH   6  14
ATOM     14  O   UNL     1      58.055  53.272 125.452  1.00  0.00    -0.504 OA
ATOM     15  H   UNL     1      58.487  53.944 124.831  1.00  0.00     0.293 HD
ENDBRANCH   6  14
TORSDOF 4
ENDMDL
MODEL 6
REMARK VINA RESULT:    -3.702      3.093      3.912
REMARK INTER + INTRA:          -4.540
REMARK INTER:                  -4.270
REMARK INTRA:                  -0.270
REMARK UNBOUND:                -0.188
REMARK SMILES O=C([O-])C=Cc1ccc(O)c(O)c1
REMARK SMILES IDX 6 1 13 2 7 3 11 4 8 5 9 6 5 7 4 8 2 9 1 10 3 11 12 12 10 14
REMARK H PARENT 12 13 10 15
REMARK Flexibility Score: inf
ROOT
ATOM      1  C   UNL     1      57.955  40.957 123.654  1.00  0.00    -0.022 A 
ATOM      2  C   UNL     1      58.195  39.598 123.382  1.00  0.00     0.058 A 
ATOM      3  C   UNL     1      56.640  41.442 123.618  1.00  0.00     0.012 A 
ATOM      4  C   UNL     1      57.126  38.726 123.128  1.00  0.00     0.157 A 
ATOM      5  C   UNL     1      55.574  40.574 123.367  1.00  0.00     0.051 A 
ATOM      6  C   UNL     1      55.813  39.214 123.126  1.00  0.00     0.157 A 
ENDROOT
BRANCH   1   7
ATOM      7  C   UNL     1      59.069  41.902 123.871  1.00  0.00     0.010 C 
ATOM      8  C   UNL     1      59.769  42.031 125.008  1.00  0.00     0.025 C 
BRANCH   8   9
ATOM      9  C   UNL     1      59.432  41.395 126.295  1.00  0.00     0.064 C 
ATOM     10  O   UNL     1      58.667  41.993 127.097  1.00  0.00    -0.545 OA
ATOM     11  O   UNL     1      59.881  40.119 126.615  1.00  0.00    -0.545 OA
ENDBRANCH   8   9
ENDBRANCH   1   7
BRANCH   4  12
ATOM     12  O   UNL     1      57.362  37.376 122.876  1.00  0.00    -0.504 OA
ATOM     13  H   UNL     1      58.288  36.975 122.961  1.00  0.00     0.293 HD
ENDBRANCH   4  12
BRANCH   6  14
ATOM     14  O   UNL     1      54.752  38.344 122.877  1.00  0.00    -0.504 OA
ATOM     15  H   UNL     1      54.909  37.390 122.578  1.00  0.00     0.293 HD
ENDBRANCH   6  14
TORSDOF 4
ENDMDL
MODEL 7
REMARK VINA RESULT:    -3.694     14.564     16.176
REMARK INTER + INTRA:          -4.530
REMARK INTER:                  -4.242
REMARK INTRA:                  -0.288
REMARK UNBOUND:                -0.188
REMARK SMILES O=C([O-])C=Cc1ccc(O)c(O)c1
REMARK SMILES IDX 6 1 13 2 7 3 11 4 8 5 9 6 5 7 4 8 2 9 1 10 3 11 12 12 10 14
REMARK H PARENT 12 13 10 15
REMARK Flexibility Score: inf
ROOT
ATOM      1  C   UNL     1      56.220  54.211 128.569  1.00  0.00    -0.022 A 
ATOM      2  C   UNL     1      56.964  53.469 127.633  1.00  0.00     0.058 A 
ATOM      3  C   UNL     1      55.796  55.505 128.236  1.00  0.00     0.012 A 
ATOM      4  C   UNL     1      57.234  53.997 126.363  1.00  0.00     0.157 A 
ATOM      5  C   UNL     1      56.063  56.032 126.970  1.00  0.00     0.051 A 
ATOM      6  C   UNL     1      56.779  55.279 126.029  1.00  0.00     0.157 A 
ENDROOT
BRANCH   1   7
ATOM      7  C   UNL     1      55.970  53.695 129.930  1.00  0.00     0.010 C 
ATOM      8  C   UNL     1      56.736  53.933 131.004  1.00  0.00     0.025 C 
BRANCH   8   9
ATOM      9  C   UNL     1      58.058  54.588 130.984  1.00  0.00     0.064 C 
ATOM     10  O   UNL     1      59.091  53.887 130.819  1.00  0.00    -0.545 OA
ATOM     11  O   UNL     1      58.185  55.970 131.069  1.00  0.00    -0.545 OA
ENDBRANCH   8   9
ENDBRANCH   1   7
BRANCH   4  12
ATOM     12  O   UNL     1      57.956  53.256 125.430  1.00  0.00    -0.504 OA
ATOM     13  H   UNL     1      57.752  53.308 124.439  1.00  0.00     0.293 HD
ENDBRANCH   4  12
BRANCH   6  14
ATOM     14  O   UNL     1      57.045  55.800 124.763  1.00  0.00    -0.504 OA
ATOM     15  H   UNL     1      57.930  55.635 124.299  1.00  0.00     0.293 HD
ENDBRANCH   6  14
TORSDOF 4
ENDMDL
MODEL 8
REMARK VINA RESULT:    -3.644      1.592      4.845
REMARK INTER + INTRA:          -4.471
REMARK INTER:                  -4.245
REMARK INTRA:                  -0.226
REMARK UNBOUND:                -0.188
REMARK SMILES O=C([O-])C=Cc1ccc(O)c(O)c1
REMARK SMILES IDX 6 1 13 2 7 3 11 4 8 5 9 6 5 7 4 8 2 9 1 10 3 11 12 12 10 14
REMARK H PARENT 12 13 10 15
REMARK Flexibility Score: inf
ROOT
ATOM      1  C   UNL     1      55.582  40.326 124.838  1.00  0.00    -0.022 A 
ATOM      2  C   UNL     1      56.437  41.247 124.206  1.00  0.00     0.058 A 
ATOM      3  C   UNL     1      54.201  40.568 124.847  1.00  0.00     0.012 A 
ATOM      4  C   UNL     1      55.910  42.367 123.547  1.00  0.00     0.157 A 
ATOM      5  C   UNL     1      53.675  41.683 124.190  1.00  0.00     0.051 A 
ATOM      6  C   UNL     1      54.526  42.583 123.535  1.00  0.00     0.157 A 
ENDROOT
BRANCH   1   7
ATOM      7  C   UNL     1      56.120  39.170 125.582  1.00  0.00     0.010 C 
ATOM      8  C   UNL     1      56.673  38.079 125.031  1.00  0.00     0.025 C 
BRANCH   8   9
ATOM      9  C   UNL     1      56.672  37.755 123.592  1.00  0.00     0.064 C 
ATOM     10  O   UNL     1      57.684  38.037 122.896  1.00  0.00    -0.545 OA
ATOM     11  O   UNL     1      55.611  37.081 122.999  1.00  0.00    -0.545 OA
ENDBRANCH   8   9
ENDBRANCH   1   7
BRANCH   4  12
ATOM     12  O   UNL     1      56.756  43.271 122.905  1.00  0.00    -0.504 OA
ATOM     13  H   UNL     1      56.702  43.428 121.906  1.00  0.00     0.293 HD
ENDBRANCH   4  12
BRANCH   6  14
ATOM     14  O   UNL     1      54.005  43.695 122.875  1.00  0.00    -0.504 OA
ATOM     15  H   UNL     1      53.171  44.164 123.206  1.00  0.00     0.293 HD
ENDBRANCH   6  14
TORSDOF 4
ENDMDL
MODEL 9
REMARK VINA RESULT:    -3.448      1.687      2.402
REMARK INTER + INTRA:          -4.241
REMARK INTER:                  -4.186
REMARK INTRA:                  -0.055
REMARK UNBOUND:                -0.188
REMARK SMILES O=C([O-])C=Cc1ccc(O)c(O)c1
REMARK SMILES IDX 6 1 13 2 7 3 11 4 8 5 9 6 5 7 4 8 2 9 1 10 3 11 12 12 10 14
REMARK H PARENT 12 13 10 15
REMARK Flexibility Score: inf
ROOT
ATOM      1  C   UNL     1      56.996  39.039 123.645  1.00  0.00    -0.022 A 
ATOM      2  C   UNL     1      57.226  37.957 124.514  1.00  0.00     0.058 A 
ATOM      3  C   UNL     1      55.824  39.064 122.875  1.00  0.00     0.012 A 
ATOM      4  C   UNL     1      56.270  36.940 124.648  1.00  0.00     0.157 A 
ATOM      5  C   UNL     1      54.871  38.051 123.009  1.00  0.00     0.051 A 
ATOM      6  C   UNL     1      55.088  36.990 123.897  1.00  0.00     0.157 A 
ENDROOT
BRANCH   1   7
ATOM      7  C   UNL     1      58.013  40.092 123.450  1.00  0.00     0.010 C 
ATOM      8  C   UNL     1      57.839  41.397 123.706  1.00  0.00     0.025 C 
BRANCH   8   9
ATOM      9  C   UNL     1      56.554  42.039 124.045  1.00  0.00     0.064 C 
ATOM     10  O   UNL     1      55.893  42.610 123.138  1.00  0.00    -0.545 OA
ATOM     11  O   UNL     1      56.021  41.965 125.326  1.00  0.00    -0.545 OA
ENDBRANCH   8   9
ENDBRANCH   1   7
BRANCH   4  12
ATOM     12  O   UNL     1      56.489  35.877 125.521  1.00  0.00    -0.504 OA
ATOM     13  H   UNL     1      57.424  35.547 125.730  1.00  0.00     0.293 HD
ENDBRANCH   4  12
BRANCH   6  14
ATOM     14  O   UNL     1      54.137  35.979 124.036  1.00  0.00    -0.504 OA
ATOM     15  H   UNL     1      53.152  36.189 124.133  1.00  0.00     0.293 HD
ENDBRANCH   6  14
TORSDOF 4
ENDMDL
