MODEL 1
REMARK VINA RESULT:    -3.024      0.000      0.000
REMARK INTER + INTRA:          -7.590
REMARK INTER:                  -5.323
REMARK INTRA:                  -2.267
REMARK UNBOUND:                -2.267
REMARK SMILES CCCCCCCCCCCCCCC(=O)[O-]
REMARK SMILES IDX 9 1 10 2 11 3 12 4 13 5 14 6 15 7 16 8 17 9 8 10 7 11 6 12
REMARK SMILES IDX 5 13 4 14 3 15 2 16 1 17
REMARK H PARENT
REMARK Flexibility Score: inf
ROOT
ATOM      1  C   UNL     1      56.037  52.715  48.911  1.00  0.00     0.000 C 
ENDROOT
BRANCH   1   2
ATOM      2  C   UNL     1      55.291  52.359  47.615  1.00  0.00     0.000 C 
BRANCH   2   3
ATOM      3  C   UNL     1      53.783  52.134  47.834  1.00  0.00     0.000 C 
BRANCH   3   4
ATOM      4  C   UNL     1      52.884  53.355  47.550  1.00  0.00     0.000 C 
BRANCH   4   5
ATOM      5  C   UNL     1      53.536  54.464  46.705  1.00  0.00     0.006 C 
BRANCH   5   6
ATOM      6  C   UNL     1      52.836  55.819  46.861  1.00  0.00     0.053 C 
BRANCH   6   7
ATOM      7  C   UNL     1      52.190  56.224  45.573  1.00  0.00     0.041 C 
ATOM      8  O   UNL     1      52.818  56.113  44.487  1.00  0.00    -0.550 OA
ATOM      9  O   UNL     1      50.877  56.677  45.566  1.00  0.00    -0.550 OA
ENDBRANCH   6   7
ENDBRANCH   5   6
ENDBRANCH   4   5
ENDBRANCH   3   4
ENDBRANCH   2   3
ENDBRANCH   1   2
BRANCH   1  10
ATOM     10  C   UNL     1      56.536  54.172  48.935  1.00  0.00     0.000 C 
BRANCH  10  11
ATOM     11  C   UNL     1      55.622  55.169  49.671  1.00  0.00    -0.000 C 
BRANCH  11  12
ATOM     12  C   UNL     1      54.728  54.499  50.728  1.00  0.00    -0.000 C 
BRANCH  12  13
ATOM     13  C   UNL     1      53.410  55.258  50.954  1.00  0.00    -0.000 C 
BRANCH  13  14
ATOM     14  C   UNL     1      52.204  54.320  51.114  1.00  0.00    -0.000 C 
BRANCH  14  15
ATOM     15  C   UNL     1      52.648  52.941  51.625  1.00  0.00    -0.000 C 
BRANCH  15  16
ATOM     16  C   UNL     1      51.978  51.786  50.867  1.00  0.00    -0.003 C 
ATOM     17  C   UNL     1      52.728  50.462  51.022  1.00  0.00     0.004 C 
ENDBRANCH  15  16
ENDBRANCH  14  15
ENDBRANCH  13  14
ENDBRANCH  12  13
ENDBRANCH  11  12
ENDBRANCH  10  11
ENDBRANCH   1  10
TORSDOF 13
ENDMDL
MODEL 2
REMARK VINA RESULT:    -3.013      1.794      3.162
REMARK INTER + INTRA:          -7.570
REMARK INTER:                  -5.773
REMARK INTRA:                  -1.797
REMARK UNBOUND:                -2.267
REMARK SMILES CCCCCCCCCCCCCCC(=O)[O-]
REMARK SMILES IDX 9 1 10 2 11 3 12 4 13 5 14 6 15 7 16 8 17 9 8 10 7 11 6 12
REMARK SMILES IDX 5 13 4 14 3 15 2 16 1 17
REMARK H PARENT
REMARK Flexibility Score: inf
ROOT
ATOM      1  C   UNL     1      54.562  54.106  48.297  1.00  0.00     0.000 C 
ENDROOT
BRANCH   1   2
ATOM      2  C   UNL     1      55.543  53.897  47.132  1.00  0.00     0.000 C 
BRANCH   2   3
ATOM      3  C   UNL     1      54.917  54.206  45.760  1.00  0.00     0.000 C 
BRANCH   3   4
ATOM      4  C   UNL     1      55.349  55.543  45.122  1.00  0.00     0.000 C 
BRANCH   4   5
ATOM      5  C   UNL     1      54.200  56.405  44.570  1.00  0.00     0.006 C 
BRANCH   5   6
ATOM      6  C   UNL     1      53.016  56.509  45.539  1.00  0.00     0.053 C 
BRANCH   6   7
ATOM      7  C   UNL     1      53.299  57.523  46.602  1.00  0.00     0.041 C 
ATOM      8  O   UNL     1      53.953  58.563  46.327  1.00  0.00    -0.550 OA
ATOM      9  O   UNL     1      52.797  57.345  47.885  1.00  0.00    -0.550 OA
ENDBRANCH   6   7
ENDBRANCH   5   6
ENDBRANCH   4   5
ENDBRANCH   3   4
ENDBRANCH   2   3
ENDBRANCH   1   2
BRANCH   1  10
ATOM     10  C   UNL     1      53.105  53.775  47.923  1.00  0.00     0.000 C 
BRANCH  10  11
ATOM     11  C   UNL     1      52.641  52.351  48.278  1.00  0.00    -0.000 C 
BRANCH  11  12
ATOM     12  C   UNL     1      53.347  51.779  49.519  1.00  0.00    -0.000 C 
BRANCH  12  13
ATOM     13  C   UNL     1      52.379  51.529  50.687  1.00  0.00    -0.000 C 
BRANCH  13  14
ATOM     14  C   UNL     1      51.837  52.830  51.297  1.00  0.00    -0.000 C 
BRANCH  14  15
ATOM     15  C   UNL     1      52.865  53.457  52.251  1.00  0.00    -0.000 C 
BRANCH  15  16
ATOM     16  C   UNL     1      53.403  54.802  51.740  1.00  0.00    -0.003 C 
ATOM     17  C   UNL     1      52.291  55.767  51.328  1.00  0.00     0.004 C 
ENDBRANCH  15  16
ENDBRANCH  14  15
ENDBRANCH  13  14
ENDBRANCH  12  13
ENDBRANCH  11  12
ENDBRANCH  10  11
ENDBRANCH   1  10
TORSDOF 13
ENDMDL
MODEL 3
REMARK VINA RESULT:    -3.013      1.173      3.074
REMARK INTER + INTRA:          -7.570
REMARK INTER:                  -5.670
REMARK INTRA:                  -1.901
REMARK UNBOUND:                -2.267
REMARK SMILES CCCCCCCCCCCCCCC(=O)[O-]
REMARK SMILES IDX 9 1 10 2 11 3 12 4 13 5 14 6 15 7 16 8 17 9 8 10 7 11 6 12
REMARK SMILES IDX 5 13 4 14 3 15 2 16 1 17
REMARK H PARENT
REMARK Flexibility Score: inf
ROOT
ATOM      1  C   UNL     1      55.194  52.823  48.691  1.00  0.00     0.000 C 
ENDROOT
BRANCH   1   2
ATOM      2  C   UNL     1      56.043  53.920  48.028  1.00  0.00     0.000 C 
BRANCH   2   3
ATOM      3  C   UNL     1      55.378  55.308  48.084  1.00  0.00     0.000 C 
BRANCH   3   4
ATOM      4  C   UNL     1      55.072  55.950  46.716  1.00  0.00     0.000 C 
BRANCH   4   5
ATOM      5  C   UNL     1      53.923  55.296  45.928  1.00  0.00     0.006 C 
BRANCH   5   6
ATOM      6  C   UNL     1      52.540  55.775  46.385  1.00  0.00     0.053 C 
BRANCH   6   7
ATOM      7  C   UNL     1      51.789  56.374  45.237  1.00  0.00     0.041 C 
ATOM      8  O   UNL     1      50.605  56.772  45.394  1.00  0.00    -0.550 OA
ATOM      9  O   UNL     1      52.413  56.539  44.008  1.00  0.00    -0.550 OA
ENDBRANCH   6   7
ENDBRANCH   5   6
ENDBRANCH   4   5
ENDBRANCH   3   4
ENDBRANCH   2   3
ENDBRANCH   1   2
BRANCH   1  10
ATOM     10  C   UNL     1      54.295  52.072  47.692  1.00  0.00     0.000 C 
BRANCH  10  11
ATOM     11  C   UNL     1      52.782  52.183  47.955  1.00  0.00    -0.000 C 
BRANCH  11  12
ATOM     12  C   UNL     1      52.432  53.223  49.032  1.00  0.00    -0.000 C 
BRANCH  12  13
ATOM     13  C   UNL     1      52.029  52.578  50.368  1.00  0.00    -0.000 C 
BRANCH  13  14
ATOM     14  C   UNL     1      52.270  53.501  51.571  1.00  0.00    -0.000 C 
BRANCH  14  15
ATOM     15  C   UNL     1      53.102  54.726  51.162  1.00  0.00    -0.000 C 
BRANCH  15  16
ATOM     16  C   UNL     1      52.360  56.051  51.399  1.00  0.00    -0.003 C 
ATOM     17  C   UNL     1      52.907  57.196  50.545  1.00  0.00     0.004 C 
ENDBRANCH  15  16
ENDBRANCH  14  15
ENDBRANCH  13  14
ENDBRANCH  12  13
ENDBRANCH  11  12
ENDBRANCH  10  11
ENDBRANCH   1  10
TORSDOF 13
ENDMDL
MODEL 4
REMARK VINA RESULT:    -3.011      1.666      3.328
REMARK INTER + INTRA:          -7.566
REMARK INTER:                  -5.566
REMARK INTRA:                  -1.999
REMARK UNBOUND:                -2.267
REMARK SMILES CCCCCCCCCCCCCCC(=O)[O-]
REMARK SMILES IDX 9 1 10 2 11 3 12 4 13 5 14 6 15 7 16 8 17 9 8 10 7 11 6 12
REMARK SMILES IDX 5 13 4 14 3 15 2 16 1 17
REMARK H PARENT
REMARK Flexibility Score: inf
ROOT
ATOM      1  C   UNL     1      52.876  52.248  47.875  1.00  0.00     0.000 C 
ENDROOT
BRANCH   1   2
ATOM      2  C   UNL     1      53.345  53.606  47.327  1.00  0.00     0.000 C 
BRANCH   2   3
ATOM      3  C   UNL     1      53.072  54.769  48.299  1.00  0.00     0.000 C 
BRANCH   3   4
ATOM      4  C   UNL     1      54.153  55.870  48.333  1.00  0.00     0.000 C 
BRANCH   4   5
ATOM      5  C   UNL     1      53.649  57.291  48.027  1.00  0.00     0.006 C 
BRANCH   5   6
ATOM      6  C   UNL     1      52.687  57.336  46.834  1.00  0.00     0.053 C 
BRANCH   6   7
ATOM      7  C   UNL     1      53.443  57.219  45.548  1.00  0.00     0.041 C 
ATOM      8  O   UNL     1      53.358  56.169  44.857  1.00  0.00    -0.550 OA
ATOM      9  O   UNL     1      54.201  58.287  45.087  1.00  0.00    -0.550 OA
ENDBRANCH   6   7
ENDBRANCH   5   6
ENDBRANCH   4   5
ENDBRANCH   3   4
ENDBRANCH   2   3
ENDBRANCH   1   2
BRANCH   1  10
ATOM     10  C   UNL     1      53.911  51.584  48.801  1.00  0.00     0.000 C 
BRANCH  10  11
ATOM     11  C   UNL     1      53.532  51.545  50.293  1.00  0.00    -0.000 C 
BRANCH  11  12
ATOM     12  C   UNL     1      52.076  51.968  50.555  1.00  0.00    -0.000 C 
BRANCH  12  13
ATOM     13  C   UNL     1      51.976  53.236  51.419  1.00  0.00    -0.000 C 
BRANCH  13  14
ATOM     14  C   UNL     1      53.343  53.717  51.929  1.00  0.00    -0.000 C 
BRANCH  14  15
ATOM     15  C   UNL     1      53.380  55.249  52.031  1.00  0.00    -0.000 C 
BRANCH  15  16
ATOM     16  C   UNL     1      52.085  55.907  51.533  1.00  0.00    -0.003 C 
ATOM     17  C   UNL     1      52.138  57.434  51.587  1.00  0.00     0.004 C 
ENDBRANCH  15  16
ENDBRANCH  14  15
ENDBRANCH  13  14
ENDBRANCH  12  13
ENDBRANCH  11  12
ENDBRANCH  10  11
ENDBRANCH   1  10
TORSDOF 13
ENDMDL
MODEL 5
REMARK VINA RESULT:    -2.998      1.399      3.323
REMARK INTER + INTRA:          -7.542
REMARK INTER:                  -5.820
REMARK INTRA:                  -1.722
REMARK UNBOUND:                -2.267
REMARK SMILES CCCCCCCCCCCCCCC(=O)[O-]
REMARK SMILES IDX 9 1 10 2 11 3 12 4 13 5 14 6 15 7 16 8 17 9 8 10 7 11 6 12
REMARK SMILES IDX 5 13 4 14 3 15 2 16 1 17
REMARK H PARENT
REMARK Flexibility Score: inf
ROOT
ATOM      1  C   UNL     1      53.279  51.435  49.422  1.00  0.00     0.000 C 
ENDROOT
BRANCH   1   2
ATOM      2  C   UNL     1      52.819  52.300  48.238  1.00  0.00     0.000 C 
BRANCH   2   3
ATOM      3  C   UNL     1      53.955  52.610  47.245  1.00  0.00     0.000 C 
BRANCH   3   4
ATOM      4  C   UNL     1      54.083  54.090  46.828  1.00  0.00     0.000 C 
BRANCH   4   5
ATOM      5  C   UNL     1      52.769  54.891  46.847  1.00  0.00     0.006 C 
BRANCH   5   6
ATOM      6  C   UNL     1      52.939  56.325  46.331  1.00  0.00     0.053 C 
BRANCH   6   7
ATOM      7  C   UNL     1      52.615  56.396  44.872  1.00  0.00     0.041 C 
ATOM      8  O   UNL     1      53.540  56.447  44.019  1.00  0.00    -0.550 OA
ATOM      9  O   UNL     1      51.293  56.356  44.450  1.00  0.00    -0.550 OA
ENDBRANCH   6   7
ENDBRANCH   5   6
ENDBRANCH   4   5
ENDBRANCH   3   4
ENDBRANCH   2   3
ENDBRANCH   1   2
BRANCH   1  10
ATOM     10  C   UNL     1      52.343  51.536  50.640  1.00  0.00     0.000 C 
BRANCH  10  11
ATOM     11  C   UNL     1      51.981  52.967  51.077  1.00  0.00    -0.000 C 
BRANCH  11  12
ATOM     12  C   UNL     1      52.754  53.428  52.325  1.00  0.00    -0.000 C 
BRANCH  12  13
ATOM     13  C   UNL     1      53.431  54.794  52.128  1.00  0.00    -0.000 C 
BRANCH  13  14
ATOM     14  C   UNL     1      54.391  54.814  50.929  1.00  0.00    -0.000 C 
BRANCH  14  15
ATOM     15  C   UNL     1      54.067  55.985  49.989  1.00  0.00    -0.000 C 
BRANCH  15  16
ATOM     16  C   UNL     1      52.922  56.865  50.513  1.00  0.00    -0.003 C 
ATOM     17  C   UNL     1      52.840  58.216  49.801  1.00  0.00     0.004 C 
ENDBRANCH  15  16
ENDBRANCH  14  15
ENDBRANCH  13  14
ENDBRANCH  12  13
ENDBRANCH  11  12
ENDBRANCH  10  11
ENDBRANCH   1  10
TORSDOF 13
ENDMDL
MODEL 6
REMARK VINA RESULT:    -2.964      2.790      5.425
REMARK INTER + INTRA:          -7.484
REMARK INTER:                  -5.851
REMARK INTRA:                  -1.633
REMARK UNBOUND:                -2.267
REMARK SMILES CCCCCCCCCCCCCCC(=O)[O-]
REMARK SMILES IDX 9 1 10 2 11 3 12 4 13 5 14 6 15 7 16 8 17 9 8 10 7 11 6 12
REMARK SMILES IDX 5 13 4 14 3 15 2 16 1 17
REMARK H PARENT
REMARK Flexibility Score: inf
ROOT
ATOM      1  C   UNL     1      53.889  51.590  48.787  1.00  0.00     0.000 C 
ENDROOT
BRANCH   1   2
ATOM      2  C   UNL     1      53.542  51.401  50.272  1.00  0.00     0.000 C 
BRANCH   2   3
ATOM      3  C   UNL     1      52.102  51.830  50.610  1.00  0.00     0.000 C 
BRANCH   3   4
ATOM      4  C   UNL     1      51.978  53.008  51.599  1.00  0.00     0.000 C 
BRANCH   4   5
ATOM      5  C   UNL     1      53.097  54.060  51.506  1.00  0.00     0.006 C 
BRANCH   5   6
ATOM      6  C   UNL     1      52.635  55.363  50.842  1.00  0.00     0.053 C 
BRANCH   6   7
ATOM      7  C   UNL     1      52.426  56.428  51.872  1.00  0.00     0.041 C 
ATOM      8  O   UNL     1      51.341  57.065  51.913  1.00  0.00    -0.550 OA
ATOM      9  O   UNL     1      53.410  56.683  52.818  1.00  0.00    -0.550 OA
ENDBRANCH   6   7
ENDBRANCH   5   6
ENDBRANCH   4   5
ENDBRANCH   3   4
ENDBRANCH   2   3
ENDBRANCH   1   2
BRANCH   1  10
ATOM     10  C   UNL     1      52.758  52.260  47.986  1.00  0.00     0.000 C 
BRANCH  10  11
ATOM     11  C   UNL     1      53.143  53.564  47.264  1.00  0.00    -0.000 C 
BRANCH  11  12
ATOM     12  C   UNL     1      54.482  54.147  47.748  1.00  0.00    -0.000 C 
BRANCH  12  13
ATOM     13  C   UNL     1      54.533  55.680  47.637  1.00  0.00    -0.000 C 
BRANCH  13  14
ATOM     14  C   UNL     1      53.973  56.197  46.303  1.00  0.00    -0.000 C 
BRANCH  14  15
ATOM     15  C   UNL     1      52.718  57.053  46.532  1.00  0.00    -0.000 C 
BRANCH  15  16
ATOM     16  C   UNL     1      51.511  56.563  45.717  1.00  0.00    -0.003 C 
ATOM     17  C   UNL     1      51.835  56.378  44.234  1.00  0.00     0.004 C 
ENDBRANCH  15  16
ENDBRANCH  14  15
ENDBRANCH  13  14
ENDBRANCH  12  13
ENDBRANCH  11  12
ENDBRANCH  10  11
ENDBRANCH   1  10
TORSDOF 13
ENDMDL
MODEL 7
REMARK VINA RESULT:    -2.951      1.134      2.844
REMARK INTER + INTRA:          -7.461
REMARK INTER:                  -5.507
REMARK INTRA:                  -1.953
REMARK UNBOUND:                -2.267
REMARK SMILES CCCCCCCCCCCCCCC(=O)[O-]
REMARK SMILES IDX 9 1 10 2 11 3 12 4 13 5 14 6 15 7 16 8 17 9 8 10 7 11 6 12
REMARK SMILES IDX 5 13 4 14 3 15 2 16 1 17
REMARK H PARENT
REMARK Flexibility Score: inf
ROOT
ATOM      1  C   UNL     1      54.846  52.488  49.362  1.00  0.00     0.000 C 
ENDROOT
BRANCH   1   2
ATOM      2  C   UNL     1      54.255  51.684  48.193  1.00  0.00     0.000 C 
BRANCH   2   3
ATOM      3  C   UNL     1      53.422  52.551  47.231  1.00  0.00     0.000 C 
BRANCH   3   4
ATOM      4  C   UNL     1      53.122  53.982  47.722  1.00  0.00     0.000 C 
BRANCH   4   5
ATOM      5  C   UNL     1      53.547  55.105  46.760  1.00  0.00     0.006 C 
BRANCH   5   6
ATOM      6  C   UNL     1      52.395  56.053  46.405  1.00  0.00     0.053 C 
BRANCH   6   7
ATOM      7  C   UNL     1      52.399  56.356  44.940  1.00  0.00     0.041 C 
ATOM      8  O   UNL     1      53.477  56.642  44.355  1.00  0.00    -0.550 OA
ATOM      9  O   UNL     1      51.221  56.273  44.209  1.00  0.00    -0.550 OA
ENDBRANCH   6   7
ENDBRANCH   5   6
ENDBRANCH   4   5
ENDBRANCH   3   4
ENDBRANCH   2   3
ENDBRANCH   1   2
BRANCH   1  10
ATOM     10  C   UNL     1      54.513  51.881  50.738  1.00  0.00     0.000 C 
BRANCH  10  11
ATOM     11  C   UNL     1      53.111  51.258  50.862  1.00  0.00    -0.000 C 
BRANCH  11  12
ATOM     12  C   UNL     1      51.997  52.308  51.016  1.00  0.00    -0.000 C 
BRANCH  12  13
ATOM     13  C   UNL     1      52.402  53.466  51.941  1.00  0.00    -0.000 C 
BRANCH  13  14
ATOM     14  C   UNL     1      52.231  54.842  51.280  1.00  0.00    -0.000 C 
BRANCH  14  15
ATOM     15  C   UNL     1      53.431  55.750  51.587  1.00  0.00    -0.000 C 
BRANCH  15  16
ATOM     16  C   UNL     1      53.918  56.526  50.354  1.00  0.00    -0.003 C 
ATOM     17  C   UNL     1      55.334  56.135  49.930  1.00  0.00     0.004 C 
ENDBRANCH  15  16
ENDBRANCH  14  15
ENDBRANCH  13  14
ENDBRANCH  12  13
ENDBRANCH  11  12
ENDBRANCH  10  11
ENDBRANCH   1  10
TORSDOF 13
ENDMDL
MODEL 8
REMARK VINA RESULT:    -2.907      1.491      2.494
REMARK INTER + INTRA:          -7.382
REMARK INTER:                  -5.244
REMARK INTRA:                  -2.138
REMARK UNBOUND:                -2.267
REMARK SMILES CCCCCCCCCCCCCCC(=O)[O-]
REMARK SMILES IDX 9 1 10 2 11 3 12 4 13 5 14 6 15 7 16 8 17 9 8 10 7 11 6 12
REMARK SMILES IDX 5 13 4 14 3 15 2 16 1 17
REMARK H PARENT
REMARK Flexibility Score: inf
ROOT
ATOM      1  C   UNL     1      52.724  53.613  48.163  1.00  0.00     0.000 C 
ENDROOT
BRANCH   1   2
ATOM      2  C   UNL     1      53.604  52.788  47.210  1.00  0.00     0.000 C 
BRANCH   2   3
ATOM      3  C   UNL     1      55.017  53.377  47.040  1.00  0.00     0.000 C 
BRANCH   3   4
ATOM      4  C   UNL     1      55.275  54.104  45.704  1.00  0.00     0.000 C 
BRANCH   4   5
ATOM      5  C   UNL     1      55.055  55.626  45.736  1.00  0.00     0.006 C 
BRANCH   5   6
ATOM      6  C   UNL     1      53.842  56.069  44.909  1.00  0.00     0.053 C 
BRANCH   6   7
ATOM      7  C   UNL     1      52.749  56.561  45.806  1.00  0.00     0.041 C 
ATOM      8  O   UNL     1      51.587  56.088  45.705  1.00  0.00    -0.550 OA
ATOM      9  O   UNL     1      53.026  57.504  46.787  1.00  0.00    -0.550 OA
ENDBRANCH   6   7
ENDBRANCH   5   6
ENDBRANCH   4   5
ENDBRANCH   3   4
ENDBRANCH   2   3
ENDBRANCH   1   2
BRANCH   1  10
ATOM     10  C   UNL     1      53.522  54.655  48.968  1.00  0.00     0.000 C 
BRANCH  10  11
ATOM     11  C   UNL     1      52.974  54.963  50.373  1.00  0.00    -0.000 C 
BRANCH  11  12
ATOM     12  C   UNL     1      52.224  53.776  51.001  1.00  0.00    -0.000 C 
BRANCH  12  13
ATOM     13  C   UNL     1      52.887  53.275  52.294  1.00  0.00    -0.000 C 
BRANCH  13  14
ATOM     14  C   UNL     1      53.586  51.919  52.115  1.00  0.00    -0.000 C 
BRANCH  14  15
ATOM     15  C   UNL     1      52.957  51.127  50.960  1.00  0.00    -0.000 C 
BRANCH  15  16
ATOM     16  C   UNL     1      54.007  50.509  50.024  1.00  0.00    -0.003 C 
ATOM     17  C   UNL     1      55.348  51.242  50.075  1.00  0.00     0.004 C 
ENDBRANCH  15  16
ENDBRANCH  14  15
ENDBRANCH  13  14
ENDBRANCH  12  13
ENDBRANCH  11  12
ENDBRANCH  10  11
ENDBRANCH   1  10
TORSDOF 13
ENDMDL
MODEL 9
REMARK VINA RESULT:    -2.852      1.196      3.860
REMARK INTER + INTRA:          -7.286
REMARK INTER:                  -5.043
REMARK INTRA:                  -2.243
REMARK UNBOUND:                -2.267
REMARK SMILES CCCCCCCCCCCCCCC(=O)[O-]
REMARK SMILES IDX 9 1 10 2 11 3 12 4 13 5 14 6 15 7 16 8 17 9 8 10 7 11 6 12
REMARK SMILES IDX 5 13 4 14 3 15 2 16 1 17
REMARK H PARENT
REMARK Flexibility Score: inf
ROOT
ATOM      1  C   UNL     1      53.237  55.300  51.800  1.00  0.00     0.000 C 
ENDROOT
BRANCH   1   2
ATOM      2  C   UNL     1      53.611  56.639  51.145  1.00  0.00     0.000 C 
BRANCH   2   3
ATOM      3  C   UNL     1      53.139  56.743  49.682  1.00  0.00     0.000 C 
BRANCH   3   4
ATOM      4  C   UNL     1      54.130  57.423  48.715  1.00  0.00     0.000 C 
BRANCH   4   5
ATOM      5  C   UNL     1      54.136  56.859  47.283  1.00  0.00     0.006 C 
BRANCH   5   6
ATOM      6  C   UNL     1      52.943  55.937  47.002  1.00  0.00     0.053 C 
BRANCH   6   7
ATOM      7  C   UNL     1      52.313  56.283  45.690  1.00  0.00     0.041 C 
ATOM      8  O   UNL     1      52.961  56.142  44.619  1.00  0.00    -0.550 OA
ATOM      9  O   UNL     1      50.994  56.713  45.643  1.00  0.00    -0.550 OA
ENDBRANCH   6   7
ENDBRANCH   5   6
ENDBRANCH   4   5
ENDBRANCH   3   4
ENDBRANCH   2   3
ENDBRANCH   1   2
BRANCH   1  10
ATOM     10  C   UNL     1      52.309  54.440  50.922  1.00  0.00     0.000 C 
BRANCH  10  11
ATOM     11  C   UNL     1      52.202  52.959  51.329  1.00  0.00    -0.000 C 
BRANCH  11  12
ATOM     12  C   UNL     1      52.435  51.994  50.154  1.00  0.00    -0.000 C 
BRANCH  12  13
ATOM     13  C   UNL     1      52.215  52.662  48.788  1.00  0.00    -0.000 C 
BRANCH  13  14
ATOM     14  C   UNL     1      53.321  52.325  47.777  1.00  0.00    -0.000 C 
BRANCH  14  15
ATOM     15  C   UNL     1      54.691  52.248  48.468  1.00  0.00    -0.000 C 
BRANCH  15  16
ATOM     16  C   UNL     1      55.530  53.518  48.260  1.00  0.00    -0.003 C 
ATOM     17  C   UNL     1      56.020  54.125  49.575  1.00  0.00     0.004 C 
ENDBRANCH  15  16
ENDBRANCH  14  15
ENDBRANCH  13  14
ENDBRANCH  12  13
ENDBRANCH  11  12
ENDBRANCH  10  11
ENDBRANCH   1  10
TORSDOF 13
ENDMDL
