MODEL 1
REMARK VINA RESULT:    -1.557      0.000      0.000
REMARK INTER + INTRA:          -3.780
REMARK INTER:                  -2.468
REMARK INTRA:                  -1.312
REMARK UNBOUND:                -1.312
REMARK SMILES CCCCCCCCCCCC(=O)[O-]
REMARK SMILES IDX 7 1 8 2 9 3 10 4 11 5 12 6 13 7 14 8 6 9 5 10 4 11 3 12 2 13
REMARK SMILES IDX 1 14
REMARK H PARENT
REMARK Flexibility Score: inf
ROOT
ATOM      1  C   UNL     1      15.562 -34.512   2.466  1.00  0.00     0.000 C 
ENDROOT
BRANCH   1   2
ATOM      2  C   UNL     1      16.233 -34.000   1.182  1.00  0.00     0.000 C 
BRANCH   2   3
ATOM      3  C   UNL     1      16.213 -35.037   0.049  1.00  0.00     0.000 C 
BRANCH   3   4
ATOM      4  C   UNL     1      14.795 -35.319  -0.472  1.00  0.00     0.006 C 
BRANCH   4   5
ATOM      5  C   UNL     1      14.364 -34.257  -1.489  1.00  0.00     0.053 C 
BRANCH   5   6
ATOM      6  C   UNL     1      13.140 -33.542  -1.013  1.00  0.00     0.041 C 
ATOM      7  O   UNL     1      12.527 -33.947   0.010  1.00  0.00    -0.550 OA
ATOM      8  O   UNL     1      12.646 -32.458  -1.727  1.00  0.00    -0.550 OA
ENDBRANCH   5   6
ENDBRANCH   4   5
ENDBRANCH   3   4
ENDBRANCH   2   3
ENDBRANCH   1   2
BRANCH   1   9
ATOM      9  C   UNL     1      14.819 -33.381   3.186  1.00  0.00     0.000 C 
BRANCH   9  10
ATOM     10  C   UNL     1      14.569 -32.197   2.240  1.00  0.00    -0.000 C 
BRANCH  10  11
ATOM     11  C   UNL     1      14.971 -30.848   2.857  1.00  0.00    -0.000 C 
BRANCH  11  12
ATOM     12  C   UNL     1      16.297 -30.926   3.634  1.00  0.00    -0.000 C 
BRANCH  12  13
ATOM     13  C   UNL     1      17.523 -30.762   2.721  1.00  0.00    -0.003 C 
ATOM     14  C   UNL     1      18.607 -31.807   2.991  1.00  0.00     0.004 C 
ENDBRANCH  12  13
ENDBRANCH  11  12
ENDBRANCH  10  11
ENDBRANCH   9  10
ENDBRANCH   1   9
TORSDOF 10
ENDMDL
MODEL 2
REMARK VINA RESULT:    -1.553      5.490      7.648
REMARK INTER + INTRA:          -3.773
REMARK INTER:                  -2.270
REMARK INTRA:                  -1.503
REMARK UNBOUND:                -1.312
REMARK SMILES CCCCCCCCCCCC(=O)[O-]
REMARK SMILES IDX 7 1 8 2 9 3 10 4 11 5 12 6 13 7 14 8 6 9 5 10 4 11 3 12 2 13
REMARK SMILES IDX 1 14
REMARK H PARENT
REMARK Flexibility Score: inf
ROOT
ATOM      1  C   UNL     1      20.477 -28.253  -1.769  1.00  0.00     0.000 C 
ENDROOT
BRANCH   1   2
ATOM      2  C   UNL     1      20.020 -29.106  -0.575  1.00  0.00     0.000 C 
BRANCH   2   3
ATOM      3  C   UNL     1      21.122 -30.045  -0.061  1.00  0.00     0.000 C 
BRANCH   3   4
ATOM      4  C   UNL     1      20.846 -30.560   1.360  1.00  0.00     0.006 C 
BRANCH   4   5
ATOM      5  C   UNL     1      19.464 -30.113   1.846  1.00  0.00     0.053 C 
BRANCH   5   6
ATOM      6  C   UNL     1      18.671 -31.287   2.323  1.00  0.00     0.041 C 
ATOM      7  O   UNL     1      18.944 -32.446   1.912  1.00  0.00    -0.550 OA
ATOM      8  O   UNL     1      17.598 -31.099   3.185  1.00  0.00    -0.550 OA
ENDBRANCH   5   6
ENDBRANCH   4   5
ENDBRANCH   3   4
ENDBRANCH   2   3
ENDBRANCH   1   2
BRANCH   1   9
ATOM      9  C   UNL     1      21.676 -27.376  -1.390  1.00  0.00     0.000 C 
BRANCH   9  10
ATOM     10  C   UNL     1      21.228 -25.943  -1.064  1.00  0.00    -0.000 C 
BRANCH  10  11
ATOM     11  C   UNL     1      21.533 -25.540   0.387  1.00  0.00    -0.000 C 
BRANCH  11  12
ATOM     12  C   UNL     1      20.467 -26.044   1.376  1.00  0.00    -0.000 C 
BRANCH  12  13
ATOM     13  C   UNL     1      21.076 -26.839   2.542  1.00  0.00    -0.003 C 
ATOM     14  C   UNL     1      22.500 -27.316   2.255  1.00  0.00     0.004 C 
ENDBRANCH  12  13
ENDBRANCH  11  12
ENDBRANCH  10  11
ENDBRANCH   9  10
ENDBRANCH   1   9
TORSDOF 10
ENDMDL
MODEL 3
REMARK VINA RESULT:    -1.542      2.490      4.204
REMARK INTER + INTRA:          -3.756
REMARK INTER:                  -2.600
REMARK INTRA:                  -1.156
REMARK UNBOUND:                -1.312
REMARK SMILES CCCCCCCCCCCC(=O)[O-]
REMARK SMILES IDX 7 1 8 2 9 3 10 4 11 5 12 6 13 7 14 8 6 9 5 10 4 11 3 12 2 13
REMARK SMILES IDX 1 14
REMARK H PARENT
REMARK Flexibility Score: inf
ROOT
ATOM      1  C   UNL     1      13.991 -33.780  -1.353  1.00  0.00     0.000 C 
ENDROOT
BRANCH   1   2
ATOM      2  C   UNL     1      12.634 -33.064  -1.433  1.00  0.00     0.000 C 
BRANCH   2   3
ATOM      3  C   UNL     1      11.878 -33.076  -0.095  1.00  0.00     0.000 C 
BRANCH   3   4
ATOM      4  C   UNL     1      12.329 -31.953   0.851  1.00  0.00     0.006 C 
BRANCH   4   5
ATOM      5  C   UNL     1      12.014 -30.577   0.257  1.00  0.00     0.053 C 
BRANCH   5   6
ATOM      6  C   UNL     1      12.532 -29.491   1.145  1.00  0.00     0.041 C 
ATOM      7  O   UNL     1      12.320 -29.532   2.386  1.00  0.00    -0.550 OA
ATOM      8  O   UNL     1      13.208 -28.408   0.598  1.00  0.00    -0.550 OA
ENDBRANCH   5   6
ENDBRANCH   4   5
ENDBRANCH   3   4
ENDBRANCH   2   3
ENDBRANCH   1   2
BRANCH   1   9
ATOM      9  C   UNL     1      13.826 -35.214  -0.836  1.00  0.00     0.000 C 
BRANCH   9  10
ATOM     10  C   UNL     1      14.677 -35.447   0.422  1.00  0.00    -0.000 C 
BRANCH  10  11
ATOM     11  C   UNL     1      15.581 -34.251   0.759  1.00  0.00    -0.000 C 
BRANCH  11  12
ATOM     12  C   UNL     1      15.306 -33.679   2.160  1.00  0.00    -0.000 C 
BRANCH  12  13
ATOM     13  C   UNL     1      16.230 -32.501   2.507  1.00  0.00    -0.003 C 
ATOM     14  C   UNL     1      15.462 -31.213   2.804  1.00  0.00     0.004 C 
ENDBRANCH  12  13
ENDBRANCH  11  12
ENDBRANCH  10  11
ENDBRANCH   9  10
ENDBRANCH   1   9
TORSDOF 10
ENDMDL
MODEL 4
REMARK VINA RESULT:    -1.513      2.631      5.350
REMARK INTER + INTRA:          -3.709
REMARK INTER:                  -2.729
REMARK INTRA:                  -0.980
REMARK UNBOUND:                -1.312
REMARK SMILES CCCCCCCCCCCC(=O)[O-]
REMARK SMILES IDX 7 1 8 2 9 3 10 4 11 5 12 6 13 7 14 8 6 9 5 10 4 11 3 12 2 13
REMARK SMILES IDX 1 14
REMARK H PARENT
REMARK Flexibility Score: inf
ROOT
ATOM      1  C   UNL     1      16.089 -33.666   1.777  1.00  0.00     0.000 C 
ENDROOT
BRANCH   1   2
ATOM      2  C   UNL     1      14.944 -32.940   2.500  1.00  0.00     0.000 C 
BRANCH   2   3
ATOM      3  C   UNL     1      15.437 -31.775   3.371  1.00  0.00     0.000 C 
BRANCH   3   4
ATOM      4  C   UNL     1      15.275 -30.411   2.683  1.00  0.00     0.006 C 
BRANCH   4   5
ATOM      5  C   UNL     1      13.814 -29.953   2.711  1.00  0.00     0.053 C 
BRANCH   5   6
ATOM      6  C   UNL     1      13.692 -28.555   2.193  1.00  0.00     0.041 C 
ATOM      7  O   UNL     1      13.583 -28.344   0.956  1.00  0.00    -0.550 OA
ATOM      8  O   UNL     1      13.748 -27.481   3.071  1.00  0.00    -0.550 OA
ENDBRANCH   5   6
ENDBRANCH   4   5
ENDBRANCH   3   4
ENDBRANCH   2   3
ENDBRANCH   1   2
BRANCH   1   9
ATOM      9  C   UNL     1      15.602 -34.292   0.465  1.00  0.00     0.000 C 
BRANCH   9  10
ATOM     10  C   UNL     1      14.365 -35.172   0.701  1.00  0.00    -0.000 C 
BRANCH  10  11
ATOM     11  C   UNL     1      13.248 -34.913  -0.322  1.00  0.00    -0.000 C 
BRANCH  11  12
ATOM     12  C   UNL     1      13.592 -33.774  -1.298  1.00  0.00    -0.000 C 
BRANCH  12  13
ATOM     13  C   UNL     1      12.520 -32.674  -1.320  1.00  0.00    -0.003 C 
ATOM     14  C   UNL     1      12.222 -32.108   0.069  1.00  0.00     0.004 C 
ENDBRANCH  12  13
ENDBRANCH  11  12
ENDBRANCH  10  11
ENDBRANCH   9  10
ENDBRANCH   1   9
TORSDOF 10
ENDMDL
MODEL 5
REMARK VINA RESULT:    -1.473      7.072      9.461
REMARK INTER + INTRA:          -3.646
REMARK INTER:                  -2.061
REMARK INTRA:                  -1.585
REMARK UNBOUND:                -1.312
REMARK SMILES CCCCCCCCCCCC(=O)[O-]
REMARK SMILES IDX 7 1 8 2 9 3 10 4 11 5 12 6 13 7 14 8 6 9 5 10 4 11 3 12 2 13
REMARK SMILES IDX 1 14
REMARK H PARENT
REMARK Flexibility Score: inf
ROOT
ATOM      1  C   UNL     1      21.357 -26.106  -1.676  1.00  0.00     0.000 C 
ENDROOT
BRANCH   1   2
ATOM      2  C   UNL     1      21.312 -25.205  -0.433  1.00  0.00     0.000 C 
BRANCH   2   3
ATOM      3  C   UNL     1      22.250 -25.689   0.684  1.00  0.00     0.000 C 
BRANCH   3   4
ATOM      4  C   UNL     1      21.642 -25.515   2.085  1.00  0.00     0.006 C 
BRANCH   4   5
ATOM      5  C   UNL     1      20.112 -25.569   2.027  1.00  0.00     0.053 C 
BRANCH   5   6
ATOM      6  C   UNL     1      19.537 -25.603   3.408  1.00  0.00     0.041 C 
ATOM      7  O   UNL     1      20.176 -26.147   4.348  1.00  0.00    -0.550 OA
ATOM      8  O   UNL     1      18.274 -25.078   3.648  1.00  0.00    -0.550 OA
ENDBRANCH   5   6
ENDBRANCH   4   5
ENDBRANCH   3   4
ENDBRANCH   2   3
ENDBRANCH   1   2
BRANCH   1   9
ATOM      9  C   UNL     1      21.591 -27.570  -1.285  1.00  0.00     0.000 C 
BRANCH   9  10
ATOM     10  C   UNL     1      20.270 -28.355  -1.273  1.00  0.00    -0.000 C 
BRANCH  10  11
ATOM     11  C   UNL     1      20.011 -29.063   0.066  1.00  0.00    -0.000 C 
BRANCH  11  12
ATOM     12  C   UNL     1      21.311 -29.414   0.810  1.00  0.00    -0.000 C 
BRANCH  12  13
ATOM     13  C   UNL     1      21.208 -29.168   2.323  1.00  0.00    -0.003 C 
ATOM     14  C   UNL     1      19.787 -29.348   2.858  1.00  0.00     0.004 C 
ENDBRANCH  12  13
ENDBRANCH  11  12
ENDBRANCH  10  11
ENDBRANCH   9  10
ENDBRANCH   1   9
TORSDOF 10
ENDMDL
MODEL 6
REMARK VINA RESULT:    -1.461      1.852      2.747
REMARK INTER + INTRA:          -3.626
REMARK INTER:                  -2.180
REMARK INTRA:                  -1.446
REMARK UNBOUND:                -1.312
REMARK SMILES CCCCCCCCCCCC(=O)[O-]
REMARK SMILES IDX 7 1 8 2 9 3 10 4 11 5 12 6 13 7 14 8 6 9 5 10 4 11 3 12 2 13
REMARK SMILES IDX 1 14
REMARK H PARENT
REMARK Flexibility Score: inf
ROOT
ATOM      1  C   UNL     1      16.210 -35.177   1.852  1.00  0.00     0.000 C 
ENDROOT
BRANCH   1   2
ATOM      2  C   UNL     1      14.798 -34.603   2.049  1.00  0.00     0.000 C 
BRANCH   2   3
ATOM      3  C   UNL     1      14.459 -33.502   1.031  1.00  0.00     0.000 C 
BRANCH   3   4
ATOM      4  C   UNL     1      13.463 -33.972  -0.040  1.00  0.00     0.006 C 
BRANCH   4   5
ATOM      5  C   UNL     1      14.132 -34.045  -1.416  1.00  0.00     0.053 C 
BRANCH   5   6
ATOM      6  C   UNL     1      14.785 -35.376  -1.611  1.00  0.00     0.041 C 
ATOM      7  O   UNL     1      14.180 -36.433  -1.289  1.00  0.00    -0.550 OA
ATOM      8  O   UNL     1      16.082 -35.450  -2.102  1.00  0.00    -0.550 OA
ENDBRANCH   5   6
ENDBRANCH   4   5
ENDBRANCH   3   4
ENDBRANCH   2   3
ENDBRANCH   1   2
BRANCH   1   9
ATOM      9  C   UNL     1      17.100 -34.194   1.084  1.00  0.00     0.000 C 
BRANCH   9  10
ATOM     10  C   UNL     1      18.189 -33.609   1.996  1.00  0.00    -0.000 C 
BRANCH  10  11
ATOM     11  C   UNL     1      17.810 -32.234   2.569  1.00  0.00    -0.000 C 
BRANCH  11  12
ATOM     12  C   UNL     1      17.140 -32.335   3.951  1.00  0.00    -0.000 C 
BRANCH  12  13
ATOM     13  C   UNL     1      15.963 -31.359   4.107  1.00  0.00    -0.003 C 
ATOM     14  C   UNL     1      15.730 -30.507   2.858  1.00  0.00     0.004 C 
ENDBRANCH  12  13
ENDBRANCH  11  12
ENDBRANCH  10  11
ENDBRANCH   9  10
ENDBRANCH   1   9
TORSDOF 10
ENDMDL
MODEL 7
REMARK VINA RESULT:    -1.459      7.142      8.958
REMARK INTER + INTRA:          -3.623
REMARK INTER:                  -2.110
REMARK INTRA:                  -1.514
REMARK UNBOUND:                -1.312
REMARK SMILES CCCCCCCCCCCC(=O)[O-]
REMARK SMILES IDX 7 1 8 2 9 3 10 4 11 5 12 6 13 7 14 8 6 9 5 10 4 11 3 12 2 13
REMARK SMILES IDX 1 14
REMARK H PARENT
REMARK Flexibility Score: inf
ROOT
ATOM      1  C   UNL     1      22.441 -27.781  -1.638  1.00  0.00     0.000 C 
ENDROOT
BRANCH   1   2
ATOM      2  C   UNL     1      21.736 -29.145  -1.694  1.00  0.00     0.000 C 
BRANCH   2   3
ATOM      3  C   UNL     1      20.243 -29.055  -1.341  1.00  0.00     0.000 C 
BRANCH   3   4
ATOM      4  C   UNL     1      19.981 -29.198   0.167  1.00  0.00     0.006 C 
BRANCH   4   5
ATOM      5  C   UNL     1      20.901 -30.256   0.784  1.00  0.00     0.053 C 
BRANCH   5   6
ATOM      6  C   UNL     1      21.639 -29.690   1.955  1.00  0.00     0.041 C 
ATOM      7  O   UNL     1      21.231 -29.908   3.127  1.00  0.00    -0.550 OA
ATOM      8  O   UNL     1      22.749 -28.880   1.753  1.00  0.00    -0.550 OA
ENDBRANCH   5   6
ENDBRANCH   4   5
ENDBRANCH   3   4
ENDBRANCH   2   3
ENDBRANCH   1   2
BRANCH   1   9
ATOM      9  C   UNL     1      21.512 -26.662  -2.124  1.00  0.00     0.000 C 
BRANCH   9  10
ATOM     10  C   UNL     1      21.408 -25.541  -1.079  1.00  0.00    -0.000 C 
BRANCH  10  11
ATOM     11  C   UNL     1      22.501 -25.627  -0.002  1.00  0.00    -0.000 C 
BRANCH  11  12
ATOM     12  C   UNL     1      21.947 -25.426   1.419  1.00  0.00    -0.000 C 
BRANCH  12  13
ATOM     13  C   UNL     1      20.478 -25.859   1.544  1.00  0.00    -0.003 C 
ATOM     14  C   UNL     1      20.149 -26.454   2.914  1.00  0.00     0.004 C 
ENDBRANCH  12  13
ENDBRANCH  11  12
ENDBRANCH  10  11
ENDBRANCH   9  10
ENDBRANCH   1   9
TORSDOF 10
ENDMDL
MODEL 8
REMARK VINA RESULT:    -1.403      3.908      5.892
REMARK INTER + INTRA:          -3.534
REMARK INTER:                  -2.136
REMARK INTRA:                  -1.398
REMARK UNBOUND:                -1.312
REMARK SMILES CCCCCCCCCCCC(=O)[O-]
REMARK SMILES IDX 7 1 8 2 9 3 10 4 11 5 12 6 13 7 14 8 6 9 5 10 4 11 3 12 2 13
REMARK SMILES IDX 1 14
REMARK H PARENT
REMARK Flexibility Score: inf
ROOT
ATOM      1  C   UNL     1      17.238 -30.851   2.781  1.00  0.00     0.000 C 
ENDROOT
BRANCH   1   2
ATOM      2  C   UNL     1      17.960 -31.849   3.699  1.00  0.00     0.000 C 
BRANCH   2   3
ATOM      3  C   UNL     1      19.267 -32.378   3.088  1.00  0.00     0.000 C 
BRANCH   3   4
ATOM      4  C   UNL     1      19.375 -32.095   1.582  1.00  0.00     0.006 C 
BRANCH   4   5
ATOM      5  C   UNL     1      20.728 -31.465   1.238  1.00  0.00     0.053 C 
BRANCH   5   6
ATOM      6  C   UNL     1      20.831 -30.092   1.824  1.00  0.00     0.041 C 
ATOM      7  O   UNL     1      20.064 -29.175   1.427  1.00  0.00    -0.550 OA
ATOM      8  O   UNL     1      21.805 -29.812   2.773  1.00  0.00    -0.550 OA
ENDBRANCH   5   6
ENDBRANCH   4   5
ENDBRANCH   3   4
ENDBRANCH   2   3
ENDBRANCH   1   2
BRANCH   1   9
ATOM      9  C   UNL     1      15.726 -31.102   2.777  1.00  0.00     0.000 C 
BRANCH   9  10
ATOM     10  C   UNL     1      15.409 -32.558   3.153  1.00  0.00    -0.000 C 
BRANCH  10  11
ATOM     11  C   UNL     1      14.489 -33.248   2.133  1.00  0.00    -0.000 C 
BRANCH  11  12
ATOM     12  C   UNL     1      15.269 -33.887   0.971  1.00  0.00    -0.000 C 
BRANCH  12  13
ATOM     13  C   UNL     1      16.568 -34.564   1.437  1.00  0.00    -0.003 C 
ATOM     14  C   UNL     1      17.469 -34.982   0.274  1.00  0.00     0.004 C 
ENDBRANCH  12  13
ENDBRANCH  11  12
ENDBRANCH  10  11
ENDBRANCH   9  10
ENDBRANCH   1   9
TORSDOF 10
ENDMDL
