MODEL 1
REMARK VINA RESULT:    -6.319      0.000      0.000
REMARK INTER + INTRA:          -7.043
REMARK INTER:                  -6.689
REMARK INTRA:                  -0.355
REMARK UNBOUND:                -0.355
REMARK SMILES CC1=CC[C@@]23[C@H]([C@H](C(C)C)CC[C@H]2C)[C@H]13
REMARK SMILES IDX 14 1 13 2 12 3 11 4 7 5 6 6 5 7 15 8 2 9 3 10 4 11 1 12 8 13
REMARK SMILES IDX 9 14 10 15
REMARK H PARENT
REMARK Flexibility Score: inf
ROOT
ATOM      1  C   UNL     1       2.952  11.493   3.868  1.00  0.00     0.008 C 
ATOM      2  C   UNL     1       3.176  12.731   2.992  1.00  0.00    -0.007 C 
ATOM      3  C   UNL     1       3.990  13.818   3.758  1.00  0.00     0.004 C 
ATOM      4  C   UNL     1       4.097  15.186   3.011  1.00  0.00     0.004 C 
ATOM      5  C   UNL     1       2.797  15.635   2.265  1.00  0.00    -0.004 C 
ATOM      6  C   UNL     1       2.344  14.398   1.477  1.00  0.00     0.007 C 
ATOM      7  C   UNL     1       1.841  13.365   2.551  1.00  0.00    -0.013 C 
ATOM      8  C   UNL     1       1.084  13.621   1.250  1.00  0.00     0.025 C 
ATOM      9  C   UNL     1      -0.177  14.301   1.652  1.00  0.00    -0.073 C 
ATOM     10  C   UNL     1      -0.309  14.394   2.965  1.00  0.00    -0.027 C 
ATOM     11  C   UNL     1       0.850  13.792   3.674  1.00  0.00     0.035 C 
ATOM     12  C   UNL     1      -1.192  14.815   0.678  1.00  0.00     0.039 C 
ENDROOT
BRANCH   5  13
ATOM     13  C   UNL     1       3.064  16.818   1.291  1.00  0.00    -0.014 C 
ATOM     14  C   UNL     1       4.373  17.544   1.649  1.00  0.00     0.007 C 
ATOM     15  C   UNL     1       3.131  16.349  -0.172  1.00  0.00     0.007 C 
ENDBRANCH   5  13
TORSDOF 1
ENDMDL
MODEL 2
REMARK VINA RESULT:    -6.199      1.467      4.918
REMARK INTER + INTRA:          -6.916
REMARK INTER:                  -6.395
REMARK INTRA:                  -0.522
REMARK UNBOUND:                -0.355
REMARK SMILES CC1=CC[C@@]23[C@H]([C@H](C(C)C)CC[C@H]2C)[C@H]13
REMARK SMILES IDX 14 1 13 2 12 3 11 4 7 5 6 6 5 7 15 8 2 9 3 10 4 11 1 12 8 13
REMARK SMILES IDX 9 14 10 15
REMARK H PARENT
REMARK Flexibility Score: inf
ROOT
ATOM      1  C   UNL     1      -0.135  14.288  -0.151  1.00  0.00     0.008 C 
ATOM      2  C   UNL     1      -0.110  13.805   1.304  1.00  0.00    -0.007 C 
ATOM      3  C   UNL     1      -1.114  14.615   2.180  1.00  0.00     0.004 C 
ATOM      4  C   UNL     1      -1.013  14.321   3.711  1.00  0.00     0.004 C 
ATOM      5  C   UNL     1       0.442  14.129   4.252  1.00  0.00    -0.004 C 
ATOM      6  C   UNL     1       1.107  13.156   3.269  1.00  0.00     0.007 C 
ATOM      7  C   UNL     1       1.292  13.958   1.929  1.00  0.00    -0.013 C 
ATOM      8  C   UNL     1       2.384  13.054   2.494  1.00  0.00     0.025 C 
ATOM      9  C   UNL     1       3.476  13.970   2.922  1.00  0.00    -0.073 C 
ATOM     10  C   UNL     1       3.231  15.232   2.614  1.00  0.00    -0.027 C 
ATOM     11  C   UNL     1       1.922  15.382   1.926  1.00  0.00     0.035 C 
ATOM     12  C   UNL     1       4.722  13.512   3.616  1.00  0.00     0.039 C 
ENDROOT
BRANCH   5  13
ATOM     13  C   UNL     1       0.455  13.528   5.687  1.00  0.00    -0.014 C 
ATOM     14  C   UNL     1      -0.194  12.133   5.707  1.00  0.00     0.007 C 
ATOM     15  C   UNL     1       1.882  13.429   6.252  1.00  0.00     0.007 C 
ENDBRANCH   5  13
TORSDOF 1
ENDMDL
MODEL 3
REMARK VINA RESULT:    -6.075      1.928      3.970
REMARK INTER + INTRA:          -6.785
REMARK INTER:                  -6.445
REMARK INTRA:                  -0.339
REMARK UNBOUND:                -0.355
REMARK SMILES CC1=CC[C@@]23[C@H]([C@H](C(C)C)CC[C@H]2C)[C@H]13
REMARK SMILES IDX 14 1 13 2 12 3 11 4 7 5 6 6 5 7 15 8 2 9 3 10 4 11 1 12 8 13
REMARK SMILES IDX 9 14 10 15
REMARK H PARENT
REMARK Flexibility Score: inf
ROOT
ATOM      1  C   UNL     1       4.374  12.810   3.854  1.00  0.00     0.008 C 
ATOM      2  C   UNL     1       2.965  13.047   3.298  1.00  0.00    -0.007 C 
ATOM      3  C   UNL     1       2.834  14.483   2.703  1.00  0.00     0.004 C 
ATOM      4  C   UNL     1       1.380  14.876   2.290  1.00  0.00     0.004 C 
ATOM      5  C   UNL     1       0.260  14.381   3.264  1.00  0.00    -0.004 C 
ATOM      6  C   UNL     1       0.579  12.901   3.518  1.00  0.00     0.007 C 
ATOM      7  C   UNL     1       1.887  12.887   4.390  1.00  0.00    -0.013 C 
ATOM      8  C   UNL     1       0.703  11.972   4.686  1.00  0.00     0.025 C 
ATOM      9  C   UNL     1       0.131  12.465   5.969  1.00  0.00    -0.073 C 
ATOM     10  C   UNL     1       0.843  13.445   6.499  1.00  0.00    -0.027 C 
ATOM     11  C   UNL     1       2.019  13.784   5.656  1.00  0.00     0.035 C 
ATOM     12  C   UNL     1      -1.107  11.905   6.597  1.00  0.00     0.039 C 
ENDROOT
BRANCH   5  13
ATOM     13  C   UNL     1      -1.158  14.520   2.640  1.00  0.00    -0.014 C 
ATOM     14  C   UNL     1      -2.155  15.104   3.656  1.00  0.00     0.007 C 
ATOM     15  C   UNL     1      -1.144  15.405   1.382  1.00  0.00     0.007 C 
ENDBRANCH   5  13
TORSDOF 1
ENDMDL
MODEL 4
REMARK VINA RESULT:    -5.819      1.281      3.858
REMARK INTER + INTRA:          -6.514
REMARK INTER:                  -6.151
REMARK INTRA:                  -0.362
REMARK UNBOUND:                -0.355
REMARK SMILES CC1=CC[C@@]23[C@H]([C@H](C(C)C)CC[C@H]2C)[C@H]13
REMARK SMILES IDX 14 1 13 2 12 3 11 4 7 5 6 6 5 7 15 8 2 9 3 10 4 11 1 12 8 13
REMARK SMILES IDX 9 14 10 15
REMARK H PARENT
REMARK Flexibility Score: inf
ROOT
ATOM      1  C   UNL     1       3.254  16.735   0.422  1.00  0.00     0.008 C 
ATOM      2  C   UNL     1       2.562  16.016   1.586  1.00  0.00    -0.007 C 
ATOM      3  C   UNL     1       3.565  15.099   2.352  1.00  0.00     0.004 C 
ATOM      4  C   UNL     1       2.903  14.183   3.430  1.00  0.00     0.004 C 
ATOM      5  C   UNL     1       1.520  13.576   3.021  1.00  0.00    -0.004 C 
ATOM      6  C   UNL     1       0.715  14.758   2.463  1.00  0.00     0.007 C 
ATOM      7  C   UNL     1       1.395  15.134   1.097  1.00  0.00    -0.013 C 
ATOM      8  C   UNL     1      -0.120  15.069   1.261  1.00  0.00     0.025 C 
ATOM      9  C   UNL     1      -0.557  13.896   0.455  1.00  0.00    -0.073 C 
ATOM     10  C   UNL     1       0.439  13.338  -0.212  1.00  0.00    -0.027 C 
ATOM     11  C   UNL     1       1.725  14.042   0.036  1.00  0.00     0.035 C 
ATOM     12  C   UNL     1      -1.971  13.406   0.397  1.00  0.00     0.039 C 
ENDROOT
BRANCH   5  13
ATOM     13  C   UNL     1       0.776  12.952   4.237  1.00  0.00    -0.014 C 
ATOM     14  C   UNL     1       1.678  12.927   5.483  1.00  0.00     0.007 C 
ATOM     15  C   UNL     1      -0.519  13.714   4.567  1.00  0.00     0.007 C 
ENDBRANCH   5  13
TORSDOF 1
ENDMDL
MODEL 5
REMARK VINA RESULT:    -5.530      4.678      7.417
REMARK INTER + INTRA:          -6.208
REMARK INTER:                  -5.872
REMARK INTRA:                  -0.337
REMARK UNBOUND:                -0.355
REMARK SMILES CC1=CC[C@@]23[C@H]([C@H](C(C)C)CC[C@H]2C)[C@H]13
REMARK SMILES IDX 14 1 13 2 12 3 11 4 7 5 6 6 5 7 15 8 2 9 3 10 4 11 1 12 8 13
REMARK SMILES IDX 9 14 10 15
REMARK H PARENT
REMARK Flexibility Score: inf
ROOT
ATOM      1  C   UNL     1       0.818  13.745   5.435  1.00  0.00     0.008 C 
ATOM      2  C   UNL     1      -0.455  13.593   6.275  1.00  0.00    -0.007 C 
ATOM      3  C   UNL     1      -0.991  12.130   6.219  1.00  0.00     0.004 C 
ATOM      4  C   UNL     1      -2.388  11.931   6.887  1.00  0.00     0.004 C 
ATOM      5  C   UNL     1      -3.407  13.094   6.647  1.00  0.00    -0.004 C 
ATOM      6  C   UNL     1      -2.622  14.379   6.947  1.00  0.00     0.007 C 
ATOM      7  C   UNL     1      -1.579  14.527   5.780  1.00  0.00    -0.013 C 
ATOM      8  C   UNL     1      -2.381  15.712   6.310  1.00  0.00     0.025 C 
ATOM      9  C   UNL     1      -3.314  16.082   5.211  1.00  0.00    -0.073 C 
ATOM     10  C   UNL     1      -3.117  15.370   4.114  1.00  0.00    -0.027 C 
ATOM     11  C   UNL     1      -2.013  14.390   4.291  1.00  0.00     0.035 C 
ATOM     12  C   UNL     1      -4.356  17.151   5.328  1.00  0.00     0.039 C 
ENDROOT
BRANCH   5  13
ATOM     13  C   UNL     1      -4.641  12.991   7.589  1.00  0.00    -0.014 C 
ATOM     14  C   UNL     1      -5.949  13.229   6.814  1.00  0.00     0.007 C 
ATOM     15  C   UNL     1      -4.711  11.624   8.291  1.00  0.00     0.007 C 
ENDBRANCH   5  13
TORSDOF 1
ENDMDL
MODEL 6
REMARK VINA RESULT:    -5.363      1.274      3.378
REMARK INTER + INTRA:          -6.031
REMARK INTER:                  -5.659
REMARK INTRA:                  -0.372
REMARK UNBOUND:                -0.355
REMARK SMILES CC1=CC[C@@]23[C@H]([C@H](C(C)C)CC[C@H]2C)[C@H]13
REMARK SMILES IDX 14 1 13 2 12 3 11 4 7 5 6 6 5 7 15 8 2 9 3 10 4 11 1 12 8 13
REMARK SMILES IDX 9 14 10 15
REMARK H PARENT
REMARK Flexibility Score: inf
ROOT
ATOM      1  C   UNL     1      -0.090  13.221  -0.356  1.00  0.00     0.008 C 
ATOM      2  C   UNL     1       0.671  14.360   0.332  1.00  0.00    -0.007 C 
ATOM      3  C   UNL     1       1.791  14.924  -0.595  1.00  0.00     0.004 C 
ATOM      4  C   UNL     1       2.740  15.954   0.096  1.00  0.00     0.004 C 
ATOM      5  C   UNL     1       3.116  15.615   1.577  1.00  0.00    -0.004 C 
ATOM      6  C   UNL     1       1.784  15.267   2.256  1.00  0.00     0.007 C 
ATOM      7  C   UNL     1       1.335  13.891   1.643  1.00  0.00    -0.013 C 
ATOM      8  C   UNL     1       1.229  14.190   3.135  1.00  0.00     0.025 C 
ATOM      9  C   UNL     1       2.234  13.307   3.789  1.00  0.00    -0.073 C 
ATOM     10  C   UNL     1       2.828  12.493   2.934  1.00  0.00    -0.027 C 
ATOM     11  C   UNL     1       2.325  12.692   1.550  1.00  0.00     0.035 C 
ATOM     12  C   UNL     1       2.532  13.331   5.256  1.00  0.00     0.039 C 
ENDROOT
BRANCH   5  13
ATOM     13  C   UNL     1       3.783  16.821   2.299  1.00  0.00    -0.014 C 
ATOM     14  C   UNL     1       4.857  16.345   3.293  1.00  0.00     0.007 C 
ATOM     15  C   UNL     1       4.421  17.803   1.301  1.00  0.00     0.007 C 
ENDBRANCH   5  13
TORSDOF 1
ENDMDL
MODEL 7
REMARK VINA RESULT:    -5.314      1.419      3.825
REMARK INTER + INTRA:          -5.980
REMARK INTER:                  -5.573
REMARK INTRA:                  -0.407
REMARK UNBOUND:                -0.355
REMARK SMILES CC1=CC[C@@]23[C@H]([C@H](C(C)C)CC[C@H]2C)[C@H]13
REMARK SMILES IDX 14 1 13 2 12 3 11 4 7 5 6 6 5 7 15 8 2 9 3 10 4 11 1 12 8 13
REMARK SMILES IDX 9 14 10 15
REMARK H PARENT
REMARK Flexibility Score: inf
ROOT
ATOM      1  C   UNL     1      -0.080  13.172   6.501  1.00  0.00     0.008 C 
ATOM      2  C   UNL     1       0.277  13.940   5.224  1.00  0.00    -0.007 C 
ATOM      3  C   UNL     1      -0.833  13.773   4.141  1.00  0.00     0.004 C 
ATOM      4  C   UNL     1      -0.462  14.362   2.744  1.00  0.00     0.004 C 
ATOM      5  C   UNL     1       1.025  14.142   2.308  1.00  0.00    -0.004 C 
ATOM      6  C   UNL     1       1.862  14.554   3.528  1.00  0.00     0.007 C 
ATOM      7  C   UNL     1       1.607  13.448   4.616  1.00  0.00    -0.013 C 
ATOM      8  C   UNL     1       2.998  14.008   4.335  1.00  0.00     0.025 C 
ATOM      9  C   UNL     1       3.757  12.890   3.711  1.00  0.00    -0.073 C 
ATOM     10  C   UNL     1       3.064  11.764   3.673  1.00  0.00    -0.027 C 
ATOM     11  C   UNL     1       1.711  11.935   4.264  1.00  0.00     0.035 C 
ATOM     12  C   UNL     1       5.155  13.021   3.192  1.00  0.00     0.039 C 
ENDROOT
BRANCH   5  13
ATOM     13  C   UNL     1       1.407  15.018   1.080  1.00  0.00    -0.014 C 
ATOM     14  C   UNL     1       2.575  15.962   1.417  1.00  0.00     0.007 C 
ATOM     15  C   UNL     1       1.789  14.159  -0.137  1.00  0.00     0.007 C 
ENDBRANCH   5  13
TORSDOF 1
ENDMDL
MODEL 8
REMARK VINA RESULT:    -5.228      1.413      2.197
REMARK INTER + INTRA:          -5.888
REMARK INTER:                  -5.360
REMARK INTRA:                  -0.529
REMARK UNBOUND:                -0.355
REMARK SMILES CC1=CC[C@@]23[C@H]([C@H](C(C)C)CC[C@H]2C)[C@H]13
REMARK SMILES IDX 14 1 13 2 12 3 11 4 7 5 6 6 5 7 15 8 2 9 3 10 4 11 1 12 8 13
REMARK SMILES IDX 9 14 10 15
REMARK H PARENT
REMARK Flexibility Score: inf
ROOT
ATOM      1  C   UNL     1       2.279  13.028   3.697  1.00  0.00     0.008 C 
ATOM      2  C   UNL     1       2.486  13.724   2.347  1.00  0.00    -0.007 C 
ATOM      3  C   UNL     1       2.997  15.184   2.544  1.00  0.00     0.004 C 
ATOM      4  C   UNL     1       3.050  16.028   1.231  1.00  0.00     0.004 C 
ATOM      5  C   UNL     1       1.854  15.796   0.249  1.00  0.00    -0.004 C 
ATOM      6  C   UNL     1       1.719  14.271   0.139  1.00  0.00     0.007 C 
ATOM      7  C   UNL     1       1.177  13.787   1.533  1.00  0.00    -0.013 C 
ATOM      8  C   UNL     1       0.636  13.240   0.216  1.00  0.00     0.025 C 
ATOM      9  C   UNL     1      -0.757  13.755   0.114  1.00  0.00    -0.073 C 
ATOM     10  C   UNL     1      -1.131  14.426   1.191  1.00  0.00    -0.027 C 
ATOM     11  C   UNL     1      -0.045  14.480   2.205  1.00  0.00     0.035 C 
ATOM     12  C   UNL     1      -1.642  13.531  -1.072  1.00  0.00     0.039 C 
ENDROOT
BRANCH   5  13
ATOM     13  C   UNL     1       2.127  16.409  -1.155  1.00  0.00    -0.014 C 
ATOM     14  C   UNL     1       3.251  15.647  -1.881  1.00  0.00     0.007 C 
ATOM     15  C   UNL     1       0.866  16.405  -2.036  1.00  0.00     0.007 C 
ENDBRANCH   5  13
TORSDOF 1
ENDMDL
MODEL 9
REMARK VINA RESULT:    -5.085      1.674      3.847
REMARK INTER + INTRA:          -5.737
REMARK INTER:                  -5.363
REMARK INTRA:                  -0.374
REMARK UNBOUND:                -0.355
REMARK SMILES CC1=CC[C@@]23[C@H]([C@H](C(C)C)CC[C@H]2C)[C@H]13
REMARK SMILES IDX 14 1 13 2 12 3 11 4 7 5 6 6 5 7 15 8 2 9 3 10 4 11 1 12 8 13
REMARK SMILES IDX 9 14 10 15
REMARK H PARENT
REMARK Flexibility Score: inf
ROOT
ATOM      1  C   UNL     1       3.406  13.741   3.406  1.00  0.00     0.008 C 
ATOM      2  C   UNL     1       2.045  14.386   3.120  1.00  0.00    -0.007 C 
ATOM      3  C   UNL     1       0.902  13.636   3.869  1.00  0.00     0.004 C 
ATOM      4  C   UNL     1      -0.536  14.106   3.481  1.00  0.00     0.004 C 
ATOM      5  C   UNL     1      -0.740  14.424   1.963  1.00  0.00    -0.004 C 
ATOM      6  C   UNL     1       0.453  15.309   1.577  1.00  0.00     0.007 C 
ATOM      7  C   UNL     1       1.713  14.369   1.613  1.00  0.00    -0.013 C 
ATOM      8  C   UNL     1       1.483  15.380   0.493  1.00  0.00     0.025 C 
ATOM      9  C   UNL     1       1.202  14.569  -0.722  1.00  0.00    -0.073 C 
ATOM     10  C   UNL     1       1.322  13.270  -0.506  1.00  0.00    -0.027 C 
ATOM     11  C   UNL     1       1.704  12.984   0.902  1.00  0.00     0.035 C 
ATOM     12  C   UNL     1       0.833  15.158  -2.048  1.00  0.00     0.039 C 
ENDROOT
BRANCH   5  13
ATOM     13  C   UNL     1      -2.073  15.183   1.701  1.00  0.00    -0.014 C 
ATOM     14  C   UNL     1      -2.747  15.588   3.024  1.00  0.00     0.007 C 
ATOM     15  C   UNL     1      -1.854  16.440   0.842  1.00  0.00     0.007 C 
ENDBRANCH   5  13
TORSDOF 1
ENDMDL
