MODEL 1
REMARK VINA RESULT:    -5.610      0.000      0.000
REMARK INTER + INTRA:          -5.610
REMARK INTER:                  -5.610
REMARK INTRA:                   0.000
REMARK UNBOUND:                 0.000
REMARK SMILES CC1=CC(=O)[C@@H]2C[C@H]1C2(C)C
REMARK SMILES IDX 1 1 2 2 3 3 4 4 5 5 6 6 7 7 8 8 9 9 10 10 11 11
REMARK H PARENT
REMARK Flexibility Score: inf
ROOT
ATOM      1  C   UNL     1      -8.714  33.699  24.648  1.00  0.00     0.040 C 
ATOM      2  C   UNL     1      -8.623  33.155  23.257  1.00  0.00    -0.066 C 
ATOM      3  C   UNL     1      -7.899  33.773  22.281  1.00  0.00     0.047 C 
ATOM      4  C   UNL     1      -7.900  33.110  20.936  1.00  0.00     0.159 C 
ATOM      5  O   UNL     1      -7.236  33.559  19.965  1.00  0.00    -0.295 OA
ATOM      6  C   UNL     1      -8.763  31.853  20.827  1.00  0.00     0.067 C 
ATOM      7  C   UNL     1     -10.089  32.245  21.514  1.00  0.00     0.021 C 
ATOM      8  C   UNL     1      -9.401  31.887  22.851  1.00  0.00     0.022 C 
ATOM      9  C   UNL     1      -8.464  30.939  22.048  1.00  0.00    -0.019 C 
ATOM     10  C   UNL     1      -6.989  30.793  22.519  1.00  0.00     0.012 C 
ATOM     11  C   UNL     1      -9.062  29.519  21.884  1.00  0.00     0.012 C 
ENDROOT
TORSDOF 0
ENDMDL
MODEL 2
REMARK VINA RESULT:    -5.365     16.386     17.938
REMARK INTER + INTRA:          -5.365
REMARK INTER:                  -5.365
REMARK INTRA:                   0.000
REMARK UNBOUND:                 0.000
REMARK SMILES CC1=CC(=O)[C@@H]2C[C@H]1C2(C)C
REMARK SMILES IDX 1 1 2 2 3 3 4 4 5 5 6 6 7 7 8 8 9 9 10 10 11 11
REMARK H PARENT
REMARK Flexibility Score: inf
ROOT
ATOM      1  C   UNL     1       6.596  29.865  29.345  1.00  0.00     0.040 C 
ATOM      2  C   UNL     1       7.337  30.878  28.530  1.00  0.00    -0.066 C 
ATOM      3  C   UNL     1       6.822  31.405  27.383  1.00  0.00     0.047 C 
ATOM      4  C   UNL     1       7.679  32.411  26.674  1.00  0.00     0.159 C 
ATOM      5  O   UNL     1       7.299  33.001  25.629  1.00  0.00    -0.295 OA
ATOM      6  C   UNL     1       9.046  32.669  27.309  1.00  0.00     0.067 C 
ATOM      7  C   UNL     1       9.585  31.257  27.628  1.00  0.00     0.021 C 
ATOM      8  C   UNL     1       8.756  31.330  28.930  1.00  0.00     0.022 C 
ATOM      9  C   UNL     1       8.851  32.881  28.837  1.00  0.00    -0.019 C 
ATOM     10  C   UNL     1       7.634  33.721  29.317  1.00  0.00     0.012 C 
ATOM     11  C   UNL     1      10.124  33.435  29.523  1.00  0.00     0.012 C 
ENDROOT
TORSDOF 0
ENDMDL
MODEL 3
REMARK VINA RESULT:    -5.318      1.472      3.258
REMARK INTER + INTRA:          -5.318
REMARK INTER:                  -5.318
REMARK INTRA:                   0.000
REMARK UNBOUND:                 0.000
REMARK SMILES CC1=CC(=O)[C@@H]2C[C@H]1C2(C)C
REMARK SMILES IDX 1 1 2 2 3 3 4 4 5 5 6 6 7 7 8 8 9 9 10 10 11 11
REMARK H PARENT
REMARK Flexibility Score: inf
ROOT
ATOM      1  C   UNL     1      -6.750  29.705  23.499  1.00  0.00     0.040 C 
ATOM      2  C   UNL     1      -7.627  30.750  22.885  1.00  0.00    -0.066 C 
ATOM      3  C   UNL     1      -8.465  30.476  21.844  1.00  0.00     0.047 C 
ATOM      4  C   UNL     1      -9.284  31.625  21.335  1.00  0.00     0.159 C 
ATOM      5  O   UNL     1     -10.125  31.491  20.408  1.00  0.00    -0.295 OA
ATOM      6  C   UNL     1      -9.027  32.967  22.020  1.00  0.00     0.067 C 
ATOM      7  C   UNL     1      -7.487  33.066  22.089  1.00  0.00     0.021 C 
ATOM      8  C   UNL     1      -7.577  32.212  23.374  1.00  0.00     0.022 C 
ATOM      9  C   UNL     1      -9.027  32.746  23.559  1.00  0.00    -0.019 C 
ATOM     10  C   UNL     1     -10.090  31.788  24.168  1.00  0.00     0.012 C 
ATOM     11  C   UNL     1      -9.068  34.079  24.347  1.00  0.00     0.012 C 
ENDROOT
TORSDOF 0
ENDMDL
MODEL 4
REMARK VINA RESULT:    -5.264      1.544      2.084
REMARK INTER + INTRA:          -5.264
REMARK INTER:                  -5.264
REMARK INTRA:                   0.000
REMARK UNBOUND:                 0.000
REMARK SMILES CC1=CC(=O)[C@@H]2C[C@H]1C2(C)C
REMARK SMILES IDX 1 1 2 2 3 3 4 4 5 5 6 6 7 7 8 8 9 9 10 10 11 11
REMARK H PARENT
REMARK Flexibility Score: inf
ROOT
ATOM      1  C   UNL     1      -7.163  34.815  22.998  1.00  0.00     0.040 C 
ATOM      2  C   UNL     1      -8.021  33.610  22.774  1.00  0.00    -0.066 C 
ATOM      3  C   UNL     1      -8.411  33.217  21.528  1.00  0.00     0.047 C 
ATOM      4  C   UNL     1      -9.269  31.989  21.459  1.00  0.00     0.159 C 
ATOM      5  O   UNL     1      -9.657  31.501  20.366  1.00  0.00    -0.295 OA
ATOM      6  C   UNL     1      -9.637  31.372  22.809  1.00  0.00     0.067 C 
ATOM      7  C   UNL     1     -10.058  32.581  23.673  1.00  0.00     0.021 C 
ATOM      8  C   UNL     1      -8.554  32.786  23.964  1.00  0.00     0.022 C 
ATOM      9  C   UNL     1      -8.350  31.270  23.675  1.00  0.00    -0.019 C 
ATOM     10  C   UNL     1      -7.029  30.824  22.987  1.00  0.00     0.012 C 
ATOM     11  C   UNL     1      -8.557  30.397  24.939  1.00  0.00     0.012 C 
ENDROOT
TORSDOF 0
ENDMDL
MODEL 5
REMARK VINA RESULT:    -5.061      2.308      3.396
REMARK INTER + INTRA:          -5.061
REMARK INTER:                  -5.061
REMARK INTRA:                   0.000
REMARK UNBOUND:                 0.000
REMARK SMILES CC1=CC(=O)[C@@H]2C[C@H]1C2(C)C
REMARK SMILES IDX 1 1 2 2 3 3 4 4 5 5 6 6 7 7 8 8 9 9 10 10 11 11
REMARK H PARENT
REMARK Flexibility Score: inf
ROOT
ATOM      1  C   UNL     1      -8.578  33.342  25.678  1.00  0.00     0.040 C 
ATOM      2  C   UNL     1      -8.538  32.237  24.670  1.00  0.00    -0.066 C 
ATOM      3  C   UNL     1      -9.198  31.058  24.857  1.00  0.00     0.047 C 
ATOM      4  C   UNL     1      -9.066  30.044  23.759  1.00  0.00     0.159 C 
ATOM      5  O   UNL     1      -9.661  28.936  23.794  1.00  0.00    -0.295 OA
ATOM      6  C   UNL     1      -8.161  30.453  22.597  1.00  0.00     0.067 C 
ATOM      7  C   UNL     1      -6.908  31.039  23.283  1.00  0.00     0.021 C 
ATOM      8  C   UNL     1      -7.693  32.366  23.387  1.00  0.00     0.022 C 
ATOM      9  C   UNL     1      -8.533  31.899  22.163  1.00  0.00    -0.019 C 
ATOM     10  C   UNL     1     -10.037  32.291  22.112  1.00  0.00     0.012 C 
ATOM     11  C   UNL     1      -7.882  32.296  20.814  1.00  0.00     0.012 C 
ENDROOT
TORSDOF 0
ENDMDL
MODEL 6
REMARK VINA RESULT:    -5.036     16.060     17.312
REMARK INTER + INTRA:          -5.036
REMARK INTER:                  -5.036
REMARK INTRA:                   0.000
REMARK UNBOUND:                 0.000
REMARK SMILES CC1=CC(=O)[C@@H]2C[C@H]1C2(C)C
REMARK SMILES IDX 1 1 2 2 3 3 4 4 5 5 6 6 7 7 8 8 9 9 10 10 11 11
REMARK H PARENT
REMARK Flexibility Score: inf
ROOT
ATOM      1  C   UNL     1       8.856  33.618  30.125  1.00  0.00     0.040 C 
ATOM      2  C   UNL     1       8.182  32.844  29.035  1.00  0.00    -0.066 C 
ATOM      3  C   UNL     1       8.150  33.283  27.745  1.00  0.00     0.047 C 
ATOM      4  C   UNL     1       7.440  32.401  26.763  1.00  0.00     0.159 C 
ATOM      5  O   UNL     1       7.378  32.674  25.536  1.00  0.00    -0.295 OA
ATOM      6  C   UNL     1       6.797  31.146  27.356  1.00  0.00     0.067 C 
ATOM      7  C   UNL     1       6.077  31.656  28.624  1.00  0.00     0.021 C 
ATOM      8  C   UNL     1       7.439  31.529  29.343  1.00  0.00     0.022 C 
ATOM      9  C   UNL     1       7.831  30.453  28.288  1.00  0.00    -0.019 C 
ATOM     10  C   UNL     1       9.313  30.385  27.826  1.00  0.00     0.012 C 
ATOM     11  C   UNL     1       7.386  29.029  28.706  1.00  0.00     0.012 C 
ENDROOT
TORSDOF 0
ENDMDL
MODEL 7
REMARK VINA RESULT:    -4.632     16.788     18.139
REMARK INTER + INTRA:          -4.632
REMARK INTER:                  -4.632
REMARK INTRA:                   0.000
REMARK UNBOUND:                 0.000
REMARK SMILES CC1=CC(=O)[C@@H]2C[C@H]1C2(C)C
REMARK SMILES IDX 1 1 2 2 3 3 4 4 5 5 6 6 7 7 8 8 9 9 10 10 11 11
REMARK H PARENT
REMARK Flexibility Score: inf
ROOT
ATOM      1  C   UNL     1      -2.233  46.116  11.082  1.00  0.00     0.040 C 
ATOM      2  C   UNL     1      -2.000  46.367  12.539  1.00  0.00    -0.066 C 
ATOM      3  C   UNL     1      -2.968  46.158  13.476  1.00  0.00     0.047 C 
ATOM      4  C   UNL     1      -2.588  46.453  14.897  1.00  0.00     0.159 C 
ATOM      5  O   UNL     1      -3.378  46.260  15.857  1.00  0.00    -0.295 OA
ATOM      6  C   UNL     1      -1.175  47.002  15.096  1.00  0.00     0.067 C 
ATOM      7  C   UNL     1      -1.033  48.082  14.001  1.00  0.00     0.021 C 
ATOM      8  C   UNL     1      -0.656  46.934  13.039  1.00  0.00     0.022 C 
ATOM      9  C   UNL     1      -0.183  46.124  14.281  1.00  0.00    -0.019 C 
ATOM     10  C   UNL     1      -0.391  44.584  14.277  1.00  0.00     0.012 C 
ATOM     11  C   UNL     1       1.295  46.413  14.645  1.00  0.00     0.012 C 
ENDROOT
TORSDOF 0
ENDMDL
MODEL 8
REMARK VINA RESULT:    -4.605      2.038      3.681
REMARK INTER + INTRA:          -4.605
REMARK INTER:                  -4.605
REMARK INTRA:                   0.000
REMARK UNBOUND:                 0.000
REMARK SMILES CC1=CC(=O)[C@@H]2C[C@H]1C2(C)C
REMARK SMILES IDX 1 1 2 2 3 3 4 4 5 5 6 6 7 7 8 8 9 9 10 10 11 11
REMARK H PARENT
REMARK Flexibility Score: inf
ROOT
ATOM      1  C   UNL     1      -7.520  32.794  20.003  1.00  0.00     0.040 C 
ATOM      2  C   UNL     1      -7.949  32.611  21.425  1.00  0.00    -0.066 C 
ATOM      3  C   UNL     1      -7.551  31.542  22.172  1.00  0.00     0.047 C 
ATOM      4  C   UNL     1      -8.060  31.493  23.582  1.00  0.00     0.159 C 
ATOM      5  O   UNL     1      -7.730  30.582  24.384  1.00  0.00    -0.295 OA
ATOM      6  C   UNL     1      -9.007  32.628  23.975  1.00  0.00     0.067 C 
ATOM      7  C   UNL     1      -9.986  32.731  22.785  1.00  0.00     0.021 C 
ATOM      8  C   UNL     1      -8.917  33.607  22.093  1.00  0.00     0.022 C 
ATOM      9  C   UNL     1      -8.386  33.975  23.509  1.00  0.00    -0.019 C 
ATOM     10  C   UNL     1      -6.855  34.184  23.687  1.00  0.00     0.012 C 
ATOM     11  C   UNL     1      -9.116  35.202  24.112  1.00  0.00     0.012 C 
ENDROOT
TORSDOF 0
ENDMDL
MODEL 9
REMARK VINA RESULT:    -4.561     16.845     18.309
REMARK INTER + INTRA:          -4.561
REMARK INTER:                  -4.561
REMARK INTRA:                   0.000
REMARK UNBOUND:                 0.000
REMARK SMILES CC1=CC(=O)[C@@H]2C[C@H]1C2(C)C
REMARK SMILES IDX 1 1 2 2 3 3 4 4 5 5 6 6 7 7 8 8 9 9 10 10 11 11
REMARK H PARENT
REMARK Flexibility Score: inf
ROOT
ATOM      1  C   UNL     1       0.533  49.118  13.240  1.00  0.00     0.040 C 
ATOM      2  C   UNL     1       0.083  47.764  13.690  1.00  0.00    -0.066 C 
ATOM      3  C   UNL     1       0.959  46.815  14.128  1.00  0.00     0.047 C 
ATOM      4  C   UNL     1       0.361  45.505  14.548  1.00  0.00     0.159 C 
ATOM      5  O   UNL     1       1.059  44.565  15.010  1.00  0.00    -0.295 OA
ATOM      6  C   UNL     1      -1.154  45.393  14.376  1.00  0.00     0.067 C 
ATOM      7  C   UNL     1      -1.416  45.964  12.965  1.00  0.00     0.021 C 
ATOM      8  C   UNL     1      -1.404  47.362  13.623  1.00  0.00     0.022 C 
ATOM      9  C   UNL     1      -1.815  46.674  14.958  1.00  0.00    -0.019 C 
ATOM     10  C   UNL     1      -1.256  47.256  16.287  1.00  0.00     0.012 C 
ATOM     11  C   UNL     1      -3.352  46.533  15.099  1.00  0.00     0.012 C 
ENDROOT
TORSDOF 0
ENDMDL
