MODEL 1
REMARK VINA RESULT:    -3.331      0.000      0.000
REMARK INTER + INTRA:          -7.370
REMARK INTER:                  -5.668
REMARK INTRA:                  -1.702
REMARK UNBOUND:                -1.702
REMARK SMILES CCCCCCCCCCCCCC(=O)[O-]
REMARK SMILES IDX 8 1 9 2 10 3 11 4 12 5 13 6 14 7 15 8 16 9 7 10 6 11 5 12
REMARK SMILES IDX 4 13 3 14 2 15 1 16
REMARK H PARENT
REMARK Flexibility Score: inf
ROOT
ATOM      1  C   UNL     1      64.519  32.992  59.571  1.00  0.00     0.000 C 
ENDROOT
BRANCH   1   2
ATOM      2  C   UNL     1      64.029  33.527  60.925  1.00  0.00     0.000 C 
BRANCH   2   3
ATOM      3  C   UNL     1      64.679  34.869  61.299  1.00  0.00     0.000 C 
BRANCH   3   4
ATOM      4  C   UNL     1      63.657  36.016  61.391  1.00  0.00     0.000 C 
BRANCH   4   5
ATOM      5  C   UNL     1      62.241  35.583  60.971  1.00  0.00     0.006 C 
BRANCH   5   6
ATOM      6  C   UNL     1      61.645  36.409  59.820  1.00  0.00     0.053 C 
BRANCH   6   7
ATOM      7  C   UNL     1      61.897  35.776  58.486  1.00  0.00     0.041 C 
ATOM      8  O   UNL     1      60.958  35.214  57.864  1.00  0.00    -0.550 OA
ATOM      9  O   UNL     1      63.161  35.840  57.915  1.00  0.00    -0.550 OA
ENDBRANCH   6   7
ENDBRANCH   5   6
ENDBRANCH   4   5
ENDBRANCH   3   4
ENDBRANCH   2   3
ENDBRANCH   1   2
BRANCH   1  10
ATOM     10  C   UNL     1      64.901  31.510  59.670  1.00  0.00     0.000 C 
BRANCH  10  11
ATOM     11  C   UNL     1      64.301  30.870  60.931  1.00  0.00    -0.000 C 
BRANCH  11  12
ATOM     12  C   UNL     1      63.429  29.645  60.617  1.00  0.00    -0.000 C 
BRANCH  12  13
ATOM     13  C   UNL     1      62.274  29.466  61.614  1.00  0.00    -0.000 C 
BRANCH  13  14
ATOM     14  C   UNL     1      61.510  30.785  61.810  1.00  0.00    -0.000 C 
BRANCH  14  15
ATOM     15  C   UNL     1      60.457  31.025  60.717  1.00  0.00    -0.003 C 
ATOM     16  C   UNL     1      60.774  32.243  59.848  1.00  0.00     0.004 C 
ENDBRANCH  14  15
ENDBRANCH  13  14
ENDBRANCH  12  13
ENDBRANCH  11  12
ENDBRANCH  10  11
ENDBRANCH   1  10
TORSDOF 12
ENDMDL
MODEL 2
REMARK VINA RESULT:    -3.282     12.006     13.815
REMARK INTER + INTRA:          -7.287
REMARK INTER:                  -5.971
REMARK INTRA:                  -1.316
REMARK UNBOUND:                -1.702
REMARK SMILES CCCCCCCCCCCCCC(=O)[O-]
REMARK SMILES IDX 8 1 9 2 10 3 11 4 12 5 13 6 14 7 15 8 16 9 7 10 6 11 5 12
REMARK SMILES IDX 4 13 3 14 2 15 1 16
REMARK H PARENT
REMARK Flexibility Score: inf
ROOT
ATOM      1  C   UNL     1      59.951  27.313  49.684  1.00  0.00     0.000 C 
ENDROOT
BRANCH   1   2
ATOM      2  C   UNL     1      59.253  25.950  49.808  1.00  0.00     0.000 C 
BRANCH   2   3
ATOM      3  C   UNL     1      59.197  25.446  51.259  1.00  0.00     0.000 C 
BRANCH   3   4
ATOM      4  C   UNL     1      59.703  24.000  51.402  1.00  0.00     0.000 C 
BRANCH   4   5
ATOM      5  C   UNL     1      60.558  23.549  50.205  1.00  0.00     0.006 C 
BRANCH   5   6
ATOM      6  C   UNL     1      61.938  22.992  50.588  1.00  0.00     0.053 C 
BRANCH   6   7
ATOM      7  C   UNL     1      63.009  24.035  50.495  1.00  0.00     0.041 C 
ATOM      8  O   UNL     1      62.706  25.257  50.500  1.00  0.00    -0.550 OA
ATOM      9  O   UNL     1      64.345  23.657  50.438  1.00  0.00    -0.550 OA
ENDBRANCH   6   7
ENDBRANCH   5   6
ENDBRANCH   4   5
ENDBRANCH   3   4
ENDBRANCH   2   3
ENDBRANCH   1   2
BRANCH   1  10
ATOM     10  C   UNL     1      58.957  28.405  49.271  1.00  0.00     0.000 C 
BRANCH  10  11
ATOM     11  C   UNL     1      58.525  29.244  50.483  1.00  0.00    -0.000 C 
BRANCH  11  12
ATOM     12  C   UNL     1      57.000  29.276  50.669  1.00  0.00    -0.000 C 
BRANCH  12  13
ATOM     13  C   UNL     1      56.445  27.963  51.240  1.00  0.00    -0.000 C 
BRANCH  13  14
ATOM     14  C   UNL     1      55.337  27.398  50.338  1.00  0.00    -0.000 C 
BRANCH  14  15
ATOM     15  C   UNL     1      55.501  25.893  50.074  1.00  0.00    -0.003 C 
ATOM     16  C   UNL     1      54.218  25.239  49.560  1.00  0.00     0.004 C 
ENDBRANCH  14  15
ENDBRANCH  13  14
ENDBRANCH  12  13
ENDBRANCH  11  12
ENDBRANCH  10  11
ENDBRANCH   1  10
TORSDOF 12
ENDMDL
MODEL 3
REMARK VINA RESULT:    -3.260     12.225     13.975
REMARK INTER + INTRA:          -7.249
REMARK INTER:                  -5.784
REMARK INTRA:                  -1.465
REMARK UNBOUND:                -1.702
REMARK SMILES CCCCCCCCCCCCCC(=O)[O-]
REMARK SMILES IDX 8 1 9 2 10 3 11 4 12 5 13 6 14 7 15 8 16 9 7 10 6 11 5 12
REMARK SMILES IDX 4 13 3 14 2 15 1 16
REMARK H PARENT
REMARK Flexibility Score: inf
ROOT
ATOM      1  C   UNL     1      58.286  28.730  50.815  1.00  0.00     0.000 C 
ENDROOT
BRANCH   1   2
ATOM      2  C   UNL     1      59.055  28.697  49.486  1.00  0.00     0.000 C 
BRANCH   2   3
ATOM      3  C   UNL     1      60.270  27.756  49.532  1.00  0.00     0.000 C 
BRANCH   3   4
ATOM      4  C   UNL     1      60.125  26.654  50.596  1.00  0.00     0.000 C 
BRANCH   4   5
ATOM      5  C   UNL     1      59.515  25.359  50.031  1.00  0.00     0.006 C 
BRANCH   5   6
ATOM      6  C   UNL     1      59.787  24.109  50.882  1.00  0.00     0.053 C 
BRANCH   6   7
ATOM      7  C   UNL     1      60.894  23.274  50.314  1.00  0.00     0.041 C 
ATOM      8  O   UNL     1      62.085  23.679  50.365  1.00  0.00    -0.550 OA
ATOM      9  O   UNL     1      60.612  22.032  49.760  1.00  0.00    -0.550 OA
ENDBRANCH   6   7
ENDBRANCH   5   6
ENDBRANCH   4   5
ENDBRANCH   3   4
ENDBRANCH   2   3
ENDBRANCH   1   2
BRANCH   1  10
ATOM     10  C   UNL     1      56.841  29.199  50.602  1.00  0.00     0.000 C 
BRANCH  10  11
ATOM     11  C   UNL     1      55.851  28.041  50.801  1.00  0.00    -0.000 C 
BRANCH  11  12
ATOM     12  C   UNL     1      56.468  26.858  51.563  1.00  0.00    -0.000 C 
BRANCH  12  13
ATOM     13  C   UNL     1      55.923  25.501  51.095  1.00  0.00    -0.000 C 
BRANCH  13  14
ATOM     14  C   UNL     1      55.307  25.612  49.692  1.00  0.00    -0.000 C 
BRANCH  14  15
ATOM     15  C   UNL     1      53.889  25.024  49.621  1.00  0.00    -0.003 C 
ATOM     16  C   UNL     1      53.181  25.023  50.976  1.00  0.00     0.004 C 
ENDBRANCH  14  15
ENDBRANCH  13  14
ENDBRANCH  12  13
ENDBRANCH  11  12
ENDBRANCH  10  11
ENDBRANCH   1  10
TORSDOF 12
ENDMDL
MODEL 4
REMARK VINA RESULT:    -3.212      1.751      3.252
REMARK INTER + INTRA:          -7.166
REMARK INTER:                  -5.278
REMARK INTRA:                  -1.889
REMARK UNBOUND:                -1.702
REMARK SMILES CCCCCCCCCCCCCC(=O)[O-]
REMARK SMILES IDX 8 1 9 2 10 3 11 4 12 5 13 6 14 7 15 8 16 9 7 10 6 11 5 12
REMARK SMILES IDX 4 13 3 14 2 15 1 16
REMARK H PARENT
REMARK Flexibility Score: inf
ROOT
ATOM      1  C   UNL     1      63.350  29.302  59.977  1.00  0.00     0.000 C 
ENDROOT
BRANCH   1   2
ATOM      2  C   UNL     1      64.451  30.221  60.527  1.00  0.00     0.000 C 
BRANCH   2   3
ATOM      3  C   UNL     1      64.506  31.575  59.800  1.00  0.00     0.000 C 
BRANCH   3   4
ATOM      4  C   UNL     1      64.441  32.770  60.769  1.00  0.00     0.000 C 
BRANCH   4   5
ATOM      5  C   UNL     1      63.209  33.660  60.531  1.00  0.00     0.006 C 
BRANCH   5   6
ATOM      6  C   UNL     1      63.375  35.109  61.017  1.00  0.00     0.053 C 
BRANCH   6   7
ATOM      7  C   UNL     1      64.688  35.694  60.597  1.00  0.00     0.041 C 
ATOM      8  O   UNL     1      64.894  35.989  59.390  1.00  0.00    -0.550 OA
ATOM      9  O   UNL     1      65.670  35.949  61.546  1.00  0.00    -0.550 OA
ENDBRANCH   6   7
ENDBRANCH   5   6
ENDBRANCH   4   5
ENDBRANCH   3   4
ENDBRANCH   2   3
ENDBRANCH   1   2
BRANCH   1  10
ATOM     10  C   UNL     1      62.375  28.887  61.086  1.00  0.00     0.000 C 
BRANCH  10  11
ATOM     11  C   UNL     1      62.014  30.084  61.978  1.00  0.00    -0.000 C 
BRANCH  11  12
ATOM     12  C   UNL     1      60.788  30.857  61.465  1.00  0.00    -0.000 C 
BRANCH  12  13
ATOM     13  C   UNL     1      59.813  29.968  60.680  1.00  0.00    -0.000 C 
BRANCH  13  14
ATOM     14  C   UNL     1      59.604  30.507  59.257  1.00  0.00    -0.000 C 
BRANCH  14  15
ATOM     15  C   UNL     1      60.371  31.814  59.002  1.00  0.00    -0.003 C 
ATOM     16  C   UNL     1      61.368  31.699  57.848  1.00  0.00     0.004 C 
ENDBRANCH  14  15
ENDBRANCH  13  14
ENDBRANCH  12  13
ENDBRANCH  11  12
ENDBRANCH  10  11
ENDBRANCH   1  10
TORSDOF 12
ENDMDL
MODEL 5
REMARK VINA RESULT:    -3.193     11.649     13.392
REMARK INTER + INTRA:          -7.134
REMARK INTER:                  -5.266
REMARK INTRA:                  -1.868
REMARK UNBOUND:                -1.702
REMARK SMILES CCCCCCCCCCCCCC(=O)[O-]
REMARK SMILES IDX 8 1 9 2 10 3 11 4 12 5 13 6 14 7 15 8 16 9 7 10 6 11 5 12
REMARK SMILES IDX 4 13 3 14 2 15 1 16
REMARK H PARENT
REMARK Flexibility Score: inf
ROOT
ATOM      1  C   UNL     1      56.554  26.874  51.949  1.00  0.00     0.000 C 
ENDROOT
BRANCH   1   2
ATOM      2  C   UNL     1      56.688  28.252  52.615  1.00  0.00     0.000 C 
BRANCH   2   3
ATOM      3  C   UNL     1      56.946  29.375  51.597  1.00  0.00     0.000 C 
BRANCH   3   4
ATOM      4  C   UNL     1      57.373  28.838  50.219  1.00  0.00     0.000 C 
BRANCH   4   5
ATOM      5  C   UNL     1      58.807  29.247  49.841  1.00  0.00     0.006 C 
BRANCH   5   6
ATOM      6  C   UNL     1      59.648  28.112  49.235  1.00  0.00     0.053 C 
BRANCH   6   7
ATOM      7  C   UNL     1      59.646  26.890  50.100  1.00  0.00     0.041 C 
ATOM      8  O   UNL     1      60.159  26.925  51.250  1.00  0.00    -0.550 OA
ATOM      9  O   UNL     1      59.045  25.721  49.650  1.00  0.00    -0.550 OA
ENDBRANCH   6   7
ENDBRANCH   5   6
ENDBRANCH   4   5
ENDBRANCH   3   4
ENDBRANCH   2   3
ENDBRANCH   1   2
BRANCH   1  10
ATOM     10  C   UNL     1      55.552  25.993  52.705  1.00  0.00     0.000 C 
BRANCH  10  11
ATOM     11  C   UNL     1      54.791  25.072  51.740  1.00  0.00    -0.000 C 
BRANCH  11  12
ATOM     12  C   UNL     1      55.130  25.347  50.266  1.00  0.00    -0.000 C 
BRANCH  12  13
ATOM     13  C   UNL     1      53.884  25.621  49.412  1.00  0.00    -0.000 C 
BRANCH  13  14
ATOM     14  C   UNL     1      53.027  26.735  50.033  1.00  0.00    -0.000 C 
BRANCH  14  15
ATOM     15  C   UNL     1      53.724  28.104  50.000  1.00  0.00    -0.003 C 
ATOM     16  C   UNL     1      53.186  29.067  51.059  1.00  0.00     0.004 C 
ENDBRANCH  14  15
ENDBRANCH  13  14
ENDBRANCH  12  13
ENDBRANCH  11  12
ENDBRANCH  10  11
ENDBRANCH   1  10
TORSDOF 12
ENDMDL
MODEL 6
REMARK VINA RESULT:    -3.191      2.178      4.590
REMARK INTER + INTRA:          -7.131
REMARK INTER:                  -5.202
REMARK INTRA:                  -1.929
REMARK UNBOUND:                -1.702
REMARK SMILES CCCCCCCCCCCCCC(=O)[O-]
REMARK SMILES IDX 8 1 9 2 10 3 11 4 12 5 13 6 14 7 15 8 16 9 7 10 6 11 5 12
REMARK SMILES IDX 4 13 3 14 2 15 1 16
REMARK H PARENT
REMARK Flexibility Score: inf
ROOT
ATOM      1  C   UNL     1      62.790  29.143  60.623  1.00  0.00     0.000 C 
ENDROOT
BRANCH   1   2
ATOM      2  C   UNL     1      62.174  30.002  61.737  1.00  0.00     0.000 C 
BRANCH   2   3
ATOM      3  C   UNL     1      60.797  30.568  61.352  1.00  0.00     0.000 C 
BRANCH   3   4
ATOM      4  C   UNL     1      60.869  32.036  60.894  1.00  0.00     0.000 C 
BRANCH   4   5
ATOM      5  C   UNL     1      60.750  32.187  59.367  1.00  0.00     0.006 C 
BRANCH   5   6
ATOM      6  C   UNL     1      60.120  30.977  58.660  1.00  0.00     0.053 C 
BRANCH   6   7
ATOM      7  C   UNL     1      61.013  30.424  57.593  1.00  0.00     0.041 C 
ATOM      8  O   UNL     1      62.096  31.000  57.311  1.00  0.00    -0.550 OA
ATOM      9  O   UNL     1      60.664  29.251  56.934  1.00  0.00    -0.550 OA
ENDBRANCH   6   7
ENDBRANCH   5   6
ENDBRANCH   4   5
ENDBRANCH   3   4
ENDBRANCH   2   3
ENDBRANCH   1   2
BRANCH   1  10
ATOM     10  C   UNL     1      64.026  29.824  60.023  1.00  0.00     0.000 C 
BRANCH  10  11
ATOM     11  C   UNL     1      64.480  31.007  60.892  1.00  0.00    -0.000 C 
BRANCH  11  12
ATOM     12  C   UNL     1      64.538  32.329  60.110  1.00  0.00    -0.000 C 
BRANCH  12  13
ATOM     13  C   UNL     1      64.162  33.544  60.971  1.00  0.00    -0.000 C 
BRANCH  13  14
ATOM     14  C   UNL     1      63.468  34.622  60.124  1.00  0.00    -0.000 C 
BRANCH  14  15
ATOM     15  C   UNL     1      62.749  35.674  60.982  1.00  0.00    -0.003 C 
ATOM     16  C   UNL     1      61.248  35.741  60.701  1.00  0.00     0.004 C 
ENDBRANCH  14  15
ENDBRANCH  13  14
ENDBRANCH  12  13
ENDBRANCH  11  12
ENDBRANCH  10  11
ENDBRANCH   1  10
TORSDOF 12
ENDMDL
MODEL 7
REMARK VINA RESULT:    -3.187      2.102      2.985
REMARK INTER + INTRA:          -7.124
REMARK INTER:                  -5.154
REMARK INTRA:                  -1.971
REMARK UNBOUND:                -1.702
REMARK SMILES CCCCCCCCCCCCCC(=O)[O-]
REMARK SMILES IDX 8 1 9 2 10 3 11 4 12 5 13 6 14 7 15 8 16 9 7 10 6 11 5 12
REMARK SMILES IDX 4 13 3 14 2 15 1 16
REMARK H PARENT
REMARK Flexibility Score: inf
ROOT
ATOM      1  C   UNL     1      64.067  31.512  57.918  1.00  0.00     0.000 C 
ENDROOT
BRANCH   1   2
ATOM      2  C   UNL     1      63.274  32.821  58.052  1.00  0.00     0.000 C 
BRANCH   2   3
ATOM      3  C   UNL     1      61.812  32.585  58.466  1.00  0.00     0.000 C 
BRANCH   3   4
ATOM      4  C   UNL     1      61.340  33.568  59.553  1.00  0.00     0.000 C 
BRANCH   4   5
ATOM      5  C   UNL     1      62.456  33.935  60.547  1.00  0.00     0.006 C 
BRANCH   5   6
ATOM      6  C   UNL     1      62.594  35.442  60.812  1.00  0.00     0.053 C 
BRANCH   6   7
ATOM      7  C   UNL     1      63.912  35.783  61.439  1.00  0.00     0.041 C 
ATOM      8  O   UNL     1      64.174  36.973  61.756  1.00  0.00    -0.550 OA
ATOM      9  O   UNL     1      64.835  34.780  61.705  1.00  0.00    -0.550 OA
ENDBRANCH   6   7
ENDBRANCH   5   6
ENDBRANCH   4   5
ENDBRANCH   3   4
ENDBRANCH   2   3
ENDBRANCH   1   2
BRANCH   1  10
ATOM     10  C   UNL     1      63.150  30.295  58.084  1.00  0.00     0.000 C 
BRANCH  10  11
ATOM     11  C   UNL     1      63.616  29.409  59.249  1.00  0.00    -0.000 C 
BRANCH  11  12
ATOM     12  C   UNL     1      64.494  30.169  60.256  1.00  0.00    -0.000 C 
BRANCH  12  13
ATOM     13  C   UNL     1      63.719  30.606  61.508  1.00  0.00    -0.000 C 
BRANCH  13  14
ATOM     14  C   UNL     1      62.419  29.801  61.657  1.00  0.00    -0.000 C 
BRANCH  14  15
ATOM     15  C   UNL     1      61.177  30.700  61.754  1.00  0.00    -0.003 C 
ATOM     16  C   UNL     1      60.044  30.244  60.834  1.00  0.00     0.004 C 
ENDBRANCH  14  15
ENDBRANCH  13  14
ENDBRANCH  12  13
ENDBRANCH  11  12
ENDBRANCH  10  11
ENDBRANCH   1  10
TORSDOF 12
ENDMDL
MODEL 8
REMARK VINA RESULT:    -3.168      2.469      5.709
REMARK INTER + INTRA:          -7.093
REMARK INTER:                  -5.780
REMARK INTRA:                  -1.313
REMARK UNBOUND:                -1.702
REMARK SMILES CCCCCCCCCCCCCC(=O)[O-]
REMARK SMILES IDX 8 1 9 2 10 3 11 4 12 5 13 6 14 7 15 8 16 9 7 10 6 11 5 12
REMARK SMILES IDX 4 13 3 14 2 15 1 16
REMARK H PARENT
REMARK Flexibility Score: inf
ROOT
ATOM      1  C   UNL     1      61.126  32.307  58.394  1.00  0.00     0.000 C 
ENDROOT
BRANCH   1   2
ATOM      2  C   UNL     1      60.387  31.817  59.649  1.00  0.00     0.000 C 
BRANCH   2   3
ATOM      3  C   UNL     1      61.270  31.858  60.907  1.00  0.00     0.000 C 
BRANCH   3   4
ATOM      4  C   UNL     1      61.295  30.514  61.656  1.00  0.00     0.000 C 
BRANCH   4   5
ATOM      5  C   UNL     1      62.703  29.895  61.716  1.00  0.00     0.006 C 
BRANCH   5   6
ATOM      6  C   UNL     1      63.416  29.818  60.357  1.00  0.00     0.053 C 
BRANCH   6   7
ATOM      7  C   UNL     1      64.760  30.480  60.391  1.00  0.00     0.041 C 
ATOM      8  O   UNL     1      65.807  29.798  60.232  1.00  0.00    -0.550 OA
ATOM      9  O   UNL     1      64.853  31.855  60.562  1.00  0.00    -0.550 OA
ENDBRANCH   6   7
ENDBRANCH   5   6
ENDBRANCH   4   5
ENDBRANCH   3   4
ENDBRANCH   2   3
ENDBRANCH   1   2
BRANCH   1  10
ATOM     10  C   UNL     1      60.270  33.308  57.609  1.00  0.00     0.000 C 
BRANCH  10  11
ATOM     11  C   UNL     1      59.788  34.451  58.515  1.00  0.00    -0.000 C 
BRANCH  11  12
ATOM     12  C   UNL     1      60.937  35.353  58.993  1.00  0.00    -0.000 C 
BRANCH  12  13
ATOM     13  C   UNL     1      60.959  35.529  60.518  1.00  0.00    -0.000 C 
BRANCH  13  14
ATOM     14  C   UNL     1      62.337  36.011  60.996  1.00  0.00    -0.000 C 
BRANCH  14  15
ATOM     15  C   UNL     1      63.423  34.933  60.847  1.00  0.00    -0.003 C 
ATOM     16  C   UNL     1      64.700  35.271  61.616  1.00  0.00     0.004 C 
ENDBRANCH  14  15
ENDBRANCH  13  14
ENDBRANCH  12  13
ENDBRANCH  11  12
ENDBRANCH  10  11
ENDBRANCH   1  10
TORSDOF 12
ENDMDL
MODEL 9
REMARK VINA RESULT:    -3.134      1.645      4.120
REMARK INTER + INTRA:          -7.035
REMARK INTER:                  -5.372
REMARK INTRA:                  -1.663
REMARK UNBOUND:                -1.702
REMARK SMILES CCCCCCCCCCCCCC(=O)[O-]
REMARK SMILES IDX 8 1 9 2 10 3 11 4 12 5 13 6 14 7 15 8 16 9 7 10 6 11 5 12
REMARK SMILES IDX 4 13 3 14 2 15 1 16
REMARK H PARENT
REMARK Flexibility Score: inf
ROOT
ATOM      1  C   UNL     1      62.675  29.189  60.410  1.00  0.00     0.000 C 
ENDROOT
BRANCH   1   2
ATOM      2  C   UNL     1      62.287  30.002  61.654  1.00  0.00     0.000 C 
BRANCH   2   3
ATOM      3  C   UNL     1      60.892  30.637  61.531  1.00  0.00     0.000 C 
BRANCH   3   4
ATOM      4  C   UNL     1      60.934  32.037  60.892  1.00  0.00     0.000 C 
BRANCH   4   5
ATOM      5  C   UNL     1      60.737  31.999  59.367  1.00  0.00     0.006 C 
BRANCH   5   6
ATOM      6  C   UNL     1      60.433  33.366  58.736  1.00  0.00     0.053 C 
BRANCH   6   7
ATOM      7  C   UNL     1      59.165  33.347  57.938  1.00  0.00     0.041 C 
ATOM      8  O   UNL     1      58.545  32.265  57.759  1.00  0.00    -0.550 OA
ATOM      9  O   UNL     1      58.650  34.529  57.423  1.00  0.00    -0.550 OA
ENDBRANCH   6   7
ENDBRANCH   5   6
ENDBRANCH   4   5
ENDBRANCH   3   4
ENDBRANCH   2   3
ENDBRANCH   1   2
BRANCH   1  10
ATOM     10  C   UNL     1      63.970  29.724  59.786  1.00  0.00     0.000 C 
BRANCH  10  11
ATOM     11  C   UNL     1      64.602  30.807  60.673  1.00  0.00    -0.000 C 
BRANCH  11  12
ATOM     12  C   UNL     1      64.668  32.177  59.979  1.00  0.00    -0.000 C 
BRANCH  12  13
ATOM     13  C   UNL     1      64.285  33.334  60.913  1.00  0.00    -0.000 C 
BRANCH  13  14
ATOM     14  C   UNL     1      63.786  34.545  60.110  1.00  0.00    -0.000 C 
BRANCH  14  15
ATOM     15  C   UNL     1      63.350  35.712  61.011  1.00  0.00    -0.003 C 
ATOM     16  C   UNL     1      61.851  35.998  60.923  1.00  0.00     0.004 C 
ENDBRANCH  14  15
ENDBRANCH  13  14
ENDBRANCH  12  13
ENDBRANCH  11  12
ENDBRANCH  10  11
ENDBRANCH   1  10
TORSDOF 12
ENDMDL
