MODEL 1
REMARK VINA RESULT:    -3.842      0.000      0.000
REMARK INTER + INTRA:          -8.016
REMARK INTER:                  -6.987
REMARK INTRA:                  -1.029
REMARK UNBOUND:                -1.029
REMARK SMILES CCCCCC=CCC=CCCCCCCCC(=O)[O-]
REMARK SMILES IDX 11 1 12 2 13 3 14 4 15 5 16 6 17 7 18 8 19 9 20 10 10 11
REMARK SMILES IDX 9 12 8 13 7 14 6 15 5 16 4 17 3 18 2 19 1 20
REMARK H PARENT
REMARK Flexibility Score: inf
ROOT
ATOM      1  C   UNL     1      12.516 -15.235  -4.056  1.00  0.00     0.027 C 
ENDROOT
BRANCH   1   2
ATOM      2  C   UNL     1      11.250 -15.201  -3.186  1.00  0.00     0.004 C 
BRANCH   2   3
ATOM      3  C   UNL     1      10.247 -16.297  -3.586  1.00  0.00     0.000 C 
BRANCH   3   4
ATOM      4  C   UNL     1      10.174 -17.431  -2.551  1.00  0.00     0.000 C 
BRANCH   4   5
ATOM      5  C   UNL     1      10.612 -18.784  -3.138  1.00  0.00     0.000 C 
BRANCH   5   6
ATOM      6  C   UNL     1      11.524 -18.631  -4.366  1.00  0.00     0.006 C 
BRANCH   6   7
ATOM      7  C   UNL     1      10.956 -19.310  -5.618  1.00  0.00     0.053 C 
BRANCH   7   8
ATOM      8  C   UNL     1      10.573 -18.285  -6.641  1.00  0.00     0.041 C 
ATOM      9  O   UNL     1      10.967 -17.095  -6.522  1.00  0.00    -0.550 OA
ATOM     10  O   UNL     1       9.815 -18.652  -7.745  1.00  0.00    -0.550 OA
ENDBRANCH   7   8
ENDBRANCH   6   7
ENDBRANCH   5   6
ENDBRANCH   4   5
ENDBRANCH   3   4
ENDBRANCH   2   3
ENDBRANCH   1   2
BRANCH   1  11
ATOM     11  C   UNL     1      13.752 -15.549  -3.247  1.00  0.00    -0.031 C 
ATOM     12  C   UNL     1      14.541 -16.623  -3.431  1.00  0.00    -0.027 C 
BRANCH  12  13
ATOM     13  C   UNL     1      14.352 -17.667  -4.505  1.00  0.00     0.054 C 
BRANCH  13  14
ATOM     14  C   UNL     1      15.540 -18.583  -4.550  1.00  0.00    -0.027 C 
ATOM     15  C   UNL     1      16.563 -18.443  -3.694  1.00  0.00    -0.031 C 
BRANCH  15  16
ATOM     16  C   UNL     1      17.725 -19.398  -3.687  1.00  0.00     0.027 C 
BRANCH  16  17
ATOM     17  C   UNL     1      17.721 -20.279  -2.430  1.00  0.00     0.004 C 
BRANCH  17  18
ATOM     18  C   UNL     1      17.991 -21.759  -2.753  1.00  0.00     0.000 C 
BRANCH  18  19
ATOM     19  C   UNL     1      16.695 -22.569  -2.911  1.00  0.00    -0.003 C 
ATOM     20  C   UNL     1      16.931 -23.946  -3.530  1.00  0.00     0.004 C 
ENDBRANCH  18  19
ENDBRANCH  17  18
ENDBRANCH  16  17
ENDBRANCH  15  16
ENDBRANCH  13  14
ENDBRANCH  12  13
ENDBRANCH   1  11
TORSDOF 14
ENDMDL
MODEL 2
REMARK VINA RESULT:    -3.787      3.828      7.478
REMARK INTER + INTRA:          -7.915
REMARK INTER:                  -6.332
REMARK INTRA:                  -1.584
REMARK UNBOUND:                -1.029
REMARK SMILES CCCCCC=CCC=CCCCCCCCC(=O)[O-]
REMARK SMILES IDX 11 1 12 2 13 3 14 4 15 5 16 6 17 7 18 8 19 9 20 10 10 11
REMARK SMILES IDX 9 12 8 13 7 14 6 15 5 16 4 17 3 18 2 19 1 20
REMARK H PARENT
REMARK Flexibility Score: inf
ROOT
ATOM      1  C   UNL     1      10.650 -18.275  -2.286  1.00  0.00     0.027 C 
ENDROOT
BRANCH   1   2
ATOM      2  C   UNL     1      10.938 -19.289  -3.405  1.00  0.00     0.004 C 
BRANCH   2   3
ATOM      3  C   UNL     1      12.016 -18.782  -4.378  1.00  0.00     0.000 C 
BRANCH   3   4
ATOM      4  C   UNL     1      11.554 -18.831  -5.843  1.00  0.00     0.000 C 
BRANCH   4   5
ATOM      5  C   UNL     1      11.010 -17.475  -6.328  1.00  0.00     0.000 C 
BRANCH   5   6
ATOM      6  C   UNL     1       9.533 -17.544  -6.747  1.00  0.00     0.006 C 
BRANCH   6   7
ATOM      7  C   UNL     1       9.292 -18.501  -7.921  1.00  0.00     0.053 C 
BRANCH   7   8
ATOM      8  C   UNL     1       7.893 -18.356  -8.435  1.00  0.00     0.041 C 
ATOM      9  O   UNL     1       7.653 -18.492  -9.663  1.00  0.00    -0.550 OA
ATOM     10  O   UNL     1       6.849 -18.112  -7.553  1.00  0.00    -0.550 OA
ENDBRANCH   7   8
ENDBRANCH   6   7
ENDBRANCH   5   6
ENDBRANCH   4   5
ENDBRANCH   3   4
ENDBRANCH   2   3
ENDBRANCH   1   2
BRANCH   1  11
ATOM     11  C   UNL     1       9.844 -17.099  -2.782  1.00  0.00    -0.031 C 
ATOM     12  C   UNL     1      10.362 -15.923  -3.181  1.00  0.00    -0.027 C 
BRANCH  12  13
ATOM     13  C   UNL     1      11.836 -15.599  -3.246  1.00  0.00     0.054 C 
BRANCH  13  14
ATOM     14  C   UNL     1      12.102 -14.624  -4.355  1.00  0.00    -0.027 C 
ATOM     15  C   UNL     1      11.158 -13.771  -4.778  1.00  0.00    -0.031 C 
BRANCH  15  16
ATOM     16  C   UNL     1      11.437 -12.745  -5.841  1.00  0.00     0.027 C 
BRANCH  16  17
ATOM     17  C   UNL     1      12.205 -11.543  -5.274  1.00  0.00     0.004 C 
BRANCH  17  18
ATOM     18  C   UNL     1      12.552 -10.507  -6.359  1.00  0.00     0.000 C 
BRANCH  18  19
ATOM     19  C   UNL     1      11.752  -9.205  -6.201  1.00  0.00    -0.003 C 
ATOM     20  C   UNL     1      10.533  -9.145  -7.120  1.00  0.00     0.004 C 
ENDBRANCH  18  19
ENDBRANCH  17  18
ENDBRANCH  16  17
ENDBRANCH  15  16
ENDBRANCH  13  14
ENDBRANCH  12  13
ENDBRANCH   1  11
TORSDOF 14
ENDMDL
MODEL 3
REMARK VINA RESULT:    -3.745      1.788      3.864
REMARK INTER + INTRA:          -7.840
REMARK INTER:                  -6.215
REMARK INTRA:                  -1.625
REMARK UNBOUND:                -1.029
REMARK SMILES CCCCCC=CCC=CCCCCCCCC(=O)[O-]
REMARK SMILES IDX 11 1 12 2 13 3 14 4 15 5 16 6 17 7 18 8 19 9 20 10 10 11
REMARK SMILES IDX 9 12 8 13 7 14 6 15 5 16 4 17 3 18 2 19 1 20
REMARK H PARENT
REMARK Flexibility Score: inf
ROOT
ATOM      1  C   UNL     1      10.190 -16.887  -2.691  1.00  0.00     0.027 C 
ENDROOT
BRANCH   1   2
ATOM      2  C   UNL     1      10.326 -18.400  -2.921  1.00  0.00     0.004 C 
BRANCH   2   3
ATOM      3  C   UNL     1      11.478 -18.734  -3.885  1.00  0.00     0.000 C 
BRANCH   3   4
ATOM      4  C   UNL     1      10.976 -19.229  -5.250  1.00  0.00     0.000 C 
BRANCH   4   5
ATOM      5  C   UNL     1      11.185 -18.186  -6.362  1.00  0.00     0.000 C 
BRANCH   5   6
ATOM      6  C   UNL     1       9.868 -17.748  -7.021  1.00  0.00     0.006 C 
BRANCH   6   7
ATOM      7  C   UNL     1       9.324 -18.786  -8.011  1.00  0.00     0.053 C 
BRANCH   7   8
ATOM      8  C   UNL     1       7.951 -18.402  -8.470  1.00  0.00     0.041 C 
ATOM      9  O   UNL     1       7.661 -18.436  -9.694  1.00  0.00    -0.550 OA
ATOM     10  O   UNL     1       6.981 -18.046  -7.542  1.00  0.00    -0.550 OA
ENDBRANCH   7   8
ENDBRANCH   6   7
ENDBRANCH   5   6
ENDBRANCH   4   5
ENDBRANCH   3   4
ENDBRANCH   2   3
ENDBRANCH   1   2
BRANCH   1  11
ATOM     11  C   UNL     1       9.711 -16.166  -3.928  1.00  0.00    -0.031 C 
ATOM     12  C   UNL     1      10.294 -15.075  -4.458  1.00  0.00    -0.027 C 
BRANCH  12  13
ATOM     13  C   UNL     1      11.548 -14.418  -3.934  1.00  0.00     0.054 C 
BRANCH  13  14
ATOM     14  C   UNL     1      12.747 -15.260  -4.259  1.00  0.00    -0.027 C 
ATOM     15  C   UNL     1      13.598 -15.661  -3.304  1.00  0.00    -0.031 C 
BRANCH  15  16
ATOM     16  C   UNL     1      14.764 -16.561  -3.610  1.00  0.00     0.027 C 
BRANCH  16  17
ATOM     17  C   UNL     1      14.321 -17.808  -4.388  1.00  0.00     0.004 C 
BRANCH  17  18
ATOM     18  C   UNL     1      15.496 -18.758  -4.685  1.00  0.00     0.000 C 
BRANCH  18  19
ATOM     19  C   UNL     1      16.742 -18.427  -3.849  1.00  0.00    -0.003 C 
ATOM     20  C   UNL     1      17.361 -19.662  -3.199  1.00  0.00     0.004 C 
ENDBRANCH  18  19
ENDBRANCH  17  18
ENDBRANCH  16  17
ENDBRANCH  15  16
ENDBRANCH  13  14
ENDBRANCH  12  13
ENDBRANCH   1  11
TORSDOF 14
ENDMDL
MODEL 4
REMARK VINA RESULT:    -3.737      3.174      6.748
REMARK INTER + INTRA:          -7.824
REMARK INTER:                  -6.732
REMARK INTRA:                  -1.092
REMARK UNBOUND:                -1.029
REMARK SMILES CCCCCC=CCC=CCCCCCCCC(=O)[O-]
REMARK SMILES IDX 11 1 12 2 13 3 14 4 15 5 16 6 17 7 18 8 19 9 20 10 10 11
REMARK SMILES IDX 9 12 8 13 7 14 6 15 5 16 4 17 3 18 2 19 1 20
REMARK H PARENT
REMARK Flexibility Score: inf
ROOT
ATOM      1  C   UNL     1      13.320 -15.539  -3.521  1.00  0.00     0.027 C 
ENDROOT
BRANCH   1   2
ATOM      2  C   UNL     1      14.564 -16.438  -3.603  1.00  0.00     0.004 C 
BRANCH   2   3
ATOM      3  C   UNL     1      14.266 -17.768  -4.316  1.00  0.00     0.000 C 
BRANCH   3   4
ATOM      4  C   UNL     1      15.546 -18.524  -4.707  1.00  0.00     0.000 C 
BRANCH   4   5
ATOM      5  C   UNL     1      16.606 -18.491  -3.591  1.00  0.00     0.000 C 
BRANCH   5   6
ATOM      6  C   UNL     1      17.565 -19.690  -3.649  1.00  0.00     0.006 C 
BRANCH   6   7
ATOM      7  C   UNL     1      17.839 -20.300  -2.269  1.00  0.00     0.053 C 
BRANCH   7   8
ATOM      8  C   UNL     1      17.778 -21.795  -2.336  1.00  0.00     0.041 C 
ATOM      9  O   UNL     1      18.017 -22.389  -3.420  1.00  0.00    -0.550 OA
ATOM     10  O   UNL     1      17.498 -22.533  -1.194  1.00  0.00    -0.550 OA
ENDBRANCH   7   8
ENDBRANCH   6   7
ENDBRANCH   5   6
ENDBRANCH   4   5
ENDBRANCH   3   4
ENDBRANCH   2   3
ENDBRANCH   1   2
BRANCH   1  11
ATOM     11  C   UNL     1      12.757 -15.225  -4.887  1.00  0.00    -0.031 C 
ATOM     12  C   UNL     1      11.502 -14.802  -5.124  1.00  0.00    -0.027 C 
BRANCH  12  13
ATOM     13  C   UNL     1      10.463 -14.524  -4.064  1.00  0.00     0.054 C 
BRANCH  13  14
ATOM     14  C   UNL     1       9.831 -15.807  -3.611  1.00  0.00    -0.027 C 
ATOM     15  C   UNL     1      10.472 -16.650  -2.788  1.00  0.00    -0.031 C 
BRANCH  15  16
ATOM     16  C   UNL     1       9.819 -17.905  -2.275  1.00  0.00     0.027 C 
BRANCH  16  17
ATOM     17  C   UNL     1      10.568 -19.160  -2.746  1.00  0.00     0.004 C 
BRANCH  17  18
ATOM     18  C   UNL     1      11.545 -18.860  -3.895  1.00  0.00     0.000 C 
BRANCH  18  19
ATOM     19  C   UNL     1      10.992 -19.291  -5.262  1.00  0.00    -0.003 C 
ATOM     20  C   UNL     1      11.001 -18.158  -6.287  1.00  0.00     0.004 C 
ENDBRANCH  18  19
ENDBRANCH  17  18
ENDBRANCH  16  17
ENDBRANCH  15  16
ENDBRANCH  13  14
ENDBRANCH  12  13
ENDBRANCH   1  11
TORSDOF 14
ENDMDL
MODEL 5
REMARK VINA RESULT:    -3.729      3.137      7.285
REMARK INTER + INTRA:          -7.809
REMARK INTER:                  -6.528
REMARK INTRA:                  -1.282
REMARK UNBOUND:                -1.029
REMARK SMILES CCCCCC=CCC=CCCCCCCCC(=O)[O-]
REMARK SMILES IDX 11 1 12 2 13 3 14 4 15 5 16 6 17 7 18 8 19 9 20 10 10 11
REMARK SMILES IDX 9 12 8 13 7 14 6 15 5 16 4 17 3 18 2 19 1 20
REMARK H PARENT
REMARK Flexibility Score: inf
ROOT
ATOM      1  C   UNL     1      13.630 -18.132  -4.681  1.00  0.00     0.027 C 
ENDROOT
BRANCH   1   2
ATOM      2  C   UNL     1      14.964 -18.892  -4.761  1.00  0.00     0.004 C 
BRANCH   2   3
ATOM      3  C   UNL     1      16.055 -18.232  -3.901  1.00  0.00     0.000 C 
BRANCH   3   4
ATOM      4  C   UNL     1      17.396 -18.979  -3.981  1.00  0.00     0.000 C 
BRANCH   4   5
ATOM      5  C   UNL     1      17.694 -19.781  -2.702  1.00  0.00     0.000 C 
BRANCH   5   6
ATOM      6  C   UNL     1      17.974 -21.265  -2.984  1.00  0.00     0.006 C 
BRANCH   6   7
ATOM      7  C   UNL     1      17.231 -22.204  -2.024  1.00  0.00     0.053 C 
BRANCH   7   8
ATOM      8  C   UNL     1      16.507 -23.268  -2.789  1.00  0.00     0.041 C 
ATOM      9  O   UNL     1      17.102 -23.914  -3.691  1.00  0.00    -0.550 OA
ATOM     10  O   UNL     1      15.188 -23.573  -2.479  1.00  0.00    -0.550 OA
ENDBRANCH   7   8
ENDBRANCH   6   7
ENDBRANCH   5   6
ENDBRANCH   4   5
ENDBRANCH   3   4
ENDBRANCH   2   3
ENDBRANCH   1   2
BRANCH   1  11
ATOM     11  C   UNL     1      12.468 -19.055  -4.402  1.00  0.00    -0.031 C 
ATOM     12  C   UNL     1      11.299 -19.045  -5.069  1.00  0.00    -0.027 C 
BRANCH  12  13
ATOM     13  C   UNL     1      10.972 -18.145  -6.236  1.00  0.00     0.054 C 
BRANCH  13  14
ATOM     14  C   UNL     1      10.525 -16.800  -5.742  1.00  0.00    -0.027 C 
ATOM     15  C   UNL     1      11.149 -15.675  -6.117  1.00  0.00    -0.031 C 
BRANCH  15  16
ATOM     16  C   UNL     1      10.666 -14.318  -5.682  1.00  0.00     0.027 C 
BRANCH  16  17
ATOM     17  C   UNL     1      11.547 -13.739  -4.567  1.00  0.00     0.004 C 
BRANCH  17  18
ATOM     18  C   UNL     1      12.813 -14.581  -4.327  1.00  0.00     0.000 C 
BRANCH  18  19
ATOM     19  C   UNL     1      12.795 -15.289  -2.963  1.00  0.00    -0.003 C 
ATOM     20  C   UNL     1      14.188 -15.428  -2.351  1.00  0.00     0.004 C 
ENDBRANCH  18  19
ENDBRANCH  17  18
ENDBRANCH  16  17
ENDBRANCH  15  16
ENDBRANCH  13  14
ENDBRANCH  12  13
ENDBRANCH   1  11
TORSDOF 14
ENDMDL
MODEL 6
REMARK VINA RESULT:    -3.647      4.139      8.643
REMARK INTER + INTRA:          -7.660
REMARK INTER:                  -6.933
REMARK INTRA:                  -0.727
REMARK UNBOUND:                -1.029
REMARK SMILES CCCCCC=CCC=CCCCCCCCC(=O)[O-]
REMARK SMILES IDX 11 1 12 2 13 3 14 4 15 5 16 6 17 7 18 8 19 9 20 10 10 11
REMARK SMILES IDX 9 12 8 13 7 14 6 15 5 16 4 17 3 18 2 19 1 20
REMARK H PARENT
REMARK Flexibility Score: inf
ROOT
ATOM      1  C   UNL     1      12.417 -18.412  -4.775  1.00  0.00     0.027 C 
ENDROOT
BRANCH   1   2
ATOM      2  C   UNL     1      13.727 -17.688  -4.431  1.00  0.00     0.004 C 
BRANCH   2   3
ATOM      3  C   UNL     1      14.960 -18.563  -4.716  1.00  0.00     0.000 C 
BRANCH   3   4
ATOM      4  C   UNL     1      16.180 -18.148  -3.878  1.00  0.00     0.000 C 
BRANCH   4   5
ATOM      5  C   UNL     1      17.350 -19.138  -4.022  1.00  0.00     0.000 C 
BRANCH   5   6
ATOM      6  C   UNL     1      17.746 -19.785  -2.686  1.00  0.00     0.006 C 
BRANCH   6   7
ATOM      7  C   UNL     1      17.879 -21.310  -2.780  1.00  0.00     0.053 C 
BRANCH   7   8
ATOM      8  C   UNL     1      17.684 -21.937  -1.434  1.00  0.00     0.041 C 
ATOM      9  O   UNL     1      18.010 -21.310  -0.391  1.00  0.00    -0.550 OA
ATOM     10  O   UNL     1      17.107 -23.195  -1.328  1.00  0.00    -0.550 OA
ENDBRANCH   7   8
ENDBRANCH   6   7
ENDBRANCH   5   6
ENDBRANCH   4   5
ENDBRANCH   3   4
ENDBRANCH   2   3
ENDBRANCH   1   2
BRANCH   1  11
ATOM     11  C   UNL     1      11.479 -18.478  -3.593  1.00  0.00    -0.031 C 
ATOM     12  C   UNL     1      10.455 -17.632  -3.374  1.00  0.00    -0.027 C 
BRANCH  12  13
ATOM     13  C   UNL     1      10.044 -16.508  -4.294  1.00  0.00     0.054 C 
BRANCH  13  14
ATOM     14  C   UNL     1      10.945 -15.324  -4.098  1.00  0.00    -0.027 C 
ATOM     15  C   UNL     1      11.187 -14.458  -5.093  1.00  0.00    -0.031 C 
BRANCH  15  16
ATOM     16  C   UNL     1      12.033 -13.231  -4.886  1.00  0.00     0.027 C 
BRANCH  16  17
ATOM     17  C   UNL     1      11.432 -12.008  -5.593  1.00  0.00     0.004 C 
BRANCH  17  18
ATOM     18  C   UNL     1      12.508 -10.997  -6.026  1.00  0.00     0.000 C 
BRANCH  18  19
ATOM     19  C   UNL     1      12.014  -9.545  -5.942  1.00  0.00    -0.003 C 
ATOM     20  C   UNL     1      11.032  -9.189  -7.057  1.00  0.00     0.004 C 
ENDBRANCH  18  19
ENDBRANCH  17  18
ENDBRANCH  16  17
ENDBRANCH  15  16
ENDBRANCH  13  14
ENDBRANCH  12  13
ENDBRANCH   1  11
TORSDOF 14
ENDMDL
MODEL 7
REMARK VINA RESULT:    -3.471      3.037      6.688
REMARK INTER + INTRA:          -7.340
REMARK INTER:                  -6.572
REMARK INTRA:                  -0.768
REMARK UNBOUND:                -1.029
REMARK SMILES CCCCCC=CCC=CCCCCCCCC(=O)[O-]
REMARK SMILES IDX 11 1 12 2 13 3 14 4 15 5 16 6 17 7 18 8 19 9 20 10 10 11
REMARK SMILES IDX 9 12 8 13 7 14 6 15 5 16 4 17 3 18 2 19 1 20
REMARK H PARENT
REMARK Flexibility Score: inf
ROOT
ATOM      1  C   UNL     1      13.982 -16.216  -4.271  1.00  0.00     0.027 C 
ENDROOT
BRANCH   1   2
ATOM      2  C   UNL     1      14.966 -17.171  -3.577  1.00  0.00     0.004 C 
BRANCH   2   3
ATOM      3  C   UNL     1      15.353 -18.355  -4.480  1.00  0.00     0.000 C 
BRANCH   3   4
ATOM      4  C   UNL     1      16.845 -18.708  -4.376  1.00  0.00     0.000 C 
BRANCH   4   5
ATOM      5  C   UNL     1      17.207 -19.310  -3.007  1.00  0.00     0.000 C 
BRANCH   5   6
ATOM      6  C   UNL     1      17.863 -20.695  -3.123  1.00  0.00     0.006 C 
BRANCH   6   7
ATOM      7  C   UNL     1      17.356 -21.683  -2.065  1.00  0.00     0.053 C 
BRANCH   7   8
ATOM      8  C   UNL     1      16.745 -22.883  -2.721  1.00  0.00     0.041 C 
ATOM      9  O   UNL     1      15.706 -23.407  -2.239  1.00  0.00    -0.550 OA
ATOM     10  O   UNL     1      17.298 -23.397  -3.887  1.00  0.00    -0.550 OA
ENDBRANCH   7   8
ENDBRANCH   6   7
ENDBRANCH   5   6
ENDBRANCH   4   5
ENDBRANCH   3   4
ENDBRANCH   2   3
ENDBRANCH   1   2
BRANCH   1  11
ATOM     11  C   UNL     1      13.095 -15.500  -3.281  1.00  0.00    -0.031 C 
ATOM     12  C   UNL     1      12.077 -14.682  -3.609  1.00  0.00    -0.027 C 
BRANCH  12  13
ATOM     13  C   UNL     1      11.623 -14.382  -5.017  1.00  0.00     0.054 C 
BRANCH  13  14
ATOM     14  C   UNL     1      11.590 -15.643  -5.830  1.00  0.00    -0.027 C 
ATOM     15  C   UNL     1      10.702 -16.615  -5.576  1.00  0.00    -0.031 C 
BRANCH  15  16
ATOM     16  C   UNL     1      10.617 -17.852  -6.428  1.00  0.00     0.027 C 
BRANCH  16  17
ATOM     17  C   UNL     1      11.029 -19.105  -5.642  1.00  0.00     0.004 C 
BRANCH  17  18
ATOM     18  C   UNL     1      11.685 -18.758  -4.294  1.00  0.00     0.000 C 
BRANCH  18  19
ATOM     19  C   UNL     1      10.763 -19.053  -3.101  1.00  0.00    -0.003 C 
ATOM     20  C   UNL     1      10.244 -17.785  -2.427  1.00  0.00     0.004 C 
ENDBRANCH  18  19
ENDBRANCH  17  18
ENDBRANCH  16  17
ENDBRANCH  15  16
ENDBRANCH  13  14
ENDBRANCH  12  13
ENDBRANCH   1  11
TORSDOF 14
ENDMDL
MODEL 8
REMARK VINA RESULT:    -3.447      3.352      4.817
REMARK INTER + INTRA:          -7.297
REMARK INTER:                  -6.454
REMARK INTRA:                  -0.842
REMARK UNBOUND:                -1.029
REMARK SMILES CCCCCC=CCC=CCCCCCCCC(=O)[O-]
REMARK SMILES IDX 11 1 12 2 13 3 14 4 15 5 16 6 17 7 18 8 19 9 20 10 10 11
REMARK SMILES IDX 9 12 8 13 7 14 6 15 5 16 4 17 3 18 2 19 1 20
REMARK H PARENT
REMARK Flexibility Score: inf
ROOT
ATOM      1  C   UNL     1      11.042 -17.199  -5.440  1.00  0.00     0.027 C 
ENDROOT
BRANCH   1   2
ATOM      2  C   UNL     1      10.243 -16.555  -4.296  1.00  0.00     0.004 C 
BRANCH   2   3
ATOM      3  C   UNL     1      10.463 -15.034  -4.225  1.00  0.00     0.000 C 
BRANCH   3   4
ATOM      4  C   UNL     1      11.486 -14.541  -5.261  1.00  0.00     0.000 C 
BRANCH   4   5
ATOM      5  C   UNL     1      12.128 -13.203  -4.854  1.00  0.00     0.000 C 
BRANCH   5   6
ATOM      6  C   UNL     1      11.499 -12.000  -5.575  1.00  0.00     0.006 C 
BRANCH   6   7
ATOM      7  C   UNL     1      12.543 -10.989  -6.067  1.00  0.00     0.053 C 
BRANCH   7   8
ATOM      8  C   UNL     1      11.916  -9.644  -6.264  1.00  0.00     0.041 C 
ATOM      9  O   UNL     1      11.015  -9.486  -7.129  1.00  0.00    -0.550 OA
ATOM     10  O   UNL     1      12.297  -8.574  -5.464  1.00  0.00    -0.550 OA
ENDBRANCH   7   8
ENDBRANCH   6   7
ENDBRANCH   5   6
ENDBRANCH   4   5
ENDBRANCH   3   4
ENDBRANCH   2   3
ENDBRANCH   1   2
BRANCH   1  11
ATOM     11  C   UNL     1      11.551 -18.573  -5.072  1.00  0.00    -0.031 C 
ATOM     12  C   UNL     1      12.811 -18.850  -4.688  1.00  0.00    -0.027 C 
BRANCH  12  13
ATOM     13  C   UNL     1      13.911 -17.831  -4.513  1.00  0.00     0.054 C 
BRANCH  13  14
ATOM     14  C   UNL     1      15.252 -18.489  -4.659  1.00  0.00    -0.027 C 
ATOM     15  C   UNL     1      16.192 -18.376  -3.710  1.00  0.00    -0.031 C 
BRANCH  15  16
ATOM     16  C   UNL     1      17.514 -19.088  -3.816  1.00  0.00     0.027 C 
BRANCH  16  17
ATOM     17  C   UNL     1      17.748 -20.019  -2.619  1.00  0.00     0.004 C 
BRANCH  17  18
ATOM     18  C   UNL     1      17.724 -21.504  -3.021  1.00  0.00     0.000 C 
BRANCH  18  19
ATOM     19  C   UNL     1      17.060 -22.389  -1.956  1.00  0.00    -0.003 C 
ATOM     20  C   UNL     1      16.020 -23.342  -2.542  1.00  0.00     0.004 C 
ENDBRANCH  18  19
ENDBRANCH  17  18
ENDBRANCH  16  17
ENDBRANCH  15  16
ENDBRANCH  13  14
ENDBRANCH  12  13
ENDBRANCH   1  11
TORSDOF 14
ENDMDL
MODEL 9
REMARK VINA RESULT:    -3.364      2.054      3.470
REMARK INTER + INTRA:          -7.147
REMARK INTER:                  -6.009
REMARK INTRA:                  -1.138
REMARK UNBOUND:                -1.029
REMARK SMILES CCCCCC=CCC=CCCCCCCCC(=O)[O-]
REMARK SMILES IDX 11 1 12 2 13 3 14 4 15 5 16 6 17 7 18 8 19 9 20 10 10 11
REMARK SMILES IDX 9 12 8 13 7 14 6 15 5 16 4 17 3 18 2 19 1 20
REMARK H PARENT
REMARK Flexibility Score: inf
ROOT
ATOM      1  C   UNL     1      11.375 -18.348  -6.250  1.00  0.00     0.027 C 
ENDROOT
BRANCH   1   2
ATOM      2  C   UNL     1      10.257 -17.305  -6.094  1.00  0.00     0.004 C 
BRANCH   2   3
ATOM      3  C   UNL     1       9.971 -16.984  -4.618  1.00  0.00     0.000 C 
BRANCH   3   4
ATOM      4  C   UNL     1       9.649 -15.498  -4.392  1.00  0.00     0.000 C 
BRANCH   4   5
ATOM      5  C   UNL     1      10.462 -14.578  -5.320  1.00  0.00     0.000 C 
BRANCH   5   6
ATOM      6  C   UNL     1      11.706 -13.993  -4.634  1.00  0.00     0.006 C 
BRANCH   6   7
ATOM      7  C   UNL     1      12.878 -14.982  -4.583  1.00  0.00     0.053 C 
BRANCH   7   8
ATOM      8  C   UNL     1      13.116 -15.438  -3.176  1.00  0.00     0.041 C 
ATOM      9  O   UNL     1      12.154 -15.841  -2.470  1.00  0.00    -0.550 OA
ATOM     10  O   UNL     1      14.405 -15.456  -2.659  1.00  0.00    -0.550 OA
ENDBRANCH   7   8
ENDBRANCH   6   7
ENDBRANCH   5   6
ENDBRANCH   4   5
ENDBRANCH   3   4
ENDBRANCH   2   3
ENDBRANCH   1   2
BRANCH   1  11
ATOM     11  C   UNL     1      11.768 -18.958  -4.925  1.00  0.00    -0.031 C 
ATOM     12  C   UNL     1      12.991 -18.869  -4.369  1.00  0.00    -0.027 C 
BRANCH  12  13
ATOM     13  C   UNL     1      14.157 -18.106  -4.950  1.00  0.00     0.054 C 
BRANCH  13  14
ATOM     14  C   UNL     1      15.428 -18.878  -4.755  1.00  0.00    -0.027 C 
ATOM     15  C   UNL     1      16.365 -18.475  -3.884  1.00  0.00    -0.031 C 
BRANCH  15  16
ATOM     16  C   UNL     1      17.611 -19.279  -3.633  1.00  0.00     0.027 C 
BRANCH  16  17
ATOM     17  C   UNL     1      17.374 -20.366  -2.575  1.00  0.00     0.004 C 
BRANCH  17  18
ATOM     18  C   UNL     1      18.120 -21.672  -2.903  1.00  0.00     0.000 C 
BRANCH  18  19
ATOM     19  C   UNL     1      17.164 -22.854  -3.119  1.00  0.00    -0.003 C 
ATOM     20  C   UNL     1      16.513 -23.331  -1.822  1.00  0.00     0.004 C 
ENDBRANCH  18  19
ENDBRANCH  17  18
ENDBRANCH  16  17
ENDBRANCH  15  16
ENDBRANCH  13  14
ENDBRANCH  12  13
ENDBRANCH   1  11
TORSDOF 14
ENDMDL
