MODEL 1
REMARK VINA RESULT:    -5.086      0.000      0.000
REMARK INTER + INTRA:          -9.268
REMARK INTER:                  -7.762
REMARK INTRA:                  -1.507
REMARK UNBOUND:                -1.507
REMARK SMILES OC[C@@H]1O[C@@](CO)(O[C@@H]2O[C@@H](CO)[C@@H](O)[C@H](O)[C@@H]2O)[C@H](O)[C@@H]1O
REMARK SMILES IDX 8 1 9 2 11 3 14 4 10 5 16 6 18 7 12 8 13 9 15 11 17 13 19 15
REMARK SMILES IDX 5 17 20 18 4 19 22 20 3 21 6 22 7 23 21 25 23 27 2 29 1 30
REMARK H PARENT 13 10 15 12 17 14 19 16 7 24 21 26 23 28 1 31
REMARK Flexibility Score: inf
ROOT
ATOM      1  O   UNL     1     174.998 170.627 152.554  1.00  0.00    -0.313 OA
ENDROOT
BRANCH   1   2
ATOM      2  C   UNL     1     174.020 171.279 153.353  1.00  0.00     0.285 C 
ATOM      3  C   UNL     1     172.504 173.109 153.195  1.00  0.00     0.178 C 
ATOM      4  C   UNL     1     173.419 174.119 153.951  1.00  0.00     0.177 C 
ATOM      5  O   UNL     1     173.276 172.143 152.498  1.00  0.00    -0.341 OA
ATOM      6  C   UNL     1     174.832 173.539 154.217  1.00  0.00     0.179 C 
ATOM      7  C   UNL     1     174.737 172.039 154.512  1.00  0.00     0.202 C 
BRANCH   3   8
ATOM      8  C   UNL     1     171.383 172.468 154.043  1.00  0.00     0.191 C 
BRANCH   8   9
ATOM      9  O   UNL     1     170.436 173.439 154.390  1.00  0.00    -0.394 OA
ATOM     10  H   UNL     1     170.854 174.317 154.191  1.00  0.00     0.210 HD
ENDBRANCH   8   9
ENDBRANCH   3   8
BRANCH   4  11
ATOM     11  O   UNL     1     172.818 174.592 155.134  1.00  0.00    -0.387 OA
ATOM     12  H   UNL     1     172.390 173.825 155.590  1.00  0.00     0.211 HD
ENDBRANCH   4  11
BRANCH   6  13
ATOM     13  O   UNL     1     175.660 173.738 153.097  1.00  0.00    -0.387 OA
ATOM     14  H   UNL     1     175.106 174.189 152.409  1.00  0.00     0.211 HD
ENDBRANCH   6  13
BRANCH   7  15
ATOM     15  O   UNL     1     176.024 171.525 154.745  1.00  0.00    -0.385 OA
ATOM     16  H   UNL     1     176.084 171.328 155.717  1.00  0.00     0.211 HD
ENDBRANCH   7  15
ENDBRANCH   1   2
BRANCH   1  17
ATOM     17  C   UNL     1     174.792 169.227 152.347  1.00  0.00     0.224 C 
ATOM     18  C   UNL     1     173.330 168.880 151.973  1.00  0.00     0.208 C 
ATOM     19  O   UNL     1     175.572 168.874 151.222  1.00  0.00    -0.337 OA
ATOM     20  C   UNL     1     173.314 169.250 150.506  1.00  0.00     0.180 C 
ATOM     21  C   UNL     1     174.775 169.033 150.064  1.00  0.00     0.179 C 
BRANCH  17  22
ATOM     22  C   UNL     1     175.314 168.411 153.561  1.00  0.00     0.225 C 
BRANCH  22  23
ATOM     23  O   UNL     1     175.690 167.116 153.161  1.00  0.00    -0.391 OA
ATOM     24  H   UNL     1     175.458 167.022 152.200  1.00  0.00     0.210 HD
ENDBRANCH  22  23
ENDBRANCH  17  22
BRANCH  18  25
ATOM     25  O   UNL     1     173.094 167.503 152.149  1.00  0.00    -0.385 OA
ATOM     26  H   UNL     1     172.774 167.381 153.080  1.00  0.00     0.211 HD
ENDBRANCH  18  25
BRANCH  20  27
ATOM     27  O   UNL     1     172.338 168.571 149.747  1.00  0.00    -0.387 OA
ATOM     28  H   UNL     1     171.460 168.647 150.198  1.00  0.00     0.211 HD
ENDBRANCH  20  27
BRANCH  21  29
ATOM     29  C   UNL     1     175.011 167.826 149.141  1.00  0.00     0.191 C 
BRANCH  29  30
ATOM     30  O   UNL     1     174.627 166.630 149.763  1.00  0.00    -0.394 OA
ATOM     31  H   UNL     1     173.949 166.208 149.171  1.00  0.00     0.210 HD
ENDBRANCH  29  30
ENDBRANCH  21  29
ENDBRANCH   1  17
TORSDOF 13
ENDMDL
MODEL 2
REMARK VINA RESULT:    -5.040      9.808     12.272
REMARK INTER + INTRA:          -9.198
REMARK INTER:                  -7.632
REMARK INTRA:                  -1.567
REMARK UNBOUND:                -1.507
REMARK SMILES OC[C@@H]1O[C@@](CO)(O[C@@H]2O[C@@H](CO)[C@@H](O)[C@H](O)[C@@H]2O)[C@H](O)[C@@H]1O
REMARK SMILES IDX 8 1 9 2 11 3 14 4 10 5 16 6 18 7 12 8 13 9 15 11 17 13 19 15
REMARK SMILES IDX 5 17 20 18 4 19 22 20 3 21 6 22 7 23 21 25 23 27 2 29 1 30
REMARK H PARENT 13 10 15 12 17 14 19 16 7 24 21 26 23 28 1 31
REMARK Flexibility Score: inf
ROOT
ATOM      1  O   UNL     1     173.808 158.485 153.495  1.00  0.00    -0.313 OA
ENDROOT
BRANCH   1   2
ATOM      2  C   UNL     1     173.328 158.867 154.777  1.00  0.00     0.285 C 
ATOM      3  C   UNL     1     174.178 159.254 156.968  1.00  0.00     0.178 C 
ATOM      4  C   UNL     1     173.783 157.853 157.524  1.00  0.00     0.177 C 
ATOM      5  O   UNL     1     174.461 159.190 155.579  1.00  0.00    -0.341 OA
ATOM      6  C   UNL     1     173.272 156.906 156.409  1.00  0.00     0.179 C 
ATOM      7  C   UNL     1     172.476 157.701 155.368  1.00  0.00     0.202 C 
BRANCH   3   8
ATOM      8  C   UNL     1     173.208 160.404 157.320  1.00  0.00     0.191 C 
BRANCH   8   9
ATOM      9  O   UNL     1     173.386 160.782 158.657  1.00  0.00    -0.394 OA
ATOM     10  H   UNL     1     172.477 160.935 159.025  1.00  0.00     0.210 HD
ENDBRANCH   8   9
ENDBRANCH   3   8
BRANCH   4  11
ATOM     11  O   UNL     1     172.866 157.947 158.590  1.00  0.00    -0.387 OA
ATOM     12  H   UNL     1     171.957 157.792 158.229  1.00  0.00     0.211 HD
ENDBRANCH   4  11
BRANCH   6  13
ATOM     13  O   UNL     1     174.354 156.268 155.776  1.00  0.00    -0.387 OA
ATOM     14  H   UNL     1     174.041 155.363 155.516  1.00  0.00     0.211 HD
ENDBRANCH   6  13
BRANCH   7  15
ATOM     15  O   UNL     1     172.025 156.832 154.360  1.00  0.00    -0.385 OA
ATOM     16  H   UNL     1     171.054 156.691 154.515  1.00  0.00     0.211 HD
ENDBRANCH   7  15
ENDBRANCH   1   2
BRANCH   1  17
ATOM     17  C   UNL     1     173.549 159.414 152.438  1.00  0.00     0.224 C 
ATOM     18  C   UNL     1     173.972 160.861 152.788  1.00  0.00     0.208 C 
ATOM     19  O   UNL     1     174.372 159.022 151.357  1.00  0.00    -0.337 OA
ATOM     20  C   UNL     1     175.466 160.787 152.557  1.00  0.00     0.180 C 
ATOM     21  C   UNL     1     175.609 159.698 151.476  1.00  0.00     0.179 C 
BRANCH  17  22
ATOM     22  C   UNL     1     172.071 159.312 151.971  1.00  0.00     0.225 C 
BRANCH  22  23
ATOM     23  O   UNL     1     171.733 157.977 151.688  1.00  0.00    -0.391 OA
ATOM     24  H   UNL     1     171.964 157.806 150.737  1.00  0.00     0.210 HD
ENDBRANCH  22  23
ENDBRANCH  17  22
BRANCH  18  25
ATOM     25  O   UNL     1     173.369 161.774 151.901  1.00  0.00    -0.385 OA
ATOM     26  H   UNL     1     172.485 162.010 152.287  1.00  0.00     0.211 HD
ENDBRANCH  18  25
BRANCH  20  27
ATOM     27  O   UNL     1     176.069 162.027 152.260  1.00  0.00    -0.387 OA
ATOM     28  H   UNL     1     175.366 162.713 152.140  1.00  0.00     0.211 HD
ENDBRANCH  20  27
BRANCH  21  29
ATOM     29  C   UNL     1     176.024 160.201 150.084  1.00  0.00     0.191 C 
BRANCH  29  30
ATOM     30  O   UNL     1     175.118 161.156 149.600  1.00  0.00    -0.394 OA
ATOM     31  H   UNL     1     174.576 160.705 148.901  1.00  0.00     0.210 HD
ENDBRANCH  29  30
ENDBRANCH  21  29
ENDBRANCH   1  17
TORSDOF 13
ENDMDL
MODEL 3
REMARK VINA RESULT:    -5.019      1.524      6.061
REMARK INTER + INTRA:          -9.167
REMARK INTER:                  -7.590
REMARK INTRA:                  -1.577
REMARK UNBOUND:                -1.507
REMARK SMILES OC[C@@H]1O[C@@](CO)(O[C@@H]2O[C@@H](CO)[C@@H](O)[C@H](O)[C@@H]2O)[C@H](O)[C@@H]1O
REMARK SMILES IDX 8 1 9 2 11 3 14 4 10 5 16 6 18 7 12 8 13 9 15 11 17 13 19 15
REMARK SMILES IDX 5 17 20 18 4 19 22 20 3 21 6 22 7 23 21 25 23 27 2 29 1 30
REMARK H PARENT 13 10 15 12 17 14 19 16 7 24 21 26 23 28 1 31
REMARK Flexibility Score: inf
ROOT
ATOM      1  O   UNL     1     173.837 171.888 152.476  1.00  0.00    -0.313 OA
ENDROOT
BRANCH   1   2
ATOM      2  C   UNL     1     173.839 170.467 152.448  1.00  0.00     0.285 C 
ATOM      3  C   UNL     1     175.407 168.676 152.380  1.00  0.00     0.178 C 
ATOM      4  C   UNL     1     175.297 168.448 150.842  1.00  0.00     0.177 C 
ATOM      5  O   UNL     1     175.171 170.036 152.713  1.00  0.00    -0.341 OA
ATOM      6  C   UNL     1     174.456 169.549 150.148  1.00  0.00     0.179 C 
ATOM      7  C   UNL     1     173.307 169.987 151.061  1.00  0.00     0.202 C 
BRANCH   3   8
ATOM      8  C   UNL     1     174.584 167.703 153.254  1.00  0.00     0.191 C 
BRANCH   8   9
ATOM      9  O   UNL     1     175.175 166.433 153.237  1.00  0.00    -0.394 OA
ATOM     10  H   UNL     1     174.908 166.015 152.377  1.00  0.00     0.210 HD
ENDBRANCH   8   9
ENDBRANCH   3   8
BRANCH   4  11
ATOM     11  O   UNL     1     174.824 167.157 150.532  1.00  0.00    -0.387 OA
ATOM     12  H   UNL     1     174.238 166.857 151.272  1.00  0.00     0.211 HD
ENDBRANCH   4  11
BRANCH   6  13
ATOM     13  O   UNL     1     175.261 170.664 149.852  1.00  0.00    -0.387 OA
ATOM     14  H   UNL     1     176.154 170.312 149.597  1.00  0.00     0.211 HD
ENDBRANCH   6  13
BRANCH   7  15
ATOM     15  O   UNL     1     172.557 170.989 150.423  1.00  0.00    -0.385 OA
ATOM     16  H   UNL     1     172.952 171.860 150.691  1.00  0.00     0.211 HD
ENDBRANCH   7  15
ENDBRANCH   1   2
BRANCH   1  17
ATOM     17  C   UNL     1     173.041 172.483 153.505  1.00  0.00     0.224 C 
ATOM     18  C   UNL     1     172.896 174.016 153.346  1.00  0.00     0.208 C 
ATOM     19  O   UNL     1     171.739 171.954 153.355  1.00  0.00    -0.337 OA
ATOM     20  C   UNL     1     171.832 174.093 152.274  1.00  0.00     0.180 C 
ATOM     21  C   UNL     1     171.016 172.802 152.483  1.00  0.00     0.179 C 
BRANCH  17  22
ATOM     22  C   UNL     1     173.563 172.068 154.908  1.00  0.00     0.225 C 
BRANCH  22  23
ATOM     23  O   UNL     1     172.516 172.076 155.846  1.00  0.00    -0.391 OA
ATOM     24  H   UNL     1     172.754 172.731 156.554  1.00  0.00     0.210 HD
ENDBRANCH  22  23
ENDBRANCH  17  22
BRANCH  18  25
ATOM     25  O   UNL     1     172.444 174.591 154.549  1.00  0.00    -0.385 OA
ATOM     26  H   UNL     1     172.800 174.033 155.289  1.00  0.00     0.211 HD
ENDBRANCH  18  25
BRANCH  20  27
ATOM     27  O   UNL     1     171.089 175.293 152.279  1.00  0.00    -0.387 OA
ATOM     28  H   UNL     1     171.421 175.881 153.002  1.00  0.00     0.211 HD
ENDBRANCH  20  27
BRANCH  21  29
ATOM     29  C   UNL     1     169.604 173.000 153.057  1.00  0.00     0.191 C 
BRANCH  29  30
ATOM     30  O   UNL     1     169.654 173.520 154.358  1.00  0.00    -0.394 OA
ATOM     31  H   UNL     1     168.739 173.432 154.734  1.00  0.00     0.210 HD
ENDBRANCH  29  30
ENDBRANCH  21  29
ENDBRANCH   1  17
TORSDOF 13
ENDMDL
MODEL 4
REMARK VINA RESULT:    -4.991      8.817     12.505
REMARK INTER + INTRA:          -9.124
REMARK INTER:                  -7.509
REMARK INTRA:                  -1.615
REMARK UNBOUND:                -1.507
REMARK SMILES OC[C@@H]1O[C@@](CO)(O[C@@H]2O[C@@H](CO)[C@@H](O)[C@H](O)[C@@H]2O)[C@H](O)[C@@H]1O
REMARK SMILES IDX 8 1 9 2 11 3 14 4 10 5 16 6 18 7 12 8 13 9 15 11 17 13 19 15
REMARK SMILES IDX 5 17 20 18 4 19 22 20 3 21 6 22 7 23 21 25 23 27 2 29 1 30
REMARK H PARENT 13 10 15 12 17 14 19 16 7 24 21 26 23 28 1 31
REMARK Flexibility Score: inf
ROOT
ATOM      1  O   UNL     1     162.675 175.171 152.402  1.00  0.00    -0.313 OA
ENDROOT
BRANCH   1   2
ATOM      2  C   UNL     1     164.039 174.772 152.417  1.00  0.00     0.285 C 
ATOM      3  C   UNL     1     166.200 175.769 152.375  1.00  0.00     0.178 C 
ATOM      4  C   UNL     1     166.425 175.560 150.847  1.00  0.00     0.177 C 
ATOM      5  O   UNL     1     164.822 175.935 152.671  1.00  0.00    -0.341 OA
ATOM      6  C   UNL     1     165.148 175.046 150.135  1.00  0.00     0.179 C 
ATOM      7  C   UNL     1     164.382 174.090 151.056  1.00  0.00     0.202 C 
BRANCH   3   8
ATOM      8  C   UNL     1     166.880 174.729 153.293  1.00  0.00     0.191 C 
BRANCH   8   9
ATOM      9  O   UNL     1     168.268 174.917 153.277  1.00  0.00    -0.394 OA
ATOM     10  H   UNL     1     168.531 175.120 154.212  1.00  0.00     0.210 HD
ENDBRANCH   8   9
ENDBRANCH   3   8
BRANCH   4  11
ATOM     11  O   UNL     1     167.537 174.735 150.585  1.00  0.00    -0.387 OA
ATOM     12  H   UNL     1     168.240 175.290 150.163  1.00  0.00     0.211 HD
ENDBRANCH   4  11
BRANCH   6  13
ATOM     13  O   UNL     1     164.313 176.124 149.791  1.00  0.00    -0.387 OA
ATOM     14  H   UNL     1     164.316 176.183 148.800  1.00  0.00     0.211 HD
ENDBRANCH   6  13
BRANCH   7  15
ATOM     15  O   UNL     1     163.225 173.636 150.401  1.00  0.00    -0.385 OA
ATOM     16  H   UNL     1     163.524 173.150 149.588  1.00  0.00     0.211 HD
ENDBRANCH   7  15
ENDBRANCH   1   2
BRANCH   1  17
ATOM     17  C   UNL     1     161.857 174.611 153.433  1.00  0.00     0.224 C 
ATOM     18  C   UNL     1     160.367 175.013 153.310  1.00  0.00     0.208 C 
ATOM     19  O   UNL     1     161.895 173.210 153.251  1.00  0.00    -0.337 OA
ATOM     20  C   UNL     1     159.904 174.067 152.224  1.00  0.00     0.180 C 
ATOM     21  C   UNL     1     160.832 172.848 152.389  1.00  0.00     0.179 C 
BRANCH  17  22
ATOM     22  C   UNL     1     162.452 174.923 154.834  1.00  0.00     0.225 C 
BRANCH  22  23
ATOM     23  O   UNL     1     162.014 173.979 155.779  1.00  0.00    -0.391 OA
ATOM     24  H   UNL     1     161.250 173.487 155.377  1.00  0.00     0.210 HD
ENDBRANCH  22  23
ENDBRANCH  17  22
BRANCH  18  25
ATOM     25  O   UNL     1     159.691 174.764 154.519  1.00  0.00    -0.385 OA
ATOM     26  H   UNL     1     159.475 173.795 154.535  1.00  0.00     0.211 HD
ENDBRANCH  18  25
BRANCH  20  27
ATOM     27  O   UNL     1     158.521 173.790 152.247  1.00  0.00    -0.387 OA
ATOM     28  H   UNL     1     158.376 172.827 152.067  1.00  0.00     0.211 HD
ENDBRANCH  20  27
BRANCH  21  29
ATOM     29  C   UNL     1     160.163 171.581 152.947  1.00  0.00     0.191 C 
BRANCH  29  30
ATOM     30  O   UNL     1     159.712 171.782 154.260  1.00  0.00    -0.394 OA
ATOM     31  H   UNL     1     160.130 171.072 154.815  1.00  0.00     0.210 HD
ENDBRANCH  29  30
ENDBRANCH  21  29
ENDBRANCH   1  17
TORSDOF 13
ENDMDL
MODEL 5
REMARK VINA RESULT:    -4.969      8.771     11.563
REMARK INTER + INTRA:          -9.091
REMARK INTER:                  -7.683
REMARK INTRA:                  -1.407
REMARK UNBOUND:                -1.507
REMARK SMILES OC[C@@H]1O[C@@](CO)(O[C@@H]2O[C@@H](CO)[C@@H](O)[C@H](O)[C@@H]2O)[C@H](O)[C@@H]1O
REMARK SMILES IDX 8 1 9 2 11 3 14 4 10 5 16 6 18 7 12 8 13 9 15 11 17 13 19 15
REMARK SMILES IDX 5 17 20 18 4 19 22 20 3 21 6 22 7 23 21 25 23 27 2 29 1 30
REMARK H PARENT 13 10 15 12 17 14 19 16 7 24 21 26 23 28 1 31
REMARK Flexibility Score: inf
ROOT
ATOM      1  O   UNL     1     172.933 158.678 152.546  1.00  0.00    -0.313 OA
ENDROOT
BRANCH   1   2
ATOM      2  C   UNL     1     173.293 159.827 153.301  1.00  0.00     0.285 C 
ATOM      3  C   UNL     1     174.749 161.704 153.126  1.00  0.00     0.178 C 
ATOM      4  C   UNL     1     175.879 161.090 154.006  1.00  0.00     0.177 C 
ATOM      5  O   UNL     1     174.030 160.691 152.439  1.00  0.00    -0.341 OA
ATOM      6  C   UNL     1     175.609 159.603 154.349  1.00  0.00     0.179 C 
ATOM      7  C   UNL     1     174.108 159.376 154.553  1.00  0.00     0.202 C 
BRANCH   3   8
ATOM      8  C   UNL     1     173.817 162.703 153.848  1.00  0.00     0.191 C 
BRANCH   8   9
ATOM      9  O   UNL     1     174.549 163.825 154.256  1.00  0.00    -0.394 OA
ATOM     10  H   UNL     1     175.492 163.648 154.003  1.00  0.00     0.210 HD
ENDBRANCH   8   9
ENDBRANCH   3   8
BRANCH   4  11
ATOM     11  O   UNL     1     176.123 161.857 155.163  1.00  0.00    -0.387 OA
ATOM     12  H   UNL     1     175.580 162.684 155.105  1.00  0.00     0.211 HD
ENDBRANCH   4  11
BRANCH   6  13
ATOM     13  O   UNL     1     176.066 158.772 153.311  1.00  0.00    -0.387 OA
ATOM     14  H   UNL     1     175.427 158.876 152.559  1.00  0.00     0.211 HD
ENDBRANCH   6  13
BRANCH   7  15
ATOM     15  O   UNL     1     173.876 158.023 154.857  1.00  0.00    -0.385 OA
ATOM     16  H   UNL     1     174.532 157.493 154.333  1.00  0.00     0.211 HD
ENDBRANCH   7  15
ENDBRANCH   1   2
BRANCH   1  17
ATOM     17  C   UNL     1     171.531 158.509 152.312  1.00  0.00     0.224 C 
ATOM     18  C   UNL     1     170.811 159.834 151.964  1.00  0.00     0.208 C 
ATOM     19  O   UNL     1     171.418 157.695 151.162  1.00  0.00    -0.337 OA
ATOM     20  C   UNL     1     171.186 159.990 150.507  1.00  0.00     0.180 C 
ATOM     21  C   UNL     1     171.375 158.538 150.027  1.00  0.00     0.179 C 
BRANCH  17  22
ATOM     22  C   UNL     1     170.867 157.753 153.496  1.00  0.00     0.225 C 
BRANCH  22  23
ATOM     23  O   UNL     1     169.718 157.068 153.062  1.00  0.00    -0.391 OA
ATOM     24  H   UNL     1     169.792 156.955 152.077  1.00  0.00     0.210 HD
ENDBRANCH  22  23
ENDBRANCH  17  22
BRANCH  18  25
ATOM     25  O   UNL     1     169.419 159.688 152.115  1.00  0.00    -0.385 OA
ATOM     26  H   UNL     1     169.255 158.748 152.387  1.00  0.00     0.211 HD
ENDBRANCH  18  25
BRANCH  20  27
ATOM     27  O   UNL     1     170.282 160.770 149.755  1.00  0.00    -0.387 OA
ATOM     28  H   UNL     1     170.573 161.716 149.773  1.00  0.00     0.211 HD
ENDBRANCH  20  27
BRANCH  21  29
ATOM     29  C   UNL     1     170.290 158.013 149.072  1.00  0.00     0.191 C 
BRANCH  29  30
ATOM     30  O   UNL     1     169.051 157.911 149.720  1.00  0.00    -0.394 OA
ATOM     31  H   UNL     1     168.703 157.001 149.525  1.00  0.00     0.210 HD
ENDBRANCH  29  30
ENDBRANCH  21  29
ENDBRANCH   1  17
TORSDOF 13
ENDMDL
MODEL 6
REMARK VINA RESULT:    -4.906     10.210     12.654
REMARK INTER + INTRA:          -8.994
REMARK INTER:                  -7.337
REMARK INTRA:                  -1.657
REMARK UNBOUND:                -1.507
REMARK SMILES OC[C@@H]1O[C@@](CO)(O[C@@H]2O[C@@H](CO)[C@@H](O)[C@H](O)[C@@H]2O)[C@H](O)[C@@H]1O
REMARK SMILES IDX 8 1 9 2 11 3 14 4 10 5 16 6 18 7 12 8 13 9 15 11 17 13 19 15
REMARK SMILES IDX 5 17 20 18 4 19 22 20 3 21 6 22 7 23 21 25 23 27 2 29 1 30
REMARK H PARENT 13 10 15 12 17 14 19 16 7 24 21 26 23 28 1 31
REMARK Flexibility Score: inf
ROOT
ATOM      1  O   UNL     1     173.651 158.500 153.503  1.00  0.00    -0.313 OA
ENDROOT
BRANCH   1   2
ATOM      2  C   UNL     1     173.229 158.865 154.810  1.00  0.00     0.285 C 
ATOM      3  C   UNL     1     174.182 159.283 156.952  1.00  0.00     0.178 C 
ATOM      4  C   UNL     1     173.870 157.869 157.526  1.00  0.00     0.177 C 
ATOM      5  O   UNL     1     174.391 159.230 155.549  1.00  0.00    -0.341 OA
ATOM      6  C   UNL     1     173.334 156.903 156.439  1.00  0.00     0.179 C 
ATOM      7  C   UNL     1     172.454 157.668 155.445  1.00  0.00     0.202 C 
BRANCH   3   8
ATOM      8  C   UNL     1     173.191 160.397 157.359  1.00  0.00     0.191 C 
BRANCH   8   9
ATOM      9  O   UNL     1     173.418 160.771 158.689  1.00  0.00    -0.394 OA
ATOM     10  H   UNL     1     172.523 160.906 159.096  1.00  0.00     0.210 HD
ENDBRANCH   8   9
ENDBRANCH   3   8
BRANCH   4  11
ATOM     11  O   UNL     1     173.009 157.929 158.641  1.00  0.00    -0.387 OA
ATOM     12  H   UNL     1     173.335 157.284 159.318  1.00  0.00     0.211 HD
ENDBRANCH   4  11
BRANCH   6  13
ATOM     13  O   UNL     1     174.403 156.306 155.746  1.00  0.00    -0.387 OA
ATOM     14  H   UNL     1     174.010 155.604 155.165  1.00  0.00     0.211 HD
ENDBRANCH   6  13
BRANCH   7  15
ATOM     15  O   UNL     1     171.980 156.783 154.462  1.00  0.00    -0.385 OA
ATOM     16  H   UNL     1     172.386 155.896 154.651  1.00  0.00     0.211 HD
ENDBRANCH   7  15
ENDBRANCH   1   2
BRANCH   1  17
ATOM     17  C   UNL     1     173.183 159.343 152.446  1.00  0.00     0.224 C 
ATOM     18  C   UNL     1     173.698 158.908 151.052  1.00  0.00     0.208 C 
ATOM     19  O   UNL     1     171.779 159.185 152.406  1.00  0.00    -0.337 OA
ATOM     20  C   UNL     1     172.763 157.758 150.748  1.00  0.00     0.180 C 
ATOM     21  C   UNL     1     171.480 158.124 151.520  1.00  0.00     0.179 C 
BRANCH  17  22
ATOM     22  C   UNL     1     173.483 160.834 152.763  1.00  0.00     0.225 C 
BRANCH  22  23
ATOM     23  O   UNL     1     174.837 161.128 152.520  1.00  0.00    -0.391 OA
ATOM     24  H   UNL     1     175.200 161.557 153.338  1.00  0.00     0.210 HD
ENDBRANCH  22  23
ENDBRANCH  17  22
BRANCH  18  25
ATOM     25  O   UNL     1     173.532 159.953 150.123  1.00  0.00    -0.385 OA
ATOM     26  H   UNL     1     173.040 159.575 149.348  1.00  0.00     0.211 HD
ENDBRANCH  18  25
BRANCH  20  27
ATOM     27  O   UNL     1     172.596 157.494 149.373  1.00  0.00    -0.387 OA
ATOM     28  H   UNL     1     173.235 158.044 148.854  1.00  0.00     0.211 HD
ENDBRANCH  20  27
BRANCH  21  29
ATOM     29  C   UNL     1     170.284 158.540 150.648  1.00  0.00     0.191 C 
BRANCH  29  30
ATOM     30  O   UNL     1     170.609 159.632 149.830  1.00  0.00    -0.394 OA
ATOM     31  H   UNL     1     171.483 159.420 149.408  1.00  0.00     0.210 HD
ENDBRANCH  29  30
ENDBRANCH  21  29
ENDBRANCH   1  17
TORSDOF 13
ENDMDL
MODEL 7
REMARK VINA RESULT:    -4.728      2.103      3.279
REMARK INTER + INTRA:          -8.722
REMARK INTER:                  -7.099
REMARK INTRA:                  -1.623
REMARK UNBOUND:                -1.507
REMARK SMILES OC[C@@H]1O[C@@](CO)(O[C@@H]2O[C@@H](CO)[C@@H](O)[C@H](O)[C@@H]2O)[C@H](O)[C@@H]1O
REMARK SMILES IDX 8 1 9 2 11 3 14 4 10 5 16 6 18 7 12 8 13 9 15 11 17 13 19 15
REMARK SMILES IDX 5 17 20 18 4 19 22 20 3 21 6 22 7 23 21 25 23 27 2 29 1 30
REMARK H PARENT 13 10 15 12 17 14 19 16 7 24 21 26 23 28 1 31
REMARK Flexibility Score: inf
ROOT
ATOM      1  O   UNL     1     173.802 169.316 152.159  1.00  0.00    -0.313 OA
ENDROOT
BRANCH   1   2
ATOM      2  C   UNL     1     174.494 170.553 152.266  1.00  0.00     0.285 C 
ATOM      3  C   UNL     1     174.006 172.855 152.629  1.00  0.00     0.178 C 
ATOM      4  C   UNL     1     174.060 173.252 151.123  1.00  0.00     0.177 C 
ATOM      5  O   UNL     1     173.577 171.511 152.788  1.00  0.00    -0.341 OA
ATOM      6  C   UNL     1     174.181 172.014 150.197  1.00  0.00     0.179 C 
ATOM      7  C   UNL     1     175.053 170.945 150.863  1.00  0.00     0.202 C 
BRANCH   3   8
ATOM      8  C   UNL     1     175.281 173.168 153.442  1.00  0.00     0.191 C 
BRANCH   8   9
ATOM      9  O   UNL     1     175.303 174.525 153.788  1.00  0.00    -0.394 OA
ATOM     10  H   UNL     1     174.772 174.996 153.094  1.00  0.00     0.210 HD
ENDBRANCH   8   9
ENDBRANCH   3   8
BRANCH   4  11
ATOM     11  O   UNL     1     175.072 174.199 150.862  1.00  0.00    -0.387 OA
ATOM     12  H   UNL     1     175.190 174.754 151.673  1.00  0.00     0.211 HD
ENDBRANCH   4  11
BRANCH   6  13
ATOM     13  O   UNL     1     172.908 171.476 149.934  1.00  0.00    -0.387 OA
ATOM     14  H   UNL     1     173.011 170.863 149.161  1.00  0.00     0.211 HD
ENDBRANCH   6  13
BRANCH   7  15
ATOM     15  O   UNL     1     175.148 169.826 150.017  1.00  0.00    -0.385 OA
ATOM     16  H   UNL     1     175.157 169.023 150.601  1.00  0.00     0.211 HD
ENDBRANCH   7  15
ENDBRANCH   1   2
BRANCH   1  17
ATOM     17  C   UNL     1     174.438 168.197 152.784  1.00  0.00     0.224 C 
ATOM     18  C   UNL     1     173.434 167.226 153.452  1.00  0.00     0.208 C 
ATOM     19  O   UNL     1     175.055 167.462 151.747  1.00  0.00    -0.337 OA
ATOM     20  C   UNL     1     172.935 166.458 152.247  1.00  0.00     0.180 C 
ATOM     21  C   UNL     1     174.127 166.506 151.271  1.00  0.00     0.179 C 
BRANCH  17  22
ATOM     22  C   UNL     1     175.553 168.675 153.755  1.00  0.00     0.225 C 
BRANCH  22  23
ATOM     23  O   UNL     1     175.049 168.801 155.062  1.00  0.00    -0.391 OA
ATOM     24  H   UNL     1     174.382 168.077 155.195  1.00  0.00     0.210 HD
ENDBRANCH  22  23
ENDBRANCH  17  22
BRANCH  18  25
ATOM     25  O   UNL     1     174.103 166.375 154.352  1.00  0.00    -0.385 OA
ATOM     26  H   UNL     1     174.525 166.955 155.039  1.00  0.00     0.211 HD
ENDBRANCH  18  25
BRANCH  20  27
ATOM     27  O   UNL     1     172.440 165.171 152.545  1.00  0.00    -0.387 OA
ATOM     28  H   UNL     1     171.960 165.196 153.410  1.00  0.00     0.211 HD
ENDBRANCH  20  27
BRANCH  21  29
ATOM     29  C   UNL     1     174.865 165.173 151.066  1.00  0.00     0.191 C 
BRANCH  29  30
ATOM     30  O   UNL     1     175.542 164.784 152.231  1.00  0.00    -0.394 OA
ATOM     31  H   UNL     1     176.258 165.456 152.380  1.00  0.00     0.210 HD
ENDBRANCH  29  30
ENDBRANCH  21  29
ENDBRANCH   1  17
TORSDOF 13
ENDMDL
MODEL 8
REMARK VINA RESULT:    -4.728     11.575     13.623
REMARK INTER + INTRA:          -8.721
REMARK INTER:                  -7.055
REMARK INTRA:                  -1.667
REMARK UNBOUND:                -1.507
REMARK SMILES OC[C@@H]1O[C@@](CO)(O[C@@H]2O[C@@H](CO)[C@@H](O)[C@H](O)[C@@H]2O)[C@H](O)[C@@H]1O
REMARK SMILES IDX 8 1 9 2 11 3 14 4 10 5 16 6 18 7 12 8 13 9 15 11 17 13 19 15
REMARK SMILES IDX 5 17 20 18 4 19 22 20 3 21 6 22 7 23 21 25 23 27 2 29 1 30
REMARK H PARENT 13 10 15 12 17 14 19 16 7 24 21 26 23 28 1 31
REMARK Flexibility Score: inf
ROOT
ATOM      1  O   UNL     1     173.253 158.595 157.493  1.00  0.00    -0.313 OA
ENDROOT
BRANCH   1   2
ATOM      2  C   UNL     1     174.183 158.167 158.478  1.00  0.00     0.285 C 
ATOM      3  C   UNL     1     174.217 157.619 160.795  1.00  0.00     0.178 C 
ATOM      4  C   UNL     1     174.755 159.005 161.262  1.00  0.00     0.177 C 
ATOM      5  O   UNL     1     173.437 157.744 159.616  1.00  0.00    -0.341 OA
ATOM      6  C   UNL     1     174.791 160.036 160.106  1.00  0.00     0.179 C 
ATOM      7  C   UNL     1     175.163 159.340 158.793  1.00  0.00     0.202 C 
BRANCH   3   8
ATOM      8  C   UNL     1     175.278 156.501 160.685  1.00  0.00     0.191 C 
BRANCH   8   9
ATOM      9  O   UNL     1     175.479 155.911 161.939  1.00  0.00    -0.394 OA
ATOM     10  H   UNL     1     174.589 155.594 162.242  1.00  0.00     0.210 HD
ENDBRANCH   8   9
ENDBRANCH   3   8
BRANCH   4  11
ATOM     11  O   UNL     1     176.004 158.898 161.905  1.00  0.00    -0.387 OA
ATOM     12  H   UNL     1     175.843 158.691 162.860  1.00  0.00     0.211 HD
ENDBRANCH   4  11
BRANCH   6  13
ATOM     13  O   UNL     1     173.535 160.653 159.962  1.00  0.00    -0.387 OA
ATOM     14  H   UNL     1     173.518 161.417 160.595  1.00  0.00     0.211 HD
ENDBRANCH   6  13
BRANCH   7  15
ATOM     15  O   UNL     1     175.187 160.284 157.752  1.00  0.00    -0.385 OA
ATOM     16  H   UNL     1     174.841 159.827 156.940  1.00  0.00     0.211 HD
ENDBRANCH   7  15
ENDBRANCH   1   2
BRANCH   1  17
ATOM     17  C   UNL     1     173.298 157.885 156.252  1.00  0.00     0.224 C 
ATOM     18  C   UNL     1     172.018 158.070 155.401  1.00  0.00     0.208 C 
ATOM     19  O   UNL     1     174.347 158.465 155.503  1.00  0.00    -0.337 OA
ATOM     20  C   UNL     1     172.270 159.436 154.800  1.00  0.00     0.180 C 
ATOM     21  C   UNL     1     173.807 159.521 154.732  1.00  0.00     0.179 C 
BRANCH  17  22
ATOM     22  C   UNL     1     173.655 156.392 156.489  1.00  0.00     0.225 C 
BRANCH  22  23
ATOM     23  O   UNL     1     174.518 155.924 155.483  1.00  0.00    -0.391 OA
ATOM     24  H   UNL     1     175.330 156.497 155.497  1.00  0.00     0.210 HD
ENDBRANCH  22  23
ENDBRANCH  17  22
BRANCH  18  25
ATOM     25  O   UNL     1     171.949 157.082 154.400  1.00  0.00    -0.385 OA
ATOM     26  H   UNL     1     172.450 156.294 154.738  1.00  0.00     0.211 HD
ENDBRANCH  18  25
BRANCH  20  27
ATOM     27  O   UNL     1     171.590 159.669 153.586  1.00  0.00    -0.387 OA
ATOM     28  H   UNL     1     171.217 158.816 153.250  1.00  0.00     0.211 HD
ENDBRANCH  20  27
BRANCH  21  29
ATOM     29  C   UNL     1     174.409 159.449 153.319  1.00  0.00     0.191 C 
BRANCH  29  30
ATOM     30  O   UNL     1     173.751 158.491 152.535  1.00  0.00    -0.394 OA
ATOM     31  H   UNL     1     174.450 157.873 152.195  1.00  0.00     0.210 HD
ENDBRANCH  29  30
ENDBRANCH  21  29
ENDBRANCH   1  17
TORSDOF 13
ENDMDL
MODEL 9
REMARK VINA RESULT:    -4.616      1.495      2.551
REMARK INTER + INTRA:          -8.552
REMARK INTER:                  -6.892
REMARK INTRA:                  -1.660
REMARK UNBOUND:                -1.507
REMARK SMILES OC[C@@H]1O[C@@](CO)(O[C@@H]2O[C@@H](CO)[C@@H](O)[C@H](O)[C@@H]2O)[C@H](O)[C@@H]1O
REMARK SMILES IDX 8 1 9 2 11 3 14 4 10 5 16 6 18 7 12 8 13 9 15 11 17 13 19 15
REMARK SMILES IDX 5 17 20 18 4 19 22 20 3 21 6 22 7 23 21 25 23 27 2 29 1 30
REMARK H PARENT 13 10 15 12 17 14 19 16 7 24 21 26 23 28 1 31
REMARK Flexibility Score: inf
ROOT
ATOM      1  O   UNL     1     173.256 170.458 151.118  1.00  0.00    -0.313 OA
ENDROOT
BRANCH   1   2
ATOM      2  C   UNL     1     172.684 171.122 152.236  1.00  0.00     0.285 C 
ATOM      3  C   UNL     1     171.601 173.183 152.738  1.00  0.00     0.178 C 
ATOM      4  C   UNL     1     172.875 173.880 153.304  1.00  0.00     0.177 C 
ATOM      5  O   UNL     1     171.940 172.232 151.740  1.00  0.00    -0.341 OA
ATOM      6  C   UNL     1     174.153 173.032 153.078  1.00  0.00     0.179 C 
ATOM      7  C   UNL     1     173.825 171.542 153.215  1.00  0.00     0.202 C 
BRANCH   3   8
ATOM      8  C   UNL     1     170.635 172.608 153.798  1.00  0.00     0.191 C 
BRANCH   8   9
ATOM      9  O   UNL     1     169.813 173.627 154.294  1.00  0.00    -0.394 OA
ATOM     10  H   UNL     1     168.972 173.586 153.768  1.00  0.00     0.210 HD
ENDBRANCH   8   9
ENDBRANCH   3   8
BRANCH   4  11
ATOM     11  O   UNL     1     172.722 174.242 154.657  1.00  0.00    -0.387 OA
ATOM     12  H   UNL     1     172.733 175.230 154.715  1.00  0.00     0.211 HD
ENDBRANCH   4  11
BRANCH   6  13
ATOM     13  O   UNL     1     174.678 173.274 151.796  1.00  0.00    -0.387 OA
ATOM     14  H   UNL     1     175.067 174.188 151.814  1.00  0.00     0.211 HD
ENDBRANCH   6  13
BRANCH   7  15
ATOM     15  O   UNL     1     174.990 170.785 153.001  1.00  0.00    -0.385 OA
ATOM     16  H   UNL     1     174.730 170.008 152.439  1.00  0.00     0.211 HD
ENDBRANCH   7  15
ENDBRANCH   1   2
BRANCH   1  17
ATOM     17  C   UNL     1     172.709 169.170 150.819  1.00  0.00     0.224 C 
ATOM     18  C   UNL     1     173.063 168.679 149.394  1.00  0.00     0.208 C 
ATOM     19  O   UNL     1     173.331 168.262 151.706  1.00  0.00    -0.337 OA
ATOM     20  C   UNL     1     174.480 168.193 149.602  1.00  0.00     0.180 C 
ATOM     21  C   UNL     1     174.501 167.768 151.084  1.00  0.00     0.179 C 
BRANCH  17  22
ATOM     22  C   UNL     1     171.183 169.145 151.106  1.00  0.00     0.225 C 
BRANCH  22  23
ATOM     23  O   UNL     1     170.486 169.884 150.134  1.00  0.00    -0.391 OA
ATOM     24  H   UNL     1     170.889 169.672 149.251  1.00  0.00     0.210 HD
ENDBRANCH  22  23
ENDBRANCH  17  22
BRANCH  18  25
ATOM     25  O   UNL     1     172.215 167.619 149.019  1.00  0.00    -0.385 OA
ATOM     26  H   UNL     1     171.887 167.200 149.857  1.00  0.00     0.211 HD
ENDBRANCH  18  25
BRANCH  20  27
ATOM     27  O   UNL     1     174.899 167.213 148.678  1.00  0.00    -0.387 OA
ATOM     28  H   UNL     1     175.720 167.523 148.221  1.00  0.00     0.211 HD
ENDBRANCH  20  27
BRANCH  21  29
ATOM     29  C   UNL     1     174.582 166.253 151.333  1.00  0.00     0.191 C 
BRANCH  29  30
ATOM     30  O   UNL     1     173.496 165.584 150.750  1.00  0.00    -0.394 OA
ATOM     31  H   UNL     1     172.750 165.630 151.405  1.00  0.00     0.210 HD
ENDBRANCH  29  30
ENDBRANCH  21  29
ENDBRANCH   1  17
TORSDOF 13
ENDMDL
