MODEL 1
REMARK VINA RESULT:    -3.267      0.000      0.000
REMARK INTER + INTRA:          -3.873
REMARK INTER:                  -3.840
REMARK INTRA:                  -0.034
REMARK UNBOUND:                -0.034
REMARK SMILES O=C([O-])CCC(=O)[O-]
REMARK SMILES IDX 4 1 2 2 1 3 3 4 5 5 6 6 7 7 8 8
REMARK H PARENT
REMARK Flexibility Score: inf
ROOT
ATOM      1  C   UNL     1     106.467 100.781 101.014  1.00  0.00     0.059 C 
ENDROOT
BRANCH   1   2
ATOM      2  C   UNL     1     105.192 101.511 100.734  1.00  0.00     0.042 C 
ATOM      3  O   UNL     1     105.141 102.764 100.849  1.00  0.00    -0.550 OA
ATOM      4  O   UNL     1     104.072 100.814 100.300  1.00  0.00    -0.550 OA
ENDBRANCH   1   2
BRANCH   1   5
ATOM      5  C   UNL     1     107.616 101.379 100.200  1.00  0.00     0.059 C 
BRANCH   5   6
ATOM      6  C   UNL     1     108.926 100.819 100.655  1.00  0.00     0.042 C 
ATOM      7  O   UNL     1     109.035  99.591 100.915  1.00  0.00    -0.550 OA
ATOM      8  O   UNL     1     110.041 101.643 100.744  1.00  0.00    -0.550 OA
ENDBRANCH   5   6
ENDBRANCH   1   5
TORSDOF 3
ENDMDL
MODEL 2
REMARK VINA RESULT:    -3.249     12.104     13.487
REMARK INTER + INTRA:          -3.852
REMARK INTER:                  -3.817
REMARK INTRA:                  -0.035
REMARK UNBOUND:                -0.034
REMARK SMILES O=C([O-])CCC(=O)[O-]
REMARK SMILES IDX 4 1 2 2 1 3 3 4 5 5 6 6 7 7 8 8
REMARK H PARENT
REMARK Flexibility Score: inf
ROOT
ATOM      1  C   UNL     1     103.055 113.166 100.272  1.00  0.00     0.059 C 
ENDROOT
BRANCH   1   2
ATOM      2  C   UNL     1     101.867 112.327 100.621  1.00  0.00     0.042 C 
ATOM      3  O   UNL     1     100.746 112.866 100.814  1.00  0.00    -0.550 OA
ATOM      4  O   UNL     1     101.987 110.944 100.686  1.00  0.00    -0.550 OA
ENDBRANCH   1   2
BRANCH   1   5
ATOM      5  C   UNL     1     102.953 114.540 100.935  1.00  0.00     0.059 C 
BRANCH   5   6
ATOM      6  C   UNL     1     104.204 115.328 100.702  1.00  0.00     0.042 C 
ATOM      7  O   UNL     1     105.331 114.796 100.884  1.00  0.00    -0.550 OA
ATOM      8  O   UNL     1     104.126 116.634 100.236  1.00  0.00    -0.550 OA
ENDBRANCH   5   6
ENDBRANCH   1   5
TORSDOF 3
ENDMDL
MODEL 3
REMARK VINA RESULT:    -3.233      2.294      3.309
REMARK INTER + INTRA:          -3.834
REMARK INTER:                  -3.745
REMARK INTRA:                  -0.089
REMARK UNBOUND:                -0.034
REMARK SMILES O=C([O-])CCC(=O)[O-]
REMARK SMILES IDX 4 1 2 2 1 3 3 4 5 5 6 6 7 7 8 8
REMARK H PARENT
REMARK Flexibility Score: inf
ROOT
ATOM      1  C   UNL     1     109.545 101.089 100.667  1.00  0.00     0.059 C 
ENDROOT
BRANCH   1   2
ATOM      2  C   UNL     1     108.112 101.155 100.245  1.00  0.00     0.042 C 
ATOM      3  O   UNL     1     107.278 100.329 100.701  1.00  0.00    -0.550 OA
ATOM      4  O   UNL     1     107.685 102.160  99.386  1.00  0.00    -0.550 OA
ENDBRANCH   1   2
BRANCH   1   5
ATOM      5  C   UNL     1     109.718 100.101 101.822  1.00  0.00     0.059 C 
BRANCH   5   6
ATOM      6  C   UNL     1     110.154 100.816 103.062  1.00  0.00     0.042 C 
ATOM      7  O   UNL     1     110.194 102.074 103.087  1.00  0.00    -0.550 OA
ATOM      8  O   UNL     1     110.470 100.093 104.206  1.00  0.00    -0.550 OA
ENDBRANCH   5   6
ENDBRANCH   1   5
TORSDOF 3
ENDMDL
MODEL 4
REMARK VINA RESULT:    -3.227     13.294     14.433
REMARK INTER + INTRA:          -3.827
REMARK INTER:                  -3.733
REMARK INTRA:                  -0.094
REMARK UNBOUND:                -0.034
REMARK SMILES O=C([O-])CCC(=O)[O-]
REMARK SMILES IDX 4 1 2 2 1 3 3 4 5 5 6 6 7 7 8 8
REMARK H PARENT
REMARK Flexibility Score: inf
ROOT
ATOM      1  C   UNL     1     115.762 113.057 100.815  1.00  0.00     0.059 C 
ENDROOT
BRANCH   1   2
ATOM      2  C   UNL     1     115.678 111.630 100.374  1.00  0.00     0.042 C 
ATOM      3  O   UNL     1     116.527 110.791 100.775  1.00  0.00    -0.550 OA
ATOM      4  O   UNL     1     114.633 111.215  99.559  1.00  0.00    -0.550 OA
ENDBRANCH   1   2
BRANCH   1   5
ATOM      5  C   UNL     1     114.507 113.452 101.594  1.00  0.00     0.059 C 
BRANCH   5   6
ATOM      6  C   UNL     1     114.775 113.432 103.066  1.00  0.00     0.042 C 
ATOM      7  O   UNL     1     114.711 114.496 103.736  1.00  0.00    -0.550 OA
ATOM      8  O   UNL     1     115.046 112.230 103.706  1.00  0.00    -0.550 OA
ENDBRANCH   5   6
ENDBRANCH   1   5
TORSDOF 3
ENDMDL
MODEL 5
REMARK VINA RESULT:    -3.225     13.339     14.284
REMARK INTER + INTRA:          -3.824
REMARK INTER:                  -3.723
REMARK INTRA:                  -0.101
REMARK UNBOUND:                -0.034
REMARK SMILES O=C([O-])CCC(=O)[O-]
REMARK SMILES IDX 4 1 2 2 1 3 3 4 5 5 6 6 7 7 8 8
REMARK H PARENT
REMARK Flexibility Score: inf
ROOT
ATOM      1  C   UNL     1     114.561 113.481 101.609  1.00  0.00     0.059 C 
ENDROOT
BRANCH   1   2
ATOM      2  C   UNL     1     114.829 113.428 103.079  1.00  0.00     0.042 C 
ATOM      3  O   UNL     1     114.903 114.492 103.749  1.00  0.00    -0.550 OA
ATOM      4  O   UNL     1     114.948 112.202 103.721  1.00  0.00    -0.550 OA
ENDBRANCH   1   2
BRANCH   1   5
ATOM      5  C   UNL     1     115.807 113.072 100.822  1.00  0.00     0.059 C 
BRANCH   5   6
ATOM      6  C   UNL     1     115.716 111.637 100.408  1.00  0.00     0.042 C 
ATOM      7  O   UNL     1     116.516 110.788 100.883  1.00  0.00    -0.550 OA
ATOM      8  O   UNL     1     114.717 111.228  99.534  1.00  0.00    -0.550 OA
ENDBRANCH   5   6
ENDBRANCH   1   5
TORSDOF 3
ENDMDL
MODEL 6
REMARK VINA RESULT:    -3.224     11.556     12.659
REMARK INTER + INTRA:          -3.823
REMARK INTER:                  -3.732
REMARK INTRA:                  -0.091
REMARK UNBOUND:                -0.034
REMARK SMILES O=C([O-])CCC(=O)[O-]
REMARK SMILES IDX 4 1 2 2 1 3 3 4 5 5 6 6 7 7 8 8
REMARK H PARENT
REMARK Flexibility Score: inf
ROOT
ATOM      1  C   UNL     1     101.729 111.917 100.337  1.00  0.00     0.059 C 
ENDROOT
BRANCH   1   2
ATOM      2  C   UNL     1     102.755 112.995 100.186  1.00  0.00     0.042 C 
ATOM      3  O   UNL     1     103.776 112.803  99.474  1.00  0.00    -0.550 OA
ATOM      4  O   UNL     1     102.560 114.230 100.792  1.00  0.00    -0.550 OA
ENDBRANCH   1   2
BRANCH   1   5
ATOM      5  C   UNL     1     100.786 112.235 101.498  1.00  0.00     0.059 C 
BRANCH   5   6
ATOM      6  C   UNL     1     101.111 111.385 102.686  1.00  0.00     0.042 C 
ATOM      7  O   UNL     1     100.418 111.467 103.734  1.00  0.00    -0.550 OA
ATOM      8  O   UNL     1     102.151 110.466 102.618  1.00  0.00    -0.550 OA
ENDBRANCH   5   6
ENDBRANCH   1   5
TORSDOF 3
ENDMDL
MODEL 7
REMARK VINA RESULT:    -3.214      2.315      4.210
REMARK INTER + INTRA:          -3.812
REMARK INTER:                  -3.712
REMARK INTRA:                  -0.099
REMARK UNBOUND:                -0.034
REMARK SMILES O=C([O-])CCC(=O)[O-]
REMARK SMILES IDX 4 1 2 2 1 3 3 4 5 5 6 6 7 7 8 8
REMARK H PARENT
REMARK Flexibility Score: inf
ROOT
ATOM      1  C   UNL     1     109.782 101.101 101.583  1.00  0.00     0.059 C 
ENDROOT
BRANCH   1   2
ATOM      2  C   UNL     1     109.670 100.868 103.056  1.00  0.00     0.042 C 
ATOM      3  O   UNL     1     110.624 100.345 103.690  1.00  0.00    -0.550 OA
ATOM      4  O   UNL     1     108.530 101.273 103.740  1.00  0.00    -0.550 OA
ENDBRANCH   1   2
BRANCH   1   5
ATOM      5  C   UNL     1     108.803 100.205 100.824  1.00  0.00     0.059 C 
BRANCH   5   6
ATOM      6  C   UNL     1     107.601 100.988 100.396  1.00  0.00     0.042 C 
ATOM      7  O   UNL     1     107.713 101.903  99.538  1.00  0.00    -0.550 OA
ATOM      8  O   UNL     1     106.349 100.673 100.908  1.00  0.00    -0.550 OA
ENDBRANCH   5   6
ENDBRANCH   1   5
TORSDOF 3
ENDMDL
MODEL 8
REMARK VINA RESULT:    -3.185     11.989     12.689
REMARK INTER + INTRA:          -3.777
REMARK INTER:                  -3.692
REMARK INTRA:                  -0.085
REMARK UNBOUND:                -0.034
REMARK SMILES O=C([O-])CCC(=O)[O-]
REMARK SMILES IDX 4 1 2 2 1 3 3 4 5 5 6 6 7 7 8 8
REMARK H PARENT
REMARK Flexibility Score: inf
ROOT
ATOM      1  C   UNL     1     101.523 111.402 101.497  1.00  0.00     0.059 C 
ENDROOT
BRANCH   1   2
ATOM      2  C   UNL     1     101.392 111.572 102.977  1.00  0.00     0.042 C 
ATOM      3  O   UNL     1     100.513 110.933 103.613  1.00  0.00    -0.550 OA
ATOM      4  O   UNL     1     102.271 112.401 103.662  1.00  0.00    -0.550 OA
ENDBRANCH   1   2
BRANCH   1   5
ATOM      5  C   UNL     1     101.329 112.741 100.784  1.00  0.00     0.059 C 
BRANCH   5   6
ATOM      6  C   UNL     1     102.649 113.310 100.369  1.00  0.00     0.042 C 
ATOM      7  O   UNL     1     103.392 112.675  99.575  1.00  0.00    -0.550 OA
ATOM      8  O   UNL     1     103.038 114.565 100.821  1.00  0.00    -0.550 OA
ENDBRANCH   5   6
ENDBRANCH   1   5
TORSDOF 3
ENDMDL
MODEL 9
REMARK VINA RESULT:    -3.147      1.358      4.099
REMARK INTER + INTRA:          -3.732
REMARK INTER:                  -3.615
REMARK INTRA:                  -0.117
REMARK UNBOUND:                -0.034
REMARK SMILES O=C([O-])CCC(=O)[O-]
REMARK SMILES IDX 4 1 2 2 1 3 3 4 5 5 6 6 7 7 8 8
REMARK H PARENT
REMARK Flexibility Score: inf
ROOT
ATOM      1  C   UNL     1     107.625 100.463 100.686  1.00  0.00     0.059 C 
ENDROOT
BRANCH   1   2
ATOM      2  C   UNL     1     108.725 101.070 101.497  1.00  0.00     0.042 C 
ATOM      3  O   UNL     1     109.736 101.560 100.927  1.00  0.00    -0.550 OA
ATOM      4  O   UNL     1     108.613 101.140 102.880  1.00  0.00    -0.550 OA
ENDBRANCH   1   2
BRANCH   1   5
ATOM      5  C   UNL     1     106.541 101.501 100.391  1.00  0.00     0.059 C 
BRANCH   5   6
ATOM      6  C   UNL     1     105.252 101.114 101.045  1.00  0.00     0.042 C 
ATOM      7  O   UNL     1     105.179 101.027 102.299  1.00  0.00    -0.550 OA
ATOM      8  O   UNL     1     104.118 100.898 100.272  1.00  0.00    -0.550 OA
ENDBRANCH   5   6
ENDBRANCH   1   5
TORSDOF 3
ENDMDL
