MODEL 1
REMARK VINA RESULT:    -3.469      0.000      0.000
REMARK INTER + INTRA:         -11.120
REMARK INTER:                  -7.525
REMARK INTRA:                  -3.595
REMARK UNBOUND:                -3.595
REMARK SMILES CCCCCCCCCCCCCCCCCCCCCC(=O)[O-]
REMARK SMILES IDX 12 1 11 2 10 3 9 4 8 5 7 6 6 7 5 8 4 9 3 10 2 11 1 12 13 13
REMARK SMILES IDX 14 14 15 15 16 16 17 17 18 18 19 19 20 20 21 21 22 22 23 23
REMARK SMILES IDX 24 24
REMARK H PARENT
REMARK Flexibility Score: inf
ROOT
ATOM      1  C   UNL     1    -118.231  14.502  24.527  1.00  0.00     0.000 C 
ENDROOT
BRANCH   1   2
ATOM      2  C   UNL     1    -117.990  14.731  23.024  1.00  0.00     0.000 C 
BRANCH   2   3
ATOM      3  C   UNL     1    -119.289  14.972  22.242  1.00  0.00     0.000 C 
BRANCH   3   4
ATOM      4  C   UNL     1    -119.217  14.323  20.851  1.00  0.00    -0.000 C 
BRANCH   4   5
ATOM      5  C   UNL     1    -117.923  13.521  20.625  1.00  0.00    -0.000 C 
BRANCH   5   6
ATOM      6  C   UNL     1    -118.087  12.228  19.806  1.00  0.00    -0.000 C 
BRANCH   6   7
ATOM      7  C   UNL     1    -116.749  11.520  19.532  1.00  0.00    -0.000 C 
BRANCH   7   8
ATOM      8  C   UNL     1    -116.719  10.806  18.166  1.00  0.00    -0.000 C 
BRANCH   8   9
ATOM      9  C   UNL     1    -115.968  11.557  17.050  1.00  0.00    -0.000 C 
BRANCH   9  10
ATOM     10  C   UNL     1    -116.829  12.527  16.217  1.00  0.00    -0.000 C 
BRANCH  10  11
ATOM     11  C   UNL     1    -116.708  14.003  16.653  1.00  0.00    -0.003 C 
ATOM     12  C   UNL     1    -118.055  14.619  17.034  1.00  0.00     0.004 C 
ENDBRANCH  10  11
ENDBRANCH   9  10
ENDBRANCH   8   9
ENDBRANCH   7   8
ENDBRANCH   6   7
ENDBRANCH   5   6
ENDBRANCH   4   5
ENDBRANCH   3   4
ENDBRANCH   2   3
ENDBRANCH   1   2
BRANCH   1  13
ATOM     13  C   UNL     1    -119.509  13.709  24.867  1.00  0.00     0.000 C 
BRANCH  13  14
ATOM     14  C   UNL     1    -119.356  12.175  24.848  1.00  0.00     0.000 C 
BRANCH  14  15
ATOM     15  C   UNL     1    -119.840  11.485  23.560  1.00  0.00     0.000 C 
BRANCH  15  16
ATOM     16  C   UNL     1    -118.770  10.572  22.936  1.00  0.00     0.000 C 
BRANCH  16  17
ATOM     17  C   UNL     1    -117.743  10.079  23.968  1.00  0.00     0.000 C 
BRANCH  17  18
ATOM     18  C   UNL     1    -116.289  10.266  23.499  1.00  0.00     0.000 C 
BRANCH  18  19
ATOM     19  C   UNL     1    -115.941  11.737  23.204  1.00  0.00     0.000 C 
BRANCH  19  20
ATOM     20  C   UNL     1    -115.156  12.452  24.319  1.00  0.00     0.006 C 
BRANCH  20  21
ATOM     21  C   UNL     1    -114.493  11.481  25.305  1.00  0.00     0.053 C 
BRANCH  21  22
ATOM     22  C   UNL     1    -113.004  11.535  25.172  1.00  0.00     0.041 C 
ATOM     23  O   UNL     1    -112.420  12.643  25.034  1.00  0.00    -0.550 OA
ATOM     24  O   UNL     1    -112.267  10.357  25.136  1.00  0.00    -0.550 OA
ENDBRANCH  21  22
ENDBRANCH  20  21
ENDBRANCH  19  20
ENDBRANCH  18  19
ENDBRANCH  17  18
ENDBRANCH  16  17
ENDBRANCH  15  16
ENDBRANCH  14  15
ENDBRANCH  13  14
ENDBRANCH   1  13
TORSDOF 20
ENDMDL
MODEL 2
REMARK VINA RESULT:    -3.385      3.406      6.505
REMARK INTER + INTRA:         -10.938
REMARK INTER:                  -7.853
REMARK INTRA:                  -3.086
REMARK UNBOUND:                -3.595
REMARK SMILES CCCCCCCCCCCCCCCCCCCCCC(=O)[O-]
REMARK SMILES IDX 12 1 11 2 10 3 9 4 8 5 7 6 6 7 5 8 4 9 3 10 2 11 1 12 13 13
REMARK SMILES IDX 14 14 15 15 16 16 17 17 18 18 19 19 20 20 21 21 22 22 23 23
REMARK SMILES IDX 24 24
REMARK H PARENT
REMARK Flexibility Score: inf
ROOT
ATOM      1  C   UNL     1    -114.650  11.108  25.289  1.00  0.00     0.000 C 
ENDROOT
BRANCH   1   2
ATOM      2  C   UNL     1    -113.582  12.128  24.856  1.00  0.00     0.000 C 
BRANCH   2   3
ATOM      3  C   UNL     1    -112.249  11.469  24.469  1.00  0.00     0.000 C 
BRANCH   3   4
ATOM      4  C   UNL     1    -112.253   9.976  24.832  1.00  0.00    -0.000 C 
BRANCH   4   5
ATOM      5  C   UNL     1    -111.600   9.091  23.755  1.00  0.00    -0.000 C 
BRANCH   5   6
ATOM      6  C   UNL     1    -111.888   9.507  22.302  1.00  0.00    -0.000 C 
BRANCH   6   7
ATOM      7  C   UNL     1    -113.193   8.905  21.753  1.00  0.00    -0.000 C 
BRANCH   7   8
ATOM      8  C   UNL     1    -114.380   9.885  21.822  1.00  0.00    -0.000 C 
BRANCH   8   9
ATOM      9  C   UNL     1    -115.274   9.921  20.569  1.00  0.00    -0.000 C 
BRANCH   9  10
ATOM     10  C   UNL     1    -116.209  11.142  20.464  1.00  0.00    -0.000 C 
BRANCH  10  11
ATOM     11  C   UNL     1    -117.710  10.779  20.432  1.00  0.00    -0.003 C 
ATOM     12  C   UNL     1    -118.171  10.058  21.698  1.00  0.00     0.004 C 
ENDBRANCH  10  11
ENDBRANCH   9  10
ENDBRANCH   8   9
ENDBRANCH   7   8
ENDBRANCH   6   7
ENDBRANCH   5   6
ENDBRANCH   4   5
ENDBRANCH   3   4
ENDBRANCH   2   3
ENDBRANCH   1   2
BRANCH   1  13
ATOM     13  C   UNL     1    -115.998  11.224  24.550  1.00  0.00     0.000 C 
BRANCH  13  14
ATOM     14  C   UNL     1    -116.260  12.584  23.871  1.00  0.00     0.000 C 
BRANCH  14  15
ATOM     15  C   UNL     1    -117.720  13.070  23.922  1.00  0.00     0.000 C 
BRANCH  15  16
ATOM     16  C   UNL     1    -117.844  14.595  23.763  1.00  0.00     0.000 C 
BRANCH  16  17
ATOM     17  C   UNL     1    -119.015  14.998  22.852  1.00  0.00     0.000 C 
BRANCH  17  18
ATOM     18  C   UNL     1    -119.722  13.786  22.218  1.00  0.00     0.000 C 
BRANCH  18  19
ATOM     19  C   UNL     1    -119.712  13.827  20.679  1.00  0.00     0.000 C 
BRANCH  19  20
ATOM     20  C   UNL     1    -118.662  14.770  20.064  1.00  0.00     0.006 C 
BRANCH  20  21
ATOM     21  C   UNL     1    -117.873  14.124  18.917  1.00  0.00     0.053 C 
BRANCH  21  22
ATOM     22  C   UNL     1    -117.892  15.004  17.708  1.00  0.00     0.041 C 
ATOM     23  O   UNL     1    -116.926  15.779  17.473  1.00  0.00    -0.550 OA
ATOM     24  O   UNL     1    -119.003  15.014  16.873  1.00  0.00    -0.550 OA
ENDBRANCH  21  22
ENDBRANCH  20  21
ENDBRANCH  19  20
ENDBRANCH  18  19
ENDBRANCH  17  18
ENDBRANCH  16  17
ENDBRANCH  15  16
ENDBRANCH  14  15
ENDBRANCH  13  14
ENDBRANCH   1  13
TORSDOF 20
ENDMDL
MODEL 3
REMARK VINA RESULT:    -3.265      1.462      2.410
REMARK INTER + INTRA:         -10.676
REMARK INTER:                  -7.026
REMARK INTRA:                  -3.650
REMARK UNBOUND:                -3.595
REMARK SMILES CCCCCCCCCCCCCCCCCCCCCC(=O)[O-]
REMARK SMILES IDX 12 1 11 2 10 3 9 4 8 5 7 6 6 7 5 8 4 9 3 10 2 11 1 12 13 13
REMARK SMILES IDX 14 14 15 15 16 16 17 17 18 18 19 19 20 20 21 21 22 22 23 23
REMARK SMILES IDX 24 24
REMARK H PARENT
REMARK Flexibility Score: inf
ROOT
ATOM      1  C   UNL     1    -117.779  13.488  23.904  1.00  0.00     0.000 C 
ENDROOT
BRANCH   1   2
ATOM      2  C   UNL     1    -117.996  14.511  22.774  1.00  0.00     0.000 C 
BRANCH   2   3
ATOM      3  C   UNL     1    -119.465  14.611  22.334  1.00  0.00     0.000 C 
BRANCH   3   4
ATOM      4  C   UNL     1    -119.566  15.051  20.865  1.00  0.00    -0.000 C 
BRANCH   4   5
ATOM      5  C   UNL     1    -118.256  14.851  20.084  1.00  0.00    -0.000 C 
BRANCH   5   6
ATOM      6  C   UNL     1    -118.426  14.545  18.585  1.00  0.00    -0.000 C 
BRANCH   6   7
ATOM      7  C   UNL     1    -117.942  13.136  18.202  1.00  0.00    -0.000 C 
BRANCH   7   8
ATOM      8  C   UNL     1    -118.972  12.039  18.533  1.00  0.00    -0.000 C 
BRANCH   8   9
ATOM      9  C   UNL     1    -118.728  11.287  19.855  1.00  0.00    -0.000 C 
BRANCH   9  10
ATOM     10  C   UNL     1    -117.782  10.074  19.756  1.00  0.00    -0.000 C 
BRANCH  10  11
ATOM     11  C   UNL     1    -116.411  10.294  20.431  1.00  0.00    -0.003 C 
ATOM     12  C   UNL     1    -116.307  11.651  21.128  1.00  0.00     0.004 C 
ENDBRANCH  10  11
ENDBRANCH   9  10
ENDBRANCH   8   9
ENDBRANCH   7   8
ENDBRANCH   6   7
ENDBRANCH   5   6
ENDBRANCH   4   5
ENDBRANCH   3   4
ENDBRANCH   2   3
ENDBRANCH   1   2
BRANCH   1  13
ATOM     13  C   UNL     1    -119.039  13.153  24.728  1.00  0.00     0.000 C 
BRANCH  13  14
ATOM     14  C   UNL     1    -119.377  11.652  24.831  1.00  0.00     0.000 C 
BRANCH  14  15
ATOM     15  C   UNL     1    -119.305  10.872  23.506  1.00  0.00     0.000 C 
BRANCH  15  16
ATOM     16  C   UNL     1    -118.375   9.650  23.585  1.00  0.00     0.000 C 
BRANCH  16  17
ATOM     17  C   UNL     1    -117.389   9.736  24.761  1.00  0.00     0.000 C 
BRANCH  17  18
ATOM     18  C   UNL     1    -115.953  10.068  24.313  1.00  0.00     0.000 C 
BRANCH  18  19
ATOM     19  C   UNL     1    -115.259  11.084  25.236  1.00  0.00     0.000 C 
BRANCH  19  20
ATOM     20  C   UNL     1    -114.384  12.124  24.512  1.00  0.00     0.006 C 
BRANCH  20  21
ATOM     21  C   UNL     1    -112.903  12.041  24.905  1.00  0.00     0.053 C 
BRANCH  21  22
ATOM     22  C   UNL     1    -112.346  10.694  24.571  1.00  0.00     0.041 C 
ATOM     23  O   UNL     1    -112.166  10.363  23.369  1.00  0.00    -0.550 OA
ATOM     24  O   UNL     1    -112.086   9.780  25.585  1.00  0.00    -0.550 OA
ENDBRANCH  21  22
ENDBRANCH  20  21
ENDBRANCH  19  20
ENDBRANCH  18  19
ENDBRANCH  17  18
ENDBRANCH  16  17
ENDBRANCH  15  16
ENDBRANCH  14  15
ENDBRANCH  13  14
ENDBRANCH   1  13
TORSDOF 20
ENDMDL
MODEL 4
REMARK VINA RESULT:    -3.242      2.585      5.452
REMARK INTER + INTRA:         -10.628
REMARK INTER:                  -8.224
REMARK INTRA:                  -2.404
REMARK UNBOUND:                -3.595
REMARK SMILES CCCCCCCCCCCCCCCCCCCCCC(=O)[O-]
REMARK SMILES IDX 12 1 11 2 10 3 9 4 8 5 7 6 6 7 5 8 4 9 3 10 2 11 1 12 13 13
REMARK SMILES IDX 14 14 15 15 16 16 17 17 18 18 19 19 20 20 21 21 22 22 23 23
REMARK SMILES IDX 24 24
REMARK H PARENT
REMARK Flexibility Score: inf
ROOT
ATOM      1  C   UNL     1    -111.245  10.004  22.992  1.00  0.00     0.000 C 
ENDROOT
BRANCH   1   2
ATOM      2  C   UNL     1    -112.003   9.251  21.883  1.00  0.00     0.000 C 
BRANCH   2   3
ATOM      3  C   UNL     1    -113.469   8.972  22.246  1.00  0.00     0.000 C 
BRANCH   3   4
ATOM      4  C   UNL     1    -114.390   9.250  21.047  1.00  0.00    -0.000 C 
BRANCH   4   5
ATOM      5  C   UNL     1    -115.244  10.518  21.223  1.00  0.00    -0.000 C 
BRANCH   5   6
ATOM      6  C   UNL     1    -116.614  10.489  20.523  1.00  0.00    -0.000 C 
BRANCH   6   7
ATOM      7  C   UNL     1    -116.936  11.797  19.781  1.00  0.00    -0.000 C 
BRANCH   7   8
ATOM      8  C   UNL     1    -117.948  12.681  20.535  1.00  0.00    -0.000 C 
BRANCH   8   9
ATOM      9  C   UNL     1    -117.999  14.152  20.083  1.00  0.00    -0.000 C 
BRANCH   9  10
ATOM     10  C   UNL     1    -118.504  14.381  18.645  1.00  0.00    -0.000 C 
BRANCH  10  11
ATOM     11  C   UNL     1    -117.505  15.140  17.744  1.00  0.00    -0.003 C 
ATOM     12  C   UNL     1    -116.844  14.236  16.703  1.00  0.00     0.004 C 
ENDBRANCH  10  11
ENDBRANCH   9  10
ENDBRANCH   8   9
ENDBRANCH   7   8
ENDBRANCH   6   7
ENDBRANCH   5   6
ENDBRANCH   4   5
ENDBRANCH   3   4
ENDBRANCH   2   3
ENDBRANCH   1   2
BRANCH   1  13
ATOM     13  C   UNL     1    -112.054  10.245  24.282  1.00  0.00     0.000 C 
BRANCH  13  14
ATOM     14  C   UNL     1    -112.488  11.705  24.523  1.00  0.00     0.000 C 
BRANCH  14  15
ATOM     15  C   UNL     1    -113.753  11.878  25.384  1.00  0.00     0.000 C 
BRANCH  15  16
ATOM     16  C   UNL     1    -115.047  11.848  24.552  1.00  0.00     0.000 C 
BRANCH  16  17
ATOM     17  C   UNL     1    -115.941  10.646  24.898  1.00  0.00     0.000 C 
BRANCH  17  18
ATOM     18  C   UNL     1    -117.300  10.687  24.175  1.00  0.00     0.000 C 
BRANCH  18  19
ATOM     19  C   UNL     1    -118.396  11.382  25.002  1.00  0.00     0.000 C 
BRANCH  19  20
ATOM     20  C   UNL     1    -119.418  12.184  24.176  1.00  0.00     0.006 C 
BRANCH  20  21
ATOM     21  C   UNL     1    -119.597  13.624  24.675  1.00  0.00     0.053 C 
BRANCH  21  22
ATOM     22  C   UNL     1    -118.740  14.562  23.887  1.00  0.00     0.041 C 
ATOM     23  O   UNL     1    -119.231  15.214  22.926  1.00  0.00    -0.550 OA
ATOM     24  O   UNL     1    -117.384  14.671  24.172  1.00  0.00    -0.550 OA
ENDBRANCH  21  22
ENDBRANCH  20  21
ENDBRANCH  19  20
ENDBRANCH  18  19
ENDBRANCH  17  18
ENDBRANCH  16  17
ENDBRANCH  15  16
ENDBRANCH  14  15
ENDBRANCH  13  14
ENDBRANCH   1  13
TORSDOF 20
ENDMDL
MODEL 5
REMARK VINA RESULT:    -3.204      3.178      6.600
REMARK INTER + INTRA:         -10.546
REMARK INTER:                  -7.031
REMARK INTRA:                  -3.515
REMARK UNBOUND:                -3.595
REMARK SMILES CCCCCCCCCCCCCCCCCCCCCC(=O)[O-]
REMARK SMILES IDX 12 1 11 2 10 3 9 4 8 5 7 6 6 7 5 8 4 9 3 10 2 11 1 12 13 13
REMARK SMILES IDX 14 14 15 15 16 16 17 17 18 18 19 19 20 20 21 21 22 22 23 23
REMARK SMILES IDX 24 24
REMARK H PARENT
REMARK Flexibility Score: inf
ROOT
ATOM      1  C   UNL     1    -118.607  14.956  20.726  1.00  0.00     0.000 C 
ENDROOT
BRANCH   1   2
ATOM      2  C   UNL     1    -119.925  14.989  21.520  1.00  0.00     0.000 C 
BRANCH   2   3
ATOM      3  C   UNL     1    -119.727  14.704  23.016  1.00  0.00     0.000 C 
BRANCH   3   4
ATOM      4  C   UNL     1    -118.239  14.773  23.393  1.00  0.00    -0.000 C 
BRANCH   4   5
ATOM      5  C   UNL     1    -117.725  13.485  24.060  1.00  0.00    -0.000 C 
BRANCH   5   6
ATOM      6  C   UNL     1    -118.817  12.490  24.494  1.00  0.00    -0.000 C 
BRANCH   6   7
ATOM      7  C   UNL     1    -118.350  11.026  24.436  1.00  0.00    -0.000 C 
BRANCH   7   8
ATOM      8  C   UNL     1    -116.891  10.843  24.896  1.00  0.00    -0.000 C 
BRANCH   8   9
ATOM      9  C   UNL     1    -115.959  10.171  23.871  1.00  0.00    -0.000 C 
BRANCH   9  10
ATOM     10  C   UNL     1    -114.562  10.808  23.737  1.00  0.00    -0.000 C 
BRANCH  10  11
ATOM     11  C   UNL     1    -114.318  11.990  24.700  1.00  0.00    -0.003 C 
ATOM     12  C   UNL     1    -112.842  12.166  25.057  1.00  0.00     0.004 C 
ENDBRANCH  10  11
ENDBRANCH   9  10
ENDBRANCH   8   9
ENDBRANCH   7   8
ENDBRANCH   6   7
ENDBRANCH   5   6
ENDBRANCH   4   5
ENDBRANCH   3   4
ENDBRANCH   2   3
ENDBRANCH   1   2
BRANCH   1  13
ATOM     13  C   UNL     1    -118.547  13.894  19.610  1.00  0.00     0.000 C 
BRANCH  13  14
ATOM     14  C   UNL     1    -119.148  12.521  19.976  1.00  0.00     0.000 C 
BRANCH  14  15
ATOM     15  C   UNL     1    -118.293  11.666  20.928  1.00  0.00     0.000 C 
BRANCH  15  16
ATOM     16  C   UNL     1    -116.783  11.849  20.698  1.00  0.00     0.000 C 
BRANCH  16  17
ATOM     17  C   UNL     1    -116.113  10.579  20.151  1.00  0.00     0.000 C 
BRANCH  17  18
ATOM     18  C   UNL     1    -115.843  10.652  18.637  1.00  0.00     0.000 C 
BRANCH  18  19
ATOM     19  C   UNL     1    -117.088  10.331  17.791  1.00  0.00     0.000 C 
BRANCH  19  20
ATOM     20  C   UNL     1    -117.272  11.219  16.548  1.00  0.00     0.006 C 
BRANCH  20  21
ATOM     21  C   UNL     1    -116.341  12.438  16.537  1.00  0.00     0.053 C 
BRANCH  21  22
ATOM     22  C   UNL     1    -117.118  13.689  16.276  1.00  0.00     0.041 C 
ATOM     23  O   UNL     1    -116.535  14.807  16.269  1.00  0.00    -0.550 OA
ATOM     24  O   UNL     1    -118.496  13.628  16.103  1.00  0.00    -0.550 OA
ENDBRANCH  21  22
ENDBRANCH  20  21
ENDBRANCH  19  20
ENDBRANCH  18  19
ENDBRANCH  17  18
ENDBRANCH  16  17
ENDBRANCH  15  16
ENDBRANCH  14  15
ENDBRANCH  13  14
ENDBRANCH   1  13
TORSDOF 20
ENDMDL
MODEL 6
REMARK VINA RESULT:    -3.200      3.303      6.411
REMARK INTER + INTRA:         -10.537
REMARK INTER:                  -7.154
REMARK INTRA:                  -3.383
REMARK UNBOUND:                -3.595
REMARK SMILES CCCCCCCCCCCCCCCCCCCCCC(=O)[O-]
REMARK SMILES IDX 12 1 11 2 10 3 9 4 8 5 7 6 6 7 5 8 4 9 3 10 2 11 1 12 13 13
REMARK SMILES IDX 14 14 15 15 16 16 17 17 18 18 19 19 20 20 21 21 22 22 23 23
REMARK SMILES IDX 24 24
REMARK H PARENT
REMARK Flexibility Score: inf
ROOT
ATOM      1  C   UNL     1    -117.030  12.818  23.556  1.00  0.00     0.000 C 
ENDROOT
BRANCH   1   2
ATOM      2  C   UNL     1    -117.557  11.675  24.442  1.00  0.00     0.000 C 
BRANCH   2   3
ATOM      3  C   UNL     1    -118.316  10.603  23.645  1.00  0.00     0.000 C 
BRANCH   3   4
ATOM      4  C   UNL     1    -118.578  11.077  22.206  1.00  0.00    -0.000 C 
BRANCH   4   5
ATOM      5  C   UNL     1    -118.486   9.942  21.171  1.00  0.00    -0.000 C 
BRANCH   5   6
ATOM      6  C   UNL     1    -117.082   9.339  20.982  1.00  0.00    -0.000 C 
BRANCH   6   7
ATOM      7  C   UNL     1    -115.979  10.407  20.893  1.00  0.00    -0.000 C 
BRANCH   7   8
ATOM      8  C   UNL     1    -114.659   9.960  21.552  1.00  0.00    -0.000 C 
BRANCH   8   9
ATOM      9  C   UNL     1    -114.768   9.561  23.035  1.00  0.00    -0.000 C 
BRANCH   9  10
ATOM     10  C   UNL     1    -113.652  10.107  23.947  1.00  0.00    -0.000 C 
BRANCH  10  11
ATOM     11  C   UNL     1    -113.877  11.564  24.406  1.00  0.00    -0.003 C 
ATOM     12  C   UNL     1    -112.630  12.182  25.040  1.00  0.00     0.004 C 
ENDBRANCH  10  11
ENDBRANCH   9  10
ENDBRANCH   8   9
ENDBRANCH   7   8
ENDBRANCH   6   7
ENDBRANCH   5   6
ENDBRANCH   4   5
ENDBRANCH   3   4
ENDBRANCH   2   3
ENDBRANCH   1   2
BRANCH   1  13
ATOM     13  C   UNL     1    -117.542  14.222  23.934  1.00  0.00     0.000 C 
BRANCH  13  14
ATOM     14  C   UNL     1    -118.973  14.268  24.508  1.00  0.00     0.000 C 
BRANCH  14  15
ATOM     15  C   UNL     1    -120.098  14.315  23.458  1.00  0.00     0.000 C 
BRANCH  15  16
ATOM     16  C   UNL     1    -119.771  15.246  22.278  1.00  0.00     0.000 C 
BRANCH  16  17
ATOM     17  C   UNL     1    -119.726  14.500  20.935  1.00  0.00     0.000 C 
BRANCH  17  18
ATOM     18  C   UNL     1    -118.382  14.672  20.203  1.00  0.00     0.000 C 
BRANCH  18  19
ATOM     19  C   UNL     1    -117.782  13.334  19.735  1.00  0.00     0.000 C 
BRANCH  19  20
ATOM     20  C   UNL     1    -117.672  13.174  18.207  1.00  0.00     0.006 C 
BRANCH  20  21
ATOM     21  C   UNL     1    -118.410  14.275  17.433  1.00  0.00     0.053 C 
BRANCH  21  22
ATOM     22  C   UNL     1    -117.442  15.103  16.649  1.00  0.00     0.041 C 
ATOM     23  O   UNL     1    -116.249  14.721  16.508  1.00  0.00    -0.550 OA
ATOM     24  O   UNL     1    -117.841  16.328  16.127  1.00  0.00    -0.550 OA
ENDBRANCH  21  22
ENDBRANCH  20  21
ENDBRANCH  19  20
ENDBRANCH  18  19
ENDBRANCH  17  18
ENDBRANCH  16  17
ENDBRANCH  15  16
ENDBRANCH  14  15
ENDBRANCH  13  14
ENDBRANCH   1  13
TORSDOF 20
ENDMDL
MODEL 7
REMARK VINA RESULT:    -3.150      3.119      6.118
REMARK INTER + INTRA:         -10.428
REMARK INTER:                  -6.611
REMARK INTRA:                  -3.817
REMARK UNBOUND:                -3.595
REMARK SMILES CCCCCCCCCCCCCCCCCCCCCC(=O)[O-]
REMARK SMILES IDX 12 1 11 2 10 3 9 4 8 5 7 6 6 7 5 8 4 9 3 10 2 11 1 12 13 13
REMARK SMILES IDX 14 14 15 15 16 16 17 17 18 18 19 19 20 20 21 21 22 22 23 23
REMARK SMILES IDX 24 24
REMARK H PARENT
REMARK Flexibility Score: inf
ROOT
ATOM      1  C   UNL     1    -116.972  12.868  23.649  1.00  0.00     0.000 C 
ENDROOT
BRANCH   1   2
ATOM      2  C   UNL     1    -117.511  11.709  24.506  1.00  0.00     0.000 C 
BRANCH   2   3
ATOM      3  C   UNL     1    -118.280  10.665  23.682  1.00  0.00     0.000 C 
BRANCH   3   4
ATOM      4  C   UNL     1    -118.498  11.157  22.243  1.00  0.00    -0.000 C 
BRANCH   4   5
ATOM      5  C   UNL     1    -118.324  10.046  21.192  1.00  0.00    -0.000 C 
BRANCH   5   6
ATOM      6  C   UNL     1    -116.897   9.482  21.063  1.00  0.00    -0.000 C 
BRANCH   6   7
ATOM      7  C   UNL     1    -115.814  10.571  21.141  1.00  0.00    -0.000 C 
BRANCH   7   8
ATOM      8  C   UNL     1    -114.528  10.087  21.840  1.00  0.00    -0.000 C 
BRANCH   8   9
ATOM      9  C   UNL     1    -114.721   9.553  23.272  1.00  0.00    -0.000 C 
BRANCH   9  10
ATOM     10  C   UNL     1    -113.667  10.020  24.295  1.00  0.00    -0.000 C 
BRANCH  10  11
ATOM     11  C   UNL     1    -113.891  11.458  24.811  1.00  0.00    -0.003 C 
ATOM     12  C   UNL     1    -112.593  12.259  24.908  1.00  0.00     0.004 C 
ENDBRANCH  10  11
ENDBRANCH   9  10
ENDBRANCH   8   9
ENDBRANCH   7   8
ENDBRANCH   6   7
ENDBRANCH   5   6
ENDBRANCH   4   5
ENDBRANCH   3   4
ENDBRANCH   2   3
ENDBRANCH   1   2
BRANCH   1  13
ATOM     13  C   UNL     1    -117.557  14.254  23.988  1.00  0.00     0.000 C 
BRANCH  13  14
ATOM     14  C   UNL     1    -118.983  14.240  24.575  1.00  0.00     0.000 C 
BRANCH  14  15
ATOM     15  C   UNL     1    -120.118  14.241  23.535  1.00  0.00     0.000 C 
BRANCH  15  16
ATOM     16  C   UNL     1    -119.838  15.178  22.348  1.00  0.00     0.000 C 
BRANCH  16  17
ATOM     17  C   UNL     1    -119.781  14.429  21.007  1.00  0.00     0.000 C 
BRANCH  17  18
ATOM     18  C   UNL     1    -118.525  14.773  20.185  1.00  0.00     0.000 C 
BRANCH  18  19
ATOM     19  C   UNL     1    -117.721  13.528  19.772  1.00  0.00     0.000 C 
BRANCH  19  20
ATOM     20  C   UNL     1    -117.850  13.137  18.288  1.00  0.00     0.006 C 
BRANCH  20  21
ATOM     21  C   UNL     1    -116.917  11.987  17.887  1.00  0.00     0.053 C 
BRANCH  21  22
ATOM     22  C   UNL     1    -117.706  10.754  17.581  1.00  0.00     0.041 C 
ATOM     23  O   UNL     1    -118.959  10.817  17.460  1.00  0.00    -0.550 OA
ATOM     24  O   UNL     1    -117.065   9.524  17.491  1.00  0.00    -0.550 OA
ENDBRANCH  21  22
ENDBRANCH  20  21
ENDBRANCH  19  20
ENDBRANCH  18  19
ENDBRANCH  17  18
ENDBRANCH  16  17
ENDBRANCH  15  16
ENDBRANCH  14  15
ENDBRANCH  13  14
ENDBRANCH   1  13
TORSDOF 20
ENDMDL
MODEL 8
REMARK VINA RESULT:    -3.139      3.012      6.085
REMARK INTER + INTRA:         -10.403
REMARK INTER:                  -7.489
REMARK INTRA:                  -2.914
REMARK UNBOUND:                -3.595
REMARK SMILES CCCCCCCCCCCCCCCCCCCCCC(=O)[O-]
REMARK SMILES IDX 12 1 11 2 10 3 9 4 8 5 7 6 6 7 5 8 4 9 3 10 2 11 1 12 13 13
REMARK SMILES IDX 14 14 15 15 16 16 17 17 18 18 19 19 20 20 21 21 22 22 23 23
REMARK SMILES IDX 24 24
REMARK H PARENT
REMARK Flexibility Score: inf
ROOT
ATOM      1  C   UNL     1    -114.246  12.315  24.526  1.00  0.00     0.000 C 
ENDROOT
BRANCH   1   2
ATOM      2  C   UNL     1    -115.707  12.097  24.094  1.00  0.00     0.000 C 
BRANCH   2   3
ATOM      3  C   UNL     1    -116.386  10.943  24.847  1.00  0.00     0.000 C 
BRANCH   3   4
ATOM      4  C   UNL     1    -117.683  10.518  24.140  1.00  0.00    -0.000 C 
BRANCH   4   5
ATOM      5  C   UNL     1    -118.508  11.711  23.624  1.00  0.00    -0.000 C 
BRANCH   5   6
ATOM      6  C   UNL     1    -119.351  12.435  24.689  1.00  0.00    -0.000 C 
BRANCH   6   7
ATOM      7  C   UNL     1    -119.089  13.951  24.731  1.00  0.00    -0.000 C 
BRANCH   7   8
ATOM      8  C   UNL     1    -118.362  14.468  23.475  1.00  0.00    -0.000 C 
BRANCH   8   9
ATOM      9  C   UNL     1    -119.263  15.155  22.431  1.00  0.00    -0.000 C 
BRANCH   9  10
ATOM     10  C   UNL     1    -118.856  14.930  20.962  1.00  0.00    -0.000 C 
BRANCH  10  11
ATOM     11  C   UNL     1    -118.933  13.455  20.511  1.00  0.00    -0.003 C 
ATOM     12  C   UNL     1    -117.554  12.836  20.279  1.00  0.00     0.004 C 
ENDBRANCH  10  11
ENDBRANCH   9  10
ENDBRANCH   8   9
ENDBRANCH   7   8
ENDBRANCH   6   7
ENDBRANCH   5   6
ENDBRANCH   4   5
ENDBRANCH   3   4
ENDBRANCH   2   3
ENDBRANCH   1   2
BRANCH   1  13
ATOM     13  C   UNL     1    -113.748  11.366  25.635  1.00  0.00     0.000 C 
BRANCH  13  14
ATOM     14  C   UNL     1    -112.526  10.503  25.261  1.00  0.00     0.000 C 
BRANCH  14  15
ATOM     15  C   UNL     1    -112.047  10.642  23.805  1.00  0.00     0.000 C 
BRANCH  15  16
ATOM     16  C   UNL     1    -111.985   9.293  23.068  1.00  0.00     0.000 C 
BRANCH  16  17
ATOM     17  C   UNL     1    -112.833   9.284  21.785  1.00  0.00     0.000 C 
BRANCH  17  18
ATOM     18  C   UNL     1    -114.338   9.448  22.064  1.00  0.00     0.000 C 
BRANCH  18  19
ATOM     19  C   UNL     1    -115.112  10.009  20.857  1.00  0.00     0.000 C 
BRANCH  19  20
ATOM     20  C   UNL     1    -114.766   9.357  19.506  1.00  0.00     0.006 C 
BRANCH  20  21
ATOM     21  C   UNL     1    -115.895   9.475  18.475  1.00  0.00     0.053 C 
BRANCH  21  22
ATOM     22  C   UNL     1    -115.539  10.472  17.418  1.00  0.00     0.041 C 
ATOM     23  O   UNL     1    -114.630  10.214  16.585  1.00  0.00    -0.550 OA
ATOM     24  O   UNL     1    -116.167  11.711  17.393  1.00  0.00    -0.550 OA
ENDBRANCH  21  22
ENDBRANCH  20  21
ENDBRANCH  19  20
ENDBRANCH  18  19
ENDBRANCH  17  18
ENDBRANCH  16  17
ENDBRANCH  15  16
ENDBRANCH  14  15
ENDBRANCH  13  14
ENDBRANCH   1  13
TORSDOF 20
ENDMDL
MODEL 9
REMARK VINA RESULT:    -3.132      2.528      5.042
REMARK INTER + INTRA:         -10.389
REMARK INTER:                  -7.038
REMARK INTRA:                  -3.351
REMARK UNBOUND:                -3.595
REMARK SMILES CCCCCCCCCCCCCCCCCCCCCC(=O)[O-]
REMARK SMILES IDX 12 1 11 2 10 3 9 4 8 5 7 6 6 7 5 8 4 9 3 10 2 11 1 12 13 13
REMARK SMILES IDX 14 14 15 15 16 16 17 17 18 18 19 19 20 20 21 21 22 22 23 23
REMARK SMILES IDX 24 24
REMARK H PARENT
REMARK Flexibility Score: inf
ROOT
ATOM      1  C   UNL     1    -112.314  11.111  24.785  1.00  0.00     0.000 C 
ENDROOT
BRANCH   1   2
ATOM      2  C   UNL     1    -111.921  10.423  23.466  1.00  0.00     0.000 C 
BRANCH   2   3
ATOM      3  C   UNL     1    -112.960   9.392  22.998  1.00  0.00     0.000 C 
BRANCH   3   4
ATOM      4  C   UNL     1    -112.863   9.170  21.480  1.00  0.00    -0.000 C 
BRANCH   4   5
ATOM      5  C   UNL     1    -114.171   9.496  20.738  1.00  0.00    -0.000 C 
BRANCH   5   6
ATOM      6  C   UNL     1    -115.303  10.057  21.619  1.00  0.00    -0.000 C 
BRANCH   6   7
ATOM      7  C   UNL     1    -116.027  11.251  20.975  1.00  0.00    -0.000 C 
BRANCH   7   8
ATOM      8  C   UNL     1    -116.816  10.861  19.709  1.00  0.00    -0.000 C 
BRANCH   8   9
ATOM      9  C   UNL     1    -118.015  11.769  19.378  1.00  0.00    -0.000 C 
BRANCH   9  10
ATOM     10  C   UNL     1    -117.666  13.076  18.638  1.00  0.00    -0.000 C 
BRANCH  10  11
ATOM     11  C   UNL     1    -118.095  14.354  19.391  1.00  0.00    -0.003 C 
ATOM     12  C   UNL     1    -119.614  14.493  19.499  1.00  0.00     0.004 C 
ENDBRANCH  10  11
ENDBRANCH   9  10
ENDBRANCH   8   9
ENDBRANCH   7   8
ENDBRANCH   6   7
ENDBRANCH   5   6
ENDBRANCH   4   5
ENDBRANCH   3   4
ENDBRANCH   2   3
ENDBRANCH   1   2
BRANCH   1  13
ATOM     13  C   UNL     1    -113.760  10.848  25.249  1.00  0.00     0.000 C 
BRANCH  13  14
ATOM     14  C   UNL     1    -114.788  11.922  24.838  1.00  0.00     0.000 C 
BRANCH  14  15
ATOM     15  C   UNL     1    -116.258  11.464  24.861  1.00  0.00     0.000 C 
BRANCH  15  16
ATOM     16  C   UNL     1    -116.404   9.933  24.854  1.00  0.00     0.000 C 
BRANCH  16  17
ATOM     17  C   UNL     1    -117.762   9.473  24.299  1.00  0.00     0.000 C 
BRANCH  17  18
ATOM     18  C   UNL     1    -118.818  10.594  24.305  1.00  0.00     0.000 C 
BRANCH  18  19
ATOM     19  C   UNL     1    -119.172  11.089  22.892  1.00  0.00     0.000 C 
BRANCH  19  20
ATOM     20  C   UNL     1    -119.471  12.596  22.791  1.00  0.00     0.006 C 
BRANCH  20  21
ATOM     21  C   UNL     1    -118.213  13.467  22.895  1.00  0.00     0.053 C 
BRANCH  21  22
ATOM     22  C   UNL     1    -118.289  14.359  24.093  1.00  0.00     0.041 C 
ATOM     23  O   UNL     1    -117.389  15.216  24.304  1.00  0.00    -0.550 OA
ATOM     24  O   UNL     1    -119.321  14.203  25.010  1.00  0.00    -0.550 OA
ENDBRANCH  21  22
ENDBRANCH  20  21
ENDBRANCH  19  20
ENDBRANCH  18  19
ENDBRANCH  17  18
ENDBRANCH  16  17
ENDBRANCH  15  16
ENDBRANCH  14  15
ENDBRANCH  13  14
ENDBRANCH   1  13
TORSDOF 20
ENDMDL
