MODEL 1
REMARK VINA RESULT:    -2.271      0.000      0.000
REMARK INTER + INTRA:          -2.271
REMARK INTER:                  -2.271
REMARK INTRA:                   0.000
REMARK UNBOUND:                 0.000
REMARK SMILES CC(=O)[O-]
REMARK SMILES IDX 1 1 2 2 3 3 4 4
REMARK H PARENT
REMARK Flexibility Score: inf
ROOT
ATOM      1  C   UNL     1       0.774   9.212  -0.086  1.00  0.00     0.063 C 
ATOM      2  C   UNL     1       1.815   8.343   0.534  1.00  0.00     0.038 C 
ATOM      3  O   UNL     1       1.493   7.235   1.039  1.00  0.00    -0.550 OA
ATOM      4  O   UNL     1       3.132   8.776   0.604  1.00  0.00    -0.550 OA
ENDROOT
TORSDOF 0
ENDMDL
MODEL 2
REMARK VINA RESULT:    -2.175     12.523     12.752
REMARK INTER + INTRA:          -2.175
REMARK INTER:                  -2.175
REMARK INTRA:                   0.000
REMARK UNBOUND:                 0.000
REMARK SMILES CC(=O)[O-]
REMARK SMILES IDX 1 1 2 2 3 3 4 4
REMARK H PARENT
REMARK Flexibility Score: inf
ROOT
ATOM      1  C   UNL     1      -4.460  16.553   8.994  1.00  0.00     0.063 C 
ATOM      2  C   UNL     1      -4.998  15.176   8.800  1.00  0.00     0.038 C 
ATOM      3  O   UNL     1      -5.382  14.502   9.791  1.00  0.00    -0.550 OA
ATOM      4  O   UNL     1      -5.025  14.613   7.530  1.00  0.00    -0.550 OA
ENDROOT
TORSDOF 0
ENDMDL
MODEL 3
REMARK VINA RESULT:    -2.160      1.701      2.279
REMARK INTER + INTRA:          -2.160
REMARK INTER:                  -2.160
REMARK INTRA:                   0.000
REMARK UNBOUND:                 0.000
REMARK SMILES CC(=O)[O-]
REMARK SMILES IDX 1 1 2 2 3 3 4 4
REMARK H PARENT
REMARK Flexibility Score: inf
ROOT
ATOM      1  C   UNL     1       1.706   7.329   1.009  1.00  0.00     0.063 C 
ATOM      2  C   UNL     1       1.347   8.408   0.045  1.00  0.00     0.038 C 
ATOM      3  O   UNL     1       2.041   8.588  -0.990  1.00  0.00    -0.550 OA
ATOM      4  O   UNL     1       0.278   9.254   0.314  1.00  0.00    -0.550 OA
ENDROOT
TORSDOF 0
ENDMDL
MODEL 4
REMARK VINA RESULT:    -2.138     10.141     10.484
REMARK INTER + INTRA:          -2.138
REMARK INTER:                  -2.138
REMARK INTRA:                   0.000
REMARK UNBOUND:                 0.000
REMARK SMILES CC(=O)[O-]
REMARK SMILES IDX 1 1 2 2 3 3 4 4
REMARK H PARENT
REMARK Flexibility Score: inf
ROOT
ATOM      1  C   UNL     1      -0.471   7.592   9.475  1.00  0.00     0.063 C 
ATOM      2  C   UNL     1      -0.189   6.734  10.661  1.00  0.00     0.038 C 
ATOM      3  O   UNL     1      -0.419   5.497  10.615  1.00  0.00    -0.550 OA
ATOM      4  O   UNL     1       0.277   7.305  11.838  1.00  0.00    -0.550 OA
ENDROOT
TORSDOF 0
ENDMDL
MODEL 5
REMARK VINA RESULT:    -2.038      1.873      2.104
REMARK INTER + INTRA:          -2.038
REMARK INTER:                  -2.038
REMARK INTRA:                   0.000
REMARK UNBOUND:                 0.000
REMARK SMILES CC(=O)[O-]
REMARK SMILES IDX 1 1 2 2 3 3 4 4
REMARK H PARENT
REMARK Flexibility Score: inf
ROOT
ATOM      1  C   UNL     1       3.517   8.425   0.698  1.00  0.00     0.063 C 
ATOM      2  C   UNL     1       2.419   7.481   1.053  1.00  0.00     0.038 C 
ATOM      3  O   UNL     1       2.687   6.375   1.593  1.00  0.00    -0.550 OA
ATOM      4  O   UNL     1       1.103   7.794   0.739  1.00  0.00    -0.550 OA
ENDROOT
TORSDOF 0
ENDMDL
MODEL 6
REMARK VINA RESULT:    -2.035      8.171      8.531
REMARK INTER + INTRA:          -2.035
REMARK INTER:                  -2.035
REMARK INTRA:                   0.000
REMARK UNBOUND:                 0.000
REMARK SMILES CC(=O)[O-]
REMARK SMILES IDX 1 1 2 2 3 3 4 4
REMARK H PARENT
REMARK Flexibility Score: inf
ROOT
ATOM      1  C   UNL     1      -2.616  11.378  -4.465  1.00  0.00     0.063 C 
ATOM      2  C   UNL     1      -2.655  12.710  -5.133  1.00  0.00     0.038 C 
ATOM      3  O   UNL     1      -3.408  12.898  -6.125  1.00  0.00    -0.550 OA
ATOM      4  O   UNL     1      -1.821  13.732  -4.698  1.00  0.00    -0.550 OA
ENDROOT
TORSDOF 0
ENDMDL
MODEL 7
REMARK VINA RESULT:    -2.030      1.333      1.814
REMARK INTER + INTRA:          -2.030
REMARK INTER:                  -2.030
REMARK INTRA:                   0.000
REMARK UNBOUND:                 0.000
REMARK SMILES CC(=O)[O-]
REMARK SMILES IDX 1 1 2 2 3 3 4 4
REMARK H PARENT
REMARK Flexibility Score: inf
ROOT
ATOM      1  C   UNL     1       0.537   9.235   0.043  1.00  0.00     0.063 C 
ATOM      2  C   UNL     1       1.970   9.117  -0.351  1.00  0.00     0.038 C 
ATOM      3  O   UNL     1       2.313   9.299  -1.549  1.00  0.00    -0.550 OA
ATOM      4  O   UNL     1       2.923   8.752   0.591  1.00  0.00    -0.550 OA
ENDROOT
TORSDOF 0
ENDMDL
MODEL 8
REMARK VINA RESULT:    -1.948     10.329     10.733
REMARK INTER + INTRA:          -1.948
REMARK INTER:                  -1.948
REMARK INTRA:                   0.000
REMARK UNBOUND:                 0.000
REMARK SMILES CC(=O)[O-]
REMARK SMILES IDX 1 1 2 2 3 3 4 4
REMARK H PARENT
REMARK Flexibility Score: inf
ROOT
ATOM      1  C   UNL     1      -0.415   5.237  10.803  1.00  0.00     0.063 C 
ATOM      2  C   UNL     1      -0.143   6.703  10.782  1.00  0.00     0.038 C 
ATOM      3  O   UNL     1       0.263   7.285  11.822  1.00  0.00    -0.550 OA
ATOM      4  O   UNL     1      -0.390   7.439   9.630  1.00  0.00    -0.550 OA
ENDROOT
TORSDOF 0
ENDMDL
