MODEL 1
REMARK VINA RESULT:    -2.506      0.000      0.000
REMARK INTER + INTRA:          -2.506
REMARK INTER:                  -2.506
REMARK INTRA:                   0.000
REMARK UNBOUND:                 0.000
REMARK SMILES CC(=O)[O-]
REMARK SMILES IDX 1 1 2 2 3 3 4 4
REMARK H PARENT
REMARK Flexibility Score: inf
ROOT
ATOM      1  C   UNL     1     -97.573 -57.903 -66.427  1.00  0.00     0.063 C 
ATOM      2  C   UNL     1     -98.374 -58.896 -67.198  1.00  0.00     0.038 C 
ATOM      3  O   UNL     1     -97.800 -59.827 -67.820  1.00  0.00    -0.550 OA
ATOM      4  O   UNL     1     -99.755 -58.763 -67.278  1.00  0.00    -0.550 OA
ENDROOT
TORSDOF 0
ENDMDL
MODEL 2
REMARK VINA RESULT:    -2.504      0.133      1.621
REMARK INTER + INTRA:          -2.504
REMARK INTER:                  -2.504
REMARK INTRA:                   0.000
REMARK UNBOUND:                 0.000
REMARK SMILES CC(=O)[O-]
REMARK SMILES IDX 1 1 2 2 3 3 4 4
REMARK H PARENT
REMARK Flexibility Score: inf
ROOT
ATOM      1  C   UNL     1     -97.494 -57.966 -66.404  1.00  0.00     0.063 C 
ATOM      2  C   UNL     1     -98.345 -58.860 -67.240  1.00  0.00     0.038 C 
ATOM      3  O   UNL     1     -99.594 -58.715 -67.252  1.00  0.00    -0.550 OA
ATOM      4  O   UNL     1     -97.763 -59.892 -67.967  1.00  0.00    -0.550 OA
ENDROOT
TORSDOF 0
ENDMDL
MODEL 3
REMARK VINA RESULT:    -2.463      1.356      1.989
REMARK INTER + INTRA:          -2.463
REMARK INTER:                  -2.463
REMARK INTRA:                   0.000
REMARK UNBOUND:                 0.000
REMARK SMILES CC(=O)[O-]
REMARK SMILES IDX 1 1 2 2 3 3 4 4
REMARK H PARENT
REMARK Flexibility Score: inf
ROOT
ATOM      1  C   UNL     1     -97.671 -59.850 -67.588  1.00  0.00     0.063 C 
ATOM      2  C   UNL     1     -98.509 -58.716 -67.101  1.00  0.00     0.038 C 
ATOM      3  O   UNL     1     -99.747 -58.705 -67.325  1.00  0.00    -0.550 OA
ATOM      4  O   UNL     1     -97.915 -57.643 -66.449  1.00  0.00    -0.550 OA
ENDROOT
TORSDOF 0
ENDMDL
MODEL 4
REMARK VINA RESULT:    -2.248      3.782      3.913
REMARK INTER + INTRA:          -2.248
REMARK INTER:                  -2.248
REMARK INTRA:                   0.000
REMARK UNBOUND:                 0.000
REMARK SMILES CC(=O)[O-]
REMARK SMILES IDX 1 1 2 2 3 3 4 4
REMARK H PARENT
REMARK Flexibility Score: inf
ROOT
ATOM      1  C   UNL     1     -96.778 -61.912 -64.452  1.00  0.00     0.063 C 
ATOM      2  C   UNL     1     -98.165 -61.433 -64.718  1.00  0.00     0.038 C 
ATOM      3  O   UNL     1     -99.090 -61.695 -63.906  1.00  0.00    -0.550 OA
ATOM      4  O   UNL     1     -98.450 -60.743 -65.890  1.00  0.00    -0.550 OA
ENDROOT
TORSDOF 0
ENDMDL
MODEL 5
REMARK VINA RESULT:    -2.228      1.987      2.155
REMARK INTER + INTRA:          -2.228
REMARK INTER:                  -2.228
REMARK INTRA:                   0.000
REMARK UNBOUND:                 0.000
REMARK SMILES CC(=O)[O-]
REMARK SMILES IDX 1 1 2 2 3 3 4 4
REMARK H PARENT
REMARK Flexibility Score: inf
ROOT
ATOM      1  C   UNL     1     -99.186 -58.756 -67.193  1.00  0.00     0.063 C 
ATOM      2  C   UNL     1     -99.746 -60.033 -66.666  1.00  0.00     0.038 C 
ATOM      3  O   UNL     1     -99.127 -60.677 -65.780  1.00  0.00    -0.550 OA
ATOM      4  O   UNL     1    -100.926 -60.544 -67.192  1.00  0.00    -0.550 OA
ENDROOT
TORSDOF 0
ENDMDL
MODEL 6
REMARK VINA RESULT:    -2.188      2.674      3.508
REMARK INTER + INTRA:          -2.188
REMARK INTER:                  -2.188
REMARK INTRA:                   0.000
REMARK UNBOUND:                 0.000
REMARK SMILES CC(=O)[O-]
REMARK SMILES IDX 1 1 2 2 3 3 4 4
REMARK H PARENT
REMARK Flexibility Score: inf
ROOT
ATOM      1  C   UNL     1    -100.465 -61.544 -66.824  1.00  0.00     0.063 C 
ATOM      2  C   UNL     1    -100.701 -60.136 -66.393  1.00  0.00     0.038 C 
ATOM      3  O   UNL     1    -101.599 -59.875 -65.552  1.00  0.00    -0.550 OA
ATOM      4  O   UNL     1     -99.967 -59.103 -66.962  1.00  0.00    -0.550 OA
ENDROOT
TORSDOF 0
ENDMDL
MODEL 7
REMARK VINA RESULT:    -2.177      2.841      3.352
REMARK INTER + INTRA:          -2.177
REMARK INTER:                  -2.177
REMARK INTRA:                   0.000
REMARK UNBOUND:                 0.000
REMARK SMILES CC(=O)[O-]
REMARK SMILES IDX 1 1 2 2 3 3 4 4
REMARK H PARENT
REMARK Flexibility Score: inf
ROOT
ATOM      1  C   UNL     1    -101.736 -59.955 -65.538  1.00  0.00     0.063 C 
ATOM      2  C   UNL     1    -100.871 -60.263 -66.714  1.00  0.00     0.038 C 
ATOM      3  O   UNL     1    -101.195 -61.178 -67.514  1.00  0.00    -0.550 OA
ATOM      4  O   UNL     1     -99.677 -59.576 -66.897  1.00  0.00    -0.550 OA
ENDROOT
TORSDOF 0
ENDMDL
MODEL 8
REMARK VINA RESULT:    -2.156      3.913      4.047
REMARK INTER + INTRA:          -2.156
REMARK INTER:                  -2.156
REMARK INTRA:                   0.000
REMARK UNBOUND:                 0.000
REMARK SMILES CC(=O)[O-]
REMARK SMILES IDX 1 1 2 2 3 3 4 4
REMARK H PARENT
REMARK Flexibility Score: inf
ROOT
ATOM      1  C   UNL     1     -97.845 -61.029 -65.968  1.00  0.00     0.063 C 
ATOM      2  C   UNL     1     -97.754 -61.608 -64.597  1.00  0.00     0.038 C 
ATOM      3  O   UNL     1     -96.669 -62.097 -64.189  1.00  0.00    -0.550 OA
ATOM      4  O   UNL     1     -98.882 -61.660 -63.788  1.00  0.00    -0.550 OA
ENDROOT
TORSDOF 0
ENDMDL
MODEL 9
REMARK VINA RESULT:    -2.072      3.267      3.498
REMARK INTER + INTRA:          -2.072
REMARK INTER:                  -2.072
REMARK INTRA:                   0.000
REMARK UNBOUND:                 0.000
REMARK SMILES CC(=O)[O-]
REMARK SMILES IDX 1 1 2 2 3 3 4 4
REMARK H PARENT
REMARK Flexibility Score: inf
ROOT
ATOM      1  C   UNL     1     -95.731 -61.276 -65.948  1.00  0.00     0.063 C 
ATOM      2  C   UNL     1     -96.790 -60.459 -65.287  1.00  0.00     0.038 C 
ATOM      3  O   UNL     1     -97.190 -59.393 -65.821  1.00  0.00    -0.550 OA
ATOM      4  O   UNL     1     -97.297 -60.847 -64.053  1.00  0.00    -0.550 OA
ENDROOT
TORSDOF 0
ENDMDL
