MODEL 1
REMARK VINA RESULT:    -4.787      0.000      0.000
REMARK INTER + INTRA:          -6.175
REMARK INTER:                  -5.907
REMARK INTRA:                  -0.268
REMARK UNBOUND:                -0.268
REMARK SMILES C=CCc1ccc(OC)c(OC)c1
REMARK SMILES IDX 7 1 10 2 13 3 4 4 5 5 6 6 8 7 9 8 11 9 12 10 3 11 2 12 1 13
REMARK H PARENT
REMARK Flexibility Score: inf
ROOT
ATOM      1  C   UNL     1      19.216   9.682  33.121  1.00  0.00     0.160 A 
ATOM      2  C   UNL     1      20.342   9.972  32.334  1.00  0.00     0.160 A 
ATOM      3  C   UNL     1      20.194  10.737  31.160  1.00  0.00     0.054 A 
ATOM      4  C   UNL     1      18.931  11.207  30.769  1.00  0.00    -0.040 A 
ATOM      5  C   UNL     1      17.815  10.921  31.566  1.00  0.00     0.008 A 
ATOM      6  C   UNL     1      17.952  10.163  32.729  1.00  0.00     0.051 A 
ENDROOT
BRANCH   1   7
ATOM      7  O   UNL     1      19.394   8.916  34.284  1.00  0.00    -0.493 OA
ATOM      8  C   UNL     1      19.655   9.459  35.574  1.00  0.00     0.278 C 
ENDBRANCH   1   7
BRANCH   2   9
ATOM      9  O   UNL     1      21.590   9.485  32.753  1.00  0.00    -0.493 OA
ATOM     10  C   UNL     1      22.613  10.283  33.339  1.00  0.00     0.278 C 
ENDBRANCH   2   9
BRANCH   4  11
ATOM     11  C   UNL     1      18.781  12.051  29.531  1.00  0.00     0.062 C 
BRANCH  11  12
ATOM     12  C   UNL     1      20.110  12.256  28.861  1.00  0.00    -0.030 C 
ATOM     13  C   UNL     1      20.203  12.657  27.590  1.00  0.00     0.004 C 
ENDBRANCH  11  12
ENDBRANCH   4  11
TORSDOF 4
ENDMDL
MODEL 2
REMARK VINA RESULT:    -4.734      2.548      3.933
REMARK INTER + INTRA:          -6.108
REMARK INTER:                  -5.847
REMARK INTRA:                  -0.261
REMARK UNBOUND:                -0.268
REMARK SMILES C=CCc1ccc(OC)c(OC)c1
REMARK SMILES IDX 7 1 10 2 13 3 4 4 5 5 6 6 8 7 9 8 11 9 12 10 3 11 2 12 1 13
REMARK H PARENT
REMARK Flexibility Score: inf
ROOT
ATOM      1  C   UNL     1      20.713   9.570  36.230  1.00  0.00     0.160 A 
ATOM      2  C   UNL     1      20.054   8.615  35.438  1.00  0.00     0.160 A 
ATOM      3  C   UNL     1      19.631   8.960  34.139  1.00  0.00     0.054 A 
ATOM      4  C   UNL     1      19.857  10.249  33.633  1.00  0.00    -0.040 A 
ATOM      5  C   UNL     1      20.524  11.192  34.427  1.00  0.00     0.008 A 
ATOM      6  C   UNL     1      20.945  10.859  35.715  1.00  0.00     0.051 A 
ENDROOT
BRANCH   1   7
ATOM      7  O   UNL     1      21.122   9.198  37.520  1.00  0.00    -0.493 OA
ATOM      8  C   UNL     1      20.427   9.540  38.716  1.00  0.00     0.278 C 
ENDBRANCH   1   7
BRANCH   2   9
ATOM      9  O   UNL     1      19.842   7.336  35.975  1.00  0.00    -0.493 OA
ATOM     10  C   UNL     1      20.533   6.161  35.562  1.00  0.00     0.278 C 
ENDBRANCH   2   9
BRANCH   4  11
ATOM     11  C   UNL     1      19.431  10.606  32.233  1.00  0.00     0.062 C 
BRANCH  11  12
ATOM     12  C   UNL     1      17.947  10.434  32.068  1.00  0.00    -0.030 C 
ATOM     13  C   UNL     1      17.217  11.287  31.343  1.00  0.00     0.004 C 
ENDBRANCH  11  12
ENDBRANCH   4  11
TORSDOF 4
ENDMDL
MODEL 3
REMARK VINA RESULT:    -4.551      2.638      3.776
REMARK INTER + INTRA:          -5.884
REMARK INTER:                  -5.593
REMARK INTRA:                  -0.290
REMARK UNBOUND:                -0.268
REMARK SMILES C=CCc1ccc(OC)c(OC)c1
REMARK SMILES IDX 7 1 10 2 13 3 4 4 5 5 6 6 8 7 9 8 11 9 12 10 3 11 2 12 1 13
REMARK H PARENT
REMARK Flexibility Score: inf
ROOT
ATOM      1  C   UNL     1      20.612   9.244  36.159  1.00  0.00     0.160 A 
ATOM      2  C   UNL     1      20.975  10.528  35.723  1.00  0.00     0.160 A 
ATOM      3  C   UNL     1      20.592  10.961  34.438  1.00  0.00     0.054 A 
ATOM      4  C   UNL     1      19.857  10.120  33.590  1.00  0.00    -0.040 A 
ATOM      5  C   UNL     1      19.490   8.844  34.038  1.00  0.00     0.008 A 
ATOM      6  C   UNL     1      19.866   8.406  35.308  1.00  0.00     0.051 A 
ENDROOT
BRANCH   1   7
ATOM      7  O   UNL     1      21.008   8.838  37.443  1.00  0.00    -0.493 OA
ATOM      8  C   UNL     1      20.173   8.880  38.596  1.00  0.00     0.278 C 
ENDBRANCH   1   7
BRANCH   2   9
ATOM      9  O   UNL     1      21.714  11.343  36.595  1.00  0.00    -0.493 OA
ATOM     10  C   UNL     1      21.281  12.611  37.076  1.00  0.00     0.278 C 
ENDBRANCH   2   9
BRANCH   4  11
ATOM     11  C   UNL     1      19.422  10.597  32.230  1.00  0.00     0.062 C 
BRANCH  11  12
ATOM     12  C   UNL     1      17.936  10.448  32.063  1.00  0.00    -0.030 C 
ATOM     13  C   UNL     1      17.229  11.272  31.283  1.00  0.00     0.004 C 
ENDBRANCH  11  12
ENDBRANCH   4  11
TORSDOF 4
ENDMDL
MODEL 4
REMARK VINA RESULT:    -4.533      2.187      3.790
REMARK INTER + INTRA:          -5.861
REMARK INTER:                  -5.590
REMARK INTRA:                  -0.271
REMARK UNBOUND:                -0.268
REMARK SMILES C=CCc1ccc(OC)c(OC)c1
REMARK SMILES IDX 7 1 10 2 13 3 4 4 5 5 6 6 8 7 9 8 11 9 12 10 3 11 2 12 1 13
REMARK H PARENT
REMARK Flexibility Score: inf
ROOT
ATOM      1  C   UNL     1      21.965   9.257  33.883  1.00  0.00     0.160 A 
ATOM      2  C   UNL     1      20.906   8.510  34.425  1.00  0.00     0.160 A 
ATOM      3  C   UNL     1      19.590   8.739  33.974  1.00  0.00     0.054 A 
ATOM      4  C   UNL     1      19.329   9.707  32.993  1.00  0.00    -0.040 A 
ATOM      5  C   UNL     1      20.394  10.439  32.450  1.00  0.00     0.008 A 
ATOM      6  C   UNL     1      21.700  10.221  32.892  1.00  0.00     0.051 A 
ENDROOT
BRANCH   1   7
ATOM      7  O   UNL     1      23.264   9.009  34.352  1.00  0.00    -0.493 OA
ATOM      8  C   UNL     1      24.293   8.389  33.588  1.00  0.00     0.278 C 
ENDBRANCH   1   7
BRANCH   2   9
ATOM      9  O   UNL     1      21.201   7.552  35.407  1.00  0.00    -0.493 OA
ATOM     10  C   UNL     1      20.438   6.372  35.638  1.00  0.00     0.278 C 
ENDBRANCH   2   9
BRANCH   4  11
ATOM     11  C   UNL     1      17.927   9.926  32.490  1.00  0.00     0.062 C 
BRANCH  11  12
ATOM     12  C   UNL     1      17.887  11.058  31.501  1.00  0.00    -0.030 C 
ATOM     13  C   UNL     1      16.735  11.516  31.003  1.00  0.00     0.004 C 
ENDBRANCH  11  12
ENDBRANCH   4  11
TORSDOF 4
ENDMDL
MODEL 5
REMARK VINA RESULT:    -4.523      1.972      2.674
REMARK INTER + INTRA:          -5.849
REMARK INTER:                  -5.590
REMARK INTRA:                  -0.258
REMARK UNBOUND:                -0.268
REMARK SMILES C=CCc1ccc(OC)c(OC)c1
REMARK SMILES IDX 7 1 10 2 13 3 4 4 5 5 6 6 8 7 9 8 11 9 12 10 3 11 2 12 1 13
REMARK H PARENT
REMARK Flexibility Score: inf
ROOT
ATOM      1  C   UNL     1      20.877   8.926  33.959  1.00  0.00     0.160 A 
ATOM      2  C   UNL     1      21.429   9.629  32.876  1.00  0.00     0.160 A 
ATOM      3  C   UNL     1      20.588  10.379  32.030  1.00  0.00     0.054 A 
ATOM      4  C   UNL     1      19.204  10.424  32.256  1.00  0.00    -0.040 A 
ATOM      5  C   UNL     1      18.663   9.728  33.345  1.00  0.00     0.008 A 
ATOM      6  C   UNL     1      19.488   8.981  34.188  1.00  0.00     0.051 A 
ENDROOT
BRANCH   1   7
ATOM      7  O   UNL     1      21.738   8.186  34.784  1.00  0.00    -0.493 OA
ATOM      8  C   UNL     1      21.313   7.181  35.698  1.00  0.00     0.278 C 
ENDBRANCH   1   7
BRANCH   2   9
ATOM      9  O   UNL     1      22.817   9.561  32.677  1.00  0.00    -0.493 OA
ATOM     10  C   UNL     1      23.651  10.683  32.407  1.00  0.00     0.278 C 
ENDBRANCH   2   9
BRANCH   4  11
ATOM     11  C   UNL     1      18.312  11.252  31.370  1.00  0.00     0.062 C 
BRANCH  11  12
ATOM     12  C   UNL     1      16.871  10.869  31.559  1.00  0.00    -0.030 C 
ATOM     13  C   UNL     1      15.903  11.373  30.788  1.00  0.00     0.004 C 
ENDBRANCH  11  12
ENDBRANCH   4  11
TORSDOF 4
ENDMDL
MODEL 6
REMARK VINA RESULT:    -4.486      2.565      4.193
REMARK INTER + INTRA:          -5.802
REMARK INTER:                  -5.487
REMARK INTRA:                  -0.316
REMARK UNBOUND:                -0.268
REMARK SMILES C=CCc1ccc(OC)c(OC)c1
REMARK SMILES IDX 7 1 10 2 13 3 4 4 5 5 6 6 8 7 9 8 11 9 12 10 3 11 2 12 1 13
REMARK H PARENT
REMARK Flexibility Score: inf
ROOT
ATOM      1  C   UNL     1      21.435  10.089  35.820  1.00  0.00     0.160 A 
ATOM      2  C   UNL     1      20.450   9.095  35.942  1.00  0.00     0.160 A 
ATOM      3  C   UNL     1      19.470   8.960  34.938  1.00  0.00     0.054 A 
ATOM      4  C   UNL     1      19.467   9.811  33.823  1.00  0.00    -0.040 A 
ATOM      5  C   UNL     1      20.461  10.792  33.705  1.00  0.00     0.008 A 
ATOM      6  C   UNL     1      21.434  10.935  34.694  1.00  0.00     0.051 A 
ENDROOT
BRANCH   1   7
ATOM      7  O   UNL     1      22.398  10.202  36.835  1.00  0.00    -0.493 OA
ATOM      8  C   UNL     1      22.388  11.204  37.847  1.00  0.00     0.278 C 
ENDBRANCH   1   7
BRANCH   2   9
ATOM      9  O   UNL     1      20.480   8.263  37.071  1.00  0.00    -0.493 OA
ATOM     10  C   UNL     1      19.712   8.475  38.251  1.00  0.00     0.278 C 
ENDBRANCH   2   9
BRANCH   4  11
ATOM     11  C   UNL     1      18.438   9.642  32.737  1.00  0.00     0.062 C 
BRANCH  11  12
ATOM     12  C   UNL     1      18.387  10.861  31.858  1.00  0.00    -0.030 C 
ATOM     13  C   UNL     1      17.244  11.289  31.314  1.00  0.00     0.004 C 
ENDBRANCH  11  12
ENDBRANCH   4  11
TORSDOF 4
ENDMDL
MODEL 7
REMARK VINA RESULT:    -4.439      3.101      5.597
REMARK INTER + INTRA:          -5.745
REMARK INTER:                  -5.465
REMARK INTRA:                  -0.279
REMARK UNBOUND:                -0.268
REMARK SMILES C=CCc1ccc(OC)c(OC)c1
REMARK SMILES IDX 7 1 10 2 13 3 4 4 5 5 6 6 8 7 9 8 11 9 12 10 3 11 2 12 1 13
REMARK H PARENT
REMARK Flexibility Score: inf
ROOT
ATOM      1  C   UNL     1      21.575  12.395  27.910  1.00  0.00     0.160 A 
ATOM      2  C   UNL     1      22.339  11.712  28.870  1.00  0.00     0.160 A 
ATOM      3  C   UNL     1      21.714  11.214  30.031  1.00  0.00     0.054 A 
ATOM      4  C   UNL     1      20.340  11.400  30.238  1.00  0.00    -0.040 A 
ATOM      5  C   UNL     1      19.584  12.074  29.270  1.00  0.00     0.008 A 
ATOM      6  C   UNL     1      20.193  12.572  28.118  1.00  0.00     0.051 A 
ENDROOT
BRANCH   1   7
ATOM      7  O   UNL     1      22.224  12.881  26.764  1.00  0.00    -0.493 OA
ATOM      8  C   UNL     1      21.759  12.689  25.431  1.00  0.00     0.278 C 
ENDBRANCH   1   7
BRANCH   2   9
ATOM      9  O   UNL     1      23.712  11.545  28.632  1.00  0.00    -0.493 OA
ATOM     10  C   UNL     1      24.733  12.367  29.190  1.00  0.00     0.278 C 
ENDBRANCH   2   9
BRANCH   4  11
ATOM     11  C   UNL     1      19.670  10.839  31.465  1.00  0.00     0.062 C 
BRANCH  11  12
ATOM     12  C   UNL     1      18.221  11.237  31.509  1.00  0.00    -0.030 C 
ATOM     13  C   UNL     1      17.280  10.414  31.980  1.00  0.00     0.004 C 
ENDBRANCH  11  12
ENDBRANCH   4  11
TORSDOF 4
ENDMDL
MODEL 8
REMARK VINA RESULT:    -4.351      2.293      3.812
REMARK INTER + INTRA:          -5.636
REMARK INTER:                  -5.382
REMARK INTRA:                  -0.254
REMARK UNBOUND:                -0.268
REMARK SMILES C=CCc1ccc(OC)c(OC)c1
REMARK SMILES IDX 7 1 10 2 13 3 4 4 5 5 6 6 8 7 9 8 11 9 12 10 3 11 2 12 1 13
REMARK H PARENT
REMARK Flexibility Score: inf
ROOT
ATOM      1  C   UNL     1      22.367  10.524  33.437  1.00  0.00     0.160 A 
ATOM      2  C   UNL     1      21.376  10.747  34.406  1.00  0.00     0.160 A 
ATOM      3  C   UNL     1      20.017  10.643  34.049  1.00  0.00     0.054 A 
ATOM      4  C   UNL     1      19.646  10.324  32.735  1.00  0.00    -0.040 A 
ATOM      5  C   UNL     1      20.642  10.092  31.777  1.00  0.00     0.008 A 
ATOM      6  C   UNL     1      21.991  10.195  32.120  1.00  0.00     0.051 A 
ENDROOT
BRANCH   1   7
ATOM      7  O   UNL     1      23.713  10.636  33.820  1.00  0.00    -0.493 OA
ATOM      8  C   UNL     1      24.541  11.760  33.537  1.00  0.00     0.278 C 
ENDBRANCH   1   7
BRANCH   2   9
ATOM      9  O   UNL     1      21.782  11.067  35.711  1.00  0.00    -0.493 OA
ATOM     10  C   UNL     1      21.207  12.101  36.504  1.00  0.00     0.278 C 
ENDBRANCH   2   9
BRANCH   4  11
ATOM     11  C   UNL     1      18.193  10.182  32.364  1.00  0.00     0.062 C 
BRANCH  11  12
ATOM     12  C   UNL     1      17.773  11.279  31.426  1.00  0.00    -0.030 C 
ATOM     13  C   UNL     1      16.518  11.381  30.981  1.00  0.00     0.004 C 
ENDBRANCH  11  12
ENDBRANCH   4  11
TORSDOF 4
ENDMDL
MODEL 9
REMARK VINA RESULT:    -4.198      2.466      3.624
REMARK INTER + INTRA:          -5.447
REMARK INTER:                  -5.198
REMARK INTRA:                  -0.249
REMARK UNBOUND:                -0.268
REMARK SMILES C=CCc1ccc(OC)c(OC)c1
REMARK SMILES IDX 7 1 10 2 13 3 4 4 5 5 6 6 8 7 9 8 11 9 12 10 3 11 2 12 1 13
REMARK H PARENT
REMARK Flexibility Score: inf
ROOT
ATOM      1  C   UNL     1      22.558  10.635  33.327  1.00  0.00     0.160 A 
ATOM      2  C   UNL     1      22.112  10.403  32.016  1.00  0.00     0.160 A 
ATOM      3  C   UNL     1      20.731  10.285  31.761  1.00  0.00     0.054 A 
ATOM      4  C   UNL     1      19.800  10.391  32.804  1.00  0.00    -0.040 A 
ATOM      5  C   UNL     1      20.253  10.633  34.107  1.00  0.00     0.008 A 
ATOM      6  C   UNL     1      21.619  10.750  34.371  1.00  0.00     0.051 A 
ENDROOT
BRANCH   1   7
ATOM      7  O   UNL     1      23.939  10.747  33.552  1.00  0.00    -0.493 OA
ATOM      8  C   UNL     1      24.674   9.941  34.467  1.00  0.00     0.278 C 
ENDBRANCH   1   7
BRANCH   2   9
ATOM      9  O   UNL     1      23.070  10.299  30.996  1.00  0.00    -0.493 OA
ATOM     10  C   UNL     1      23.247   9.154  30.168  1.00  0.00     0.278 C 
ENDBRANCH   2   9
BRANCH   4  11
ATOM     11  C   UNL     1      18.324  10.296  32.523  1.00  0.00     0.062 C 
BRANCH  11  12
ATOM     12  C   UNL     1      17.909  11.317  31.501  1.00  0.00    -0.030 C 
ATOM     13  C   UNL     1      16.661  11.371  31.026  1.00  0.00     0.004 C 
ENDBRANCH  11  12
ENDBRANCH   4  11
TORSDOF 4
ENDMDL
