MODEL 1
REMARK VINA RESULT:    -4.891      0.000      0.000
REMARK INTER + INTRA:          -6.270
REMARK INTER:                  -6.893
REMARK INTRA:                   0.622
REMARK UNBOUND:                 0.622
REMARK SMILES CC1=CCC(=C(C)C)C(=O)CC(C)=CCC1
REMARK SMILES IDX 12 1 14 2 13 3 15 4 16 5 2 6 1 7 3 8 11 10 9 11 10 12 5 13
REMARK SMILES IDX 6 14 7 15 8 16 4 17
REMARK H PARENT
REMARK Flexibility Score: 60.00
ROOT
ATOM      1  C   UNL     1      17.409 -31.664  21.921  1.00  0.00    -0.070 C 
ATOM      2  C   UNL     1      17.924 -31.952  20.702  1.00  0.00    -0.027 C 
ATOM      3  C   UNL     1      17.137 -30.212  22.235  1.00  0.00     0.039 C 
ENDROOT
BRANCH   2   4
ATOM      4  C   UNL     1      18.368 -33.312  20.218  1.00  0.00     0.032 C 
BRANCH   4   5
ATOM      5  C   UNL     1      17.342 -33.967  19.274  1.00  0.00     0.034 C 
BRANCH   5   6
ATOM      6  C   UNL     1      16.465 -34.974  19.993  1.00  0.00    -0.077 C 
ATOM      7  C   UNL     1      16.938 -36.401  20.083  1.00  0.00     0.039 C 
ATOM      8  C   UNL     1      15.289 -34.658  20.582  1.00  0.00    -0.023 CG0
ATOM      9  G   UNL     1      14.667 -33.283  20.629  1.00  0.00     0.000 G0
ENDBRANCH   5   6
ENDBRANCH   4   5
ENDBRANCH   2   4
BRANCH   1  10
ATOM     10  C   UNL     1      17.155 -32.704  22.998  1.00  0.00     0.111 C 
BRANCH  10  11
ATOM     11  C   UNL     1      15.740 -33.227  22.944  1.00  0.00     0.163 C 
ATOM     12  O   UNL     1      15.413 -34.136  23.755  1.00  0.00    -0.294 OA
BRANCH  11  13
ATOM     13  C   UNL     1      14.724 -32.663  22.003  1.00  0.00    -0.002 C 
ATOM     14  C   UNL     1      13.845 -31.690  22.393  1.00  0.00    -0.069 C 
ATOM     15  C   UNL     1      13.804 -31.184  23.818  1.00  0.00     0.039 C 
ATOM     16  C   UNL     1      12.846 -31.096  21.425  1.00  0.00     0.039 C 
BRANCH  13  17
ATOM     17  C   UNL     1      14.658 -33.270  20.613  1.00  0.00     0.066 CG0
ATOM     18  G   UNL     1      15.282 -34.645  20.625  1.00  0.00     0.000 G0
ENDBRANCH  13  17
ENDBRANCH  11  13
ENDBRANCH  10  11
ENDBRANCH   1  10
TORSDOF 0
ENDMDL
MODEL 2
REMARK VINA RESULT:    -4.534      1.475      4.020
REMARK INTER + INTRA:          -5.767
REMARK INTER:                  -6.284
REMARK INTRA:                   0.517
REMARK UNBOUND:                 0.622
REMARK SMILES CC1=CCC(=C(C)C)C(=O)CC(C)=CCC1
REMARK SMILES IDX 12 1 14 2 13 3 15 4 16 5 2 6 1 7 3 8 11 10 9 11 10 12 5 13
REMARK SMILES IDX 6 14 7 15 8 16 4 17
REMARK H PARENT
REMARK Flexibility Score: 60.00
ROOT
ATOM      1  C   UNL     1      18.107 -30.556  21.659  1.00  0.00    -0.070 C 
ATOM      2  C   UNL     1      17.161 -29.856  22.328  1.00  0.00    -0.027 C 
ATOM      3  C   UNL     1      19.546 -30.138  21.851  1.00  0.00     0.039 C 
ENDROOT
BRANCH   2   4
ATOM      4  C   UNL     1      15.666 -30.030  22.204  1.00  0.00     0.032 C 
BRANCH   4   5
ATOM      5  C   UNL     1      15.184 -31.396  22.727  1.00  0.00     0.034 C 
BRANCH   5   6
ATOM      6  C   UNL     1      14.384 -32.157  21.687  1.00  0.00    -0.077 C 
ATOM      7  C   UNL     1      13.254 -31.443  20.990  1.00  0.00     0.039 C 
ATOM      8  C   UNL     1      14.641 -33.435  21.330  1.00  0.00    -0.023 CG0
ATOM      9  G   UNL     1      15.746 -34.301  21.885  1.00  0.00     0.000 G0
ENDBRANCH   5   6
ENDBRANCH   4   5
ENDBRANCH   2   4
BRANCH   1  10
ATOM     10  C   UNL     1      17.798 -31.681  20.687  1.00  0.00     0.111 C 
BRANCH  10  11
ATOM     11  C   UNL     1      17.930 -33.034  21.343  1.00  0.00     0.163 C 
ATOM     12  O   UNL     1      18.824 -33.183  22.218  1.00  0.00    -0.294 OA
BRANCH  11  13
ATOM     13  C   UNL     1      17.004 -34.164  21.019  1.00  0.00    -0.002 C 
ATOM     14  C   UNL     1      17.231 -34.997  19.958  1.00  0.00    -0.069 C 
ATOM     15  C   UNL     1      18.389 -34.777  19.010  1.00  0.00     0.039 C 
ATOM     16  C   UNL     1      16.312 -36.162  19.660  1.00  0.00     0.039 C 
BRANCH  13  17
ATOM     17  C   UNL     1      15.759 -34.304  21.875  1.00  0.00     0.066 CG0
ATOM     18  G   UNL     1      14.658 -33.429  21.324  1.00  0.00     0.000 G0
ENDBRANCH  13  17
ENDBRANCH  11  13
ENDBRANCH  10  11
ENDBRANCH   1  10
TORSDOF 0
ENDMDL
MODEL 3
REMARK VINA RESULT:    -4.532      2.114      4.749
REMARK INTER + INTRA:          -5.764
REMARK INTER:                  -6.303
REMARK INTRA:                   0.540
REMARK UNBOUND:                 0.622
REMARK SMILES CC1=CCC(=C(C)C)C(=O)CC(C)=CCC1
REMARK SMILES IDX 12 1 14 2 13 3 15 4 16 5 2 6 1 7 3 8 11 10 9 11 10 12 5 13
REMARK SMILES IDX 6 14 7 15 8 16 4 17
REMARK H PARENT
REMARK Flexibility Score: 60.00
ROOT
ATOM      1  C   UNL     1      15.007 -33.984  20.916  1.00  0.00    -0.070 C 
ATOM      2  C   UNL     1      14.201 -33.073  20.321  1.00  0.00    -0.027 C 
ATOM      3  C   UNL     1      15.491 -35.140  20.074  1.00  0.00     0.039 C 
ENDROOT
BRANCH   2   4
ATOM      4  C   UNL     1      13.521 -31.906  20.994  1.00  0.00     0.032 C 
BRANCH   4   5
ATOM      5  C   UNL     1      14.459 -30.697  21.171  1.00  0.00     0.034 C 
BRANCH   5   6
ATOM      6  C   UNL     1      14.626 -30.312  22.629  1.00  0.00    -0.077 C 
ATOM      7  C   UNL     1      13.439 -29.740  23.360  1.00  0.00     0.039 C 
ATOM      8  C   UNL     1      15.776 -30.476  23.321  1.00  0.00    -0.023 CG0
ATOM      9  G   UNL     1      17.057 -31.062  22.777  1.00  0.00     0.000 G0
ENDBRANCH   5   6
ENDBRANCH   4   5
ENDBRANCH   2   4
BRANCH   1  10
ATOM     10  C   UNL     1      15.392 -33.939  22.385  1.00  0.00     0.111 C 
BRANCH  10  11
ATOM     11  C   UNL     1      16.853 -33.608  22.568  1.00  0.00     0.163 C 
ATOM     12  O   UNL     1      17.702 -34.335  21.986  1.00  0.00    -0.294 OA
BRANCH  11  13
ATOM     13  C   UNL     1      17.302 -32.425  23.366  1.00  0.00    -0.002 C 
ATOM     14  C   UNL     1      17.853 -32.565  24.610  1.00  0.00    -0.069 C 
ATOM     15  C   UNL     1      17.969 -33.917  25.278  1.00  0.00     0.039 C 
ATOM     16  C   UNL     1      18.341 -31.367  25.395  1.00  0.00     0.039 C 
BRANCH  13  17
ATOM     17  C   UNL     1      17.053 -31.053  22.767  1.00  0.00     0.066 CG0
ATOM     18  G   UNL     1      15.770 -30.479  23.317  1.00  0.00     0.000 G0
ENDBRANCH  13  17
ENDBRANCH  11  13
ENDBRANCH  10  11
ENDBRANCH   1  10
TORSDOF 0
ENDMDL
MODEL 4
REMARK VINA RESULT:    -4.433      2.072      4.180
REMARK INTER + INTRA:          -5.624
REMARK INTER:                  -5.953
REMARK INTRA:                   0.329
REMARK UNBOUND:                 0.622
REMARK SMILES CC1=CCC(=C(C)C)C(=O)CC(C)=CCC1
REMARK SMILES IDX 12 1 14 2 13 3 15 4 16 5 2 6 1 7 3 8 11 10 9 11 10 12 5 13
REMARK SMILES IDX 6 14 7 15 8 16 4 17
REMARK H PARENT
REMARK Flexibility Score: 60.00
ROOT
ATOM      1  C   UNL     1      15.290 -31.334  23.400  1.00  0.00    -0.070 C 
ATOM      2  C   UNL     1      15.732 -30.314  22.627  1.00  0.00    -0.027 C 
ATOM      3  C   UNL     1      13.858 -31.276  23.876  1.00  0.00     0.039 C 
ENDROOT
BRANCH   2   4
ATOM      4  C   UNL     1      17.144 -30.116  22.131  1.00  0.00     0.032 C 
BRANCH   4   5
ATOM      5  C   UNL     1      17.503 -31.064  20.971  1.00  0.00     0.034 C 
BRANCH   5   6
ATOM      6  C   UNL     1      18.814 -31.788  21.210  1.00  0.00    -0.077 C 
ATOM      7  C   UNL     1      20.060 -30.966  21.411  1.00  0.00     0.039 C 
ATOM      8  C   UNL     1      18.926 -33.135  21.278  1.00  0.00    -0.023 CG0
ATOM      9  G   UNL     1      17.792 -34.122  21.139  1.00  0.00     0.000 G0
ENDBRANCH   5   6
ENDBRANCH   4   5
ENDBRANCH   2   4
BRANCH   1  10
ATOM     10  C   UNL     1      16.166 -32.486  23.862  1.00  0.00     0.111 C 
BRANCH  10  11
ATOM     11  C   UNL     1      16.037 -33.683  22.950  1.00  0.00     0.163 C 
ATOM     12  O   UNL     1      14.890 -33.978  22.519  1.00  0.00    -0.294 OA
BRANCH  11  13
ATOM     13  C   UNL     1      17.228 -34.478  22.515  1.00  0.00    -0.002 C 
ATOM     14  C   UNL     1      17.809 -35.407  23.333  1.00  0.00    -0.069 C 
ATOM     15  C   UNL     1      17.327 -35.629  24.749  1.00  0.00     0.039 C 
ATOM     16  C   UNL     1      18.989 -36.235  22.872  1.00  0.00     0.039 C 
BRANCH  13  17
ATOM     17  C   UNL     1      17.811 -34.156  21.151  1.00  0.00     0.066 CG0
ATOM     18  G   UNL     1      18.912 -33.133  21.293  1.00  0.00     0.000 G0
ENDBRANCH  13  17
ENDBRANCH  11  13
ENDBRANCH  10  11
ENDBRANCH   1  10
TORSDOF 0
ENDMDL
MODEL 5
REMARK VINA RESULT:    -4.366      1.627      2.064
REMARK INTER + INTRA:          -5.530
REMARK INTER:                  -6.381
REMARK INTRA:                   0.851
REMARK UNBOUND:                 0.622
REMARK SMILES CC1=CCC(=C(C)C)C(=O)CC(C)=CCC1
REMARK SMILES IDX 12 1 14 2 13 3 15 4 16 5 2 6 1 7 3 8 11 10 9 11 10 12 5 13
REMARK SMILES IDX 6 14 7 15 8 16 4 17
REMARK H PARENT
REMARK Flexibility Score: 60.00
ROOT
ATOM      1  C   UNL     1      18.500 -31.948  20.957  1.00  0.00    -0.070 C 
ATOM      2  C   UNL     1      18.432 -33.168  20.371  1.00  0.00    -0.027 C 
ATOM      3  C   UNL     1      19.723 -31.644  21.789  1.00  0.00     0.039 C 
ENDROOT
BRANCH   2   4
ATOM      4  C   UNL     1      17.265 -33.720  19.590  1.00  0.00     0.032 C 
BRANCH   4   5
ATOM      5  C   UNL     1      16.588 -34.909  20.299  1.00  0.00     0.034 C 
BRANCH   5   6
ATOM      6  C   UNL     1      16.417 -34.665  21.786  1.00  0.00    -0.077 C 
ATOM      7  C   UNL     1      17.242 -35.483  22.745  1.00  0.00     0.039 C 
ATOM      8  C   UNL     1      15.581 -33.735  22.303  1.00  0.00    -0.023 CG0
ATOM      9  G   UNL     1      14.703 -32.799  21.507  1.00  0.00     0.000 G0
ENDBRANCH   5   6
ENDBRANCH   4   5
ENDBRANCH   2   4
BRANCH   1  10
ATOM     10  C   UNL     1      17.395 -30.909  20.876  1.00  0.00     0.111 C 
BRANCH  10  11
ATOM     11  C   UNL     1      16.472 -30.985  22.067  1.00  0.00     0.163 C 
ATOM     12  O   UNL     1      16.940 -30.687  23.199  1.00  0.00    -0.294 OA
BRANCH  11  13
ATOM     13  C   UNL     1      15.027 -31.348  21.927  1.00  0.00    -0.002 C 
ATOM     14  C   UNL     1      14.031 -30.457  22.218  1.00  0.00    -0.069 C 
ATOM     15  C   UNL     1      14.334 -29.081  22.767  1.00  0.00     0.039 C 
ATOM     16  C   UNL     1      12.573 -30.819  22.036  1.00  0.00     0.039 C 
BRANCH  13  17
ATOM     17  C   UNL     1      14.711 -32.776  21.520  1.00  0.00     0.066 CG0
ATOM     18  G   UNL     1      15.579 -33.735  22.298  1.00  0.00     0.000 G0
ENDBRANCH  13  17
ENDBRANCH  11  13
ENDBRANCH  10  11
ENDBRANCH   1  10
TORSDOF 0
ENDMDL
MODEL 6
REMARK VINA RESULT:    -4.315      1.959      3.642
REMARK INTER + INTRA:          -5.458
REMARK INTER:                  -6.106
REMARK INTRA:                   0.647
REMARK UNBOUND:                 0.622
REMARK SMILES CC1=CCC(=C(C)C)C(=O)CC(C)=CCC1
REMARK SMILES IDX 12 1 14 2 13 3 15 4 16 5 2 6 1 7 3 8 11 10 9 11 10 12 5 13
REMARK SMILES IDX 6 14 7 15 8 16 4 17
REMARK H PARENT
REMARK Flexibility Score: 60.00
ROOT
ATOM      1  C   UNL     1      14.343 -32.640  21.473  1.00  0.00    -0.070 C 
ATOM      2  C   UNL     1      14.403 -33.333  20.311  1.00  0.00    -0.027 C 
ATOM      3  C   UNL     1      13.740 -31.256  21.427  1.00  0.00     0.039 C 
ENDROOT
BRANCH   2   4
ATOM      4  C   UNL     1      15.056 -34.679  20.106  1.00  0.00     0.032 C 
BRANCH   4   5
ATOM      5  C   UNL     1      16.457 -34.567  19.477  1.00  0.00     0.034 C 
BRANCH   5   6
ATOM      6  C   UNL     1      17.441 -35.540  20.097  1.00  0.00    -0.077 C 
ATOM      7  C   UNL     1      17.518 -36.937  19.536  1.00  0.00     0.039 C 
ATOM      8  C   UNL     1      18.276 -35.220  21.112  1.00  0.00    -0.023 CG0
ATOM      9  G   UNL     1      18.373 -33.869  21.781  1.00  0.00     0.000 G0
ENDBRANCH   5   6
ENDBRANCH   4   5
ENDBRANCH   2   4
BRANCH   1  10
ATOM     10  C   UNL     1      14.904 -33.148  22.790  1.00  0.00     0.111 C 
BRANCH  10  11
ATOM     11  C   UNL     1      16.357 -32.778  22.956  1.00  0.00     0.163 C 
ATOM     12  O   UNL     1      16.644 -31.562  23.120  1.00  0.00    -0.294 OA
BRANCH  11  13
ATOM     13  C   UNL     1      17.439 -33.812  22.983  1.00  0.00    -0.002 C 
ATOM     14  C   UNL     1      17.628 -34.626  24.065  1.00  0.00    -0.069 C 
ATOM     15  C   UNL     1      16.802 -34.477  25.323  1.00  0.00     0.039 C 
ATOM     16  C   UNL     1      18.698 -35.696  24.069  1.00  0.00     0.039 C 
BRANCH  13  17
ATOM     17  C   UNL     1      18.368 -33.870  21.784  1.00  0.00     0.066 CG0
ATOM     18  G   UNL     1      18.270 -35.224  21.124  1.00  0.00     0.000 G0
ENDBRANCH  13  17
ENDBRANCH  11  13
ENDBRANCH  10  11
ENDBRANCH   1  10
TORSDOF 0
ENDMDL
MODEL 7
REMARK VINA RESULT:    -4.267      1.756      3.739
REMARK INTER + INTRA:          -5.391
REMARK INTER:                  -5.760
REMARK INTRA:                   0.369
REMARK UNBOUND:                 0.622
REMARK SMILES CC1=CCC(=C(C)C)C(=O)CC(C)=CCC1
REMARK SMILES IDX 12 1 14 2 13 3 15 4 16 5 2 6 1 7 3 8 11 10 9 11 10 12 5 13
REMARK SMILES IDX 6 14 7 15 8 16 4 17
REMARK H PARENT
REMARK Flexibility Score: 60.00
ROOT
ATOM      1  C   UNL     1      16.793 -34.124  20.184  1.00  0.00    -0.070 C 
ATOM      2  C   UNL     1      18.099 -33.773  20.123  1.00  0.00    -0.027 C 
ATOM      3  C   UNL     1      16.459 -35.588  20.022  1.00  0.00     0.039 C 
ENDROOT
BRANCH   2   4
ATOM      4  C   UNL     1      18.649 -32.368  20.154  1.00  0.00     0.032 C 
BRANCH   4   5
ATOM      5  C   UNL     1      18.740 -31.799  21.582  1.00  0.00     0.034 C 
BRANCH   5   6
ATOM      6  C   UNL     1      18.150 -30.405  21.681  1.00  0.00    -0.077 C 
ATOM      7  C   UNL     1      18.802 -29.294  20.899  1.00  0.00     0.039 C 
ATOM      8  C   UNL     1      17.053 -30.105  22.413  1.00  0.00    -0.023 CG0
ATOM      9  G   UNL     1      16.244 -31.082  23.232  1.00  0.00     0.000 G0
ENDBRANCH   5   6
ENDBRANCH   4   5
ENDBRANCH   2   4
BRANCH   1  10
ATOM     10  C   UNL     1      15.657 -33.129  20.338  1.00  0.00     0.111 C 
BRANCH  10  11
ATOM     11  C   UNL     1      15.257 -32.962  21.784  1.00  0.00     0.163 C 
ATOM     12  O   UNL     1      15.122 -34.000  22.485  1.00  0.00    -0.294 OA
BRANCH  11  13
ATOM     13  C   UNL     1      15.072 -31.612  22.403  1.00  0.00    -0.002 C 
ATOM     14  C   UNL     1      13.948 -30.866  22.176  1.00  0.00    -0.069 C 
ATOM     15  C   UNL     1      12.865 -31.331  21.229  1.00  0.00     0.039 C 
ATOM     16  C   UNL     1      13.751 -29.519  22.837  1.00  0.00     0.039 C 
BRANCH  13  17
ATOM     17  C   UNL     1      16.219 -31.072  23.236  1.00  0.00     0.066 CG0
ATOM     18  G   UNL     1      17.048 -30.119  22.409  1.00  0.00     0.000 G0
ENDBRANCH  13  17
ENDBRANCH  11  13
ENDBRANCH  10  11
ENDBRANCH   1  10
TORSDOF 0
ENDMDL
MODEL 8
REMARK VINA RESULT:    -4.222      1.925      3.662
REMARK INTER + INTRA:          -5.327
REMARK INTER:                  -5.871
REMARK INTRA:                   0.544
REMARK UNBOUND:                 0.622
REMARK SMILES CC1=CCC(=C(C)C)C(=O)CC(C)=CCC1
REMARK SMILES IDX 12 1 14 2 13 3 15 4 16 5 2 6 1 7 3 8 11 10 9 11 10 12 5 13
REMARK SMILES IDX 6 14 7 15 8 16 4 17
REMARK H PARENT
REMARK Flexibility Score: 60.00
ROOT
ATOM      1  C   UNL     1      14.382 -32.918  20.964  1.00  0.00    -0.070 C 
ATOM      2  C   UNL     1      14.493 -33.908  20.048  1.00  0.00    -0.027 C 
ATOM      3  C   UNL     1      13.480 -31.754  20.625  1.00  0.00     0.039 C 
ENDROOT
BRANCH   2   4
ATOM      4  C   UNL     1      15.411 -35.103  20.131  1.00  0.00     0.032 C 
BRANCH   4   5
ATOM      5  C   UNL     1      16.756 -34.867  19.418  1.00  0.00     0.034 C 
BRANCH   5   6
ATOM      6  C   UNL     1      17.940 -35.138  20.327  1.00  0.00    -0.077 C 
ATOM      7  C   UNL     1      18.417 -36.560  20.476  1.00  0.00     0.039 C 
ATOM      8  C   UNL     1      18.611 -34.172  20.995  1.00  0.00    -0.023 CG0
ATOM      9  G   UNL     1      18.309 -32.694  20.946  1.00  0.00     0.000 G0
ENDBRANCH   5   6
ENDBRANCH   4   5
ENDBRANCH   2   4
BRANCH   1  10
ATOM     10  C   UNL     1      15.157 -32.884  22.270  1.00  0.00     0.111 C 
BRANCH  10  11
ATOM     11  C   UNL     1      16.253 -31.846  22.240  1.00  0.00     0.163 C 
ATOM     12  O   UNL     1      15.918 -30.631  22.242  1.00  0.00    -0.294 OA
BRANCH  11  13
ATOM     13  C   UNL     1      17.700 -32.223  22.260  1.00  0.00    -0.002 C 
ATOM     14  C   UNL     1      18.460 -32.095  23.390  1.00  0.00    -0.069 C 
ATOM     15  C   UNL     1      17.898 -31.495  24.660  1.00  0.00     0.039 C 
ATOM     16  C   UNL     1      19.914 -32.515  23.414  1.00  0.00     0.039 C 
BRANCH  13  17
ATOM     17  C   UNL     1      18.311 -32.687  20.950  1.00  0.00     0.066 CG0
ATOM     18  G   UNL     1      18.605 -34.166  21.017  1.00  0.00     0.000 G0
ENDBRANCH  13  17
ENDBRANCH  11  13
ENDBRANCH  10  11
ENDBRANCH   1  10
TORSDOF 0
ENDMDL
MODEL 9
REMARK VINA RESULT:    -4.142      1.747      4.052
REMARK INTER + INTRA:          -5.214
REMARK INTER:                  -5.588
REMARK INTRA:                   0.374
REMARK UNBOUND:                 0.622
REMARK SMILES CC1=CCC(=C(C)C)C(=O)CC(C)=CCC1
REMARK SMILES IDX 12 1 14 2 13 3 15 4 16 5 2 6 1 7 3 8 11 10 9 11 10 12 5 13
REMARK SMILES IDX 6 14 7 15 8 16 4 17
REMARK H PARENT
REMARK Flexibility Score: 60.00
ROOT
ATOM      1  C   UNL     1      18.676 -31.840  23.876  1.00  0.00    -0.070 C 
ATOM      2  C   UNL     1      17.805 -30.847  24.176  1.00  0.00    -0.027 C 
ATOM      3  C   UNL     1      19.769 -32.132  24.876  1.00  0.00     0.039 C 
ENDROOT
BRANCH   2   4
ATOM      4  C   UNL     1      16.709 -30.319  23.283  1.00  0.00     0.032 C 
BRANCH   4   5
ATOM      5  C   UNL     1      15.387 -31.091  23.448  1.00  0.00     0.034 C 
BRANCH   5   6
ATOM      6  C   UNL     1      14.823 -31.552  22.118  1.00  0.00    -0.077 C 
ATOM      7  C   UNL     1      14.223 -30.520  21.198  1.00  0.00     0.039 C 
ATOM      8  C   UNL     1      14.851 -32.837  21.695  1.00  0.00    -0.023 CG0
ATOM      9  G   UNL     1      15.440 -34.002  22.454  1.00  0.00     0.000 G0
ENDBRANCH   5   6
ENDBRANCH   4   5
ENDBRANCH   2   4
BRANCH   1  10
ATOM     10  C   UNL     1      18.651 -32.620  22.572  1.00  0.00     0.111 C 
BRANCH  10  11
ATOM     11  C   UNL     1      17.985 -33.964  22.742  1.00  0.00     0.163 C 
ATOM     12  O   UNL     1      18.423 -34.733  23.639  1.00  0.00    -0.294 OA
BRANCH  11  13
ATOM     13  C   UNL     1      16.805 -34.372  21.917  1.00  0.00    -0.002 C 
ATOM     14  C   UNL     1      16.954 -34.981  20.701  1.00  0.00    -0.069 C 
ATOM     15  C   UNL     1      18.319 -35.208  20.091  1.00  0.00     0.039 C 
ATOM     16  C   UNL     1      15.756 -35.426  19.891  1.00  0.00     0.039 C 
BRANCH  13  17
ATOM     17  C   UNL     1      15.431 -34.014  22.453  1.00  0.00     0.066 CG0
ATOM     18  G   UNL     1      14.872 -32.839  21.687  1.00  0.00     0.000 G0
ENDBRANCH  13  17
ENDBRANCH  11  13
ENDBRANCH  10  11
ENDBRANCH   1  10
TORSDOF 0
ENDMDL
