MODEL 1
REMARK VINA RESULT:    -3.333      0.000      0.000
REMARK INTER + INTRA:          -3.960
REMARK INTER:                  -3.918
REMARK INTRA:                  -0.042
REMARK UNBOUND:                -0.042
REMARK SMILES O=C([O-])CCC(=O)[O-]
REMARK SMILES IDX 4 1 2 2 1 3 3 4 5 5 6 6 7 7 8 8
REMARK H PARENT
REMARK Flexibility Score: inf
ROOT
ATOM      1  C   UNL     1       1.639  24.609  24.487  1.00  0.00     0.059 C 
ENDROOT
BRANCH   1   2
ATOM      2  C   UNL     1       0.589  25.074  25.450  1.00  0.00     0.042 C 
ATOM      3  O   UNL     1       0.314  26.298  25.545  1.00  0.00    -0.550 OA
ATOM      4  O   UNL     1      -0.056  24.157  26.271  1.00  0.00    -0.550 OA
ENDBRANCH   1   2
BRANCH   1   5
ATOM      5  C   UNL     1       1.492  23.117  24.170  1.00  0.00     0.059 C 
BRANCH   5   6
ATOM      6  C   UNL     1       1.668  22.842  22.708  1.00  0.00     0.042 C 
ATOM      7  O   UNL     1       1.299  21.742  22.221  1.00  0.00    -0.550 OA
ATOM      8  O   UNL     1       2.204  23.818  21.876  1.00  0.00    -0.550 OA
ENDBRANCH   5   6
ENDBRANCH   1   5
TORSDOF 3
ENDMDL
MODEL 2
REMARK VINA RESULT:    -3.319      0.089      4.257
REMARK INTER + INTRA:          -3.944
REMARK INTER:                  -3.895
REMARK INTRA:                  -0.049
REMARK UNBOUND:                -0.042
REMARK SMILES O=C([O-])CCC(=O)[O-]
REMARK SMILES IDX 4 1 2 2 1 3 3 4 5 5 6 6 7 7 8 8
REMARK H PARENT
REMARK Flexibility Score: inf
ROOT
ATOM      1  C   UNL     1       1.513  23.066  24.224  1.00  0.00     0.059 C 
ENDROOT
BRANCH   1   2
ATOM      2  C   UNL     1       1.602  22.833  22.747  1.00  0.00     0.042 C 
ATOM      3  O   UNL     1       1.302  21.711  22.263  1.00  0.00    -0.550 OA
ATOM      4  O   UNL     1       2.055  23.846  21.910  1.00  0.00    -0.550 OA
ENDBRANCH   1   2
BRANCH   1   5
ATOM      5  C   UNL     1       1.677  24.549  24.572  1.00  0.00     0.059 C 
BRANCH   5   6
ATOM      6  C   UNL     1       0.588  25.028  25.482  1.00  0.00     0.042 C 
ATOM      7  O   UNL     1       0.282  26.248  25.517  1.00  0.00    -0.550 OA
ATOM      8  O   UNL     1      -0.116  24.119  26.263  1.00  0.00    -0.550 OA
ENDBRANCH   5   6
ENDBRANCH   1   5
TORSDOF 3
ENDMDL
MODEL 3
REMARK VINA RESULT:    -3.299      0.844      4.101
REMARK INTER + INTRA:          -3.920
REMARK INTER:                  -3.867
REMARK INTRA:                  -0.053
REMARK UNBOUND:                -0.042
REMARK SMILES O=C([O-])CCC(=O)[O-]
REMARK SMILES IDX 4 1 2 2 1 3 3 4 5 5 6 6 7 7 8 8
REMARK H PARENT
REMARK Flexibility Score: inf
ROOT
ATOM      1  C   UNL     1       1.897  24.681  23.911  1.00  0.00     0.059 C 
ENDROOT
BRANCH   1   2
ATOM      2  C   UNL     1       1.968  23.623  22.853  1.00  0.00     0.042 C 
ATOM      3  O   UNL     1       2.635  23.818  21.804  1.00  0.00    -0.550 OA
ATOM      4  O   UNL     1       1.262  22.436  23.009  1.00  0.00    -0.550 OA
ENDBRANCH   1   2
BRANCH   1   5
ATOM      5  C   UNL     1       1.249  24.153  25.195  1.00  0.00     0.059 C 
BRANCH   5   6
ATOM      6  C   UNL     1       0.236  25.113  25.738  1.00  0.00     0.042 C 
ATOM      7  O   UNL     1       0.323  26.342  25.478  1.00  0.00    -0.550 OA
ATOM      8  O   UNL     1      -0.829  24.645  26.498  1.00  0.00    -0.550 OA
ENDBRANCH   5   6
ENDBRANCH   1   5
TORSDOF 3
ENDMDL
MODEL 4
REMARK VINA RESULT:    -3.274      0.831      1.804
REMARK INTER + INTRA:          -3.890
REMARK INTER:                  -3.836
REMARK INTRA:                  -0.054
REMARK UNBOUND:                -0.042
REMARK SMILES O=C([O-])CCC(=O)[O-]
REMARK SMILES IDX 4 1 2 2 1 3 3 4 5 5 6 6 7 7 8 8
REMARK H PARENT
REMARK Flexibility Score: inf
ROOT
ATOM      1  C   UNL     1       1.211  24.101  25.303  1.00  0.00     0.059 C 
ENDROOT
BRANCH   1   2
ATOM      2  C   UNL     1       0.182  25.044  25.849  1.00  0.00     0.042 C 
ATOM      3  O   UNL     1      -0.784  24.606  26.527  1.00  0.00    -0.550 OA
ATOM      4  O   UNL     1       0.270  26.403  25.574  1.00  0.00    -0.550 OA
ENDBRANCH   1   2
BRANCH   1   5
ATOM      5  C   UNL     1       1.883  24.666  24.047  1.00  0.00     0.059 C 
BRANCH   5   6
ATOM      6  C   UNL     1       1.864  23.680  22.919  1.00  0.00     0.042 C 
ATOM      7  O   UNL     1       2.455  23.942  21.839  1.00  0.00    -0.550 OA
ATOM      8  O   UNL     1       1.230  22.454  23.077  1.00  0.00    -0.550 OA
ENDBRANCH   5   6
ENDBRANCH   1   5
TORSDOF 3
ENDMDL
MODEL 5
REMARK VINA RESULT:    -3.268     16.768     17.695
REMARK INTER + INTRA:          -3.884
REMARK INTER:                  -3.798
REMARK INTRA:                  -0.086
REMARK UNBOUND:                -0.042
REMARK SMILES O=C([O-])CCC(=O)[O-]
REMARK SMILES IDX 4 1 2 2 1 3 3 4 5 5 6 6 7 7 8 8
REMARK H PARENT
REMARK Flexibility Score: inf
ROOT
ATOM      1  C   UNL     1     -10.855  23.510  12.134  1.00  0.00     0.059 C 
ENDROOT
BRANCH   1   2
ATOM      2  C   UNL     1     -11.664  24.015  10.979  1.00  0.00     0.042 C 
ATOM      3  O   UNL     1     -11.167  24.048   9.823  1.00  0.00    -0.550 OA
ATOM      4  O   UNL     1     -12.954  24.488  11.188  1.00  0.00    -0.550 OA
ENDBRANCH   1   2
BRANCH   1   5
ATOM      5  C   UNL     1     -11.625  22.465  12.948  1.00  0.00     0.059 C 
BRANCH   5   6
ATOM      6  C   UNL     1     -12.097  23.021  14.256  1.00  0.00     0.042 C 
ATOM      7  O   UNL     1     -13.067  22.489  14.857  1.00  0.00    -0.550 OA
ATOM      8  O   UNL     1     -11.440  24.101  14.832  1.00  0.00    -0.550 OA
ENDBRANCH   5   6
ENDBRANCH   1   5
TORSDOF 3
ENDMDL
MODEL 6
REMARK VINA RESULT:    -3.260     16.775     17.464
REMARK INTER + INTRA:          -3.874
REMARK INTER:                  -3.784
REMARK INTRA:                  -0.090
REMARK UNBOUND:                -0.042
REMARK SMILES O=C([O-])CCC(=O)[O-]
REMARK SMILES IDX 4 1 2 2 1 3 3 4 5 5 6 6 7 7 8 8
REMARK H PARENT
REMARK Flexibility Score: inf
ROOT
ATOM      1  C   UNL     1     -11.520  22.495  12.951  1.00  0.00     0.059 C 
ENDROOT
BRANCH   1   2
ATOM      2  C   UNL     1     -12.063  23.049  14.233  1.00  0.00     0.042 C 
ATOM      3  O   UNL     1     -11.540  24.067  14.756  1.00  0.00    -0.550 OA
ATOM      4  O   UNL     1     -13.122  22.414  14.870  1.00  0.00    -0.550 OA
ENDBRANCH   1   2
BRANCH   1   5
ATOM      5  C   UNL     1     -10.814  23.575  12.124  1.00  0.00     0.059 C 
BRANCH   5   6
ATOM      6  C   UNL     1     -11.645  24.008  10.955  1.00  0.00     0.042 C 
ATOM      7  O   UNL     1     -11.188  23.917   9.786  1.00  0.00    -0.550 OA
ATOM      8  O   UNL     1     -12.939  24.473  11.155  1.00  0.00    -0.550 OA
ENDBRANCH   5   6
ENDBRANCH   1   5
TORSDOF 3
ENDMDL
MODEL 7
REMARK VINA RESULT:    -3.246     16.782     17.501
REMARK INTER + INTRA:          -3.858
REMARK INTER:                  -3.766
REMARK INTRA:                  -0.092
REMARK UNBOUND:                -0.042
REMARK SMILES O=C([O-])CCC(=O)[O-]
REMARK SMILES IDX 4 1 2 2 1 3 3 4 5 5 6 6 7 7 8 8
REMARK H PARENT
REMARK Flexibility Score: inf
ROOT
ATOM      1  C   UNL     1     -11.589  22.478  12.919  1.00  0.00     0.059 C 
ENDROOT
BRANCH   1   2
ATOM      2  C   UNL     1     -12.083  23.002  14.233  1.00  0.00     0.042 C 
ATOM      3  O   UNL     1     -13.044  22.438  14.820  1.00  0.00    -0.550 OA
ATOM      4  O   UNL     1     -11.506  24.137  14.789  1.00  0.00    -0.550 OA
ENDBRANCH   1   2
BRANCH   1   5
ATOM      5  C   UNL     1     -10.848  23.558  12.125  1.00  0.00     0.059 C 
BRANCH   5   6
ATOM      6  C   UNL     1     -11.649  24.030  10.950  1.00  0.00     0.042 C 
ATOM      7  O   UNL     1     -11.160  23.987   9.791  1.00  0.00    -0.550 OA
ATOM      8  O   UNL     1     -12.952  24.477  11.131  1.00  0.00    -0.550 OA
ENDBRANCH   5   6
ENDBRANCH   1   5
TORSDOF 3
ENDMDL
MODEL 8
REMARK VINA RESULT:    -3.092      2.118      3.850
REMARK INTER + INTRA:          -3.677
REMARK INTER:                  -3.621
REMARK INTRA:                  -0.056
REMARK UNBOUND:                -0.042
REMARK SMILES O=C([O-])CCC(=O)[O-]
REMARK SMILES IDX 4 1 2 2 1 3 3 4 5 5 6 6 7 7 8 8
REMARK H PARENT
REMARK Flexibility Score: inf
ROOT
ATOM      1  C   UNL     1       1.582  23.134  23.335  1.00  0.00     0.059 C 
ENDROOT
BRANCH   1   2
ATOM      2  C   UNL     1       2.562  24.005  22.609  1.00  0.00     0.042 C 
ATOM      3  O   UNL     1       3.793  23.918  22.856  1.00  0.00    -0.550 OA
ATOM      4  O   UNL     1       2.109  24.942  21.688  1.00  0.00    -0.550 OA
ENDBRANCH   1   2
BRANCH   1   5
ATOM      5  C   UNL     1       1.195  23.732  24.691  1.00  0.00     0.059 C 
BRANCH   5   6
ATOM      6  C   UNL     1       1.150  22.687  25.764  1.00  0.00     0.042 C 
ATOM      7  O   UNL     1       0.077  22.454  26.378  1.00  0.00    -0.550 OA
ATOM      8  O   UNL     1       2.286  21.940  26.056  1.00  0.00    -0.550 OA
ENDBRANCH   5   6
ENDBRANCH   1   5
TORSDOF 3
ENDMDL
MODEL 9
REMARK VINA RESULT:    -3.046      2.285      3.740
REMARK INTER + INTRA:          -3.622
REMARK INTER:                  -3.501
REMARK INTRA:                  -0.121
REMARK UNBOUND:                -0.042
REMARK SMILES O=C([O-])CCC(=O)[O-]
REMARK SMILES IDX 4 1 2 2 1 3 3 4 5 5 6 6 7 7 8 8
REMARK H PARENT
REMARK Flexibility Score: inf
ROOT
ATOM      1  C   UNL     1       1.493  23.259  24.131  1.00  0.00     0.059 C 
ENDROOT
BRANCH   1   2
ATOM      2  C   UNL     1       1.610  22.932  22.673  1.00  0.00     0.042 C 
ATOM      3  O   UNL     1       1.968  23.816  21.852  1.00  0.00    -0.550 OA
ATOM      4  O   UNL     1       1.284  21.661  22.218  1.00  0.00    -0.550 OA
ENDBRANCH   1   2
BRANCH   1   5
ATOM      5  C   UNL     1       2.316  24.498  24.499  1.00  0.00     0.059 C 
BRANCH   5   6
ATOM      6  C   UNL     1       3.723  24.138  24.865  1.00  0.00     0.042 C 
ATOM      7  O   UNL     1       3.991  23.732  26.026  1.00  0.00    -0.550 OA
ATOM      8  O   UNL     1       4.731  24.212  23.911  1.00  0.00    -0.550 OA
ENDBRANCH   5   6
ENDBRANCH   1   5
TORSDOF 3
ENDMDL
