MODEL 1
REMARK VINA RESULT:    -4.880      0.000      0.000
REMARK INTER + INTRA:         -10.735
REMARK INTER:                  -9.445
REMARK INTRA:                  -1.290
REMARK UNBOUND:                -1.290
REMARK SMILES CCCCCCCCCCCCCCCCCC(=O)[O-]
REMARK SMILES IDX 10 1 11 2 12 3 13 4 14 5 15 6 16 7 17 8 18 9 19 10 20 11
REMARK SMILES IDX 9 12 8 13 7 14 6 15 5 16 4 17 3 18 2 19 1 20
REMARK H PARENT
REMARK Flexibility Score: inf
ROOT
ATOM      1  C   UNL     1      11.483  15.543  24.507  1.00  0.00     0.000 C 
ENDROOT
BRANCH   1   2
ATOM      2  C   UNL     1      12.566  16.283  25.306  1.00  0.00     0.000 C 
BRANCH   2   3
ATOM      3  C   UNL     1      13.274  17.366  24.476  1.00  0.00     0.000 C 
BRANCH   3   4
ATOM      4  C   UNL     1      13.174  18.761  25.116  1.00  0.00     0.000 C 
BRANCH   4   5
ATOM      5  C   UNL     1      12.045  19.614  24.509  1.00  0.00     0.000 C 
BRANCH   5   6
ATOM      6  C   UNL     1      12.231  19.976  23.022  1.00  0.00     0.000 C 
BRANCH   6   7
ATOM      7  C   UNL     1      13.674  20.328  22.607  1.00  0.00     0.006 C 
BRANCH   7   8
ATOM      8  C   UNL     1      13.859  20.573  21.101  1.00  0.00     0.053 C 
BRANCH   8   9
ATOM      9  C   UNL     1      14.377  19.358  20.396  1.00  0.00     0.041 C 
ATOM     10  O   UNL     1      14.504  19.359  19.143  1.00  0.00    -0.550 OA
ATOM     11  O   UNL     1      14.687  18.213  21.118  1.00  0.00    -0.550 OA
ENDBRANCH   8   9
ENDBRANCH   7   8
ENDBRANCH   6   7
ENDBRANCH   5   6
ENDBRANCH   4   5
ENDBRANCH   3   4
ENDBRANCH   2   3
ENDBRANCH   1   2
BRANCH   1  12
ATOM     12  C   UNL     1      11.101  16.326  23.243  1.00  0.00     0.000 C 
BRANCH  12  13
ATOM     13  C   UNL     1      10.100  15.566  22.358  1.00  0.00    -0.000 C 
BRANCH  13  14
ATOM     14  C   UNL     1      10.454  14.076  22.209  1.00  0.00    -0.000 C 
BRANCH  14  15
ATOM     15  C   UNL     1       9.209  13.180  22.114  1.00  0.00    -0.000 C 
BRANCH  15  16
ATOM     16  C   UNL     1       7.902  13.967  22.297  1.00  0.00    -0.000 C 
BRANCH  16  17
ATOM     17  C   UNL     1       6.879  13.152  23.097  1.00  0.00    -0.000 C 
BRANCH  17  18
ATOM     18  C   UNL     1       7.159  11.647  22.977  1.00  0.00    -0.000 C 
BRANCH  18  19
ATOM     19  C   UNL     1       6.204  10.944  22.000  1.00  0.00    -0.003 C 
ATOM     20  C   UNL     1       4.764  10.899  22.511  1.00  0.00     0.004 C 
ENDBRANCH  18  19
ENDBRANCH  17  18
ENDBRANCH  16  17
ENDBRANCH  15  16
ENDBRANCH  14  15
ENDBRANCH  13  14
ENDBRANCH  12  13
ENDBRANCH   1  12
TORSDOF 16
ENDMDL
MODEL 2
REMARK VINA RESULT:    -4.863      3.699      5.744
REMARK INTER + INTRA:         -10.701
REMARK INTER:                  -8.097
REMARK INTRA:                  -2.605
REMARK UNBOUND:                -1.290
REMARK SMILES CCCCCCCCCCCCCCCCCC(=O)[O-]
REMARK SMILES IDX 10 1 11 2 12 3 13 4 14 5 15 6 16 7 17 8 18 9 19 10 20 11
REMARK SMILES IDX 9 12 8 13 7 14 6 15 5 16 4 17 3 18 2 19 1 20
REMARK H PARENT
REMARK Flexibility Score: inf
ROOT
ATOM      1  C   UNL     1      12.867  17.021  21.342  1.00  0.00     0.000 C 
ENDROOT
BRANCH   1   2
ATOM      2  C   UNL     1      13.977  18.037  21.036  1.00  0.00     0.000 C 
BRANCH   2   3
ATOM      3  C   UNL     1      14.389  18.852  22.273  1.00  0.00     0.000 C 
BRANCH   3   4
ATOM      4  C   UNL     1      14.306  20.369  22.035  1.00  0.00     0.000 C 
BRANCH   4   5
ATOM      5  C   UNL     1      12.865  20.857  21.797  1.00  0.00     0.000 C 
BRANCH   5   6
ATOM      6  C   UNL     1      12.337  21.859  22.843  1.00  0.00     0.000 C 
BRANCH   6   7
ATOM      7  C   UNL     1      10.940  22.441  22.548  1.00  0.00     0.006 C 
BRANCH   7   8
ATOM      8  C   UNL     1      10.922  23.961  22.319  1.00  0.00     0.053 C 
BRANCH   8   9
ATOM      9  C   UNL     1      10.797  24.307  20.868  1.00  0.00     0.041 C 
ATOM     10  O   UNL     1       9.884  25.082  20.478  1.00  0.00    -0.550 OA
ATOM     11  O   UNL     1      11.667  23.748  19.941  1.00  0.00    -0.550 OA
ENDBRANCH   8   9
ENDBRANCH   7   8
ENDBRANCH   6   7
ENDBRANCH   5   6
ENDBRANCH   4   5
ENDBRANCH   3   4
ENDBRANCH   2   3
ENDBRANCH   1   2
BRANCH   1  12
ATOM     12  C   UNL     1      11.553  17.732  21.699  1.00  0.00     0.000 C 
BRANCH  12  13
ATOM     13  C   UNL     1      10.560  16.810  22.424  1.00  0.00    -0.000 C 
BRANCH  13  14
ATOM     14  C   UNL     1      11.211  15.501  22.903  1.00  0.00    -0.000 C 
BRANCH  14  15
ATOM     15  C   UNL     1      11.358  15.440  24.432  1.00  0.00    -0.000 C 
BRANCH  15  16
ATOM     16  C   UNL     1      12.826  15.453  24.883  1.00  0.00    -0.000 C 
BRANCH  16  17
ATOM     17  C   UNL     1      13.358  16.888  24.980  1.00  0.00    -0.000 C 
BRANCH  17  18
ATOM     18  C   UNL     1      12.463  17.746  25.888  1.00  0.00    -0.000 C 
BRANCH  18  19
ATOM     19  C   UNL     1      12.203  19.145  25.310  1.00  0.00    -0.003 C 
ATOM     20  C   UNL     1      10.720  19.413  25.053  1.00  0.00     0.004 C 
ENDBRANCH  18  19
ENDBRANCH  17  18
ENDBRANCH  16  17
ENDBRANCH  15  16
ENDBRANCH  14  15
ENDBRANCH  13  14
ENDBRANCH  12  13
ENDBRANCH   1  12
TORSDOF 16
ENDMDL
MODEL 3
REMARK VINA RESULT:    -4.825      1.732      2.457
REMARK INTER + INTRA:         -10.629
REMARK INTER:                  -8.724
REMARK INTRA:                  -1.905
REMARK UNBOUND:                -1.290
REMARK SMILES CCCCCCCCCCCCCCCCCC(=O)[O-]
REMARK SMILES IDX 10 1 11 2 12 3 13 4 14 5 15 6 16 7 17 8 18 9 19 10 20 11
REMARK SMILES IDX 9 12 8 13 7 14 6 15 5 16 4 17 3 18 2 19 1 20
REMARK H PARENT
REMARK Flexibility Score: inf
ROOT
ATOM      1  C   UNL     1      12.437  16.297  25.189  1.00  0.00     0.000 C 
ENDROOT
BRANCH   1   2
ATOM      2  C   UNL     1      12.646  17.524  24.289  1.00  0.00     0.000 C 
BRANCH   2   3
ATOM      3  C   UNL     1      13.908  17.408  23.418  1.00  0.00     0.000 C 
BRANCH   3   4
ATOM      4  C   UNL     1      13.596  16.953  21.983  1.00  0.00     0.000 C 
BRANCH   4   5
ATOM      5  C   UNL     1      12.267  17.522  21.454  1.00  0.00     0.000 C 
BRANCH   5   6
ATOM      6  C   UNL     1      12.402  18.480  20.254  1.00  0.00     0.000 C 
BRANCH   6   7
ATOM      7  C   UNL     1      13.717  19.285  20.201  1.00  0.00     0.006 C 
BRANCH   7   8
ATOM      8  C   UNL     1      13.537  20.804  20.358  1.00  0.00     0.053 C 
BRANCH   8   9
ATOM      9  C   UNL     1      12.745  21.150  21.582  1.00  0.00     0.041 C 
ATOM     10  O   UNL     1      13.200  20.886  22.725  1.00  0.00    -0.550 OA
ATOM     11  O   UNL     1      11.491  21.731  21.457  1.00  0.00    -0.550 OA
ENDBRANCH   8   9
ENDBRANCH   7   8
ENDBRANCH   6   7
ENDBRANCH   5   6
ENDBRANCH   4   5
ENDBRANCH   3   4
ENDBRANCH   2   3
ENDBRANCH   1   2
BRANCH   1  12
ATOM     12  C   UNL     1      11.354  15.372  24.613  1.00  0.00     0.000 C 
BRANCH  12  13
ATOM     13  C   UNL     1      11.944  14.137  23.914  1.00  0.00    -0.000 C 
BRANCH  13  14
ATOM     14  C   UNL     1      11.349  13.910  22.513  1.00  0.00    -0.000 C 
BRANCH  14  15
ATOM     15  C   UNL     1       9.993  14.609  22.327  1.00  0.00    -0.000 C 
BRANCH  15  16
ATOM     16  C   UNL     1       8.824  13.616  22.254  1.00  0.00    -0.000 C 
BRANCH  16  17
ATOM     17  C   UNL     1       7.497  14.304  22.597  1.00  0.00    -0.000 C 
BRANCH  17  18
ATOM     18  C   UNL     1       6.518  13.318  23.252  1.00  0.00    -0.000 C 
BRANCH  18  19
ATOM     19  C   UNL     1       6.828  11.855  22.898  1.00  0.00    -0.003 C 
ATOM     20  C   UNL     1       5.567  11.013  22.705  1.00  0.00     0.004 C 
ENDBRANCH  18  19
ENDBRANCH  17  18
ENDBRANCH  16  17
ENDBRANCH  15  16
ENDBRANCH  14  15
ENDBRANCH  13  14
ENDBRANCH  12  13
ENDBRANCH   1  12
TORSDOF 16
ENDMDL
MODEL 4
REMARK VINA RESULT:    -4.788      1.469      2.315
REMARK INTER + INTRA:         -10.556
REMARK INTER:                  -8.499
REMARK INTRA:                  -2.056
REMARK UNBOUND:                -1.290
REMARK SMILES CCCCCCCCCCCCCCCCCC(=O)[O-]
REMARK SMILES IDX 10 1 11 2 12 3 13 4 14 5 15 6 16 7 17 8 18 9 19 10 20 11
REMARK SMILES IDX 9 12 8 13 7 14 6 15 5 16 4 17 3 18 2 19 1 20
REMARK H PARENT
REMARK Flexibility Score: inf
ROOT
ATOM      1  C   UNL     1      12.127  16.492  25.370  1.00  0.00     0.000 C 
ENDROOT
BRANCH   1   2
ATOM      2  C   UNL     1      12.882  17.635  26.066  1.00  0.00     0.000 C 
BRANCH   2   3
ATOM      3  C   UNL     1      12.456  19.020  25.553  1.00  0.00     0.000 C 
BRANCH   3   4
ATOM      4  C   UNL     1      11.403  18.939  24.436  1.00  0.00     0.000 C 
BRANCH   4   5
ATOM      5  C   UNL     1      11.954  19.374  23.066  1.00  0.00     0.000 C 
BRANCH   5   6
ATOM      6  C   UNL     1      12.201  18.224  22.069  1.00  0.00     0.000 C 
BRANCH   6   7
ATOM      7  C   UNL     1      13.644  17.679  22.040  1.00  0.00     0.006 C 
BRANCH   7   8
ATOM      8  C   UNL     1      13.911  16.651  20.929  1.00  0.00     0.053 C 
BRANCH   8   9
ATOM      9  C   UNL     1      14.436  17.296  19.683  1.00  0.00     0.041 C 
ATOM     10  O   UNL     1      15.677  17.374  19.486  1.00  0.00    -0.550 OA
ATOM     11  O   UNL     1      13.556  17.841  18.758  1.00  0.00    -0.550 OA
ENDBRANCH   8   9
ENDBRANCH   7   8
ENDBRANCH   6   7
ENDBRANCH   5   6
ENDBRANCH   4   5
ENDBRANCH   3   4
ENDBRANCH   2   3
ENDBRANCH   1   2
BRANCH   1  12
ATOM     12  C   UNL     1      13.104  15.524  24.687  1.00  0.00     0.000 C 
BRANCH  12  13
ATOM     13  C   UNL     1      12.387  14.464  23.836  1.00  0.00    -0.000 C 
BRANCH  13  14
ATOM     14  C   UNL     1      10.865  14.680  23.782  1.00  0.00    -0.000 C 
BRANCH  14  15
ATOM     15  C   UNL     1      10.326  14.726  22.343  1.00  0.00    -0.000 C 
BRANCH  15  16
ATOM     16  C   UNL     1      10.275  13.337  21.689  1.00  0.00    -0.000 C 
BRANCH  16  17
ATOM     17  C   UNL     1       9.009  12.579  22.107  1.00  0.00    -0.000 C 
BRANCH  17  18
ATOM     18  C   UNL     1       7.785  13.506  22.097  1.00  0.00    -0.000 C 
BRANCH  18  19
ATOM     19  C   UNL     1       6.752  13.133  23.172  1.00  0.00    -0.003 C 
ATOM     20  C   UNL     1       6.192  11.722  22.990  1.00  0.00     0.004 C 
ENDBRANCH  18  19
ENDBRANCH  17  18
ENDBRANCH  16  17
ENDBRANCH  15  16
ENDBRANCH  14  15
ENDBRANCH  13  14
ENDBRANCH  12  13
ENDBRANCH   1  12
TORSDOF 16
ENDMDL
MODEL 5
REMARK VINA RESULT:    -4.776      2.653      4.545
REMARK INTER + INTRA:         -10.534
REMARK INTER:                  -8.407
REMARK INTRA:                  -2.127
REMARK UNBOUND:                -1.290
REMARK SMILES CCCCCCCCCCCCCCCCCC(=O)[O-]
REMARK SMILES IDX 10 1 11 2 12 3 13 4 14 5 15 6 16 7 17 8 18 9 19 10 20 11
REMARK SMILES IDX 9 12 8 13 7 14 6 15 5 16 4 17 3 18 2 19 1 20
REMARK H PARENT
REMARK Flexibility Score: inf
ROOT
ATOM      1  C   UNL     1      10.113  13.547  21.501  1.00  0.00     0.000 C 
ENDROOT
BRANCH   1   2
ATOM      2  C   UNL     1      11.594  13.604  21.903  1.00  0.00     0.000 C 
BRANCH   2   3
ATOM      3  C   UNL     1      11.795  13.532  23.425  1.00  0.00     0.000 C 
BRANCH   3   4
ATOM      4  C   UNL     1      13.142  14.125  23.872  1.00  0.00     0.000 C 
BRANCH   4   5
ATOM      5  C   UNL     1      12.978  15.371  24.761  1.00  0.00     0.000 C 
BRANCH   5   6
ATOM      6  C   UNL     1      11.543  15.930  24.840  1.00  0.00     0.000 C 
BRANCH   6   7
ATOM      7  C   UNL     1      11.230  17.076  23.855  1.00  0.00     0.006 C 
BRANCH   7   8
ATOM      8  C   UNL     1      11.226  18.475  24.492  1.00  0.00     0.053 C 
BRANCH   8   9
ATOM      9  C   UNL     1      12.345  18.647  25.472  1.00  0.00     0.041 C 
ATOM     10  O   UNL     1      12.113  18.626  26.709  1.00  0.00    -0.550 OA
ATOM     11  O   UNL     1      13.639  18.866  25.018  1.00  0.00    -0.550 OA
ENDBRANCH   8   9
ENDBRANCH   7   8
ENDBRANCH   6   7
ENDBRANCH   5   6
ENDBRANCH   4   5
ENDBRANCH   3   4
ENDBRANCH   2   3
ENDBRANCH   1   2
BRANCH   1  12
ATOM     12  C   UNL     1       9.206  13.873  22.696  1.00  0.00     0.000 C 
BRANCH  12  13
ATOM     13  C   UNL     1       7.722  13.961  22.305  1.00  0.00    -0.000 C 
BRANCH  13  14
ATOM     14  C   UNL     1       6.866  12.877  22.984  1.00  0.00    -0.000 C 
BRANCH  14  15
ATOM     15  C   UNL     1       6.557  11.698  22.049  1.00  0.00    -0.000 C 
BRANCH  15  16
ATOM     16  C   UNL     1       6.814  10.337  22.713  1.00  0.00    -0.000 C 
BRANCH  16  17
ATOM     17  C   UNL     1       8.252  10.245  23.237  1.00  0.00    -0.000 C 
BRANCH  17  18
ATOM     18  C   UNL     1       9.240   9.978  22.091  1.00  0.00    -0.000 C 
BRANCH  18  19
ATOM     19  C   UNL     1      10.702   9.968  22.562  1.00  0.00    -0.003 C 
ATOM     20  C   UNL     1      11.695   9.876  21.403  1.00  0.00     0.004 C 
ENDBRANCH  18  19
ENDBRANCH  17  18
ENDBRANCH  16  17
ENDBRANCH  15  16
ENDBRANCH  14  15
ENDBRANCH  13  14
ENDBRANCH  12  13
ENDBRANCH   1  12
TORSDOF 16
ENDMDL
MODEL 6
REMARK VINA RESULT:    -4.775      1.791      2.740
REMARK INTER + INTRA:         -10.530
REMARK INTER:                  -8.685
REMARK INTRA:                  -1.845
REMARK UNBOUND:                -1.290
REMARK SMILES CCCCCCCCCCCCCCCCCC(=O)[O-]
REMARK SMILES IDX 10 1 11 2 12 3 13 4 14 5 15 6 16 7 17 8 18 9 19 10 20 11
REMARK SMILES IDX 9 12 8 13 7 14 6 15 5 16 4 17 3 18 2 19 1 20
REMARK H PARENT
REMARK Flexibility Score: inf
ROOT
ATOM      1  C   UNL     1      11.481  14.434  22.661  1.00  0.00     0.000 C 
ENDROOT
BRANCH   1   2
ATOM      2  C   UNL     1      11.352  14.886  24.123  1.00  0.00     0.000 C 
BRANCH   2   3
ATOM      3  C   UNL     1      12.522  15.778  24.570  1.00  0.00     0.000 C 
BRANCH   3   4
ATOM      4  C   UNL     1      12.055  17.146  25.094  1.00  0.00     0.000 C 
BRANCH   4   5
ATOM      5  C   UNL     1      13.195  18.179  25.157  1.00  0.00     0.000 C 
BRANCH   5   6
ATOM      6  C   UNL     1      14.313  17.978  24.115  1.00  0.00     0.000 C 
BRANCH   6   7
ATOM      7  C   UNL     1      14.274  18.947  22.915  1.00  0.00     0.006 C 
BRANCH   7   8
ATOM      8  C   UNL     1      13.655  18.351  21.640  1.00  0.00     0.053 C 
BRANCH   8   9
ATOM      9  C   UNL     1      12.198  18.674  21.521  1.00  0.00     0.041 C 
ATOM     10  O   UNL     1      11.333  17.782  21.722  1.00  0.00    -0.550 OA
ATOM     11  O   UNL     1      11.796  19.952  21.155  1.00  0.00    -0.550 OA
ENDBRANCH   8   9
ENDBRANCH   7   8
ENDBRANCH   6   7
ENDBRANCH   5   6
ENDBRANCH   4   5
ENDBRANCH   3   4
ENDBRANCH   2   3
ENDBRANCH   1   2
BRANCH   1  12
ATOM     12  C   UNL     1      10.205  13.719  22.193  1.00  0.00     0.000 C 
BRANCH  12  13
ATOM     13  C   UNL     1       8.953  14.601  22.320  1.00  0.00    -0.000 C 
BRANCH  13  14
ATOM     14  C   UNL     1       7.664  13.859  21.924  1.00  0.00    -0.000 C 
BRANCH  14  15
ATOM     15  C   UNL     1       6.872  13.359  23.142  1.00  0.00    -0.000 C 
BRANCH  15  16
ATOM     16  C   UNL     1       6.437  11.893  22.999  1.00  0.00    -0.000 C 
BRANCH  16  17
ATOM     17  C   UNL     1       7.651  10.957  22.997  1.00  0.00    -0.000 C 
BRANCH  17  18
ATOM     18  C   UNL     1       7.713  10.137  21.700  1.00  0.00    -0.000 C 
BRANCH  18  19
ATOM     19  C   UNL     1       9.001  10.390  20.902  1.00  0.00    -0.003 C 
ATOM     20  C   UNL     1       8.760  11.210  19.634  1.00  0.00     0.004 C 
ENDBRANCH  18  19
ENDBRANCH  17  18
ENDBRANCH  16  17
ENDBRANCH  15  16
ENDBRANCH  14  15
ENDBRANCH  13  14
ENDBRANCH  12  13
ENDBRANCH   1  12
TORSDOF 16
ENDMDL
MODEL 7
REMARK VINA RESULT:    -4.660      2.247      4.821
REMARK INTER + INTRA:         -10.309
REMARK INTER:                  -8.183
REMARK INTRA:                  -2.126
REMARK UNBOUND:                -1.290
REMARK SMILES CCCCCCCCCCCCCCCCCC(=O)[O-]
REMARK SMILES IDX 10 1 11 2 12 3 13 4 14 5 15 6 16 7 17 8 18 9 19 10 20 11
REMARK SMILES IDX 9 12 8 13 7 14 6 15 5 16 4 17 3 18 2 19 1 20
REMARK H PARENT
REMARK Flexibility Score: inf
ROOT
ATOM      1  C   UNL     1       7.826  14.289  22.266  1.00  0.00     0.000 C 
ENDROOT
BRANCH   1   2
ATOM      2  C   UNL     1       9.286  14.014  22.655  1.00  0.00     0.000 C 
BRANCH   2   3
ATOM      3  C   UNL     1      10.215  15.197  22.333  1.00  0.00     0.000 C 
BRANCH   3   4
ATOM      4  C   UNL     1      10.745  15.892  23.598  1.00  0.00     0.000 C 
BRANCH   4   5
ATOM      5  C   UNL     1      11.921  15.136  24.243  1.00  0.00     0.000 C 
BRANCH   5   6
ATOM      6  C   UNL     1      12.869  16.009  25.089  1.00  0.00     0.000 C 
BRANCH   6   7
ATOM      7  C   UNL     1      13.409  17.269  24.381  1.00  0.00     0.006 C 
BRANCH   7   8
ATOM      8  C   UNL     1      13.134  18.583  25.129  1.00  0.00     0.053 C 
BRANCH   8   9
ATOM      9  C   UNL     1      11.962  19.318  24.558  1.00  0.00     0.041 C 
ATOM     10  O   UNL     1      10.807  19.126  25.021  1.00  0.00    -0.550 OA
ATOM     11  O   UNL     1      12.139  20.190  23.491  1.00  0.00    -0.550 OA
ENDBRANCH   8   9
ENDBRANCH   7   8
ENDBRANCH   6   7
ENDBRANCH   5   6
ENDBRANCH   4   5
ENDBRANCH   3   4
ENDBRANCH   2   3
ENDBRANCH   1   2
BRANCH   1  12
ATOM     12  C   UNL     1       6.863  13.448  23.116  1.00  0.00     0.000 C 
BRANCH  12  13
ATOM     13  C   UNL     1       7.052  11.937  22.902  1.00  0.00    -0.000 C 
BRANCH  13  14
ATOM     14  C   UNL     1       6.828  11.515  21.439  1.00  0.00    -0.000 C 
BRANCH  14  15
ATOM     15  C   UNL     1       8.025  10.747  20.857  1.00  0.00    -0.000 C 
BRANCH  15  16
ATOM     16  C   UNL     1       8.781  11.555  19.792  1.00  0.00    -0.000 C 
BRANCH  16  17
ATOM     17  C   UNL     1      10.287  11.570  20.081  1.00  0.00    -0.000 C 
BRANCH  17  18
ATOM     18  C   UNL     1      10.609  10.792  21.366  1.00  0.00    -0.000 C 
BRANCH  18  19
ATOM     19  C   UNL     1      11.829  11.357  22.110  1.00  0.00    -0.003 C 
ATOM     20  C   UNL     1      12.534  12.467  21.330  1.00  0.00     0.004 C 
ENDBRANCH  18  19
ENDBRANCH  17  18
ENDBRANCH  16  17
ENDBRANCH  15  16
ENDBRANCH  14  15
ENDBRANCH  13  14
ENDBRANCH  12  13
ENDBRANCH   1  12
TORSDOF 16
ENDMDL
MODEL 8
REMARK VINA RESULT:    -4.653      3.420      7.368
REMARK INTER + INTRA:         -10.295
REMARK INTER:                  -7.450
REMARK INTRA:                  -2.845
REMARK UNBOUND:                -1.290
REMARK SMILES CCCCCCCCCCCCCCCCCC(=O)[O-]
REMARK SMILES IDX 10 1 11 2 12 3 13 4 14 5 15 6 16 7 17 8 18 9 19 10 20 11
REMARK SMILES IDX 9 12 8 13 7 14 6 15 5 16 4 17 3 18 2 19 1 20
REMARK H PARENT
REMARK Flexibility Score: inf
ROOT
ATOM      1  C   UNL     1      12.139  19.360  22.804  1.00  0.00     0.000 C 
ENDROOT
BRANCH   1   2
ATOM      2  C   UNL     1      11.398  19.129  24.130  1.00  0.00     0.000 C 
BRANCH   2   3
ATOM      3  C   UNL     1      12.322  19.263  25.352  1.00  0.00     0.000 C 
BRANCH   3   4
ATOM      4  C   UNL     1      12.792  17.902  25.890  1.00  0.00     0.000 C 
BRANCH   4   5
ATOM      5  C   UNL     1      12.180  16.715  25.123  1.00  0.00     0.000 C 
BRANCH   5   6
ATOM      6  C   UNL     1      13.166  15.946  24.220  1.00  0.00     0.000 C 
BRANCH   6   7
ATOM      7  C   UNL     1      12.635  15.598  22.815  1.00  0.00     0.006 C 
BRANCH   7   8
ATOM      8  C   UNL     1      11.113  15.752  22.657  1.00  0.00     0.053 C 
BRANCH   8   9
ATOM      9  C   UNL     1      10.425  14.426  22.554  1.00  0.00     0.041 C 
ATOM     10  O   UNL     1       9.325  14.329  21.950  1.00  0.00    -0.550 OA
ATOM     11  O   UNL     1      10.981  13.304  23.155  1.00  0.00    -0.550 OA
ENDBRANCH   8   9
ENDBRANCH   7   8
ENDBRANCH   6   7
ENDBRANCH   5   6
ENDBRANCH   4   5
ENDBRANCH   3   4
ENDBRANCH   2   3
ENDBRANCH   1   2
BRANCH   1  12
ATOM     12  C   UNL     1      13.400  20.208  23.020  1.00  0.00     0.000 C 
BRANCH  12  13
ATOM     13  C   UNL     1      14.684  19.476  22.596  1.00  0.00    -0.000 C 
BRANCH  13  14
ATOM     14  C   UNL     1      14.448  18.492  21.437  1.00  0.00    -0.000 C 
BRANCH  14  15
ATOM     15  C   UNL     1      15.443  18.690  20.283  1.00  0.00    -0.000 C 
BRANCH  15  16
ATOM     16  C   UNL     1      15.505  20.148  19.803  1.00  0.00    -0.000 C 
BRANCH  16  17
ATOM     17  C   UNL     1      14.320  20.475  18.886  1.00  0.00    -0.000 C 
BRANCH  17  18
ATOM     18  C   UNL     1      13.373  21.486  19.550  1.00  0.00    -0.000 C 
BRANCH  18  19
ATOM     19  C   UNL     1      11.894  21.104  19.389  1.00  0.00    -0.003 C 
ATOM     20  C   UNL     1      11.696  19.617  19.097  1.00  0.00     0.004 C 
ENDBRANCH  18  19
ENDBRANCH  17  18
ENDBRANCH  16  17
ENDBRANCH  15  16
ENDBRANCH  14  15
ENDBRANCH  13  14
ENDBRANCH  12  13
ENDBRANCH   1  12
TORSDOF 16
ENDMDL
MODEL 9
REMARK VINA RESULT:    -4.578      4.237      6.110
REMARK INTER + INTRA:         -10.151
REMARK INTER:                  -7.404
REMARK INTRA:                  -2.747
REMARK UNBOUND:                -1.290
REMARK SMILES CCCCCCCCCCCCCCCCCC(=O)[O-]
REMARK SMILES IDX 10 1 11 2 12 3 13 4 14 5 15 6 16 7 17 8 18 9 19 10 20 11
REMARK SMILES IDX 9 12 8 13 7 14 6 15 5 16 4 17 3 18 2 19 1 20
REMARK H PARENT
REMARK Flexibility Score: inf
ROOT
ATOM      1  C   UNL     1      13.764  19.162  22.246  1.00  0.00     0.000 C 
ENDROOT
BRANCH   1   2
ATOM      2  C   UNL     1      14.861  19.971  21.537  1.00  0.00     0.000 C 
BRANCH   2   3
ATOM      3  C   UNL     1      15.217  19.398  20.156  1.00  0.00     0.000 C 
BRANCH   3   4
ATOM      4  C   UNL     1      14.979  20.405  19.019  1.00  0.00     0.000 C 
BRANCH   4   5
ATOM      5  C   UNL     1      13.980  21.512  19.404  1.00  0.00     0.000 C 
BRANCH   5   6
ATOM      6  C   UNL     1      12.580  21.373  18.774  1.00  0.00     0.000 C 
BRANCH   6   7
ATOM      7  C   UNL     1      11.412  21.306  19.778  1.00  0.00     0.006 C 
BRANCH   7   8
ATOM      8  C   UNL     1      11.700  21.977  21.131  1.00  0.00     0.053 C 
BRANCH   8   9
ATOM      9  C   UNL     1      10.961  23.270  21.284  1.00  0.00     0.041 C 
ATOM     10  O   UNL     1      10.387  23.792  20.292  1.00  0.00    -0.550 OA
ATOM     11  O   UNL     1      10.935  23.916  22.512  1.00  0.00    -0.550 OA
ENDBRANCH   8   9
ENDBRANCH   7   8
ENDBRANCH   6   7
ENDBRANCH   5   6
ENDBRANCH   4   5
ENDBRANCH   3   4
ENDBRANCH   2   3
ENDBRANCH   1   2
BRANCH   1  12
ATOM     12  C   UNL     1      13.168  18.104  21.306  1.00  0.00     0.000 C 
BRANCH  12  13
ATOM     13  C   UNL     1      11.633  18.052  21.373  1.00  0.00    -0.000 C 
BRANCH  13  14
ATOM     14  C   UNL     1      11.119  16.942  22.306  1.00  0.00    -0.000 C 
BRANCH  14  15
ATOM     15  C   UNL     1      12.205  15.911  22.652  1.00  0.00    -0.000 C 
BRANCH  15  16
ATOM     16  C   UNL     1      12.324  15.666  24.163  1.00  0.00    -0.000 C 
BRANCH  16  17
ATOM     17  C   UNL     1      13.220  16.723  24.822  1.00  0.00    -0.000 C 
BRANCH  17  18
ATOM     18  C   UNL     1      12.458  17.485  25.916  1.00  0.00    -0.000 C 
BRANCH  18  19
ATOM     19  C   UNL     1      12.361  18.991  25.629  1.00  0.00    -0.003 C 
ATOM     20  C   UNL     1      11.034  19.385  24.982  1.00  0.00     0.004 C 
ENDBRANCH  18  19
ENDBRANCH  17  18
ENDBRANCH  16  17
ENDBRANCH  15  16
ENDBRANCH  14  15
ENDBRANCH  13  14
ENDBRANCH  12  13
ENDBRANCH   1  12
TORSDOF 16
ENDMDL
