MODEL 1
REMARK VINA RESULT:    -1.888      0.000      0.000
REMARK INTER + INTRA:          -4.117
REMARK INTER:                  -3.213
REMARK INTRA:                  -0.904
REMARK UNBOUND:                -0.904
REMARK SMILES CCCCCCCCCCCCCC(=O)[O-]
REMARK SMILES IDX 8 1 9 2 10 3 11 4 12 5 13 6 14 7 15 8 16 9 7 10 6 11 5 12
REMARK SMILES IDX 4 13 3 14 2 15 1 16
REMARK H PARENT
REMARK Flexibility Score: inf
ROOT
ATOM      1  C   UNL     1      22.645  55.031  32.199  1.00  0.00     0.000 C 
ENDROOT
BRANCH   1   2
ATOM      2  C   UNL     1      22.855  55.018  30.675  1.00  0.00     0.000 C 
BRANCH   2   3
ATOM      3  C   UNL     1      21.538  55.060  29.871  1.00  0.00     0.000 C 
BRANCH   3   4
ATOM      4  C   UNL     1      21.724  54.566  28.426  1.00  0.00     0.000 C 
BRANCH   4   5
ATOM      5  C   UNL     1      22.660  53.348  28.320  1.00  0.00     0.006 C 
BRANCH   5   6
ATOM      6  C   UNL     1      23.699  53.456  27.190  1.00  0.00     0.053 C 
BRANCH   6   7
ATOM      7  C   UNL     1      24.152  52.117  26.691  1.00  0.00     0.041 C 
ATOM      8  O   UNL     1      24.336  51.926  25.460  1.00  0.00    -0.550 OA
ATOM      9  O   UNL     1      24.405  51.089  27.590  1.00  0.00    -0.550 OA
ENDBRANCH   6   7
ENDBRANCH   5   6
ENDBRANCH   4   5
ENDBRANCH   3   4
ENDBRANCH   2   3
ENDBRANCH   1   2
BRANCH   1  10
ATOM     10  C   UNL     1      21.166  55.125  32.599  1.00  0.00     0.000 C 
BRANCH  10  11
ATOM     11  C   UNL     1      20.970  54.759  34.074  1.00  0.00    -0.000 C 
BRANCH  11  12
ATOM     12  C   UNL     1      22.023  53.738  34.531  1.00  0.00    -0.000 C 
BRANCH  12  13
ATOM     13  C   UNL     1      22.475  53.963  35.983  1.00  0.00    -0.000 C 
BRANCH  13  14
ATOM     14  C   UNL     1      23.506  55.098  36.112  1.00  0.00    -0.000 C 
BRANCH  14  15
ATOM     15  C   UNL     1      24.933  54.637  35.776  1.00  0.00    -0.003 C 
ATOM     16  C   UNL     1      25.382  55.077  34.382  1.00  0.00     0.004 C 
ENDBRANCH  14  15
ENDBRANCH  13  14
ENDBRANCH  12  13
ENDBRANCH  11  12
ENDBRANCH  10  11
ENDBRANCH   1  10
TORSDOF 12
ENDMDL
MODEL 2
REMARK VINA RESULT:    -1.371      0.903      2.324
REMARK INTER + INTRA:          -3.237
REMARK INTER:                  -3.069
REMARK INTRA:                  -0.168
REMARK UNBOUND:                -0.904
REMARK SMILES CCCCCCCCCCCCCC(=O)[O-]
REMARK SMILES IDX 8 1 9 2 10 3 11 4 12 5 13 6 14 7 15 8 16 9 7 10 6 11 5 12
REMARK SMILES IDX 4 13 3 14 2 15 1 16
REMARK H PARENT
REMARK Flexibility Score: inf
ROOT
ATOM      1  C   UNL     1      23.594  54.483  31.287  1.00  0.00     0.000 C 
ENDROOT
BRANCH   1   2
ATOM      2  C   UNL     1      22.182  55.090  31.207  1.00  0.00     0.000 C 
BRANCH   2   3
ATOM      3  C   UNL     1      21.606  55.125  29.775  1.00  0.00     0.000 C 
BRANCH   3   4
ATOM      4  C   UNL     1      22.062  53.920  28.936  1.00  0.00     0.000 C 
BRANCH   4   5
ATOM      5  C   UNL     1      23.490  54.074  28.383  1.00  0.00     0.006 C 
BRANCH   5   6
ATOM      6  C   UNL     1      23.643  53.634  26.916  1.00  0.00     0.053 C 
BRANCH   6   7
ATOM      7  C   UNL     1      23.971  52.179  26.780  1.00  0.00     0.041 C 
ATOM      8  O   UNL     1      23.684  51.373  27.704  1.00  0.00    -0.550 OA
ATOM      9  O   UNL     1      24.561  51.705  25.615  1.00  0.00    -0.550 OA
ENDBRANCH   6   7
ENDBRANCH   5   6
ENDBRANCH   4   5
ENDBRANCH   3   4
ENDBRANCH   2   3
ENDBRANCH   1   2
BRANCH   1  10
ATOM     10  C   UNL     1      24.445  55.093  32.409  1.00  0.00     0.000 C 
BRANCH  10  11
ATOM     11  C   UNL     1      24.413  54.214  33.665  1.00  0.00    -0.000 C 
BRANCH  11  12
ATOM     12  C   UNL     1      24.875  55.002  34.899  1.00  0.00    -0.000 C 
BRANCH  12  13
ATOM     13  C   UNL     1      23.829  55.005  36.025  1.00  0.00    -0.000 C 
BRANCH  13  14
ATOM     14  C   UNL     1      22.935  53.753  36.005  1.00  0.00    -0.000 C 
BRANCH  14  15
ATOM     15  C   UNL     1      21.443  54.098  35.871  1.00  0.00    -0.003 C 
ATOM     16  C   UNL     1      20.943  54.005  34.429  1.00  0.00     0.004 C 
ENDBRANCH  14  15
ENDBRANCH  13  14
ENDBRANCH  12  13
ENDBRANCH  11  12
ENDBRANCH  10  11
ENDBRANCH   1  10
TORSDOF 12
ENDMDL
MODEL 3
REMARK VINA RESULT:    -1.237      2.982      7.180
REMARK INTER + INTRA:          -3.009
REMARK INTER:                  -2.891
REMARK INTRA:                  -0.118
REMARK UNBOUND:                -0.904
REMARK SMILES CCCCCCCCCCCCCC(=O)[O-]
REMARK SMILES IDX 8 1 9 2 10 3 11 4 12 5 13 6 14 7 15 8 16 9 7 10 6 11 5 12
REMARK SMILES IDX 4 13 3 14 2 15 1 16
REMARK H PARENT
REMARK Flexibility Score: inf
ROOT
ATOM      1  C   UNL     1      20.876  54.729  31.606  1.00  0.00     0.000 C 
ENDROOT
BRANCH   1   2
ATOM      2  C   UNL     1      21.427  54.926  33.029  1.00  0.00     0.000 C 
BRANCH   2   3
ATOM      3  C   UNL     1      21.853  53.610  33.713  1.00  0.00     0.000 C 
BRANCH   3   4
ATOM      4  C   UNL     1      21.814  53.713  35.247  1.00  0.00     0.000 C 
BRANCH   4   5
ATOM      5  C   UNL     1      22.588  54.927  35.790  1.00  0.00     0.006 C 
BRANCH   5   6
ATOM      6  C   UNL     1      24.061  54.630  36.125  1.00  0.00     0.053 C 
BRANCH   6   7
ATOM      7  C   UNL     1      24.989  54.969  34.999  1.00  0.00     0.041 C 
ATOM      8  O   UNL     1      26.220  55.124  35.214  1.00  0.00    -0.550 OA
ATOM      9  O   UNL     1      24.501  55.078  33.703  1.00  0.00    -0.550 OA
ENDBRANCH   6   7
ENDBRANCH   5   6
ENDBRANCH   4   5
ENDBRANCH   3   4
ENDBRANCH   2   3
ENDBRANCH   1   2
BRANCH   1  10
ATOM     10  C   UNL     1      21.918  55.018  30.516  1.00  0.00     0.000 C 
BRANCH  10  11
ATOM     11  C   UNL     1      21.460  54.474  29.158  1.00  0.00    -0.000 C 
BRANCH  11  12
ATOM     12  C   UNL     1      22.366  54.985  28.028  1.00  0.00    -0.000 C 
BRANCH  12  13
ATOM     13  C   UNL     1      23.378  53.928  27.557  1.00  0.00    -0.000 C 
BRANCH  13  14
ATOM     14  C   UNL     1      23.319  52.638  28.395  1.00  0.00    -0.000 C 
BRANCH  14  15
ATOM     15  C   UNL     1      23.488  51.373  27.539  1.00  0.00    -0.003 C 
ATOM     16  C   UNL     1      24.358  51.608  26.304  1.00  0.00     0.004 C 
ENDBRANCH  14  15
ENDBRANCH  13  14
ENDBRANCH  12  13
ENDBRANCH  11  12
ENDBRANCH  10  11
ENDBRANCH   1  10
TORSDOF 12
ENDMDL
MODEL 4
REMARK VINA RESULT:    -1.121     23.842     26.184
REMARK INTER + INTRA:          -2.811
REMARK INTER:                  -2.319
REMARK INTRA:                  -0.492
REMARK UNBOUND:                -0.904
REMARK SMILES CCCCCCCCCCCCCC(=O)[O-]
REMARK SMILES IDX 8 1 9 2 10 3 11 4 12 5 13 6 14 7 15 8 16 9 7 10 6 11 5 12
REMARK SMILES IDX 4 13 3 14 2 15 1 16
REMARK H PARENT
REMARK Flexibility Score: inf
ROOT
ATOM      1  C   UNL     1      36.958  39.412  20.375  1.00  0.00     0.000 C 
ENDROOT
BRANCH   1   2
ATOM      2  C   UNL     1      36.713  37.903  20.544  1.00  0.00     0.000 C 
BRANCH   2   3
ATOM      3  C   UNL     1      38.009  37.064  20.548  1.00  0.00     0.000 C 
BRANCH   3   4
ATOM      4  C   UNL     1      38.035  36.031  19.409  1.00  0.00     0.000 C 
BRANCH   4   5
ATOM      5  C   UNL     1      39.167  34.998  19.557  1.00  0.00     0.006 C 
BRANCH   5   6
ATOM      6  C   UNL     1      40.184  35.016  18.402  1.00  0.00     0.053 C 
BRANCH   6   7
ATOM      7  C   UNL     1      39.555  35.343  17.082  1.00  0.00     0.041 C 
ATOM      8  O   UNL     1      40.198  35.992  16.215  1.00  0.00    -0.550 OA
ATOM      9  O   UNL     1      38.271  34.900  16.795  1.00  0.00    -0.550 OA
ENDBRANCH   6   7
ENDBRANCH   5   6
ENDBRANCH   4   5
ENDBRANCH   3   4
ENDBRANCH   2   3
ENDBRANCH   1   2
BRANCH   1  10
ATOM     10  C   UNL     1      38.407  39.744  19.991  1.00  0.00     0.000 C 
BRANCH  10  11
ATOM     11  C   UNL     1      38.557  39.874  18.471  1.00  0.00    -0.000 C 
BRANCH  11  12
ATOM     12  C   UNL     1      39.854  39.206  17.989  1.00  0.00    -0.000 C 
BRANCH  12  13
ATOM     13  C   UNL     1      41.104  40.044  18.306  1.00  0.00    -0.000 C 
BRANCH  13  14
ATOM     14  C   UNL     1      41.125  41.384  17.549  1.00  0.00    -0.000 C 
BRANCH  14  15
ATOM     15  C   UNL     1      40.436  42.512  18.333  1.00  0.00    -0.003 C 
ATOM     16  C   UNL     1      41.125  42.812  19.664  1.00  0.00     0.004 C 
ENDBRANCH  14  15
ENDBRANCH  13  14
ENDBRANCH  12  13
ENDBRANCH  11  12
ENDBRANCH  10  11
ENDBRANCH   1  10
TORSDOF 12
ENDMDL
MODEL 5
REMARK VINA RESULT:    -0.999     23.140     25.904
REMARK INTER + INTRA:          -2.603
REMARK INTER:                  -1.686
REMARK INTRA:                  -0.917
REMARK UNBOUND:                -0.904
REMARK SMILES CCCCCCCCCCCCCC(=O)[O-]
REMARK SMILES IDX 8 1 9 2 10 3 11 4 12 5 13 6 14 7 15 8 16 9 7 10 6 11 5 12
REMARK SMILES IDX 4 13 3 14 2 15 1 16
REMARK H PARENT
REMARK Flexibility Score: inf
ROOT
ATOM      1  C   UNL     1      36.301  39.416  20.421  1.00  0.00     0.000 C 
ENDROOT
BRANCH   1   2
ATOM      2  C   UNL     1      37.060  39.640  19.101  1.00  0.00     0.000 C 
BRANCH   2   3
ATOM      3  C   UNL     1      38.307  40.538  19.251  1.00  0.00     0.000 C 
BRANCH   3   4
ATOM      4  C   UNL     1      39.602  39.799  18.875  1.00  0.00     0.000 C 
BRANCH   4   5
ATOM      5  C   UNL     1      39.810  39.678  17.355  1.00  0.00     0.006 C 
BRANCH   5   6
ATOM      6  C   UNL     1      41.109  40.328  16.848  1.00  0.00     0.053 C 
BRANCH   6   7
ATOM      7  C   UNL     1      41.107  41.819  17.000  1.00  0.00     0.041 C 
ATOM      8  O   UNL     1      41.124  42.341  18.146  1.00  0.00    -0.550 OA
ATOM      9  O   UNL     1      41.124  42.634  15.876  1.00  0.00    -0.550 OA
ENDBRANCH   6   7
ENDBRANCH   5   6
ENDBRANCH   4   5
ENDBRANCH   3   4
ENDBRANCH   2   3
ENDBRANCH   1   2
BRANCH   1  10
ATOM     10  C   UNL     1      36.396  37.970  20.927  1.00  0.00     0.000 C 
BRANCH  10  11
ATOM     11  C   UNL     1      37.410  37.165  20.106  1.00  0.00    -0.000 C 
BRANCH  11  12
ATOM     12  C   UNL     1      37.973  35.994  20.925  1.00  0.00    -0.000 C 
BRANCH  12  13
ATOM     13  C   UNL     1      38.734  34.978  20.058  1.00  0.00    -0.000 C 
BRANCH  13  14
ATOM     14  C   UNL     1      38.464  35.163  18.555  1.00  0.00    -0.000 C 
BRANCH  14  15
ATOM     15  C   UNL     1      39.757  35.315  17.740  1.00  0.00    -0.003 C 
ATOM     16  C   UNL     1      40.888  35.960  18.541  1.00  0.00     0.004 C 
ENDBRANCH  14  15
ENDBRANCH  13  14
ENDBRANCH  12  13
ENDBRANCH  11  12
ENDBRANCH  10  11
ENDBRANCH   1  10
TORSDOF 12
ENDMDL
MODEL 6
REMARK VINA RESULT:    -0.794     23.782     26.259
REMARK INTER + INTRA:          -2.254
REMARK INTER:                  -1.696
REMARK INTRA:                  -0.559
REMARK UNBOUND:                -0.904
REMARK SMILES CCCCCCCCCCCCCC(=O)[O-]
REMARK SMILES IDX 8 1 9 2 10 3 11 4 12 5 13 6 14 7 15 8 16 9 7 10 6 11 5 12
REMARK SMILES IDX 4 13 3 14 2 15 1 16
REMARK H PARENT
REMARK Flexibility Score: inf
ROOT
ATOM      1  C   UNL     1      36.798  39.633  20.012  1.00  0.00     0.000 C 
ENDROOT
BRANCH   1   2
ATOM      2  C   UNL     1      38.083  39.804  19.183  1.00  0.00     0.000 C 
BRANCH   2   3
ATOM      3  C   UNL     1      38.680  41.226  19.255  1.00  0.00     0.000 C 
BRANCH   3   4
ATOM      4  C   UNL     1      40.048  41.318  18.558  1.00  0.00     0.000 C 
BRANCH   4   5
ATOM      5  C   UNL     1      40.777  39.965  18.478  1.00  0.00     0.006 C 
BRANCH   5   6
ATOM      6  C   UNL     1      40.974  39.445  17.042  1.00  0.00     0.053 C 
BRANCH   6   7
ATOM      7  C   UNL     1      40.735  37.971  16.924  1.00  0.00     0.041 C 
ATOM      8  O   UNL     1      40.219  37.492  15.880  1.00  0.00    -0.550 OA
ATOM      9  O   UNL     1      41.116  37.119  17.953  1.00  0.00    -0.550 OA
ENDBRANCH   6   7
ENDBRANCH   5   6
ENDBRANCH   4   5
ENDBRANCH   3   4
ENDBRANCH   2   3
ENDBRANCH   1   2
BRANCH   1  10
ATOM     10  C   UNL     1      36.477  38.164  20.321  1.00  0.00     0.000 C 
BRANCH  10  11
ATOM     11  C   UNL     1      37.742  37.396  20.721  1.00  0.00    -0.000 C 
BRANCH  11  12
ATOM     12  C   UNL     1      37.487  35.882  20.724  1.00  0.00    -0.000 C 
BRANCH  12  13
ATOM     13  C   UNL     1      38.781  35.064  20.588  1.00  0.00    -0.000 C 
BRANCH  13  14
ATOM     14  C   UNL     1      39.264  34.958  19.131  1.00  0.00    -0.000 C 
BRANCH  14  15
ATOM     15  C   UNL     1      38.101  34.875  18.130  1.00  0.00    -0.003 C 
ATOM     16  C   UNL     1      38.565  34.956  16.676  1.00  0.00     0.004 C 
ENDBRANCH  14  15
ENDBRANCH  13  14
ENDBRANCH  12  13
ENDBRANCH  11  12
ENDBRANCH  10  11
ENDBRANCH   1  10
TORSDOF 12
ENDMDL
MODEL 7
REMARK VINA RESULT:    -0.678      1.266      1.835
REMARK INTER + INTRA:          -2.057
REMARK INTER:                  -1.576
REMARK INTRA:                  -0.481
REMARK UNBOUND:                -0.904
REMARK SMILES CCCCCCCCCCCCCC(=O)[O-]
REMARK SMILES IDX 8 1 9 2 10 3 11 4 12 5 13 6 14 7 15 8 16 9 7 10 6 11 5 12
REMARK SMILES IDX 4 13 3 14 2 15 1 16
REMARK H PARENT
REMARK Flexibility Score: inf
ROOT
ATOM      1  C   UNL     1      21.952  55.076  30.835  1.00  0.00     0.000 C 
ENDROOT
BRANCH   1   2
ATOM      2  C   UNL     1      21.536  54.307  29.569  1.00  0.00     0.000 C 
BRANCH   2   3
ATOM      3  C   UNL     1      22.009  54.974  28.259  1.00  0.00     0.000 C 
BRANCH   3   4
ATOM      4  C   UNL     1      23.133  54.178  27.576  1.00  0.00     0.000 C 
BRANCH   4   5
ATOM      5  C   UNL     1      23.483  52.872  28.311  1.00  0.00     0.006 C 
BRANCH   5   6
ATOM      6  C   UNL     1      23.455  51.623  27.413  1.00  0.00     0.053 C 
BRANCH   6   7
ATOM      7  C   UNL     1      24.508  51.654  26.346  1.00  0.00     0.041 C 
ATOM      8  O   UNL     1      24.486  52.547  25.458  1.00  0.00    -0.550 OA
ATOM      9  O   UNL     1      25.534  50.719  26.354  1.00  0.00    -0.550 OA
ENDBRANCH   6   7
ENDBRANCH   5   6
ENDBRANCH   4   5
ENDBRANCH   3   4
ENDBRANCH   2   3
ENDBRANCH   1   2
BRANCH   1  10
ATOM     10  C   UNL     1      20.996  54.847  32.014  1.00  0.00     0.000 C 
BRANCH  10  11
ATOM     11  C   UNL     1      21.694  55.125  33.351  1.00  0.00    -0.000 C 
BRANCH  11  12
ATOM     12  C   UNL     1      22.649  53.979  33.719  1.00  0.00    -0.000 C 
BRANCH  12  13
ATOM     13  C   UNL     1      23.769  54.427  34.672  1.00  0.00    -0.000 C 
BRANCH  13  14
ATOM     14  C   UNL     1      25.117  54.613  33.953  1.00  0.00    -0.000 C 
BRANCH  14  15
ATOM     15  C   UNL     1      24.951  55.123  32.513  1.00  0.00    -0.003 C 
ATOM     16  C   UNL     1      25.361  54.085  31.468  1.00  0.00     0.004 C 
ENDBRANCH  14  15
ENDBRANCH  13  14
ENDBRANCH  12  13
ENDBRANCH  11  12
ENDBRANCH  10  11
ENDBRANCH   1  10
TORSDOF 12
ENDMDL
MODEL 8
REMARK VINA RESULT:    -0.279      1.265      2.567
REMARK INTER + INTRA:          -1.379
REMARK INTER:                  -0.712
REMARK INTRA:                  -0.667
REMARK UNBOUND:                -0.904
REMARK SMILES CCCCCCCCCCCCCC(=O)[O-]
REMARK SMILES IDX 8 1 9 2 10 3 11 4 12 5 13 6 14 7 15 8 16 9 7 10 6 11 5 12
REMARK SMILES IDX 4 13 3 14 2 15 1 16
REMARK H PARENT
REMARK Flexibility Score: inf
ROOT
ATOM      1  C   UNL     1      21.108  55.125  29.780  1.00  0.00     0.000 C 
ENDROOT
BRANCH   1   2
ATOM      2  C   UNL     1      21.564  53.879  29.001  1.00  0.00     0.000 C 
BRANCH   2   3
ATOM      3  C   UNL     1      22.742  54.150  28.040  1.00  0.00     0.000 C 
BRANCH   3   4
ATOM      4  C   UNL     1      23.973  53.290  28.374  1.00  0.00     0.000 C 
BRANCH   4   5
ATOM      5  C   UNL     1      23.763  51.794  28.080  1.00  0.00     0.006 C 
BRANCH   5   6
ATOM      6  C   UNL     1      23.531  51.477  26.592  1.00  0.00     0.053 C 
BRANCH   6   7
ATOM      7  C   UNL     1      24.588  52.059  25.704  1.00  0.00     0.041 C 
ATOM      8  O   UNL     1      25.579  51.364  25.356  1.00  0.00    -0.550 OA
ATOM      9  O   UNL     1      24.462  53.359  25.232  1.00  0.00    -0.550 OA
ENDBRANCH   6   7
ENDBRANCH   5   6
ENDBRANCH   4   5
ENDBRANCH   3   4
ENDBRANCH   2   3
ENDBRANCH   1   2
BRANCH   1  10
ATOM     10  C   UNL     1      21.568  55.117  31.244  1.00  0.00     0.000 C 
BRANCH  10  11
ATOM     11  C   UNL     1      23.098  55.125  31.340  1.00  0.00    -0.000 C 
BRANCH  11  12
ATOM     12  C   UNL     1      23.580  54.235  32.496  1.00  0.00    -0.000 C 
BRANCH  12  13
ATOM     13  C   UNL     1      24.465  54.995  33.497  1.00  0.00    -0.000 C 
BRANCH  13  14
ATOM     14  C   UNL     1      23.824  55.102  34.892  1.00  0.00    -0.000 C 
BRANCH  14  15
ATOM     15  C   UNL     1      22.313  54.823  34.867  1.00  0.00    -0.003 C 
ATOM     16  C   UNL     1      21.920  53.618  35.722  1.00  0.00     0.004 C 
ENDBRANCH  14  15
ENDBRANCH  13  14
ENDBRANCH  12  13
ENDBRANCH  11  12
ENDBRANCH  10  11
ENDBRANCH   1  10
TORSDOF 12
ENDMDL
