MODEL 1
REMARK VINA RESULT:    -3.305      0.000      0.000
REMARK INTER + INTRA:          -4.009
REMARK INTER:                  -3.885
REMARK INTRA:                  -0.124
REMARK UNBOUND:                -0.124
REMARK SMILES O=C([O-])CCC(=O)[O-]
REMARK SMILES IDX 4 1 2 2 1 3 3 4 5 5 6 6 7 7 8 8
REMARK H PARENT
REMARK Flexibility Score: inf
ROOT
ATOM      1  C   UNL     1      88.295  76.149  72.881  1.00  0.00     0.059 C 
ENDROOT
BRANCH   1   2
ATOM      2  C   UNL     1      88.020  76.039  74.347  1.00  0.00     0.042 C 
ATOM      3  O   UNL     1      88.538  76.859  75.152  1.00  0.00    -0.550 OA
ATOM      4  O   UNL     1      87.154  75.064  74.820  1.00  0.00    -0.550 OA
ENDBRANCH   1   2
BRANCH   1   5
ATOM      5  C   UNL     1      87.721  77.453  72.324  1.00  0.00     0.059 C 
BRANCH   5   6
ATOM      6  C   UNL     1      88.815  78.325  71.797  1.00  0.00     0.042 C 
ATOM      7  O   UNL     1      89.831  78.564  72.502  1.00  0.00    -0.550 OA
ATOM      8  O   UNL     1      88.738  78.835  70.506  1.00  0.00    -0.550 OA
ENDBRANCH   5   6
ENDBRANCH   1   5
TORSDOF 3
ENDMDL
MODEL 2
REMARK VINA RESULT:    -3.294      0.117      3.943
REMARK INTER + INTRA:          -3.995
REMARK INTER:                  -3.873
REMARK INTRA:                  -0.122
REMARK UNBOUND:                -0.124
REMARK SMILES O=C([O-])CCC(=O)[O-]
REMARK SMILES IDX 4 1 2 2 1 3 3 4 5 5 6 6 7 7 8 8
REMARK H PARENT
REMARK Flexibility Score: inf
ROOT
ATOM      1  C   UNL     1      87.714  77.463  72.295  1.00  0.00     0.059 C 
ENDROOT
BRANCH   1   2
ATOM      2  C   UNL     1      88.836  78.295  71.758  1.00  0.00     0.042 C 
ATOM      3  O   UNL     1      89.854  78.518  72.466  1.00  0.00    -0.550 OA
ATOM      4  O   UNL     1      88.780  78.783  70.460  1.00  0.00    -0.550 OA
ENDBRANCH   1   2
BRANCH   1   5
ATOM      5  C   UNL     1      88.251  76.161  72.892  1.00  0.00     0.059 C 
BRANCH   5   6
ATOM      6  C   UNL     1      87.890  76.062  74.340  1.00  0.00     0.042 C 
ATOM      7  O   UNL     1      88.294  76.932  75.156  1.00  0.00    -0.550 OA
ATOM      8  O   UNL     1      87.066  75.033  74.781  1.00  0.00    -0.550 OA
ENDBRANCH   5   6
ENDBRANCH   1   5
TORSDOF 3
ENDMDL
MODEL 3
REMARK VINA RESULT:    -3.292     11.237     12.300
REMARK INTER + INTRA:          -3.993
REMARK INTER:                  -3.894
REMARK INTRA:                  -0.099
REMARK UNBOUND:                -0.124
REMARK SMILES O=C([O-])CCC(=O)[O-]
REMARK SMILES IDX 4 1 2 2 1 3 3 4 5 5 6 6 7 7 8 8
REMARK H PARENT
REMARK Flexibility Score: inf
ROOT
ATOM      1  C   UNL     1      95.083  84.654  80.252  1.00  0.00     0.059 C 
ENDROOT
BRANCH   1   2
ATOM      2  C   UNL     1      95.919  85.705  79.593  1.00  0.00     0.042 C 
ATOM      3  O   UNL     1      97.116  85.876  79.947  1.00  0.00    -0.550 OA
ATOM      4  O   UNL     1      95.394  86.462  78.555  1.00  0.00    -0.550 OA
ENDBRANCH   1   2
BRANCH   1   5
ATOM      5  C   UNL     1      94.181  83.966  79.226  1.00  0.00     0.059 C 
BRANCH   5   6
ATOM      6  C   UNL     1      92.751  84.341  79.450  1.00  0.00     0.042 C 
ATOM      7  O   UNL     1      92.133  85.027  78.594  1.00  0.00    -0.550 OA
ATOM      8  O   UNL     1      92.084  83.892  80.584  1.00  0.00    -0.550 OA
ENDBRANCH   5   6
ENDBRANCH   1   5
TORSDOF 3
ENDMDL
MODEL 4
REMARK VINA RESULT:    -3.291     11.285     12.298
REMARK INTER + INTRA:          -3.992
REMARK INTER:                  -3.893
REMARK INTRA:                  -0.099
REMARK UNBOUND:                -0.124
REMARK SMILES O=C([O-])CCC(=O)[O-]
REMARK SMILES IDX 4 1 2 2 1 3 3 4 5 5 6 6 7 7 8 8
REMARK H PARENT
REMARK Flexibility Score: inf
ROOT
ATOM      1  C   UNL     1      95.144  84.656  80.286  1.00  0.00     0.059 C 
ENDROOT
BRANCH   1   2
ATOM      2  C   UNL     1      95.955  85.726  79.626  1.00  0.00     0.042 C 
ATOM      3  O   UNL     1      97.149  85.923  79.976  1.00  0.00    -0.550 OA
ATOM      4  O   UNL     1      95.410  86.472  78.590  1.00  0.00    -0.550 OA
ENDBRANCH   1   2
BRANCH   1   5
ATOM      5  C   UNL     1      94.249  83.954  79.263  1.00  0.00     0.059 C 
BRANCH   5   6
ATOM      6  C   UNL     1      92.813  84.291  79.506  1.00  0.00     0.042 C 
ATOM      7  O   UNL     1      92.240  83.905  80.559  1.00  0.00    -0.550 OA
ATOM      8  O   UNL     1      92.118  85.074  78.592  1.00  0.00    -0.550 OA
ENDBRANCH   5   6
ENDBRANCH   1   5
TORSDOF 3
ENDMDL
MODEL 5
REMARK VINA RESULT:    -3.286     11.288     12.073
REMARK INTER + INTRA:          -3.985
REMARK INTER:                  -3.888
REMARK INTRA:                  -0.097
REMARK UNBOUND:                -0.124
REMARK SMILES O=C([O-])CCC(=O)[O-]
REMARK SMILES IDX 4 1 2 2 1 3 3 4 5 5 6 6 7 7 8 8
REMARK H PARENT
REMARK Flexibility Score: inf
ROOT
ATOM      1  C   UNL     1      94.251  83.943  79.262  1.00  0.00     0.059 C 
ENDROOT
BRANCH   1   2
ATOM      2  C   UNL     1      92.810  84.273  79.493  1.00  0.00     0.042 C 
ATOM      3  O   UNL     1      92.229  83.876  80.538  1.00  0.00    -0.550 OA
ATOM      4  O   UNL     1      92.122  85.060  78.579  1.00  0.00    -0.550 OA
ENDBRANCH   1   2
BRANCH   1   5
ATOM      5  C   UNL     1      95.137  84.676  80.271  1.00  0.00     0.059 C 
BRANCH   5   6
ATOM      6  C   UNL     1      95.965  85.714  79.582  1.00  0.00     0.042 C 
ATOM      7  O   UNL     1      95.476  86.396  78.644  1.00  0.00    -0.550 OA
ATOM      8  O   UNL     1      97.264  85.962  80.009  1.00  0.00    -0.550 OA
ENDBRANCH   5   6
ENDBRANCH   1   5
TORSDOF 3
ENDMDL
MODEL 6
REMARK VINA RESULT:    -3.261      2.206      3.881
REMARK INTER + INTRA:          -3.957
REMARK INTER:                  -3.859
REMARK INTRA:                  -0.098
REMARK UNBOUND:                -0.124
REMARK SMILES O=C([O-])CCC(=O)[O-]
REMARK SMILES IDX 4 1 2 2 1 3 3 4 5 5 6 6 7 7 8 8
REMARK H PARENT
REMARK Flexibility Score: inf
ROOT
ATOM      1  C   UNL     1      88.772  77.118  73.763  1.00  0.00     0.059 C 
ENDROOT
BRANCH   1   2
ATOM      2  C   UNL     1      89.785  76.085  73.383  1.00  0.00     0.042 C 
ATOM      3  O   UNL     1      90.117  75.937  72.177  1.00  0.00    -0.550 OA
ATOM      4  O   UNL     1      90.399  75.320  74.365  1.00  0.00    -0.550 OA
ENDBRANCH   1   2
BRANCH   1   5
ATOM      5  C   UNL     1      88.285  76.890  75.195  1.00  0.00     0.059 C 
BRANCH   5   6
ATOM      6  C   UNL     1      86.918  76.284  75.193  1.00  0.00     0.042 C 
ATOM      7  O   UNL     1      85.941  76.921  75.668  1.00  0.00    -0.550 OA
ATOM      8  O   UNL     1      86.712  75.034  74.621  1.00  0.00    -0.550 OA
ENDBRANCH   5   6
ENDBRANCH   1   5
TORSDOF 3
ENDMDL
MODEL 7
REMARK VINA RESULT:    -3.257      2.181      3.020
REMARK INTER + INTRA:          -3.951
REMARK INTER:                  -3.806
REMARK INTRA:                  -0.146
REMARK UNBOUND:                -0.124
REMARK SMILES O=C([O-])CCC(=O)[O-]
REMARK SMILES IDX 4 1 2 2 1 3 3 4 5 5 6 6 7 7 8 8
REMARK H PARENT
REMARK Flexibility Score: inf
ROOT
ATOM      1  C   UNL     1      86.707  75.397  74.267  1.00  0.00     0.059 C 
ENDROOT
BRANCH   1   2
ATOM      2  C   UNL     1      86.150  76.599  74.961  1.00  0.00     0.042 C 
ATOM      3  O   UNL     1      85.297  77.325  74.384  1.00  0.00    -0.550 OA
ATOM      4  O   UNL     1      86.534  76.890  76.263  1.00  0.00    -0.550 OA
ENDBRANCH   1   2
BRANCH   1   5
ATOM      5  C   UNL     1      87.678  75.818  73.162  1.00  0.00     0.059 C 
BRANCH   5   6
ATOM      6  C   UNL     1      89.038  76.076  73.730  1.00  0.00     0.042 C 
ATOM      7  O   UNL     1      89.767  76.980  73.245  1.00  0.00    -0.550 OA
ATOM      8  O   UNL     1      89.481  75.349  74.828  1.00  0.00    -0.550 OA
ENDBRANCH   5   6
ENDBRANCH   1   5
TORSDOF 3
ENDMDL
MODEL 8
REMARK VINA RESULT:    -3.245      2.055      3.706
REMARK INTER + INTRA:          -3.938
REMARK INTER:                  -3.771
REMARK INTRA:                  -0.167
REMARK UNBOUND:                -0.124
REMARK SMILES O=C([O-])CCC(=O)[O-]
REMARK SMILES IDX 4 1 2 2 1 3 3 4 5 5 6 6 7 7 8 8
REMARK H PARENT
REMARK Flexibility Score: inf
ROOT
ATOM      1  C   UNL     1      87.570  75.759  73.096  1.00  0.00     0.059 C 
ENDROOT
BRANCH   1   2
ATOM      2  C   UNL     1      88.893  76.285  73.555  1.00  0.00     0.042 C 
ATOM      3  O   UNL     1      89.287  77.422  73.182  1.00  0.00    -0.550 OA
ATOM      4  O   UNL     1      89.669  75.542  74.435  1.00  0.00    -0.550 OA
ENDBRANCH   1   2
BRANCH   1   5
ATOM      5  C   UNL     1      86.701  75.374  74.294  1.00  0.00     0.059 C 
BRANCH   5   6
ATOM      6  C   UNL     1      86.175  76.598  74.974  1.00  0.00     0.042 C 
ATOM      7  O   UNL     1      85.358  77.351  74.382  1.00  0.00    -0.550 OA
ATOM      8  O   UNL     1      86.551  76.882  76.282  1.00  0.00    -0.550 OA
ENDBRANCH   5   6
ENDBRANCH   1   5
TORSDOF 3
ENDMDL
MODEL 9
REMARK VINA RESULT:    -3.165     10.664     11.521
REMARK INTER + INTRA:          -3.843
REMARK INTER:                  -3.728
REMARK INTRA:                  -0.115
REMARK UNBOUND:                -0.124
REMARK SMILES O=C([O-])CCC(=O)[O-]
REMARK SMILES IDX 4 1 2 2 1 3 3 4 5 5 6 6 7 7 8 8
REMARK H PARENT
REMARK Flexibility Score: inf
ROOT
ATOM      1  C   UNL     1      92.608  84.327  80.053  1.00  0.00     0.059 C 
ENDROOT
BRANCH   1   2
ATOM      2  C   UNL     1      91.588  84.926  79.138  1.00  0.00     0.042 C 
ATOM      3  O   UNL     1      90.373  84.614  79.253  1.00  0.00    -0.550 OA
ATOM      4  O   UNL     1      91.970  85.867  78.192  1.00  0.00    -0.550 OA
ENDBRANCH   1   2
BRANCH   1   5
ATOM      5  C   UNL     1      93.850  83.904  79.266  1.00  0.00     0.059 C 
BRANCH   5   6
ATOM      6  C   UNL     1      95.019  84.761  79.634  1.00  0.00     0.042 C 
ATOM      7  O   UNL     1      95.315  85.765  78.934  1.00  0.00    -0.550 OA
ATOM      8  O   UNL     1      95.756  84.478  80.778  1.00  0.00    -0.550 OA
ENDBRANCH   5   6
ENDBRANCH   1   5
TORSDOF 3
ENDMDL
