MODEL 1
REMARK VINA RESULT:    -4.486      0.000      0.000
REMARK INTER + INTRA:          -5.882
REMARK INTER:                  -5.535
REMARK INTRA:                  -0.346
REMARK UNBOUND:                -0.346
REMARK SMILES C=CC(=C)CCC=C(C)C
REMARK SMILES IDX 5 1 6 2 7 3 9 4 8 5 10 6 3 7 4 8 2 9 1 10
REMARK H PARENT
REMARK Flexibility Score: inf
ROOT
ATOM      1  C   UNL     1      56.177  43.662  43.691  1.00  0.00     0.039 C 
ENDROOT
BRANCH   1   2
ATOM      2  C   UNL     1      57.419  43.089  42.991  1.00  0.00     0.032 C 
BRANCH   2   3
ATOM      3  C   UNL     1      57.968  44.038  41.954  1.00  0.00    -0.028 C 
ATOM      4  C   UNL     1      59.504  42.330  40.957  1.00  0.00     0.039 C 
ATOM      5  C   UNL     1      58.924  43.722  41.054  1.00  0.00    -0.080 C 
ATOM      6  C   UNL     1      59.405  44.794  40.111  1.00  0.00     0.039 C 
ENDBRANCH   2   3
ENDBRANCH   1   2
BRANCH   1   7
ATOM      7  C   UNL     1      54.995  43.771  42.747  1.00  0.00    -0.055 C 
ATOM      8  C   UNL     1      54.413  42.652  42.303  1.00  0.00     0.012 C 
BRANCH   7   9
ATOM      9  C   UNL     1      54.432  45.081  42.330  1.00  0.00    -0.005 C 
ATOM     10  C   UNL     1      53.146  45.284  42.041  1.00  0.00     0.009 C 
ENDBRANCH   7   9
ENDBRANCH   1   7
TORSDOF 4
ENDMDL
MODEL 2
REMARK VINA RESULT:    -4.385      1.258      2.068
REMARK INTER + INTRA:          -5.757
REMARK INTER:                  -5.214
REMARK INTRA:                  -0.543
REMARK UNBOUND:                -0.346
REMARK SMILES C=CC(=C)CCC=C(C)C
REMARK SMILES IDX 5 1 6 2 7 3 9 4 8 5 10 6 3 7 4 8 2 9 1 10
REMARK H PARENT
REMARK Flexibility Score: inf
ROOT
ATOM      1  C   UNL     1      55.176  43.628  42.321  1.00  0.00     0.039 C 
ENDROOT
BRANCH   1   2
ATOM      2  C   UNL     1      56.564  43.674  42.976  1.00  0.00     0.032 C 
BRANCH   2   3
ATOM      3  C   UNL     1      57.671  43.608  41.951  1.00  0.00    -0.028 C 
ATOM      4  C   UNL     1      57.750  46.090  41.626  1.00  0.00     0.039 C 
ATOM      5  C   UNL     1      58.193  44.680  41.315  1.00  0.00    -0.080 C 
ATOM      6  C   UNL     1      59.264  44.448  40.280  1.00  0.00     0.039 C 
ENDBRANCH   2   3
ENDBRANCH   1   2
BRANCH   1   7
ATOM      7  C   UNL     1      54.365  44.873  42.624  1.00  0.00    -0.055 C 
ATOM      8  C   UNL     1      53.286  45.143  41.882  1.00  0.00     0.012 C 
BRANCH   7   9
ATOM      9  C   UNL     1      54.704  45.787  43.746  1.00  0.00    -0.005 C 
ATOM     10  C   UNL     1      53.948  46.818  44.124  1.00  0.00     0.009 C 
ENDBRANCH   7   9
ENDBRANCH   1   7
TORSDOF 4
ENDMDL
MODEL 3
REMARK VINA RESULT:    -4.239      1.028      4.901
REMARK INTER + INTRA:          -5.577
REMARK INTER:                  -5.113
REMARK INTRA:                  -0.464
REMARK UNBOUND:                -0.346
REMARK SMILES C=CC(=C)CCC=C(C)C
REMARK SMILES IDX 5 1 6 2 7 3 9 4 8 5 10 6 3 7 4 8 2 9 1 10
REMARK H PARENT
REMARK Flexibility Score: inf
ROOT
ATOM      1  C   UNL     1      57.889  45.746  41.615  1.00  0.00     0.039 C 
ENDROOT
BRANCH   1   2
ATOM      2  C   UNL     1      57.007  45.223  42.758  1.00  0.00     0.032 C 
BRANCH   2   3
ATOM      3  C   UNL     1      55.547  45.532  42.528  1.00  0.00    -0.028 C 
ATOM      4  C   UNL     1      54.871  43.121  42.470  1.00  0.00     0.039 C 
ATOM      5  C   UNL     1      54.582  44.600  42.368  1.00  0.00    -0.080 C 
ATOM      6  C   UNL     1      53.174  45.065  42.097  1.00  0.00     0.039 C 
ENDBRANCH   2   3
ENDBRANCH   1   2
BRANCH   1   7
ATOM      7  C   UNL     1      58.707  44.639  40.978  1.00  0.00    -0.055 C 
ATOM      8  C   UNL     1      59.486  44.927  39.930  1.00  0.00     0.012 C 
BRANCH   7   9
ATOM      9  C   UNL     1      58.705  43.249  41.503  1.00  0.00    -0.005 C 
ATOM     10  C   UNL     1      59.503  42.279  41.054  1.00  0.00     0.009 C 
ENDBRANCH   7   9
ENDBRANCH   1   7
TORSDOF 4
ENDMDL
MODEL 4
REMARK VINA RESULT:    -4.165      1.012      4.639
REMARK INTER + INTRA:          -5.486
REMARK INTER:                  -4.898
REMARK INTRA:                  -0.588
REMARK UNBOUND:                -0.346
REMARK SMILES C=CC(=C)CCC=C(C)C
REMARK SMILES IDX 5 1 6 2 7 3 9 4 8 5 10 6 3 7 4 8 2 9 1 10
REMARK H PARENT
REMARK Flexibility Score: inf
ROOT
ATOM      1  C   UNL     1      57.338  42.977  42.347  1.00  0.00     0.039 C 
ENDROOT
BRANCH   1   2
ATOM      2  C   UNL     1      56.199  43.246  43.341  1.00  0.00     0.032 C 
BRANCH   2   3
ATOM      3  C   UNL     1      54.920  43.637  42.638  1.00  0.00    -0.028 C 
ATOM      4  C   UNL     1      55.263  46.089  43.014  1.00  0.00     0.039 C 
ATOM      5  C   UNL     1      54.473  44.905  42.509  1.00  0.00    -0.080 C 
ATOM      6  C   UNL     1      53.151  45.133  41.822  1.00  0.00     0.039 C 
ENDBRANCH   2   3
ENDBRANCH   1   2
BRANCH   1   7
ATOM      7  C   UNL     1      58.283  44.157  42.234  1.00  0.00    -0.055 C 
ATOM      8  C   UNL     1      59.013  44.510  43.297  1.00  0.00     0.012 C 
BRANCH   7   9
ATOM      9  C   UNL     1      58.458  44.914  40.967  1.00  0.00    -0.005 C 
ATOM     10  C   UNL     1      59.383  44.630  40.049  1.00  0.00     0.009 C 
ENDBRANCH   7   9
ENDBRANCH   1   7
TORSDOF 4
ENDMDL
MODEL 5
REMARK VINA RESULT:    -4.088      1.376      2.433
REMARK INTER + INTRA:          -5.390
REMARK INTER:                  -4.556
REMARK INTRA:                  -0.834
REMARK UNBOUND:                -0.346
REMARK SMILES C=CC(=C)CCC=C(C)C
REMARK SMILES IDX 5 1 6 2 7 3 9 4 8 5 10 6 3 7 4 8 2 9 1 10
REMARK H PARENT
REMARK Flexibility Score: inf
ROOT
ATOM      1  C   UNL     1      56.516  46.008  41.837  1.00  0.00     0.039 C 
ENDROOT
BRANCH   1   2
ATOM      2  C   UNL     1      58.002  45.765  42.134  1.00  0.00     0.032 C 
BRANCH   2   3
ATOM      3  C   UNL     1      58.554  44.609  41.334  1.00  0.00    -0.028 C 
ATOM      4  C   UNL     1      58.594  43.050  43.293  1.00  0.00     0.039 C 
ATOM      5  C   UNL     1      58.852  43.395  41.846  1.00  0.00    -0.080 C 
ATOM      6  C   UNL     1      59.441  42.355  40.928  1.00  0.00     0.039 C 
ENDBRANCH   2   3
ENDBRANCH   1   2
BRANCH   1   7
ATOM      7  C   UNL     1      55.616  45.324  42.847  1.00  0.00    -0.055 C 
ATOM      8  C   UNL     1      55.655  45.718  44.125  1.00  0.00     0.012 C 
BRANCH   7   9
ATOM      9  C   UNL     1      54.658  44.256  42.461  1.00  0.00    -0.005 C 
ATOM     10  C   UNL     1      54.960  42.957  42.432  1.00  0.00     0.009 C 
ENDBRANCH   7   9
ENDBRANCH   1   7
TORSDOF 4
ENDMDL
MODEL 6
REMARK VINA RESULT:    -3.924     20.614     22.011
REMARK INTER + INTRA:          -5.188
REMARK INTER:                  -4.374
REMARK INTRA:                  -0.814
REMARK UNBOUND:                -0.346
REMARK SMILES C=CC(=C)CCC=C(C)C
REMARK SMILES IDX 5 1 6 2 7 3 9 4 8 5 10 6 3 7 4 8 2 9 1 10
REMARK H PARENT
REMARK Flexibility Score: inf
ROOT
ATOM      1  C   UNL     1      56.839  28.942  27.275  1.00  0.00     0.039 C 
ENDROOT
BRANCH   1   2
ATOM      2  C   UNL     1      56.512  30.043  26.256  1.00  0.00     0.032 C 
BRANCH   2   3
ATOM      3  C   UNL     1      55.136  30.623  26.478  1.00  0.00    -0.028 C 
ATOM      4  C   UNL     1      54.194  29.631  24.380  1.00  0.00     0.039 C 
ATOM      5  C   UNL     1      54.094  30.471  25.631  1.00  0.00    -0.080 C 
ATOM      6  C   UNL     1      52.792  31.152  25.966  1.00  0.00     0.039 C 
ENDBRANCH   2   3
ENDBRANCH   1   2
BRANCH   1   7
ATOM      7  C   UNL     1      56.598  27.556  26.710  1.00  0.00    -0.055 C 
ATOM      8  C   UNL     1      57.611  26.906  26.127  1.00  0.00     0.012 C 
BRANCH   7   9
ATOM      9  C   UNL     1      55.282  26.875  26.816  1.00  0.00    -0.005 C 
ATOM     10  C   UNL     1      54.304  27.262  27.635  1.00  0.00     0.009 C 
ENDBRANCH   7   9
ENDBRANCH   1   7
TORSDOF 4
ENDMDL
MODEL 7
REMARK VINA RESULT:    -3.903     20.199     21.847
REMARK INTER + INTRA:          -5.163
REMARK INTER:                  -4.449
REMARK INTRA:                  -0.714
REMARK UNBOUND:                -0.346
REMARK SMILES C=CC(=C)CCC=C(C)C
REMARK SMILES IDX 5 1 6 2 7 3 9 4 8 5 10 6 3 7 4 8 2 9 1 10
REMARK H PARENT
REMARK Flexibility Score: inf
ROOT
ATOM      1  C   UNL     1      54.924  28.159  27.570  1.00  0.00     0.039 C 
ENDROOT
BRANCH   1   2
ATOM      2  C   UNL     1      53.973  28.405  26.389  1.00  0.00     0.032 C 
BRANCH   2   3
ATOM      3  C   UNL     1      53.383  29.794  26.423  1.00  0.00    -0.028 C 
ATOM      4  C   UNL     1      54.840  30.643  24.572  1.00  0.00     0.039 C 
ATOM      5  C   UNL     1      53.781  30.816  25.635  1.00  0.00    -0.080 C 
ATOM      6  C   UNL     1      53.127  32.161  25.820  1.00  0.00     0.039 C 
ENDBRANCH   2   3
ENDBRANCH   1   2
BRANCH   1   7
ATOM      7  C   UNL     1      56.354  28.536  27.235  1.00  0.00    -0.055 C 
ATOM      8  C   UNL     1      56.813  29.736  27.603  1.00  0.00     0.012 C 
BRANCH   7   9
ATOM      9  C   UNL     1      57.279  27.600  26.545  1.00  0.00    -0.005 C 
ATOM     10  C   UNL     1      57.429  27.537  25.222  1.00  0.00     0.009 C 
ENDBRANCH   7   9
ENDBRANCH   1   7
TORSDOF 4
ENDMDL
MODEL 8
REMARK VINA RESULT:    -3.900      1.487      2.369
REMARK INTER + INTRA:          -5.159
REMARK INTER:                  -4.901
REMARK INTRA:                  -0.257
REMARK UNBOUND:                -0.346
REMARK SMILES C=CC(=C)CCC=C(C)C
REMARK SMILES IDX 5 1 6 2 7 3 9 4 8 5 10 6 3 7 4 8 2 9 1 10
REMARK H PARENT
REMARK Flexibility Score: inf
ROOT
ATOM      1  C   UNL     1      54.546  44.769  42.575  1.00  0.00     0.039 C 
ENDROOT
BRANCH   1   2
ATOM      2  C   UNL     1      55.993  44.753  43.089  1.00  0.00     0.032 C 
BRANCH   2   3
ATOM      3  C   UNL     1      56.980  45.099  42.000  1.00  0.00    -0.028 C 
ATOM      4  C   UNL     1      58.145  42.885  42.118  1.00  0.00     0.039 C 
ATOM      5  C   UNL     1      57.969  44.283  41.574  1.00  0.00    -0.080 C 
ATOM      6  C   UNL     1      58.907  44.790  40.509  1.00  0.00     0.039 C 
ENDBRANCH   2   3
ENDBRANCH   1   2
BRANCH   1   7
ATOM      7  C   UNL     1      53.772  45.963  43.098  1.00  0.00    -0.055 C 
ATOM      8  C   UNL     1      54.326  46.737  44.037  1.00  0.00     0.012 C 
BRANCH   7   9
ATOM      9  C   UNL     1      52.430  46.330  42.575  1.00  0.00    -0.005 C 
ATOM     10  C   UNL     1      51.448  46.834  43.323  1.00  0.00     0.009 C 
ENDBRANCH   7   9
ENDBRANCH   1   7
TORSDOF 4
ENDMDL
MODEL 9
REMARK VINA RESULT:    -3.828     20.797     22.273
REMARK INTER + INTRA:          -5.070
REMARK INTER:                  -4.167
REMARK INTRA:                  -0.903
REMARK UNBOUND:                -0.346
REMARK SMILES C=CC(=C)CCC=C(C)C
REMARK SMILES IDX 5 1 6 2 7 3 9 4 8 5 10 6 3 7 4 8 2 9 1 10
REMARK H PARENT
REMARK Flexibility Score: inf
ROOT
ATOM      1  C   UNL     1      54.995  30.290  24.072  1.00  0.00     0.039 C 
ENDROOT
BRANCH   1   2
ATOM      2  C   UNL     1      56.459  30.229  24.531  1.00  0.00     0.032 C 
BRANCH   2   3
ATOM      3  C   UNL     1      56.906  28.812  24.799  1.00  0.00    -0.028 C 
ATOM      4  C   UNL     1      56.867  29.091  27.288  1.00  0.00     0.039 C 
ATOM      5  C   UNL     1      57.122  28.296  26.029  1.00  0.00    -0.080 C 
ATOM      6  C   UNL     1      57.613  26.875  26.134  1.00  0.00     0.039 C 
ENDBRANCH   2   3
ENDBRANCH   1   2
BRANCH   1   7
ATOM      7  C   UNL     1      54.032  30.249  25.242  1.00  0.00    -0.055 C 
ATOM      8  C   UNL     1      54.012  31.271  26.104  1.00  0.00     0.012 C 
BRANCH   7   9
ATOM      9  C   UNL     1      53.078  29.128  25.445  1.00  0.00    -0.005 C 
ATOM     10  C   UNL     1      53.413  27.839  25.373  1.00  0.00     0.009 C 
ENDBRANCH   7   9
ENDBRANCH   1   7
TORSDOF 4
ENDMDL
