MODEL 1
REMARK VINA RESULT:    -3.425      0.000      0.000
REMARK INTER + INTRA:          -4.044
REMARK INTER:                  -4.026
REMARK INTRA:                  -0.018
REMARK UNBOUND:                -0.018
REMARK SMILES CCCCC(=O)[O-]
REMARK SMILES IDX 4 1 5 2 6 3 7 4 3 5 2 6 1 7
REMARK H PARENT
REMARK Flexibility Score: inf
ROOT
ATOM      1  C   UNL     1       7.490   6.165   3.760  1.00  0.00     0.053 C 
ENDROOT
BRANCH   1   2
ATOM      2  C   UNL     1       7.697   7.123   4.893  1.00  0.00     0.041 C 
ATOM      3  O   UNL     1       8.573   6.889   5.767  1.00  0.00    -0.550 OA
ATOM      4  O   UNL     1       6.902   8.257   5.001  1.00  0.00    -0.550 OA
ENDBRANCH   1   2
BRANCH   1   5
ATOM      5  C   UNL     1       8.817   5.770   3.098  1.00  0.00     0.006 C 
BRANCH   5   6
ATOM      6  C   UNL     1       8.718   5.750   1.566  1.00  0.00    -0.003 C 
ATOM      7  C   UNL     1       9.371   4.496   0.990  1.00  0.00     0.004 C 
ENDBRANCH   5   6
ENDBRANCH   1   5
TORSDOF 3
ENDMDL
MODEL 2
REMARK VINA RESULT:    -3.354      1.176      1.653
REMARK INTER + INTRA:          -3.960
REMARK INTER:                  -3.852
REMARK INTRA:                  -0.108
REMARK UNBOUND:                -0.018
REMARK SMILES CCCCC(=O)[O-]
REMARK SMILES IDX 4 1 5 2 6 3 7 4 3 5 2 6 1 7
REMARK H PARENT
REMARK Flexibility Score: inf
ROOT
ATOM      1  C   UNL     1       8.713   6.638   4.963  1.00  0.00     0.053 C 
ENDROOT
BRANCH   1   2
ATOM      2  C   UNL     1       7.322   7.074   4.620  1.00  0.00     0.041 C 
ATOM      3  O   UNL     1       6.905   8.205   4.983  1.00  0.00    -0.550 OA
ATOM      4  O   UNL     1       6.474   6.218   3.928  1.00  0.00    -0.550 OA
ENDBRANCH   1   2
BRANCH   1   5
ATOM      5  C   UNL     1       9.218   5.544   4.013  1.00  0.00     0.006 C 
BRANCH   5   6
ATOM      6  C   UNL     1       9.752   6.120   2.694  1.00  0.00    -0.003 C 
ATOM      7  C   UNL     1       8.970   5.579   1.500  1.00  0.00     0.004 C 
ENDBRANCH   5   6
ENDBRANCH   1   5
TORSDOF 3
ENDMDL
MODEL 3
REMARK VINA RESULT:    -3.205      2.866      3.852
REMARK INTER + INTRA:          -3.785
REMARK INTER:                  -3.670
REMARK INTRA:                  -0.116
REMARK UNBOUND:                -0.018
REMARK SMILES CCCCC(=O)[O-]
REMARK SMILES IDX 4 1 5 2 6 3 7 4 3 5 2 6 1 7
REMARK H PARENT
REMARK Flexibility Score: inf
ROOT
ATOM      1  C   UNL     1       9.788   6.623   3.005  1.00  0.00     0.053 C 
ENDROOT
BRANCH   1   2
ATOM      2  C   UNL     1       9.419   6.553   1.555  1.00  0.00     0.041 C 
ATOM      3  O   UNL     1       9.770   7.470   0.767  1.00  0.00    -0.550 OA
ATOM      4  O   UNL     1       8.658   5.491   1.080  1.00  0.00    -0.550 OA
ENDBRANCH   1   2
BRANCH   1   5
ATOM      5  C   UNL     1       8.823   5.810   3.878  1.00  0.00     0.006 C 
BRANCH   5   6
ATOM      6  C   UNL     1       7.664   6.662   4.413  1.00  0.00    -0.003 C 
ATOM      7  C   UNL     1       6.352   6.300   3.724  1.00  0.00     0.004 C 
ENDBRANCH   5   6
ENDBRANCH   1   5
TORSDOF 3
ENDMDL
MODEL 4
REMARK VINA RESULT:    -3.136      2.692      3.982
REMARK INTER + INTRA:          -3.704
REMARK INTER:                  -3.622
REMARK INTRA:                  -0.083
REMARK UNBOUND:                -0.018
REMARK SMILES CCCCC(=O)[O-]
REMARK SMILES IDX 4 1 5 2 6 3 7 4 3 5 2 6 1 7
REMARK H PARENT
REMARK Flexibility Score: inf
ROOT
ATOM      1  C   UNL     1       8.986   5.566   3.349  1.00  0.00     0.053 C 
ENDROOT
BRANCH   1   2
ATOM      2  C   UNL     1       9.213   5.851   1.896  1.00  0.00     0.041 C 
ATOM      3  O   UNL     1       9.641   6.977   1.531  1.00  0.00    -0.550 OA
ATOM      4  O   UNL     1       8.922   4.883   0.942  1.00  0.00    -0.550 OA
ENDBRANCH   1   2
BRANCH   1   5
ATOM      5  C   UNL     1       7.717   6.253   3.872  1.00  0.00     0.006 C 
BRANCH   5   6
ATOM      6  C   UNL     1       7.971   7.030   5.173  1.00  0.00    -0.003 C 
ATOM      7  C   UNL     1       9.462   7.094   5.492  1.00  0.00     0.004 C 
ENDBRANCH   5   6
ENDBRANCH   1   5
TORSDOF 3
ENDMDL
MODEL 5
REMARK VINA RESULT:    -2.828     12.925     13.250
REMARK INTER + INTRA:          -3.343
REMARK INTER:                  -3.299
REMARK INTRA:                  -0.044
REMARK UNBOUND:                -0.018
REMARK SMILES CCCCC(=O)[O-]
REMARK SMILES IDX 4 1 5 2 6 3 7 4 3 5 2 6 1 7
REMARK H PARENT
REMARK Flexibility Score: inf
ROOT
ATOM      1  C   UNL     1      -1.493  -1.785   4.051  1.00  0.00     0.053 C 
ENDROOT
BRANCH   1   2
ATOM      2  C   UNL     1      -1.921  -2.557   5.261  1.00  0.00     0.041 C 
ATOM      3  O   UNL     1      -3.110  -2.488   5.669  1.00  0.00    -0.550 OA
ATOM      4  O   UNL     1      -0.998  -3.328   5.959  1.00  0.00    -0.550 OA
ENDBRANCH   1   2
BRANCH   1   5
ATOM      5  C   UNL     1      -1.573  -2.635   2.776  1.00  0.00     0.006 C 
BRANCH   5   6
ATOM      6  C   UNL     1      -0.288  -3.440   2.533  1.00  0.00    -0.003 C 
ATOM      7  C   UNL     1       0.549  -2.817   1.420  1.00  0.00     0.004 C 
ENDBRANCH   5   6
ENDBRANCH   1   5
TORSDOF 3
ENDMDL
MODEL 6
REMARK VINA RESULT:    -2.822     21.949     22.706
REMARK INTER + INTRA:          -3.335
REMARK INTER:                  -3.320
REMARK INTRA:                  -0.015
REMARK UNBOUND:                -0.018
REMARK SMILES CCCCC(=O)[O-]
REMARK SMILES IDX 4 1 5 2 6 3 7 4 3 5 2 6 1 7
REMARK H PARENT
REMARK Flexibility Score: inf
ROOT
ATOM      1  C   UNL     1      -5.948  -5.992  -9.485  1.00  0.00     0.053 C 
ENDROOT
BRANCH   1   2
ATOM      2  C   UNL     1      -4.476  -6.242  -9.607  1.00  0.00     0.041 C 
ATOM      3  O   UNL     1      -3.676  -5.276  -9.717  1.00  0.00    -0.550 OA
ATOM      4  O   UNL     1      -3.990  -7.544  -9.632  1.00  0.00    -0.550 OA
ENDBRANCH   1   2
BRANCH   1   5
ATOM      5  C   UNL     1      -6.503  -6.501  -8.148  1.00  0.00     0.006 C 
BRANCH   5   6
ATOM      6  C   UNL     1      -7.848  -5.851  -7.792  1.00  0.00    -0.003 C 
ATOM      7  C   UNL     1      -7.736  -5.016  -6.519  1.00  0.00     0.004 C 
ENDBRANCH   5   6
ENDBRANCH   1   5
TORSDOF 3
ENDMDL
MODEL 7
REMARK VINA RESULT:    -2.741      2.638      3.931
REMARK INTER + INTRA:          -3.240
REMARK INTER:                  -3.142
REMARK INTRA:                  -0.097
REMARK UNBOUND:                -0.018
REMARK SMILES CCCCC(=O)[O-]
REMARK SMILES IDX 4 1 5 2 6 3 7 4 3 5 2 6 1 7
REMARK H PARENT
REMARK Flexibility Score: inf
ROOT
ATOM      1  C   UNL     1       8.302   6.183   4.176  1.00  0.00     0.053 C 
ENDROOT
BRANCH   1   2
ATOM      2  C   UNL     1       9.294   5.224   3.595  1.00  0.00     0.041 C 
ATOM      3  O   UNL     1       9.480   5.181   2.350  1.00  0.00    -0.550 OA
ATOM      4  O   UNL     1       9.990   4.353   4.424  1.00  0.00    -0.550 OA
ENDBRANCH   1   2
BRANCH   1   5
ATOM      5  C   UNL     1       8.817   6.817   5.475  1.00  0.00     0.006 C 
BRANCH   5   6
ATOM      6  C   UNL     1       9.879   7.895   5.215  1.00  0.00    -0.003 C 
ATOM      7  C   UNL     1       9.287   9.077   4.451  1.00  0.00     0.004 C 
ENDBRANCH   5   6
ENDBRANCH   1   5
TORSDOF 3
ENDMDL
MODEL 8
REMARK VINA RESULT:    -2.617      2.518      3.820
REMARK INTER + INTRA:          -3.094
REMARK INTER:                  -3.022
REMARK INTRA:                  -0.072
REMARK UNBOUND:                -0.018
REMARK SMILES CCCCC(=O)[O-]
REMARK SMILES IDX 4 1 5 2 6 3 7 4 3 5 2 6 1 7
REMARK H PARENT
REMARK Flexibility Score: inf
ROOT
ATOM      1  C   UNL     1      10.057   6.783   4.490  1.00  0.00     0.053 C 
ENDROOT
BRANCH   1   2
ATOM      2  C   UNL     1       9.732   6.034   3.234  1.00  0.00     0.041 C 
ATOM      3  O   UNL     1       9.644   4.777   3.251  1.00  0.00    -0.550 OA
ATOM      4  O   UNL     1       9.559   6.719   2.038  1.00  0.00    -0.550 OA
ENDBRANCH   1   2
BRANCH   1   5
ATOM      5  C   UNL     1       8.879   6.783   5.473  1.00  0.00     0.006 C 
BRANCH   5   6
ATOM      6  C   UNL     1       7.540   7.069   4.777  1.00  0.00    -0.003 C 
ATOM      7  C   UNL     1       7.174   8.547   4.874  1.00  0.00     0.004 C 
ENDBRANCH   5   6
ENDBRANCH   1   5
TORSDOF 3
ENDMDL
MODEL 9
REMARK VINA RESULT:    -2.337     21.999     22.651
REMARK INTER + INTRA:          -2.765
REMARK INTER:                  -2.723
REMARK INTRA:                  -0.042
REMARK UNBOUND:                -0.018
REMARK SMILES CCCCC(=O)[O-]
REMARK SMILES IDX 4 1 5 2 6 3 7 4 3 5 2 6 1 7
REMARK H PARENT
REMARK Flexibility Score: inf
ROOT
ATOM      1  C   UNL     1      -6.649  -6.617  -8.249  1.00  0.00     0.053 C 
ENDROOT
BRANCH   1   2
ATOM      2  C   UNL     1      -7.624  -5.806  -7.453  1.00  0.00     0.041 C 
ATOM      3  O   UNL     1      -8.863  -5.996  -7.584  1.00  0.00    -0.550 OA
ATOM      4  O   UNL     1      -7.168  -4.817  -6.590  1.00  0.00    -0.550 OA
ENDBRANCH   1   2
BRANCH   1   5
ATOM      5  C   UNL     1      -6.022  -5.799  -9.385  1.00  0.00     0.006 C 
BRANCH   5   6
ATOM      6  C   UNL     1      -4.533  -6.122  -9.581  1.00  0.00    -0.003 C 
ATOM      7  C   UNL     1      -4.188  -7.492  -9.004  1.00  0.00     0.004 C 
ENDBRANCH   5   6
ENDBRANCH   1   5
TORSDOF 3
ENDMDL
