MODEL 1
REMARK VINA RESULT:    -5.596      0.000      0.000
REMARK INTER + INTRA:          -9.545
REMARK INTER:                  -9.195
REMARK INTRA:                  -0.351
REMARK UNBOUND:                -0.351
REMARK SMILES C[C@@H]1O[C@@H](OC[C@H]2O[C@@H](Oc3c(-c4ccc(O)c(O)c4)oc4cc(O)cc(O)c4c3=O)[C@H](O)[C@@H](O)[C@H]2O)[C@H](O)[C@H](O)[C@@H]1O
REMARK SMILES IDX 7 1 36 2 34 3 32 4 9 5 8 6 6 7 5 8 4 9 1 10 2 11 42 12 3 13
REMARK SMILES IDX 40 14 38 15 43 16 41 18 39 20 37 22 35 24 10 26 11 27 12 28
REMARK SMILES IDX 30 29 21 30 29 31 31 32 22 33 27 34 23 35 26 36 24 37 13 38
REMARK SMILES IDX 20 39 14 40 18 41 15 42 16 43 19 44 17 46 28 48 25 50 33 52
REMARK H PARENT 43 17 41 19 39 21 37 23 35 25 19 45 17 47 28 49 25 51 33 53
REMARK Flexibility Score: inf
ROOT
ATOM      1  C   UNL     1       7.083  17.197  21.558  1.00  0.00     0.180 C 
ATOM      2  C   UNL     1       6.496  17.438  20.152  1.00  0.00     0.177 C 
ATOM      3  C   UNL     1       5.709  18.758  20.170  1.00  0.00     0.180 C 
ATOM      4  C   UNL     1       6.587  19.895  20.723  1.00  0.00     0.214 C 
ATOM      5  C   UNL     1       7.254  19.474  22.049  1.00  0.00     0.339 C 
ATOM      6  O   UNL     1       7.963  18.255  21.900  1.00  0.00    -0.332 OA
ENDROOT
BRANCH   1   7
ATOM      7  C   UNL     1       7.847  15.860  21.637  1.00  0.00     0.198 C 
BRANCH   7   8
ATOM      8  O   UNL     1       6.958  14.811  21.979  1.00  0.00    -0.347 OA
BRANCH   8   9
ATOM      9  C   UNL     1       7.374  14.137  23.163  1.00  0.00     0.281 C 
ATOM     10  C   UNL     1       5.076  11.266  22.957  1.00  0.00     0.041 C 
ATOM     11  C   UNL     1       5.494  12.726  23.138  1.00  0.00     0.150 C 
ATOM     12  C   UNL     1       4.891  13.316  24.431  1.00  0.00     0.174 C 
ATOM     13  O   UNL     1       6.910  12.794  23.157  1.00  0.00    -0.344 OA
ATOM     14  C   UNL     1       5.356  14.775  24.588  1.00  0.00     0.179 C 
ATOM     15  C   UNL     1       6.886  14.900  24.422  1.00  0.00     0.202 C 
BRANCH  12  16
ATOM     16  O   UNL     1       5.280  12.547  25.542  1.00  0.00    -0.388 OA
ATOM     17  H   UNL     1       5.547  11.654  25.199  1.00  0.00     0.211 HD
ENDBRANCH  12  16
BRANCH  14  18
ATOM     18  O   UNL     1       4.949  15.280  25.834  1.00  0.00    -0.387 OA
ATOM     19  H   UNL     1       5.718  15.789  26.202  1.00  0.00     0.211 HD
ENDBRANCH  14  18
BRANCH  15  20
ATOM     20  O   UNL     1       7.564  14.476  25.581  1.00  0.00    -0.385 OA
ATOM     21  H   UNL     1       7.395  15.133  26.303  1.00  0.00     0.211 HD
ENDBRANCH  15  20
ENDBRANCH   8   9
ENDBRANCH   7   8
ENDBRANCH   1   7
BRANCH   2  22
ATOM     22  O   UNL     1       7.528  17.518  19.198  1.00  0.00    -0.387 OA
ATOM     23  H   UNL     1       7.161  17.179  18.340  1.00  0.00     0.211 HD
ENDBRANCH   2  22
BRANCH   3  24
ATOM     24  O   UNL     1       5.275  19.084  18.875  1.00  0.00    -0.387 OA
ATOM     25  H   UNL     1       4.378  19.501  18.971  1.00  0.00     0.211 HD
ENDBRANCH   3  24
BRANCH   5  26
ATOM     26  O   UNL     1       8.189  20.487  22.422  1.00  0.00    -0.454 OA
BRANCH  26  27
ATOM     27  C   UNL     1       8.000  21.319  23.529  1.00  0.00     0.214 A 
ATOM     28  C   UNL     1       8.783  22.473  23.729  1.00  0.00     0.180 A 
ATOM     29  C   UNL     1       7.019  20.989  24.473  1.00  0.00     0.239 A 
ATOM     30  O   UNL     1       8.652  23.161  24.858  1.00  0.00    -0.452 OA
ATOM     31  C   UNL     1       6.859  21.783  25.633  1.00  0.00     0.111 A 
ATOM     32  O   UNL     1       6.328  19.955  24.281  1.00  0.00    -0.285 OA
ATOM     33  C   UNL     1       7.766  22.863  25.801  1.00  0.00     0.146 A 
ATOM     34  C   UNL     1       5.890  21.544  26.652  1.00  0.00     0.134 A 
ATOM     35  C   UNL     1       7.741  23.636  26.965  1.00  0.00     0.094 A 
ATOM     36  C   UNL     1       5.914  22.314  27.823  1.00  0.00     0.093 A 
ATOM     37  C   UNL     1       6.831  23.355  27.981  1.00  0.00     0.123 A 
BRANCH  28  38
ATOM     38  C   UNL     1       9.748  22.972  22.720  1.00  0.00     0.025 A 
ATOM     39  C   UNL     1       9.440  22.861  21.354  1.00  0.00     0.062 A 
ATOM     40  C   UNL     1      11.014  23.451  23.092  1.00  0.00     0.016 A 
ATOM     41  C   UNL     1      10.369  23.229  20.373  1.00  0.00     0.158 A 
ATOM     42  C   UNL     1      11.937  23.845  22.121  1.00  0.00     0.051 A 
ATOM     43  C   UNL     1      11.633  23.733  20.761  1.00  0.00     0.157 A 
BRANCH  41  44
ATOM     44  O   UNL     1      10.001  23.065  19.036  1.00  0.00    -0.504 OA
ATOM     45  H   UNL     1      10.188  23.744  18.312  1.00  0.00     0.293 HD
ENDBRANCH  41  44
BRANCH  43  46
ATOM     46  O   UNL     1      12.608  24.118  19.840  1.00  0.00    -0.504 OA
ATOM     47  H   UNL     1      13.550  24.380  20.093  1.00  0.00     0.293 HD
ENDBRANCH  43  46
ENDBRANCH  28  38
BRANCH  34  48
ATOM     48  O   UNL     1       4.875  20.588  26.555  1.00  0.00    -0.507 OA
ATOM     49  H   UNL     1       4.917  19.762  25.976  1.00  0.00     0.293 HD
ENDBRANCH  34  48
BRANCH  37  50
ATOM     50  O   UNL     1       6.839  24.125  29.142  1.00  0.00    -0.508 OA
ATOM     51  H   UNL     1       6.749  25.133  29.111  1.00  0.00     0.293 HD
ENDBRANCH  37  50
ENDBRANCH  26  27
ENDBRANCH   5  26
BRANCH   4  52
ATOM     52  O   UNL     1       5.798  21.035  20.945  1.00  0.00    -0.384 OA
ATOM     53  H   UNL     1       5.223  20.840  21.731  1.00  0.00     0.211 HD
ENDBRANCH   4  52
TORSDOF 16
ENDMDL
MODEL 2
REMARK VINA RESULT:    -4.220      1.919      5.514
REMARK INTER + INTRA:          -7.285
REMARK INTER:                  -9.089
REMARK INTRA:                   1.804
REMARK UNBOUND:                -0.351
REMARK SMILES C[C@@H]1O[C@@H](OC[C@H]2O[C@@H](Oc3c(-c4ccc(O)c(O)c4)oc4cc(O)cc(O)c4c3=O)[C@H](O)[C@@H](O)[C@H]2O)[C@H](O)[C@H](O)[C@@H]1O
REMARK SMILES IDX 7 1 36 2 34 3 32 4 9 5 8 6 6 7 5 8 4 9 1 10 2 11 42 12 3 13
REMARK SMILES IDX 40 14 38 15 43 16 41 18 39 20 37 22 35 24 10 26 11 27 12 28
REMARK SMILES IDX 30 29 21 30 29 31 31 32 22 33 27 34 23 35 26 36 24 37 13 38
REMARK SMILES IDX 20 39 14 40 18 41 15 42 16 43 19 44 17 46 28 48 25 50 33 52
REMARK H PARENT 43 17 41 19 39 21 37 23 35 25 19 45 17 47 28 49 25 51 33 53
REMARK Flexibility Score: inf
ROOT
ATOM      1  C   UNL     1       4.882  18.134  20.510  1.00  0.00     0.180 C 
ATOM      2  C   UNL     1       5.194  19.135  19.380  1.00  0.00     0.177 C 
ATOM      3  C   UNL     1       4.876  20.553  19.880  1.00  0.00     0.180 C 
ATOM      4  C   UNL     1       5.592  20.821  21.217  1.00  0.00     0.214 C 
ATOM      5  C   UNL     1       5.341  19.668  22.212  1.00  0.00     0.339 C 
ATOM      6  O   UNL     1       5.689  18.417  21.642  1.00  0.00    -0.332 OA
ENDROOT
BRANCH   1   7
ATOM      7  C   UNL     1       5.127  16.677  20.068  1.00  0.00     0.198 C 
BRANCH   7   8
ATOM      8  O   UNL     1       5.083  15.813  21.191  1.00  0.00    -0.347 OA
BRANCH   8   9
ATOM      9  C   UNL     1       5.747  14.582  20.930  1.00  0.00     0.281 C 
ATOM     10  C   UNL     1       7.795  14.444  23.989  1.00  0.00     0.041 C 
ATOM     11  C   UNL     1       7.328  14.963  22.628  1.00  0.00     0.150 C 
ATOM     12  C   UNL     1       8.516  15.096  21.652  1.00  0.00     0.174 C 
ATOM     13  O   UNL     1       6.344  14.080  22.118  1.00  0.00    -0.344 OA
ATOM     14  C   UNL     1       8.000  15.596  20.290  1.00  0.00     0.179 C 
ATOM     15  C   UNL     1       6.797  14.760  19.802  1.00  0.00     0.202 C 
BRANCH  12  16
ATOM     16  O   UNL     1       9.170  13.859  21.513  1.00  0.00    -0.388 OA
ATOM     17  H   UNL     1       9.250  13.679  20.541  1.00  0.00     0.211 HD
ENDBRANCH  12  16
BRANCH  14  18
ATOM     18  O   UNL     1       9.037  15.573  19.343  1.00  0.00    -0.387 OA
ATOM     19  H   UNL     1       9.551  14.738  19.501  1.00  0.00     0.211 HD
ENDBRANCH  14  18
BRANCH  15  20
ATOM     20  O   UNL     1       7.212  13.520  19.279  1.00  0.00    -0.385 OA
ATOM     21  H   UNL     1       7.414  12.911  20.034  1.00  0.00     0.211 HD
ENDBRANCH  15  20
ENDBRANCH   8   9
ENDBRANCH   7   8
ENDBRANCH   1   7
BRANCH   2  22
ATOM     22  O   UNL     1       6.553  19.058  19.019  1.00  0.00    -0.387 OA
ATOM     23  H   UNL     1       6.609  19.246  18.047  1.00  0.00     0.211 HD
ENDBRANCH   2  22
BRANCH   3  24
ATOM     24  O   UNL     1       5.277  21.507  18.931  1.00  0.00    -0.387 OA
ATOM     25  H   UNL     1       5.395  21.023  18.072  1.00  0.00     0.211 HD
ENDBRANCH   3  24
BRANCH   5  26
ATOM     26  O   UNL     1       6.166  19.877  23.358  1.00  0.00    -0.454 OA
BRANCH  26  27
ATOM     27  C   UNL     1       7.340  20.635  23.315  1.00  0.00     0.214 A 
ATOM     28  C   UNL     1       7.670  21.544  24.339  1.00  0.00     0.180 A 
ATOM     29  C   UNL     1       8.201  20.501  22.219  1.00  0.00     0.239 A 
ATOM     30  O   UNL     1       8.730  22.333  24.193  1.00  0.00    -0.452 OA
ATOM     31  C   UNL     1       9.359  21.308  22.127  1.00  0.00     0.111 A 
ATOM     32  O   UNL     1       7.893  19.684  21.312  1.00  0.00    -0.285 OA
ATOM     33  C   UNL     1       9.552  22.272  23.152  1.00  0.00     0.146 A 
ATOM     34  C   UNL     1      10.307  21.249  21.063  1.00  0.00     0.134 A 
ATOM     35  C   UNL     1      10.616  23.175  23.086  1.00  0.00     0.094 A 
ATOM     36  C   UNL     1      11.342  22.191  21.006  1.00  0.00     0.093 A 
ATOM     37  C   UNL     1      11.500  23.149  22.011  1.00  0.00     0.123 A 
BRANCH  28  38
ATOM     38  C   UNL     1       6.890  21.655  25.596  1.00  0.00     0.025 A 
ATOM     39  C   UNL     1       7.157  22.708  26.485  1.00  0.00     0.062 A 
ATOM     40  C   UNL     1       5.966  20.667  25.973  1.00  0.00     0.016 A 
ATOM     41  C   UNL     1       6.511  22.787  27.725  1.00  0.00     0.158 A 
ATOM     42  C   UNL     1       5.298  20.751  27.196  1.00  0.00     0.051 A 
ATOM     43  C   UNL     1       5.565  21.798  28.084  1.00  0.00     0.157 A 
BRANCH  41  44
ATOM     44  O   UNL     1       6.849  23.848  28.568  1.00  0.00    -0.504 OA
ATOM     45  H   UNL     1       7.624  24.474  28.403  1.00  0.00     0.293 HD
ENDBRANCH  41  44
BRANCH  43  46
ATOM     46  O   UNL     1       4.884  21.811  29.301  1.00  0.00    -0.504 OA
ATOM     47  H   UNL     1       4.025  21.306  29.472  1.00  0.00     0.293 HD
ENDBRANCH  43  46
ENDBRANCH  28  38
BRANCH  34  48
ATOM     48  O   UNL     1      10.292  20.277  20.058  1.00  0.00    -0.507 OA
ATOM     49  H   UNL     1      11.033  20.131  19.388  1.00  0.00     0.293 HD
ENDBRANCH  34  48
BRANCH  37  50
ATOM     50  O   UNL     1      12.541  24.074  21.953  1.00  0.00    -0.508 OA
ATOM     51  H   UNL     1      12.806  24.520  21.083  1.00  0.00     0.293 HD
ENDBRANCH  37  50
ENDBRANCH  26  27
ENDBRANCH   5  26
BRANCH   4  52
ATOM     52  O   UNL     1       5.121  22.021  21.773  1.00  0.00    -0.384 OA
ATOM     53  H   UNL     1       5.724  22.743  21.455  1.00  0.00     0.211 HD
ENDBRANCH   4  52
TORSDOF 16
ENDMDL
MODEL 3
REMARK VINA RESULT:    -4.049      1.919      7.588
REMARK INTER + INTRA:          -7.004
REMARK INTER:                  -5.696
REMARK INTRA:                  -1.308
REMARK UNBOUND:                -0.351
REMARK SMILES C[C@@H]1O[C@@H](OC[C@H]2O[C@@H](Oc3c(-c4ccc(O)c(O)c4)oc4cc(O)cc(O)c4c3=O)[C@H](O)[C@@H](O)[C@H]2O)[C@H](O)[C@H](O)[C@@H]1O
REMARK SMILES IDX 7 1 36 2 34 3 32 4 9 5 8 6 6 7 5 8 4 9 1 10 2 11 42 12 3 13
REMARK SMILES IDX 40 14 38 15 43 16 41 18 39 20 37 22 35 24 10 26 11 27 12 28
REMARK SMILES IDX 30 29 21 30 29 31 31 32 22 33 27 34 23 35 26 36 24 37 13 38
REMARK SMILES IDX 20 39 14 40 18 41 15 42 16 43 19 44 17 46 28 48 25 50 33 52
REMARK H PARENT 43 17 41 19 39 21 37 23 35 25 19 45 17 47 28 49 25 51 33 53
REMARK Flexibility Score: inf
ROOT
ATOM      1  C   UNL     1       9.934  21.055  22.949  1.00  0.00     0.180 C 
ATOM      2  C   UNL     1      10.004  22.473  22.347  1.00  0.00     0.177 C 
ATOM      3  C   UNL     1      10.539  22.369  20.909  1.00  0.00     0.180 C 
ATOM      4  C   UNL     1       9.711  21.350  20.104  1.00  0.00     0.214 C 
ATOM      5  C   UNL     1       9.568  20.025  20.884  1.00  0.00     0.339 C 
ATOM      6  O   UNL     1       9.050  20.251  22.184  1.00  0.00    -0.332 OA
ENDROOT
BRANCH   1   7
ATOM      7  C   UNL     1       9.454  21.080  24.413  1.00  0.00     0.198 C 
BRANCH   7   8
ATOM      8  O   UNL     1       8.179  21.694  24.498  1.00  0.00    -0.347 OA
BRANCH   8   9
ATOM      9  C   UNL     1       7.568  21.461  25.763  1.00  0.00     0.281 C 
ATOM     10  C   UNL     1       4.876  23.961  25.503  1.00  0.00     0.041 C 
ATOM     11  C   UNL     1       6.308  23.442  25.629  1.00  0.00     0.150 C 
ATOM     12  C   UNL     1       7.041  24.124  26.804  1.00  0.00     0.174 C 
ATOM     13  O   UNL     1       6.269  22.035  25.798  1.00  0.00    -0.344 OA
ATOM     14  C   UNL     1       8.468  23.555  26.911  1.00  0.00     0.179 C 
ATOM     15  C   UNL     1       8.461  22.011  26.906  1.00  0.00     0.202 C 
BRANCH  12  16
ATOM     16  O   UNL     1       6.331  23.918  28.001  1.00  0.00    -0.388 OA
ATOM     17  H   UNL     1       5.838  24.757  28.195  1.00  0.00     0.211 HD
ENDBRANCH  12  16
BRANCH  14  18
ATOM     18  O   UNL     1       9.096  24.044  28.068  1.00  0.00    -0.387 OA
ATOM     19  H   UNL     1       8.617  24.874  28.326  1.00  0.00     0.211 HD
ENDBRANCH  14  18
BRANCH  15  20
ATOM     20  O   UNL     1       8.076  21.495  28.159  1.00  0.00    -0.385 OA
ATOM     21  H   UNL     1       7.734  20.574  28.028  1.00  0.00     0.211 HD
ENDBRANCH  15  20
ENDBRANCH   8   9
ENDBRANCH   7   8
ENDBRANCH   1   7
BRANCH   2  22
ATOM     22  O   UNL     1       8.727  23.064  22.331  1.00  0.00    -0.387 OA
ATOM     23  H   UNL     1       8.620  23.554  23.187  1.00  0.00     0.211 HD
ENDBRANCH   2  22
BRANCH   3  24
ATOM     24  O   UNL     1      10.488  23.621  20.277  1.00  0.00    -0.387 OA
ATOM     25  H   UNL     1      10.721  23.470  19.324  1.00  0.00     0.211 HD
ENDBRANCH   3  24
BRANCH   5  26
ATOM     26  O   UNL     1       8.649  19.188  20.181  1.00  0.00    -0.454 OA
BRANCH  26  27
ATOM     27  C   UNL     1       7.809  18.278  20.829  1.00  0.00     0.214 A 
ATOM     28  C   UNL     1       6.632  18.694  21.481  1.00  0.00     0.180 A 
ATOM     29  C   UNL     1       8.155  16.921  20.847  1.00  0.00     0.239 A 
ATOM     30  O   UNL     1       5.933  17.813  22.190  1.00  0.00    -0.452 OA
ATOM     31  C   UNL     1       7.351  15.997  21.555  1.00  0.00     0.111 A 
ATOM     32  O   UNL     1       9.210  16.565  20.260  1.00  0.00    -0.285 OA
ATOM     33  C   UNL     1       6.245  16.525  22.271  1.00  0.00     0.146 A 
ATOM     34  C   UNL     1       7.604  14.595  21.632  1.00  0.00     0.134 A 
ATOM     35  C   UNL     1       5.459  15.696  23.075  1.00  0.00     0.094 A 
ATOM     36  C   UNL     1       6.820  13.796  22.475  1.00  0.00     0.093 A 
ATOM     37  C   UNL     1       5.751  14.340  23.192  1.00  0.00     0.123 A 
BRANCH  28  38
ATOM     38  C   UNL     1       6.119  20.084  21.401  1.00  0.00     0.025 A 
ATOM     39  C   UNL     1       6.360  20.844  20.246  1.00  0.00     0.062 A 
ATOM     40  C   UNL     1       5.493  20.697  22.498  1.00  0.00     0.016 A 
ATOM     41  C   UNL     1       5.978  22.190  20.175  1.00  0.00     0.158 A 
ATOM     42  C   UNL     1       5.086  22.031  22.427  1.00  0.00     0.051 A 
ATOM     43  C   UNL     1       5.328  22.791  21.278  1.00  0.00     0.157 A 
BRANCH  41  44
ATOM     44  O   UNL     1       6.276  22.889  19.003  1.00  0.00    -0.504 OA
ATOM     45  H   UNL     1       7.185  22.890  18.563  1.00  0.00     0.293 HD
ENDBRANCH  41  44
BRANCH  43  46
ATOM     46  O   UNL     1       4.920  24.125  21.280  1.00  0.00    -0.504 OA
ATOM     47  H   UNL     1       5.556  24.909  21.302  1.00  0.00     0.293 HD
ENDBRANCH  43  46
ENDBRANCH  28  38
BRANCH  34  48
ATOM     48  O   UNL     1       8.589  13.938  20.889  1.00  0.00    -0.507 OA
ATOM     49  H   UNL     1       8.574  12.956  20.654  1.00  0.00     0.293 HD
ENDBRANCH  34  48
BRANCH  37  50
ATOM     50  O   UNL     1       4.968  13.536  24.017  1.00  0.00    -0.508 OA
ATOM     51  H   UNL     1       4.795  13.779  24.985  1.00  0.00     0.293 HD
ENDBRANCH  37  50
ENDBRANCH  26  27
ENDBRANCH   5  26
BRANCH   4  52
ATOM     52  O   UNL     1      10.339  21.097  18.875  1.00  0.00    -0.384 OA
ATOM     53  H   UNL     1       9.633  21.131  18.177  1.00  0.00     0.211 HD
ENDBRANCH   4  52
TORSDOF 16
ENDMDL
MODEL 4
REMARK VINA RESULT:    -3.529      2.152      7.407
REMARK INTER + INTRA:          -6.148
REMARK INTER:                  -7.846
REMARK INTRA:                   1.698
REMARK UNBOUND:                -0.351
REMARK SMILES C[C@@H]1O[C@@H](OC[C@H]2O[C@@H](Oc3c(-c4ccc(O)c(O)c4)oc4cc(O)cc(O)c4c3=O)[C@H](O)[C@@H](O)[C@H]2O)[C@H](O)[C@H](O)[C@@H]1O
REMARK SMILES IDX 7 1 36 2 34 3 32 4 9 5 8 6 6 7 5 8 4 9 1 10 2 11 42 12 3 13
REMARK SMILES IDX 40 14 38 15 43 16 41 18 39 20 37 22 35 24 10 26 11 27 12 28
REMARK SMILES IDX 30 29 21 30 29 31 31 32 22 33 27 34 23 35 26 36 24 37 13 38
REMARK SMILES IDX 20 39 14 40 18 41 15 42 16 43 19 44 17 46 28 48 25 50 33 52
REMARK H PARENT 43 17 41 19 39 21 37 23 35 25 19 45 17 47 28 49 25 51 33 53
REMARK Flexibility Score: inf
ROOT
ATOM      1  C   UNL     1       7.479  22.875  22.970  1.00  0.00     0.180 C 
ATOM      2  C   UNL     1       6.823  23.867  21.989  1.00  0.00     0.177 C 
ATOM      3  C   UNL     1       6.881  23.267  20.575  1.00  0.00     0.180 C 
ATOM      4  C   UNL     1       6.287  21.847  20.573  1.00  0.00     0.214 C 
ATOM      5  C   UNL     1       6.900  20.997  21.706  1.00  0.00     0.339 C 
ATOM      6  O   UNL     1       6.769  21.647  22.960  1.00  0.00    -0.332 OA
ENDROOT
BRANCH   1   7
ATOM      7  C   UNL     1       7.507  23.429  24.409  1.00  0.00     0.198 C 
BRANCH   7   8
ATOM      8  O   UNL     1       6.200  23.425  24.958  1.00  0.00    -0.347 OA
BRANCH   8   9
ATOM      9  C   UNL     1       6.207  23.805  26.330  1.00  0.00     0.281 C 
ATOM     10  C   UNL     1       9.471  22.365  27.246  1.00  0.00     0.041 C 
ATOM     11  C   UNL     1       8.003  22.368  26.819  1.00  0.00     0.150 C 
ATOM     12  C   UNL     1       7.164  21.439  27.721  1.00  0.00     0.174 C 
ATOM     13  O   UNL     1       7.518  23.700  26.866  1.00  0.00    -0.344 OA
ATOM     14  C   UNL     1       5.691  21.491  27.275  1.00  0.00     0.179 C 
ATOM     15  C   UNL     1       5.196  22.947  27.135  1.00  0.00     0.202 C 
BRANCH  12  16
ATOM     16  O   UNL     1       7.291  21.828  29.067  1.00  0.00    -0.388 OA
ATOM     17  H   UNL     1       8.126  22.359  29.139  1.00  0.00     0.211 HD
ENDBRANCH  12  16
BRANCH  14  18
ATOM     18  O   UNL     1       4.888  20.778  28.179  1.00  0.00    -0.387 OA
ATOM     19  H   UNL     1       3.961  21.115  28.067  1.00  0.00     0.211 HD
ENDBRANCH  14  18
BRANCH  15  20
ATOM     20  O   UNL     1       4.917  23.517  28.393  1.00  0.00    -0.385 OA
ATOM     21  H   UNL     1       5.766  23.592  28.899  1.00  0.00     0.211 HD
ENDBRANCH  15  20
ENDBRANCH   8   9
ENDBRANCH   7   8
ENDBRANCH   1   7
BRANCH   2  22
ATOM     22  O   UNL     1       5.482  24.097  22.347  1.00  0.00    -0.387 OA
ATOM     23  H   UNL     1       5.460  24.934  22.879  1.00  0.00     0.211 HD
ENDBRANCH   2  22
BRANCH   3  24
ATOM     24  O   UNL     1       6.172  24.076  19.672  1.00  0.00    -0.387 OA
ATOM     25  H   UNL     1       6.444  25.014  19.854  1.00  0.00     0.211 HD
ENDBRANCH   3  24
BRANCH   5  26
ATOM     26  O   UNL     1       6.191  19.760  21.773  1.00  0.00    -0.454 OA
BRANCH  26  27
ATOM     27  C   UNL     1       6.815  18.521  21.596  1.00  0.00     0.214 A 
ATOM     28  C   UNL     1       8.129  18.421  21.098  1.00  0.00     0.180 A 
ATOM     29  C   UNL     1       6.112  17.350  21.904  1.00  0.00     0.239 A 
ATOM     30  O   UNL     1       8.633  17.221  20.828  1.00  0.00    -0.452 OA
ATOM     31  C   UNL     1       6.704  16.087  21.668  1.00  0.00     0.111 A 
ATOM     32  O   UNL     1       4.939  17.456  22.348  1.00  0.00    -0.285 OA
ATOM     33  C   UNL     1       7.989  16.085  21.064  1.00  0.00     0.146 A 
ATOM     34  C   UNL     1       6.084  14.834  21.952  1.00  0.00     0.134 A 
ATOM     35  C   UNL     1       8.602  14.881  20.706  1.00  0.00     0.094 A 
ATOM     36  C   UNL     1       6.708  13.647  21.550  1.00  0.00     0.093 A 
ATOM     37  C   UNL     1       7.961  13.666  20.932  1.00  0.00     0.123 A 
BRANCH  28  38
ATOM     38  C   UNL     1       8.994  19.605  20.872  1.00  0.00     0.025 A 
ATOM     39  C   UNL     1       9.671  20.184  21.957  1.00  0.00     0.062 A 
ATOM     40  C   UNL     1       9.064  20.230  19.616  1.00  0.00     0.016 A 
ATOM     41  C   UNL     1      10.415  21.360  21.799  1.00  0.00     0.158 A 
ATOM     42  C   UNL     1       9.825  21.388  19.444  1.00  0.00     0.051 A 
ATOM     43  C   UNL     1      10.497  21.968  20.524  1.00  0.00     0.157 A 
BRANCH  41  44
ATOM     44  O   UNL     1      11.038  21.892  22.930  1.00  0.00    -0.504 OA
ATOM     45  H   UNL     1      10.566  22.059  23.807  1.00  0.00     0.293 HD
ENDBRANCH  41  44
BRANCH  43  46
ATOM     46  O   UNL     1      11.219  23.140  20.291  1.00  0.00    -0.504 OA
ATOM     47  H   UNL     1      10.832  23.960  19.846  1.00  0.00     0.293 HD
ENDBRANCH  43  46
ENDBRANCH  28  38
BRANCH  34  48
ATOM     48  O   UNL     1       4.876  14.701  22.644  1.00  0.00    -0.507 OA
ATOM     49  H   UNL     1       4.190  13.982  22.470  1.00  0.00     0.293 HD
ENDBRANCH  34  48
BRANCH  37  50
ATOM     50  O   UNL     1       8.581  12.479  20.547  1.00  0.00    -0.508 OA
ATOM     51  H   UNL     1       9.278  12.459  19.812  1.00  0.00     0.293 HD
ENDBRANCH  37  50
ENDBRANCH  26  27
ENDBRANCH   5  26
BRANCH   4  52
ATOM     52  O   UNL     1       6.548  21.228  19.340  1.00  0.00    -0.384 OA
ATOM     53  H   UNL     1       7.494  20.925  19.363  1.00  0.00     0.211 HD
ENDBRANCH   4  52
TORSDOF 16
ENDMDL
MODEL 5
REMARK VINA RESULT:    -3.308      2.253      7.374
REMARK INTER + INTRA:          -5.786
REMARK INTER:                  -5.034
REMARK INTRA:                  -0.752
REMARK UNBOUND:                -0.351
REMARK SMILES C[C@@H]1O[C@@H](OC[C@H]2O[C@@H](Oc3c(-c4ccc(O)c(O)c4)oc4cc(O)cc(O)c4c3=O)[C@H](O)[C@@H](O)[C@H]2O)[C@H](O)[C@H](O)[C@@H]1O
REMARK SMILES IDX 7 1 36 2 34 3 32 4 9 5 8 6 6 7 5 8 4 9 1 10 2 11 42 12 3 13
REMARK SMILES IDX 40 14 38 15 43 16 41 18 39 20 37 22 35 24 10 26 11 27 12 28
REMARK SMILES IDX 30 29 21 30 29 31 31 32 22 33 27 34 23 35 26 36 24 37 13 38
REMARK SMILES IDX 20 39 14 40 18 41 15 42 16 43 19 44 17 46 28 48 25 50 33 52
REMARK H PARENT 43 17 41 19 39 21 37 23 35 25 19 45 17 47 28 49 25 51 33 53
REMARK Flexibility Score: inf
ROOT
ATOM      1  C   UNL     1       4.878  18.877  23.016  1.00  0.00     0.180 C 
ATOM      2  C   UNL     1       5.231  17.406  23.315  1.00  0.00     0.177 C 
ATOM      3  C   UNL     1       4.875  16.557  22.084  1.00  0.00     0.180 C 
ATOM      4  C   UNL     1       5.527  17.149  20.821  1.00  0.00     0.214 C 
ATOM      5  C   UNL     1       5.243  18.663  20.719  1.00  0.00     0.339 C 
ATOM      6  O   UNL     1       5.630  19.337  21.905  1.00  0.00    -0.332 OA
ENDROOT
BRANCH   1   7
ATOM      7  C   UNL     1       5.158  19.789  24.227  1.00  0.00     0.198 C 
BRANCH   7   8
ATOM      8  O   UNL     1       6.317  20.571  23.990  1.00  0.00    -0.347 OA
BRANCH   8   9
ATOM      9  C   UNL     1       6.129  21.922  24.397  1.00  0.00     0.281 C 
ATOM     10  C   UNL     1       9.577  23.103  23.866  1.00  0.00     0.041 C 
ATOM     11  C   UNL     1       8.445  22.310  24.519  1.00  0.00     0.150 C 
ATOM     12  C   UNL     1       8.449  22.500  26.051  1.00  0.00     0.174 C 
ATOM     13  O   UNL     1       7.213  22.727  23.955  1.00  0.00    -0.344 OA
ATOM     14  C   UNL     1       7.281  21.707  26.664  1.00  0.00     0.179 C 
ATOM     15  C   UNL     1       5.952  22.006  25.935  1.00  0.00     0.202 C 
BRANCH  12  16
ATOM     16  O   UNL     1       8.345  23.866  26.368  1.00  0.00    -0.388 OA
ATOM     17  H   UNL     1       7.431  24.013  26.726  1.00  0.00     0.211 HD
ENDBRANCH  12  16
BRANCH  14  18
ATOM     18  O   UNL     1       7.170  21.993  28.035  1.00  0.00    -0.387 OA
ATOM     19  H   UNL     1       8.081  22.225  28.353  1.00  0.00     0.211 HD
ENDBRANCH  14  18
BRANCH  15  20
ATOM     20  O   UNL     1       5.419  23.249  26.330  1.00  0.00    -0.385 OA
ATOM     21  H   UNL     1       5.944  23.586  27.100  1.00  0.00     0.211 HD
ENDBRANCH  15  20
ENDBRANCH   8   9
ENDBRANCH   7   8
ENDBRANCH   1   7
BRANCH   2  22
ATOM     22  O   UNL     1       6.605  17.278  23.593  1.00  0.00    -0.387 OA
ATOM     23  H   UNL     1       6.744  16.372  23.972  1.00  0.00     0.211 HD
ENDBRANCH   2  22
BRANCH   3  24
ATOM     24  O   UNL     1       5.309  15.234  22.262  1.00  0.00    -0.387 OA
ATOM     25  H   UNL     1       4.743  14.841  22.977  1.00  0.00     0.211 HD
ENDBRANCH   3  24
BRANCH   5  26
ATOM     26  O   UNL     1       6.014  19.192  19.639  1.00  0.00    -0.454 OA
BRANCH  26  27
ATOM     27  C   UNL     1       7.256  19.806  19.827  1.00  0.00     0.214 A 
ATOM     28  C   UNL     1       8.396  19.067  20.200  1.00  0.00     0.180 A 
ATOM     29  C   UNL     1       7.366  21.192  19.659  1.00  0.00     0.239 A 
ATOM     30  O   UNL     1       9.522  19.710  20.490  1.00  0.00    -0.452 OA
ATOM     31  C   UNL     1       8.600  21.837  19.911  1.00  0.00     0.111 A 
ATOM     32  O   UNL     1       6.339  21.838  19.326  1.00  0.00    -0.285 OA
ATOM     33  C   UNL     1       9.664  21.026  20.386  1.00  0.00     0.146 A 
ATOM     34  C   UNL     1       8.827  23.238  19.763  1.00  0.00     0.134 A 
ATOM     35  C   UNL     1      10.884  21.599  20.753  1.00  0.00     0.094 A 
ATOM     36  C   UNL     1      10.049  23.787  20.173  1.00  0.00     0.093 A 
ATOM     37  C   UNL     1      11.074  22.975  20.663  1.00  0.00     0.123 A 
BRANCH  28  38
ATOM     38  C   UNL     1       8.404  17.585  20.270  1.00  0.00     0.025 A 
ATOM     39  C   UNL     1       8.315  16.952  21.519  1.00  0.00     0.062 A 
ATOM     40  C   UNL     1       8.612  16.800  19.124  1.00  0.00     0.016 A 
ATOM     41  C   UNL     1       8.420  15.559  21.632  1.00  0.00     0.158 A 
ATOM     42  C   UNL     1       8.692  15.410  19.224  1.00  0.00     0.051 A 
ATOM     43  C   UNL     1       8.607  14.777  20.468  1.00  0.00     0.157 A 
BRANCH  41  44
ATOM     44  O   UNL     1       8.350  15.003  22.911  1.00  0.00    -0.504 OA
ATOM     45  H   UNL     1       9.017  14.338  23.274  1.00  0.00     0.293 HD
ENDBRANCH  41  44
BRANCH  43  46
ATOM     46  O   UNL     1       8.721  13.387  20.503  1.00  0.00    -0.504 OA
ATOM     47  H   UNL     1       9.602  12.893  20.483  1.00  0.00     0.293 HD
ENDBRANCH  43  46
ENDBRANCH  28  38
BRANCH  34  48
ATOM     48  O   UNL     1       7.902  24.123  19.202  1.00  0.00    -0.507 OA
ATOM     49  H   UNL     1       7.928  24.455  18.249  1.00  0.00     0.293 HD
ENDBRANCH  34  48
BRANCH  37  50
ATOM     50  O   UNL     1      12.292  23.528  21.055  1.00  0.00    -0.508 OA
ATOM     51  H   UNL     1      12.395  24.011  21.939  1.00  0.00     0.293 HD
ENDBRANCH  37  50
ENDBRANCH  26  27
ENDBRANCH   5  26
BRANCH   4  52
ATOM     52  O   UNL     1       5.019  16.507  19.681  1.00  0.00    -0.384 OA
ATOM     53  H   UNL     1       4.069  16.288  19.873  1.00  0.00     0.211 HD
ENDBRANCH   4  52
TORSDOF 16
ENDMDL
