MODEL 1
REMARK VINA RESULT:    -4.980      0.000      0.000
REMARK INTER + INTRA:          -5.653
REMARK INTER:                  -5.563
REMARK INTRA:                  -0.090
REMARK UNBOUND:                -0.090
REMARK SMILES CCc1ccc(O)cc1O
REMARK SMILES IDX 3 1 9 2 8 3 6 4 5 5 4 6 2 7 1 8 10 9 7 11
REMARK H PARENT 10 10 7 12
REMARK Flexibility Score: inf
ROOT
ATOM      1  C   UNL     1     -34.157  94.107   7.587  1.00  0.00    -0.006 A 
ATOM      2  C   UNL     1     -35.029  93.302   8.363  1.00  0.00     0.122 A 
ATOM      3  C   UNL     1     -35.480  92.074   7.866  1.00  0.00     0.092 A 
ATOM      4  C   UNL     1     -35.078  91.624   6.604  1.00  0.00     0.119 A 
ATOM      5  C   UNL     1     -34.221  92.408   5.834  1.00  0.00     0.047 A 
ATOM      6  C   UNL     1     -33.762  93.636   6.314  1.00  0.00     0.011 A 
ENDROOT
BRANCH   1   7
ATOM      7  C   UNL     1     -33.676  95.441   8.140  1.00  0.00     0.036 C 
ATOM      8  C   UNL     1     -34.587  96.642   7.880  1.00  0.00     0.009 C 
ENDBRANCH   1   7
BRANCH   2   9
ATOM      9  O   UNL     1     -35.468  93.692   9.631  1.00  0.00    -0.508 OA
ATOM     10  H   UNL     1     -36.406  94.020   9.821  1.00  0.00     0.293 HD
ENDBRANCH   2   9
BRANCH   4  11
ATOM     11  O   UNL     1     -35.526  90.401   6.109  1.00  0.00    -0.508 OA
ATOM     12  H   UNL     1     -35.450  89.550   6.654  1.00  0.00     0.293 HD
ENDBRANCH   4  11
TORSDOF 3
ENDMDL
MODEL 2
REMARK VINA RESULT:    -4.857      2.813      4.305
REMARK INTER + INTRA:          -5.515
REMARK INTER:                  -5.446
REMARK INTRA:                  -0.069
REMARK UNBOUND:                -0.090
REMARK SMILES CCc1ccc(O)cc1O
REMARK SMILES IDX 3 1 9 2 8 3 6 4 5 5 4 6 2 7 1 8 10 9 7 11
REMARK H PARENT 10 10 7 12
REMARK Flexibility Score: inf
ROOT
ATOM      1  C   UNL     1     -32.012  91.945   6.467  1.00  0.00    -0.006 A 
ATOM      2  C   UNL     1     -32.844  92.241   5.358  1.00  0.00     0.122 A 
ATOM      3  C   UNL     1     -34.163  92.662   5.562  1.00  0.00     0.092 A 
ATOM      4  C   UNL     1     -34.677  92.795   6.855  1.00  0.00     0.119 A 
ATOM      5  C   UNL     1     -33.867  92.506   7.952  1.00  0.00     0.047 A 
ATOM      6  C   UNL     1     -32.548  92.086   7.767  1.00  0.00     0.011 A 
ENDROOT
BRANCH   1   7
ATOM      7  C   UNL     1     -30.579  91.488   6.229  1.00  0.00     0.036 C 
ATOM      8  C   UNL     1     -30.020  90.484   7.238  1.00  0.00     0.009 C 
ENDBRANCH   1   7
BRANCH   2   9
ATOM      9  O   UNL     1     -32.393  92.129   4.039  1.00  0.00    -0.508 OA
ATOM     10  H   UNL     1     -32.252  92.923   3.428  1.00  0.00     0.293 HD
ENDBRANCH   2   9
BRANCH   4  11
ATOM     11  O   UNL     1     -35.990  93.214   7.059  1.00  0.00    -0.508 OA
ATOM     12  H   UNL     1     -36.468  93.049   7.938  1.00  0.00     0.293 HD
ENDBRANCH   4  11
TORSDOF 3
ENDMDL
MODEL 3
REMARK VINA RESULT:    -4.767     19.813     20.985
REMARK INTER + INTRA:          -5.415
REMARK INTER:                  -5.325
REMARK INTRA:                  -0.089
REMARK UNBOUND:                -0.090
REMARK SMILES CCc1ccc(O)cc1O
REMARK SMILES IDX 3 1 9 2 8 3 6 4 5 5 4 6 2 7 1 8 10 9 7 11
REMARK H PARENT 10 10 7 12
REMARK Flexibility Score: inf
ROOT
ATOM      1  C   UNL     1     -17.684  94.855  -5.373  1.00  0.00    -0.006 A 
ATOM      2  C   UNL     1     -17.413  95.896  -4.449  1.00  0.00     0.122 A 
ATOM      3  C   UNL     1     -17.938  95.839  -3.153  1.00  0.00     0.092 A 
ATOM      4  C   UNL     1     -18.732  94.761  -2.752  1.00  0.00     0.119 A 
ATOM      5  C   UNL     1     -19.004  93.732  -3.652  1.00  0.00     0.047 A 
ATOM      6  C   UNL     1     -18.489  93.773  -4.949  1.00  0.00     0.011 A 
ENDROOT
BRANCH   1   7
ATOM      7  C   UNL     1     -17.106  94.930  -6.779  1.00  0.00     0.036 C 
ATOM      8  C   UNL     1     -15.875  94.062  -7.045  1.00  0.00     0.009 C 
ENDBRANCH   1   7
BRANCH   2   9
ATOM      9  O   UNL     1     -16.626  97.001  -4.785  1.00  0.00    -0.508 OA
ATOM     10  H   UNL     1     -16.474  97.787  -4.167  1.00  0.00     0.293 HD
ENDBRANCH   2   9
BRANCH   4  11
ATOM     11  O   UNL     1     -19.255  94.704  -1.461  1.00  0.00    -0.508 OA
ATOM     12  H   UNL     1     -18.962  95.355  -0.743  1.00  0.00     0.293 HD
ENDBRANCH   4  11
TORSDOF 3
ENDMDL
MODEL 4
REMARK VINA RESULT:    -4.751      2.185      2.816
REMARK INTER + INTRA:          -5.397
REMARK INTER:                  -5.327
REMARK INTRA:                  -0.069
REMARK UNBOUND:                -0.090
REMARK SMILES CCc1ccc(O)cc1O
REMARK SMILES IDX 3 1 9 2 8 3 6 4 5 5 4 6 2 7 1 8 10 9 7 11
REMARK H PARENT 10 10 7 12
REMARK Flexibility Score: inf
ROOT
ATOM      1  C   UNL     1     -33.928  92.876   8.057  1.00  0.00    -0.006 A 
ATOM      2  C   UNL     1     -34.765  92.934   6.914  1.00  0.00     0.122 A 
ATOM      3  C   UNL     1     -34.237  92.676   5.644  1.00  0.00     0.092 A 
ATOM      4  C   UNL     1     -32.885  92.359   5.484  1.00  0.00     0.119 A 
ATOM      5  C   UNL     1     -32.054  92.299   6.601  1.00  0.00     0.047 A 
ATOM      6  C   UNL     1     -32.564  92.554   7.876  1.00  0.00     0.011 A 
ENDROOT
BRANCH   1   7
ATOM      7  C   UNL     1     -34.516  93.159   9.433  1.00  0.00     0.036 C 
ATOM      8  C   UNL     1     -33.510  93.273  10.580  1.00  0.00     0.009 C 
ENDBRANCH   1   7
BRANCH   2   9
ATOM      9  O   UNL     1     -36.125  93.244   7.004  1.00  0.00    -0.508 OA
ATOM     10  H   UNL     1     -36.491  93.987   7.585  1.00  0.00     0.293 HD
ENDBRANCH   2   9
BRANCH   4  11
ATOM     11  O   UNL     1     -32.359  92.102   4.219  1.00  0.00    -0.508 OA
ATOM     12  H   UNL     1     -32.372  92.803   3.488  1.00  0.00     0.293 HD
ENDBRANCH   4  11
TORSDOF 3
ENDMDL
MODEL 5
REMARK VINA RESULT:    -4.687     18.706     19.877
REMARK INTER + INTRA:          -5.326
REMARK INTER:                  -5.251
REMARK INTRA:                  -0.075
REMARK UNBOUND:                -0.090
REMARK SMILES CCc1ccc(O)cc1O
REMARK SMILES IDX 3 1 9 2 8 3 6 4 5 5 4 6 2 7 1 8 10 9 7 11
REMARK H PARENT 10 10 7 12
REMARK Flexibility Score: inf
ROOT
ATOM      1  C   UNL     1     -19.320  94.007  -3.843  1.00  0.00    -0.006 A 
ATOM      2  C   UNL     1     -18.818  94.853  -2.822  1.00  0.00     0.122 A 
ATOM      3  C   UNL     1     -17.899  95.862  -3.134  1.00  0.00     0.092 A 
ATOM      4  C   UNL     1     -17.466  96.050  -4.450  1.00  0.00     0.119 A 
ATOM      5  C   UNL     1     -17.955  95.224  -5.461  1.00  0.00     0.047 A 
ATOM      6  C   UNL     1     -18.871  94.213  -5.167  1.00  0.00     0.011 A 
ENDROOT
BRANCH   1   7
ATOM      7  C   UNL     1     -20.318  92.914  -3.488  1.00  0.00     0.036 C 
ATOM      8  C   UNL     1     -21.651  92.955  -4.239  1.00  0.00     0.009 C 
ENDBRANCH   1   7
BRANCH   2   9
ATOM      9  O   UNL     1     -19.209  94.719  -1.486  1.00  0.00    -0.508 OA
ATOM     10  H   UNL     1     -18.577  94.834  -0.705  1.00  0.00     0.293 HD
ENDBRANCH   2   9
BRANCH   4  11
ATOM     11  O   UNL     1     -16.552  97.055  -4.761  1.00  0.00    -0.508 OA
ATOM     12  H   UNL     1     -16.855  97.955  -5.114  1.00  0.00     0.293 HD
ENDBRANCH   4  11
TORSDOF 3
ENDMDL
MODEL 6
REMARK VINA RESULT:    -4.599     19.476     20.671
REMARK INTER + INTRA:          -5.226
REMARK INTER:                  -5.151
REMARK INTRA:                  -0.076
REMARK UNBOUND:                -0.090
REMARK SMILES CCc1ccc(O)cc1O
REMARK SMILES IDX 3 1 9 2 8 3 6 4 5 5 4 6 2 7 1 8 10 9 7 11
REMARK H PARENT 10 10 7 12
REMARK Flexibility Score: inf
ROOT
ATOM      1  C   UNL     1     -18.892  96.027  -4.758  1.00  0.00    -0.006 A 
ATOM      2  C   UNL     1     -17.995  97.074  -5.091  1.00  0.00     0.122 A 
ATOM      3  C   UNL     1     -18.481  98.264  -5.645  1.00  0.00     0.092 A 
ATOM      4  C   UNL     1     -19.848  98.437  -5.877  1.00  0.00     0.119 A 
ATOM      5  C   UNL     1     -20.738  97.414  -5.552  1.00  0.00     0.047 A 
ATOM      6  C   UNL     1     -20.271  96.220  -4.999  1.00  0.00     0.011 A 
ENDROOT
BRANCH   1   7
ATOM      7  C   UNL     1     -18.349  94.738  -4.156  1.00  0.00     0.036 C 
ATOM      8  C   UNL     1     -18.896  94.361  -2.778  1.00  0.00     0.009 C 
ENDBRANCH   1   7
BRANCH   2   9
ATOM      9  O   UNL     1     -16.617  96.966  -4.885  1.00  0.00    -0.508 OA
ATOM     10  H   UNL     1     -16.159  97.228  -4.022  1.00  0.00     0.293 HD
ENDBRANCH   2   9
BRANCH   4  11
ATOM     11  O   UNL     1     -20.332  99.622  -6.428  1.00  0.00    -0.508 OA
ATOM     12  H   UNL     1     -20.971  99.617  -7.215  1.00  0.00     0.293 HD
ENDBRANCH   4  11
TORSDOF 3
ENDMDL
MODEL 7
REMARK VINA RESULT:    -4.598      1.780      2.345
REMARK INTER + INTRA:          -5.226
REMARK INTER:                  -5.158
REMARK INTRA:                  -0.069
REMARK UNBOUND:                -0.090
REMARK SMILES CCc1ccc(O)cc1O
REMARK SMILES IDX 3 1 9 2 8 3 6 4 5 5 4 6 2 7 1 8 10 9 7 11
REMARK H PARENT 10 10 7 12
REMARK Flexibility Score: inf
ROOT
ATOM      1  C   UNL     1     -33.399  93.977   7.126  1.00  0.00    -0.006 A 
ATOM      2  C   UNL     1     -32.752  92.868   6.524  1.00  0.00     0.122 A 
ATOM      3  C   UNL     1     -33.460  91.683   6.291  1.00  0.00     0.092 A 
ATOM      4  C   UNL     1     -34.808  91.576   6.646  1.00  0.00     0.119 A 
ATOM      5  C   UNL     1     -35.453  92.660   7.239  1.00  0.00     0.047 A 
ATOM      6  C   UNL     1     -34.762  93.849   7.478  1.00  0.00     0.011 A 
ENDROOT
BRANCH   1   7
ATOM      7  C   UNL     1     -32.616  95.259   7.373  1.00  0.00     0.036 C 
ATOM      8  C   UNL     1     -33.436  96.550   7.394  1.00  0.00     0.009 C 
ENDBRANCH   1   7
BRANCH   2   9
ATOM      9  O   UNL     1     -31.407  92.909   6.144  1.00  0.00    -0.508 OA
ATOM     10  H   UNL     1     -30.727  93.528   6.564  1.00  0.00     0.293 HD
ENDBRANCH   2   9
BRANCH   4  11
ATOM     11  O   UNL     1     -35.513  90.397   6.415  1.00  0.00    -0.508 OA
ATOM     12  H   UNL     1     -35.315  89.811   5.612  1.00  0.00     0.293 HD
ENDBRANCH   4  11
TORSDOF 3
ENDMDL
MODEL 8
REMARK VINA RESULT:    -4.475      3.937      5.129
REMARK INTER + INTRA:          -5.089
REMARK INTER:                  -4.996
REMARK INTRA:                  -0.093
REMARK UNBOUND:                -0.090
REMARK SMILES CCc1ccc(O)cc1O
REMARK SMILES IDX 3 1 9 2 8 3 6 4 5 5 4 6 2 7 1 8 10 9 7 11
REMARK H PARENT 10 10 7 12
REMARK Flexibility Score: inf
ROOT
ATOM      1  C   UNL     1     -32.465  91.463   6.317  1.00  0.00    -0.006 A 
ATOM      2  C   UNL     1     -31.534  91.470   5.248  1.00  0.00     0.122 A 
ATOM      3  C   UNL     1     -30.188  91.169   5.487  1.00  0.00     0.092 A 
ATOM      4  C   UNL     1     -29.744  90.859   6.776  1.00  0.00     0.119 A 
ATOM      5  C   UNL     1     -30.652  90.849   7.834  1.00  0.00     0.047 A 
ATOM      6  C   UNL     1     -31.998  91.147   7.613  1.00  0.00     0.011 A 
ENDROOT
BRANCH   1   7
ATOM      7  C   UNL     1     -33.926  91.793   6.042  1.00  0.00     0.036 C 
ATOM      8  C   UNL     1     -34.305  93.272   6.124  1.00  0.00     0.009 C 
ENDBRANCH   1   7
BRANCH   2   9
ATOM      9  O   UNL     1     -31.911  91.771   3.936  1.00  0.00    -0.508 OA
ATOM     10  H   UNL     1     -31.536  91.297   3.125  1.00  0.00     0.293 HD
ENDBRANCH   2   9
BRANCH   4  11
ATOM     11  O   UNL     1     -28.404  90.560   7.014  1.00  0.00    -0.508 OA
ATOM     12  H   UNL     1     -27.967  90.763   7.905  1.00  0.00     0.293 HD
ENDBRANCH   4  11
TORSDOF 3
ENDMDL
MODEL 9
REMARK VINA RESULT:    -4.398      2.077      4.128
REMARK INTER + INTRA:          -5.003
REMARK INTER:                  -4.920
REMARK INTRA:                  -0.083
REMARK UNBOUND:                -0.090
REMARK SMILES CCc1ccc(O)cc1O
REMARK SMILES IDX 3 1 9 2 8 3 6 4 5 5 4 6 2 7 1 8 10 9 7 11
REMARK H PARENT 10 10 7 12
REMARK Flexibility Score: inf
ROOT
ATOM      1  C   UNL     1     -33.346  93.559   7.149  1.00  0.00    -0.006 A 
ATOM      2  C   UNL     1     -34.700  93.980   7.161  1.00  0.00     0.122 A 
ATOM      3  C   UNL     1     -35.014  95.326   7.379  1.00  0.00     0.092 A 
ATOM      4  C   UNL     1     -34.004  96.270   7.586  1.00  0.00     0.119 A 
ATOM      5  C   UNL     1     -32.670  95.866   7.575  1.00  0.00     0.047 A 
ATOM      6  C   UNL     1     -32.338  94.527   7.359  1.00  0.00     0.011 A 
ENDROOT
BRANCH   1   7
ATOM      7  C   UNL     1     -33.019  92.091   6.910  1.00  0.00     0.036 C 
ATOM      8  C   UNL     1     -32.344  91.763   5.578  1.00  0.00     0.009 C 
ENDBRANCH   1   7
BRANCH   2   9
ATOM      9  O   UNL     1     -35.758  93.089   6.961  1.00  0.00    -0.508 OA
ATOM     10  H   UNL     1     -35.888  92.560   6.109  1.00  0.00     0.293 HD
ENDBRANCH   2   9
BRANCH   4  11
ATOM     11  O   UNL     1     -34.316  97.611   7.803  1.00  0.00    -0.508 OA
ATOM     12  H   UNL     1     -34.955  97.893   8.537  1.00  0.00     0.293 HD
ENDBRANCH   4  11
TORSDOF 3
ENDMDL
