MODEL 1
REMARK VINA RESULT:    -2.958      0.000      0.000
REMARK INTER + INTRA:          -7.504
REMARK INTER:                  -6.416
REMARK INTRA:                  -1.088
REMARK UNBOUND:                -1.088
REMARK SMILES CCCCCCCCCCCCCCCCCCCCCC(=O)[O-]
REMARK SMILES IDX 12 1 11 2 10 3 9 4 8 5 7 6 6 7 5 8 4 9 3 10 2 11 1 12 13 13
REMARK SMILES IDX 14 14 15 15 16 16 17 17 18 18 19 19 20 20 21 21 22 22 23 23
REMARK SMILES IDX 24 24
REMARK H PARENT
REMARK Flexibility Score: inf
ROOT
ATOM      1  C   UNL     1      26.643  38.004  31.686  1.00  0.00     0.000 C 
ENDROOT
BRANCH   1   2
ATOM      2  C   UNL     1      25.918  37.219  32.789  1.00  0.00     0.000 C 
BRANCH   2   3
ATOM      3  C   UNL     1      25.278  38.134  33.849  1.00  0.00     0.000 C 
BRANCH   3   4
ATOM      4  C   UNL     1      25.261  37.500  35.251  1.00  0.00    -0.000 C 
BRANCH   4   5
ATOM      5  C   UNL     1      26.651  37.257  35.871  1.00  0.00    -0.000 C 
BRANCH   5   6
ATOM      6  C   UNL     1      26.783  37.663  37.352  1.00  0.00    -0.000 C 
BRANCH   6   7
ATOM      7  C   UNL     1      28.203  38.074  37.786  1.00  0.00    -0.000 C 
BRANCH   7   8
ATOM      8  C   UNL     1      29.347  37.324  37.075  1.00  0.00    -0.000 C 
BRANCH   8   9
ATOM      9  C   UNL     1      30.542  38.200  36.650  1.00  0.00    -0.000 C 
BRANCH   9  10
ATOM     10  C   UNL     1      31.351  37.588  35.493  1.00  0.00    -0.000 C 
BRANCH  10  11
ATOM     11  C   UNL     1      32.759  38.196  35.375  1.00  0.00    -0.003 C 
ATOM     12  C   UNL     1      32.749  39.724  35.390  1.00  0.00     0.004 C 
ENDBRANCH  10  11
ENDBRANCH   9  10
ENDBRANCH   8   9
ENDBRANCH   7   8
ENDBRANCH   6   7
ENDBRANCH   5   6
ENDBRANCH   4   5
ENDBRANCH   3   4
ENDBRANCH   2   3
ENDBRANCH   1   2
BRANCH   1  13
ATOM     13  C   UNL     1      25.725  38.340  30.496  1.00  0.00     0.000 C 
BRANCH  13  14
ATOM     14  C   UNL     1      26.114  37.567  29.218  1.00  0.00     0.000 C 
BRANCH  14  15
ATOM     15  C   UNL     1      25.261  37.924  27.985  1.00  0.00     0.000 C 
BRANCH  15  16
ATOM     16  C   UNL     1      25.784  37.378  26.645  1.00  0.00     0.000 C 
BRANCH  16  17
ATOM     17  C   UNL     1      25.067  37.990  25.428  1.00  0.00     0.000 C 
BRANCH  17  18
ATOM     18  C   UNL     1      25.948  38.992  24.659  1.00  0.00     0.000 C 
BRANCH  18  19
ATOM     19  C   UNL     1      25.568  40.476  24.837  1.00  0.00     0.000 C 
BRANCH  19  20
ATOM     20  C   UNL     1      25.619  40.994  26.284  1.00  0.00     0.006 C 
BRANCH  20  21
ATOM     21  C   UNL     1      27.024  41.440  26.708  1.00  0.00     0.053 C 
BRANCH  21  22
ATOM     22  C   UNL     1      27.263  42.861  26.308  1.00  0.00     0.041 C 
ATOM     23  O   UNL     1      26.352  43.720  26.441  1.00  0.00    -0.550 OA
ATOM     24  O   UNL     1      28.478  43.226  25.737  1.00  0.00    -0.550 OA
ENDBRANCH  21  22
ENDBRANCH  20  21
ENDBRANCH  19  20
ENDBRANCH  18  19
ENDBRANCH  17  18
ENDBRANCH  16  17
ENDBRANCH  15  16
ENDBRANCH  14  15
ENDBRANCH  13  14
ENDBRANCH   1  13
TORSDOF 20
ENDMDL
MODEL 2
REMARK VINA RESULT:    -2.830      9.965     14.196
REMARK INTER + INTRA:          -7.226
REMARK INTER:                  -5.998
REMARK INTRA:                  -1.228
REMARK UNBOUND:                -1.088
REMARK SMILES CCCCCCCCCCCCCCCCCCCCCC(=O)[O-]
REMARK SMILES IDX 12 1 11 2 10 3 9 4 8 5 7 6 6 7 5 8 4 9 3 10 2 11 1 12 13 13
REMARK SMILES IDX 14 14 15 15 16 16 17 17 18 18 19 19 20 20 21 21 22 22 23 23
REMARK SMILES IDX 24 24
REMARK H PARENT
REMARK Flexibility Score: inf
ROOT
ATOM      1  C   UNL     1      29.084  46.039  41.554  1.00  0.00     0.000 C 
ENDROOT
BRANCH   1   2
ATOM      2  C   UNL     1      30.587  46.117  41.249  1.00  0.00     0.000 C 
BRANCH   2   3
ATOM      3  C   UNL     1      31.246  47.385  41.822  1.00  0.00     0.000 C 
BRANCH   3   4
ATOM      4  C   UNL     1      30.263  48.561  41.954  1.00  0.00    -0.000 C 
BRANCH   4   5
ATOM      5  C   UNL     1      30.923  49.946  42.094  1.00  0.00    -0.000 C 
BRANCH   5   6
ATOM      6  C   UNL     1      30.597  50.940  40.962  1.00  0.00    -0.000 C 
BRANCH   6   7
ATOM      7  C   UNL     1      30.538  50.319  39.553  1.00  0.00    -0.000 C 
BRANCH   7   8
ATOM      8  C   UNL     1      30.453  51.333  38.395  1.00  0.00    -0.000 C 
BRANCH   8   9
ATOM      9  C   UNL     1      29.715  52.646  38.723  1.00  0.00    -0.000 C 
BRANCH   9  10
ATOM     10  C   UNL     1      28.217  52.594  38.374  1.00  0.00    -0.000 C 
BRANCH  10  11
ATOM     11  C   UNL     1      27.325  52.533  39.625  1.00  0.00    -0.003 C 
ATOM     12  C   UNL     1      27.924  53.275  40.819  1.00  0.00     0.004 C 
ENDBRANCH  10  11
ENDBRANCH   9  10
ENDBRANCH   8   9
ENDBRANCH   7   8
ENDBRANCH   6   7
ENDBRANCH   5   6
ENDBRANCH   4   5
ENDBRANCH   3   4
ENDBRANCH   2   3
ENDBRANCH   1   2
BRANCH   1  13
ATOM     13  C   UNL     1      28.666  44.670  42.122  1.00  0.00     0.000 C 
BRANCH  13  14
ATOM     14  C   UNL     1      27.742  43.893  41.160  1.00  0.00     0.000 C 
BRANCH  14  15
ATOM     15  C   UNL     1      26.525  43.242  41.846  1.00  0.00     0.000 C 
BRANCH  15  16
ATOM     16  C   UNL     1      25.533  42.544  40.900  1.00  0.00     0.000 C 
BRANCH  16  17
ATOM     17  C   UNL     1      25.225  41.095  41.319  1.00  0.00     0.000 C 
BRANCH  17  18
ATOM     18  C   UNL     1      26.464  40.183  41.266  1.00  0.00     0.000 C 
BRANCH  18  19
ATOM     19  C   UNL     1      27.396  40.407  40.058  1.00  0.00     0.000 C 
BRANCH  19  20
ATOM     20  C   UNL     1      27.670  39.157  39.204  1.00  0.00     0.006 C 
BRANCH  20  21
ATOM     21  C   UNL     1      29.167  38.906  38.979  1.00  0.00     0.053 C 
BRANCH  21  22
ATOM     22  C   UNL     1      29.399  38.325  37.621  1.00  0.00     0.041 C 
ATOM     23  O   UNL     1      28.570  37.517  37.125  1.00  0.00    -0.550 OA
ATOM     24  O   UNL     1      30.561  38.637  36.922  1.00  0.00    -0.550 OA
ENDBRANCH  21  22
ENDBRANCH  20  21
ENDBRANCH  19  20
ENDBRANCH  18  19
ENDBRANCH  17  18
ENDBRANCH  16  17
ENDBRANCH  15  16
ENDBRANCH  14  15
ENDBRANCH  13  14
ENDBRANCH   1  13
TORSDOF 20
ENDMDL
MODEL 3
REMARK VINA RESULT:    -2.829      4.414     10.651
REMARK INTER + INTRA:          -7.224
REMARK INTER:                  -5.974
REMARK INTRA:                  -1.250
REMARK UNBOUND:                -1.088
REMARK SMILES CCCCCCCCCCCCCCCCCCCCCC(=O)[O-]
REMARK SMILES IDX 12 1 11 2 10 3 9 4 8 5 7 6 6 7 5 8 4 9 3 10 2 11 1 12 13 13
REMARK SMILES IDX 14 14 15 15 16 16 17 17 18 18 19 19 20 20 21 21 22 22 23 23
REMARK SMILES IDX 24 24
REMARK H PARENT
REMARK Flexibility Score: inf
ROOT
ATOM      1  C   UNL     1      26.286  38.216  30.496  1.00  0.00     0.000 C 
ENDROOT
BRANCH   1   2
ATOM      2  C   UNL     1      25.582  38.648  29.201  1.00  0.00     0.000 C 
BRANCH   2   3
ATOM      3  C   UNL     1      25.713  40.156  28.926  1.00  0.00     0.000 C 
BRANCH   3   4
ATOM      4  C   UNL     1      24.946  40.602  27.669  1.00  0.00    -0.000 C 
BRANCH   4   5
ATOM      5  C   UNL     1      24.875  39.549  26.545  1.00  0.00    -0.000 C 
BRANCH   5   6
ATOM      6  C   UNL     1      25.832  39.795  25.362  1.00  0.00    -0.000 C 
BRANCH   6   7
ATOM      7  C   UNL     1      25.295  40.757  24.285  1.00  0.00    -0.000 C 
BRANCH   7   8
ATOM      8  C   UNL     1      25.955  42.150  24.263  1.00  0.00    -0.000 C 
BRANCH   8   9
ATOM      9  C   UNL     1      27.311  42.246  24.990  1.00  0.00    -0.000 C 
BRANCH   9  10
ATOM     10  C   UNL     1      27.237  43.069  26.288  1.00  0.00    -0.000 C 
BRANCH  10  11
ATOM     11  C   UNL     1      28.506  42.930  27.145  1.00  0.00    -0.003 C 
ATOM     12  C   UNL     1      29.789  42.951  26.314  1.00  0.00     0.004 C 
ENDBRANCH  10  11
ENDBRANCH   9  10
ENDBRANCH   8   9
ENDBRANCH   7   8
ENDBRANCH   6   7
ENDBRANCH   5   6
ENDBRANCH   4   5
ENDBRANCH   3   4
ENDBRANCH   2   3
ENDBRANCH   1   2
BRANCH   1  13
ATOM     13  C   UNL     1      25.304  38.011  31.664  1.00  0.00     0.000 C 
BRANCH  13  14
ATOM     14  C   UNL     1      25.919  37.181  32.810  1.00  0.00     0.000 C 
BRANCH  14  15
ATOM     15  C   UNL     1      25.082  37.178  34.104  1.00  0.00     0.000 C 
BRANCH  15  16
ATOM     16  C   UNL     1      25.892  37.113  35.410  1.00  0.00     0.000 C 
BRANCH  16  17
ATOM     17  C   UNL     1      25.166  37.769  36.598  1.00  0.00     0.000 C 
BRANCH  17  18
ATOM     18  C   UNL     1      26.119  38.553  37.519  1.00  0.00     0.000 C 
BRANCH  18  19
ATOM     19  C   UNL     1      25.826  38.430  39.028  1.00  0.00     0.000 C 
BRANCH  19  20
ATOM     20  C   UNL     1      25.346  39.725  39.708  1.00  0.00     0.006 C 
BRANCH  20  21
ATOM     21  C   UNL     1      26.297  40.906  39.476  1.00  0.00     0.053 C 
BRANCH  21  22
ATOM     22  C   UNL     1      25.543  42.087  38.954  1.00  0.00     0.041 C 
ATOM     23  O   UNL     1      24.897  42.828  39.741  1.00  0.00    -0.550 OA
ATOM     24  O   UNL     1      25.511  42.340  37.586  1.00  0.00    -0.550 OA
ENDBRANCH  21  22
ENDBRANCH  20  21
ENDBRANCH  19  20
ENDBRANCH  18  19
ENDBRANCH  17  18
ENDBRANCH  16  17
ENDBRANCH  15  16
ENDBRANCH  14  15
ENDBRANCH  13  14
ENDBRANCH   1  13
TORSDOF 20
ENDMDL
MODEL 4
REMARK VINA RESULT:    -2.525      9.524     13.911
REMARK INTER + INTRA:          -6.565
REMARK INTER:                  -5.223
REMARK INTRA:                  -1.342
REMARK UNBOUND:                -1.088
REMARK SMILES CCCCCCCCCCCCCCCCCCCCCC(=O)[O-]
REMARK SMILES IDX 12 1 11 2 10 3 9 4 8 5 7 6 6 7 5 8 4 9 3 10 2 11 1 12 13 13
REMARK SMILES IDX 14 14 15 15 16 16 17 17 18 18 19 19 20 20 21 21 22 22 23 23
REMARK SMILES IDX 24 24
REMARK H PARENT
REMARK Flexibility Score: inf
ROOT
ATOM      1  C   UNL     1      27.504  44.333  41.948  1.00  0.00     0.000 C 
ENDROOT
BRANCH   1   2
ATOM      2  C   UNL     1      28.885  44.984  42.113  1.00  0.00     0.000 C 
BRANCH   2   3
ATOM      3  C   UNL     1      28.821  46.522  42.125  1.00  0.00     0.000 C 
BRANCH   3   4
ATOM      4  C   UNL     1      29.905  47.170  41.245  1.00  0.00    -0.000 C 
BRANCH   4   5
ATOM      5  C   UNL     1      29.387  48.231  40.254  1.00  0.00    -0.000 C 
BRANCH   5   6
ATOM      6  C   UNL     1      30.243  49.509  40.163  1.00  0.00    -0.000 C 
BRANCH   6   7
ATOM      7  C   UNL     1      30.277  50.358  41.448  1.00  0.00    -0.000 C 
BRANCH   7   8
ATOM      8  C   UNL     1      28.911  50.907  41.906  1.00  0.00    -0.000 C 
BRANCH   8   9
ATOM      9  C   UNL     1      28.277  51.956  40.972  1.00  0.00    -0.000 C 
BRANCH   9  10
ATOM     10  C   UNL     1      29.305  52.953  40.408  1.00  0.00    -0.000 C 
BRANCH  10  11
ATOM     11  C   UNL     1      29.227  53.073  38.877  1.00  0.00    -0.003 C 
ATOM     12  C   UNL     1      27.931  52.503  38.302  1.00  0.00     0.004 C 
ENDBRANCH  10  11
ENDBRANCH   9  10
ENDBRANCH   8   9
ENDBRANCH   7   8
ENDBRANCH   6   7
ENDBRANCH   5   6
ENDBRANCH   4   5
ENDBRANCH   3   4
ENDBRANCH   2   3
ENDBRANCH   1   2
BRANCH   1  13
ATOM     13  C   UNL     1      27.550  42.801  42.093  1.00  0.00     0.000 C 
BRANCH  13  14
ATOM     14  C   UNL     1      26.164  42.151  41.901  1.00  0.00     0.000 C 
BRANCH  14  15
ATOM     15  C   UNL     1      26.192  40.838  41.094  1.00  0.00     0.000 C 
BRANCH  15  16
ATOM     16  C   UNL     1      26.053  39.552  41.927  1.00  0.00     0.000 C 
BRANCH  16  17
ATOM     17  C   UNL     1      27.274  38.623  41.801  1.00  0.00     0.000 C 
BRANCH  17  18
ATOM     18  C   UNL     1      28.467  39.298  41.101  1.00  0.00     0.000 C 
BRANCH  18  19
ATOM     19  C   UNL     1      29.645  38.364  40.760  1.00  0.00     0.000 C 
BRANCH  19  20
ATOM     20  C   UNL     1      29.282  37.145  39.893  1.00  0.00     0.006 C 
BRANCH  20  21
ATOM     21  C   UNL     1      30.236  36.951  38.708  1.00  0.00     0.053 C 
BRANCH  21  22
ATOM     22  C   UNL     1      29.776  37.754  37.533  1.00  0.00     0.041 C 
ATOM     23  O   UNL     1      28.700  37.463  36.946  1.00  0.00    -0.550 OA
ATOM     24  O   UNL     1      30.564  38.795  37.052  1.00  0.00    -0.550 OA
ENDBRANCH  21  22
ENDBRANCH  20  21
ENDBRANCH  19  20
ENDBRANCH  18  19
ENDBRANCH  17  18
ENDBRANCH  16  17
ENDBRANCH  15  16
ENDBRANCH  14  15
ENDBRANCH  13  14
ENDBRANCH   1  13
TORSDOF 20
ENDMDL
MODEL 5
REMARK VINA RESULT:    -2.511     10.093     13.678
REMARK INTER + INTRA:          -6.534
REMARK INTER:                  -5.625
REMARK INTRA:                  -0.909
REMARK UNBOUND:                -1.088
REMARK SMILES CCCCCCCCCCCCCCCCCCCCCC(=O)[O-]
REMARK SMILES IDX 12 1 11 2 10 3 9 4 8 5 7 6 6 7 5 8 4 9 3 10 2 11 1 12 13 13
REMARK SMILES IDX 14 14 15 15 16 16 17 17 18 18 19 19 20 20 21 21 22 22 23 23
REMARK SMILES IDX 24 24
REMARK H PARENT
REMARK Flexibility Score: inf
ROOT
ATOM      1  C   UNL     1      28.973  45.367  42.125  1.00  0.00     0.000 C 
ENDROOT
BRANCH   1   2
ATOM      2  C   UNL     1      28.361  43.971  41.934  1.00  0.00     0.000 C 
BRANCH   2   3
ATOM      3  C   UNL     1      26.826  44.003  41.829  1.00  0.00     0.000 C 
BRANCH   3   4
ATOM      4  C   UNL     1      26.196  42.600  41.872  1.00  0.00    -0.000 C 
BRANCH   4   5
ATOM      5  C   UNL     1      26.453  41.735  40.622  1.00  0.00    -0.000 C 
BRANCH   5   6
ATOM      6  C   UNL     1      26.008  40.265  40.747  1.00  0.00    -0.000 C 
BRANCH   6   7
ATOM      7  C   UNL     1      27.061  39.319  41.356  1.00  0.00    -0.000 C 
BRANCH   7   8
ATOM      8  C   UNL     1      27.010  37.866  40.844  1.00  0.00    -0.000 C 
BRANCH   8   9
ATOM      9  C   UNL     1      27.614  37.641  39.444  1.00  0.00    -0.000 C 
BRANCH   9  10
ATOM     10  C   UNL     1      29.040  38.204  39.310  1.00  0.00    -0.000 C 
BRANCH  10  11
ATOM     11  C   UNL     1      29.207  39.090  38.064  1.00  0.00    -0.003 C 
ATOM     12  C   UNL     1      30.536  38.861  37.345  1.00  0.00     0.004 C 
ENDBRANCH  10  11
ENDBRANCH   9  10
ENDBRANCH   8   9
ENDBRANCH   7   8
ENDBRANCH   6   7
ENDBRANCH   5   6
ENDBRANCH   4   5
ENDBRANCH   3   4
ENDBRANCH   2   3
ENDBRANCH   1   2
BRANCH   1  13
ATOM     13  C   UNL     1      29.608  45.917  40.834  1.00  0.00     0.000 C 
BRANCH  13  14
ATOM     14  C   UNL     1      31.092  46.296  41.025  1.00  0.00     0.000 C 
BRANCH  14  15
ATOM     15  C   UNL     1      31.313  47.559  41.880  1.00  0.00     0.000 C 
BRANCH  15  16
ATOM     16  C   UNL     1      30.064  48.429  42.101  1.00  0.00     0.000 C 
BRANCH  16  17
ATOM     17  C   UNL     1      29.939  49.569  41.073  1.00  0.00     0.000 C 
BRANCH  17  18
ATOM     18  C   UNL     1      28.477  49.890  40.714  1.00  0.00     0.000 C 
BRANCH  18  19
ATOM     19  C   UNL     1      28.279  50.713  39.425  1.00  0.00     0.000 C 
BRANCH  19  20
ATOM     20  C   UNL     1      27.481  52.017  39.599  1.00  0.00     0.006 C 
BRANCH  20  21
ATOM     21  C   UNL     1      28.307  53.268  39.278  1.00  0.00     0.053 C 
BRANCH  21  22
ATOM     22  C   UNL     1      28.876  53.853  40.531  1.00  0.00     0.041 C 
ATOM     23  O   UNL     1      29.485  53.119  41.355  1.00  0.00    -0.550 OA
ATOM     24  O   UNL     1      28.688  55.201  40.816  1.00  0.00    -0.550 OA
ENDBRANCH  21  22
ENDBRANCH  20  21
ENDBRANCH  19  20
ENDBRANCH  18  19
ENDBRANCH  17  18
ENDBRANCH  16  17
ENDBRANCH  15  16
ENDBRANCH  14  15
ENDBRANCH  13  14
ENDBRANCH   1  13
TORSDOF 20
ENDMDL
MODEL 6
REMARK VINA RESULT:    -2.494     10.882     14.884
REMARK INTER + INTRA:          -6.498
REMARK INTER:                  -5.557
REMARK INTRA:                  -0.940
REMARK UNBOUND:                -1.088
REMARK SMILES CCCCCCCCCCCCCCCCCCCCCC(=O)[O-]
REMARK SMILES IDX 12 1 11 2 10 3 9 4 8 5 7 6 6 7 5 8 4 9 3 10 2 11 1 12 13 13
REMARK SMILES IDX 14 14 15 15 16 16 17 17 18 18 19 19 20 20 21 21 22 22 23 23
REMARK SMILES IDX 24 24
REMARK H PARENT
REMARK Flexibility Score: inf
ROOT
ATOM      1  C   UNL     1      29.490  47.999  41.070  1.00  0.00     0.000 C 
ENDROOT
BRANCH   1   2
ATOM      2  C   UNL     1      30.698  48.935  40.918  1.00  0.00     0.000 C 
BRANCH   2   3
ATOM      3  C   UNL     1      30.628  50.155  41.854  1.00  0.00     0.000 C 
BRANCH   3   4
ATOM      4  C   UNL     1      29.205  50.728  41.981  1.00  0.00    -0.000 C 
BRANCH   4   5
ATOM      5  C   UNL     1      29.132  52.264  42.089  1.00  0.00    -0.000 C 
BRANCH   5   6
ATOM      6  C   UNL     1      28.149  52.939  41.113  1.00  0.00    -0.000 C 
BRANCH   6   7
ATOM      7  C   UNL     1      27.503  51.989  40.086  1.00  0.00    -0.000 C 
BRANCH   7   8
ATOM      8  C   UNL     1      27.017  52.662  38.786  1.00  0.00    -0.000 C 
BRANCH   8   9
ATOM      9  C   UNL     1      28.119  52.963  37.751  1.00  0.00    -0.000 C 
BRANCH   9  10
ATOM     10  C   UNL     1      29.537  52.729  38.301  1.00  0.00    -0.000 C 
BRANCH  10  11
ATOM     11  C   UNL     1      30.085  51.338  37.940  1.00  0.00    -0.003 C 
ATOM     12  C   UNL     1      31.420  51.032  38.618  1.00  0.00     0.004 C 
ENDBRANCH  10  11
ENDBRANCH   9  10
ENDBRANCH   8   9
ENDBRANCH   7   8
ENDBRANCH   6   7
ENDBRANCH   5   6
ENDBRANCH   4   5
ENDBRANCH   3   4
ENDBRANCH   2   3
ENDBRANCH   1   2
BRANCH   1  13
ATOM     13  C   UNL     1      29.773  46.578  40.548  1.00  0.00     0.000 C 
BRANCH  13  14
ATOM     14  C   UNL     1      29.758  45.524  41.675  1.00  0.00     0.000 C 
BRANCH  14  15
ATOM     15  C   UNL     1      28.344  45.106  42.125  1.00  0.00     0.000 C 
BRANCH  15  16
ATOM     16  C   UNL     1      28.017  43.612  41.955  1.00  0.00     0.000 C 
BRANCH  16  17
ATOM     17  C   UNL     1      26.730  43.370  41.145  1.00  0.00     0.000 C 
BRANCH  17  18
ATOM     18  C   UNL     1      26.695  41.980  40.484  1.00  0.00     0.000 C 
BRANCH  18  19
ATOM     19  C   UNL     1      25.289  41.379  40.285  1.00  0.00     0.000 C 
BRANCH  19  20
ATOM     20  C   UNL     1      25.235  39.842  40.249  1.00  0.00     0.006 C 
BRANCH  20  21
ATOM     21  C   UNL     1      26.621  39.195  40.356  1.00  0.00     0.053 C 
BRANCH  21  22
ATOM     22  C   UNL     1      26.999  38.552  39.060  1.00  0.00     0.041 C 
ATOM     23  O   UNL     1      26.313  37.601  38.598  1.00  0.00    -0.550 OA
ATOM     24  O   UNL     1      28.141  38.969  38.385  1.00  0.00    -0.550 OA
ENDBRANCH  21  22
ENDBRANCH  20  21
ENDBRANCH  19  20
ENDBRANCH  18  19
ENDBRANCH  17  18
ENDBRANCH  16  17
ENDBRANCH  15  16
ENDBRANCH  14  15
ENDBRANCH  13  14
ENDBRANCH   1  13
TORSDOF 20
ENDMDL
MODEL 7
REMARK VINA RESULT:    -2.460     10.201     14.443
REMARK INTER + INTRA:          -6.423
REMARK INTER:                  -5.556
REMARK INTRA:                  -0.867
REMARK UNBOUND:                -1.088
REMARK SMILES CCCCCCCCCCCCCCCCCCCCCC(=O)[O-]
REMARK SMILES IDX 12 1 11 2 10 3 9 4 8 5 7 6 6 7 5 8 4 9 3 10 2 11 1 12 13 13
REMARK SMILES IDX 14 14 15 15 16 16 17 17 18 18 19 19 20 20 21 21 22 22 23 23
REMARK SMILES IDX 24 24
REMARK H PARENT
REMARK Flexibility Score: inf
ROOT
ATOM      1  C   UNL     1      28.974  46.349  42.125  1.00  0.00     0.000 C 
ENDROOT
BRANCH   1   2
ATOM      2  C   UNL     1      29.308  47.077  40.815  1.00  0.00     0.000 C 
BRANCH   2   3
ATOM      3  C   UNL     1      30.676  47.780  40.855  1.00  0.00     0.000 C 
BRANCH   3   4
ATOM      4  C   UNL     1      30.771  48.835  41.972  1.00  0.00    -0.000 C 
BRANCH   4   5
ATOM      5  C   UNL     1      31.162  50.249  41.497  1.00  0.00    -0.000 C 
BRANCH   5   6
ATOM      6  C   UNL     1      30.262  51.383  42.025  1.00  0.00    -0.000 C 
BRANCH   6   7
ATOM      7  C   UNL     1      28.767  51.238  41.678  1.00  0.00    -0.000 C 
BRANCH   7   8
ATOM      8  C   UNL     1      28.095  52.514  41.134  1.00  0.00    -0.000 C 
BRANCH   8   9
ATOM      9  C   UNL     1      27.306  52.334  39.822  1.00  0.00    -0.000 C 
BRANCH   9  10
ATOM     10  C   UNL     1      28.145  52.651  38.571  1.00  0.00    -0.000 C 
BRANCH  10  11
ATOM     11  C   UNL     1      29.655  52.521  38.829  1.00  0.00    -0.003 C 
ATOM     12  C   UNL     1      30.220  51.170  38.391  1.00  0.00     0.004 C 
ENDBRANCH  10  11
ENDBRANCH   9  10
ENDBRANCH   8   9
ENDBRANCH   7   8
ENDBRANCH   6   7
ENDBRANCH   5   6
ENDBRANCH   4   5
ENDBRANCH   3   4
ENDBRANCH   2   3
ENDBRANCH   1   2
BRANCH   1  13
ATOM     13  C   UNL     1      28.672  44.854  41.912  1.00  0.00     0.000 C 
BRANCH  13  14
ATOM     14  C   UNL     1      27.169  44.533  42.045  1.00  0.00     0.000 C 
BRANCH  14  15
ATOM     15  C   UNL     1      26.849  43.026  42.082  1.00  0.00     0.000 C 
BRANCH  15  16
ATOM     16  C   UNL     1      25.409  42.651  41.688  1.00  0.00     0.000 C 
BRANCH  16  17
ATOM     17  C   UNL     1      25.021  41.227  42.125  1.00  0.00     0.000 C 
BRANCH  17  18
ATOM     18  C   UNL     1      25.258  40.180  41.022  1.00  0.00     0.000 C 
BRANCH  18  19
ATOM     19  C   UNL     1      26.279  39.078  41.368  1.00  0.00     0.000 C 
BRANCH  19  20
ATOM     20  C   UNL     1      26.378  37.934  40.343  1.00  0.00     0.006 C 
BRANCH  20  21
ATOM     21  C   UNL     1      25.729  38.283  38.997  1.00  0.00     0.053 C 
BRANCH  21  22
ATOM     22  C   UNL     1      26.756  38.290  37.910  1.00  0.00     0.041 C 
ATOM     23  O   UNL     1      27.922  38.707  38.140  1.00  0.00    -0.550 OA
ATOM     24  O   UNL     1      26.409  37.885  36.625  1.00  0.00    -0.550 OA
ENDBRANCH  21  22
ENDBRANCH  20  21
ENDBRANCH  19  20
ENDBRANCH  18  19
ENDBRANCH  17  18
ENDBRANCH  16  17
ENDBRANCH  15  16
ENDBRANCH  14  15
ENDBRANCH  13  14
ENDBRANCH   1  13
TORSDOF 20
ENDMDL
MODEL 8
REMARK VINA RESULT:    -2.382      9.918     13.827
REMARK INTER + INTRA:          -6.255
REMARK INTER:                  -5.111
REMARK INTRA:                  -1.144
REMARK UNBOUND:                -1.088
REMARK SMILES CCCCCCCCCCCCCCCCCCCCCC(=O)[O-]
REMARK SMILES IDX 12 1 11 2 10 3 9 4 8 5 7 6 6 7 5 8 4 9 3 10 2 11 1 12 13 13
REMARK SMILES IDX 14 14 15 15 16 16 17 17 18 18 19 19 20 20 21 21 22 22 23 23
REMARK SMILES IDX 24 24
REMARK H PARENT
REMARK Flexibility Score: inf
ROOT
ATOM      1  C   UNL     1      28.367  45.460  41.796  1.00  0.00     0.000 C 
ENDROOT
BRANCH   1   2
ATOM      2  C   UNL     1      27.937  43.987  41.723  1.00  0.00     0.000 C 
BRANCH   2   3
ATOM      3  C   UNL     1      26.426  43.796  41.947  1.00  0.00     0.000 C 
BRANCH   3   4
ATOM      4  C   UNL     1      25.895  42.483  41.344  1.00  0.00    -0.000 C 
BRANCH   4   5
ATOM      5  C   UNL     1      26.081  42.347  39.820  1.00  0.00    -0.000 C 
BRANCH   5   6
ATOM      6  C   UNL     1      24.875  41.751  39.069  1.00  0.00    -0.000 C 
BRANCH   6   7
ATOM      7  C   UNL     1      25.188  41.230  37.653  1.00  0.00    -0.000 C 
BRANCH   7   8
ATOM      8  C   UNL     1      24.946  39.721  37.442  1.00  0.00    -0.000 C 
BRANCH   8   9
ATOM      9  C   UNL     1      25.607  38.798  38.484  1.00  0.00    -0.000 C 
BRANCH   9  10
ATOM     10  C   UNL     1      27.140  38.928  38.512  1.00  0.00    -0.000 C 
BRANCH  10  11
ATOM     11  C   UNL     1      27.828  37.979  37.517  1.00  0.00    -0.003 C 
ATOM     12  C   UNL     1      29.252  37.613  37.933  1.00  0.00     0.004 C 
ENDBRANCH  10  11
ENDBRANCH   9  10
ENDBRANCH   8   9
ENDBRANCH   7   8
ENDBRANCH   6   7
ENDBRANCH   5   6
ENDBRANCH   4   5
ENDBRANCH   3   4
ENDBRANCH   2   3
ENDBRANCH   1   2
BRANCH   1  13
ATOM     13  C   UNL     1      29.656  45.740  41.001  1.00  0.00     0.000 C 
BRANCH  13  14
ATOM     14  C   UNL     1      30.594  46.724  41.730  1.00  0.00     0.000 C 
BRANCH  14  15
ATOM     15  C   UNL     1      30.044  48.160  41.828  1.00  0.00     0.000 C 
BRANCH  15  16
ATOM     16  C   UNL     1      31.099  49.276  41.729  1.00  0.00     0.000 C 
BRANCH  16  17
ATOM     17  C   UNL     1      30.540  50.663  42.095  1.00  0.00     0.000 C 
BRANCH  17  18
ATOM     18  C   UNL     1      29.004  50.724  42.025  1.00  0.00     0.000 C 
BRANCH  18  19
ATOM     19  C   UNL     1      28.395  52.137  42.125  1.00  0.00     0.000 C 
BRANCH  19  20
ATOM     20  C   UNL     1      28.986  53.173  41.153  1.00  0.00     0.006 C 
BRANCH  20  21
ATOM     21  C   UNL     1      28.098  53.413  39.926  1.00  0.00     0.053 C 
BRANCH  21  22
ATOM     22  C   UNL     1      28.399  52.409  38.860  1.00  0.00     0.041 C 
ATOM     23  O   UNL     1      27.462  51.814  38.264  1.00  0.00    -0.550 OA
ATOM     24  O   UNL     1      29.719  52.090  38.559  1.00  0.00    -0.550 OA
ENDBRANCH  21  22
ENDBRANCH  20  21
ENDBRANCH  19  20
ENDBRANCH  18  19
ENDBRANCH  17  18
ENDBRANCH  16  17
ENDBRANCH  15  16
ENDBRANCH  14  15
ENDBRANCH  13  14
ENDBRANCH   1  13
TORSDOF 20
ENDMDL
MODEL 9
REMARK VINA RESULT:    -2.325     10.978     14.453
REMARK INTER + INTRA:          -6.130
REMARK INTER:                  -5.159
REMARK INTRA:                  -0.971
REMARK UNBOUND:                -1.088
REMARK SMILES CCCCCCCCCCCCCCCCCCCCCC(=O)[O-]
REMARK SMILES IDX 12 1 11 2 10 3 9 4 8 5 7 6 6 7 5 8 4 9 3 10 2 11 1 12 13 13
REMARK SMILES IDX 14 14 15 15 16 16 17 17 18 18 19 19 20 20 21 21 22 22 23 23
REMARK SMILES IDX 24 24
REMARK H PARENT
REMARK Flexibility Score: inf
ROOT
ATOM      1  C   UNL     1      29.341  46.038  40.781  1.00  0.00     0.000 C 
ENDROOT
BRANCH   1   2
ATOM      2  C   UNL     1      29.020  45.151  41.993  1.00  0.00     0.000 C 
BRANCH   2   3
ATOM      3  C   UNL     1      27.613  44.532  41.922  1.00  0.00     0.000 C 
BRANCH   3   4
ATOM      4  C   UNL     1      27.622  43.006  42.125  1.00  0.00    -0.000 C 
BRANCH   4   5
ATOM      5  C   UNL     1      26.234  42.337  42.082  1.00  0.00    -0.000 C 
BRANCH   5   6
ATOM      6  C   UNL     1      26.244  40.842  41.713  1.00  0.00    -0.000 C 
BRANCH   6   7
ATOM      7  C   UNL     1      27.456  40.390  40.875  1.00  0.00    -0.000 C 
BRANCH   7   8
ATOM      8  C   UNL     1      27.300  39.020  40.184  1.00  0.00    -0.000 C 
BRANCH   8   9
ATOM      9  C   UNL     1      25.877  38.430  40.209  1.00  0.00    -0.000 C 
BRANCH   9  10
ATOM     10  C   UNL     1      24.969  39.006  39.109  1.00  0.00    -0.000 C 
BRANCH  10  11
ATOM     11  C   UNL     1      25.675  39.080  37.745  1.00  0.00    -0.003 C 
ATOM     12  C   UNL     1      25.280  37.938  36.809  1.00  0.00     0.004 C 
ENDBRANCH  10  11
ENDBRANCH   9  10
ENDBRANCH   8   9
ENDBRANCH   7   8
ENDBRANCH   6   7
ENDBRANCH   5   6
ENDBRANCH   4   5
ENDBRANCH   3   4
ENDBRANCH   2   3
ENDBRANCH   1   2
BRANCH   1  13
ATOM     13  C   UNL     1      30.429  47.085  41.085  1.00  0.00     0.000 C 
BRANCH  13  14
ATOM     14  C   UNL     1      29.947  48.159  42.082  1.00  0.00     0.000 C 
BRANCH  14  15
ATOM     15  C   UNL     1      30.281  49.603  41.660  1.00  0.00     0.000 C 
BRANCH  15  16
ATOM     16  C   UNL     1      30.520  49.808  40.154  1.00  0.00     0.000 C 
BRANCH  16  17
ATOM     17  C   UNL     1      30.468  51.288  39.735  1.00  0.00     0.000 C 
BRANCH  17  18
ATOM     18  C   UNL     1      29.762  51.500  38.383  1.00  0.00     0.000 C 
BRANCH  18  19
ATOM     19  C   UNL     1      28.955  52.808  38.259  1.00  0.00     0.000 C 
BRANCH  19  20
ATOM     20  C   UNL     1      28.439  53.386  39.589  1.00  0.00     0.006 C 
BRANCH  20  21
ATOM     21  C   UNL     1      28.560  54.913  39.662  1.00  0.00     0.053 C 
BRANCH  21  22
ATOM     22  C   UNL     1      28.947  55.340  41.042  1.00  0.00     0.041 C 
ATOM     23  O   UNL     1      28.680  56.503  41.446  1.00  0.00    -0.550 OA
ATOM     24  O   UNL     1      29.650  54.468  41.867  1.00  0.00    -0.550 OA
ENDBRANCH  21  22
ENDBRANCH  20  21
ENDBRANCH  19  20
ENDBRANCH  18  19
ENDBRANCH  17  18
ENDBRANCH  16  17
ENDBRANCH  15  16
ENDBRANCH  14  15
ENDBRANCH  13  14
ENDBRANCH   1  13
TORSDOF 20
ENDMDL
