MODEL 1
REMARK VINA RESULT:    -5.442      0.000      0.000
REMARK INTER + INTRA:          -7.998
REMARK INTER:                  -7.669
REMARK INTRA:                  -0.328
REMARK UNBOUND:                -0.328
REMARK SMILES CCCCCCCCC(=O)[O-]
REMARK SMILES IDX 6 1 7 2 8 3 9 4 10 5 11 6 5 7 4 8 3 9 2 10 1 11
REMARK H PARENT
REMARK Flexibility Score: inf
ROOT
ATOM      1  C   UNL     1      -2.450  26.094  54.651  1.00  0.00     0.000 C 
ENDROOT
BRANCH   1   2
ATOM      2  C   UNL     1      -3.134  26.487  53.334  1.00  0.00     0.006 C 
BRANCH   2   3
ATOM      3  C   UNL     1      -2.226  26.266  52.117  1.00  0.00     0.053 C 
BRANCH   3   4
ATOM      4  C   UNL     1      -2.891  26.688  50.843  1.00  0.00     0.041 C 
ATOM      5  O   UNL     1      -4.064  26.310  50.586  1.00  0.00    -0.550 OA
ATOM      6  O   UNL     1      -2.204  27.472  49.924  1.00  0.00    -0.550 OA
ENDBRANCH   3   4
ENDBRANCH   2   3
ENDBRANCH   1   2
BRANCH   1   7
ATOM      7  C   UNL     1      -3.093  26.821  55.842  1.00  0.00     0.000 C 
BRANCH   7   8
ATOM      8  C   UNL     1      -4.431  27.486  55.479  1.00  0.00    -0.000 C 
BRANCH   8   9
ATOM      9  C   UNL     1      -4.770  28.671  56.399  1.00  0.00    -0.000 C 
BRANCH   9  10
ATOM     10  C   UNL     1      -3.516  29.387  56.924  1.00  0.00    -0.003 C 
ATOM     11  C   UNL     1      -3.841  30.496  57.924  1.00  0.00     0.004 C 
ENDBRANCH   9  10
ENDBRANCH   8   9
ENDBRANCH   7   8
ENDBRANCH   1   7
TORSDOF 7
ENDMDL
MODEL 2
REMARK VINA RESULT:    -5.351      3.955      6.289
REMARK INTER + INTRA:          -7.869
REMARK INTER:                  -7.579
REMARK INTRA:                  -0.289
REMARK UNBOUND:                -0.328
REMARK SMILES CCCCCCCCC(=O)[O-]
REMARK SMILES IDX 6 1 7 2 8 3 9 4 10 5 11 6 5 7 4 8 3 9 2 10 1 11
REMARK H PARENT
REMARK Flexibility Score: inf
ROOT
ATOM      1  C   UNL     1      -4.470  27.624  55.422  1.00  0.00     0.000 C 
ENDROOT
BRANCH   1   2
ATOM      2  C   UNL     1      -4.958  28.632  56.474  1.00  0.00     0.006 C 
BRANCH   2   3
ATOM      3  C   UNL     1      -3.830  29.544  56.972  1.00  0.00     0.053 C 
BRANCH   3   4
ATOM      4  C   UNL     1      -4.298  30.461  58.061  1.00  0.00     0.041 C 
ATOM      5  O   UNL     1      -3.985  31.681  58.039  1.00  0.00    -0.550 OA
ATOM      6  O   UNL     1      -5.052  29.963  59.116  1.00  0.00    -0.550 OA
ENDBRANCH   3   4
ENDBRANCH   2   3
ENDBRANCH   1   2
BRANCH   1   7
ATOM      7  C   UNL     1      -3.199  26.906  55.898  1.00  0.00     0.000 C 
BRANCH   7   8
ATOM      8  C   UNL     1      -2.368  26.336  54.737  1.00  0.00    -0.000 C 
BRANCH   8   9
ATOM      9  C   UNL     1      -3.120  26.375  53.396  1.00  0.00    -0.000 C 
BRANCH   9  10
ATOM     10  C   UNL     1      -2.172  26.319  52.187  1.00  0.00    -0.003 C 
ATOM     11  C   UNL     1      -2.859  26.702  50.877  1.00  0.00     0.004 C 
ENDBRANCH   9  10
ENDBRANCH   8   9
ENDBRANCH   7   8
ENDBRANCH   1   7
TORSDOF 7
ENDMDL
MODEL 3
REMARK VINA RESULT:    -5.288      0.936      1.726
REMARK INTER + INTRA:          -7.780
REMARK INTER:                  -7.457
REMARK INTRA:                  -0.323
REMARK UNBOUND:                -0.328
REMARK SMILES CCCCCCCCC(=O)[O-]
REMARK SMILES IDX 6 1 7 2 8 3 9 4 10 5 11 6 5 7 4 8 3 9 2 10 1 11
REMARK H PARENT
REMARK Flexibility Score: inf
ROOT
ATOM      1  C   UNL     1      -2.965  27.050  55.759  1.00  0.00     0.000 C 
ENDROOT
BRANCH   1   2
ATOM      2  C   UNL     1      -2.388  26.401  54.492  1.00  0.00     0.006 C 
BRANCH   2   3
ATOM      3  C   UNL     1      -3.388  26.408  53.328  1.00  0.00     0.053 C 
BRANCH   3   4
ATOM      4  C   UNL     1      -2.697  26.324  52.002  1.00  0.00     0.041 C 
ATOM      5  O   UNL     1      -1.454  26.138  51.946  1.00  0.00    -0.550 OA
ATOM      6  O   UNL     1      -3.423  26.485  50.827  1.00  0.00    -0.550 OA
ENDBRANCH   3   4
ENDBRANCH   2   3
ENDBRANCH   1   2
BRANCH   1   7
ATOM      7  C   UNL     1      -4.395  27.555  55.515  1.00  0.00     0.000 C 
BRANCH   7   8
ATOM      8  C   UNL     1      -4.778  28.724  56.437  1.00  0.00    -0.000 C 
BRANCH   8   9
ATOM      9  C   UNL     1      -3.554  29.386  57.093  1.00  0.00    -0.000 C 
BRANCH   9  10
ATOM     10  C   UNL     1      -3.907  30.702  57.803  1.00  0.00    -0.003 C 
ATOM     11  C   UNL     1      -4.660  30.485  59.115  1.00  0.00     0.004 C 
ENDBRANCH   9  10
ENDBRANCH   8   9
ENDBRANCH   7   8
ENDBRANCH   1   7
TORSDOF 7
ENDMDL
MODEL 4
REMARK VINA RESULT:    -5.197      3.710      6.013
REMARK INTER + INTRA:          -7.652
REMARK INTER:                  -7.351
REMARK INTRA:                  -0.301
REMARK UNBOUND:                -0.328
REMARK SMILES CCCCCCCCC(=O)[O-]
REMARK SMILES IDX 6 1 7 2 8 3 9 4 10 5 11 6 5 7 4 8 3 9 2 10 1 11
REMARK H PARENT
REMARK Flexibility Score: inf
ROOT
ATOM      1  C   UNL     1      -4.255  27.057  54.758  1.00  0.00     0.000 C 
ENDROOT
BRANCH   1   2
ATOM      2  C   UNL     1      -4.639  27.997  55.911  1.00  0.00     0.006 C 
BRANCH   2   3
ATOM      3  C   UNL     1      -3.506  28.966  56.273  1.00  0.00     0.053 C 
BRANCH   3   4
ATOM      4  C   UNL     1      -3.800  29.716  57.536  1.00  0.00     0.041 C 
ATOM      5  O   UNL     1      -4.957  29.693  58.032  1.00  0.00    -0.550 OA
ATOM      6  O   UNL     1      -2.804  30.469  58.147  1.00  0.00    -0.550 OA
ENDBRANCH   3   4
ENDBRANCH   2   3
ENDBRANCH   1   2
BRANCH   1   7
ATOM      7  C   UNL     1      -2.892  26.399  55.018  1.00  0.00     0.000 C 
BRANCH   7   8
ATOM      8  C   UNL     1      -1.999  26.368  53.767  1.00  0.00    -0.000 C 
BRANCH   8   9
ATOM      9  C   UNL     1      -2.811  26.307  52.462  1.00  0.00    -0.000 C 
BRANCH   9  10
ATOM     10  C   UNL     1      -1.940  25.963  51.243  1.00  0.00    -0.003 C 
ATOM     11  C   UNL     1      -1.811  27.125  50.259  1.00  0.00     0.004 C 
ENDBRANCH   9  10
ENDBRANCH   8   9
ENDBRANCH   7   8
ENDBRANCH   1   7
TORSDOF 7
ENDMDL
MODEL 5
REMARK VINA RESULT:    -5.173      4.058      5.868
REMARK INTER + INTRA:          -7.618
REMARK INTER:                  -7.234
REMARK INTRA:                  -0.384
REMARK UNBOUND:                -0.328
REMARK SMILES CCCCCCCCC(=O)[O-]
REMARK SMILES IDX 6 1 7 2 8 3 9 4 10 5 11 6 5 7 4 8 3 9 2 10 1 11
REMARK H PARENT
REMARK Flexibility Score: inf
ROOT
ATOM      1  C   UNL     1      -4.932  27.878  55.537  1.00  0.00     0.000 C 
ENDROOT
BRANCH   1   2
ATOM      2  C   UNL     1      -3.899  28.645  56.376  1.00  0.00     0.006 C 
BRANCH   2   3
ATOM      3  C   UNL     1      -4.557  29.620  57.360  1.00  0.00     0.053 C 
BRANCH   3   4
ATOM      4  C   UNL     1      -3.548  30.512  58.018  1.00  0.00     0.041 C 
ATOM      5  O   UNL     1      -3.911  31.593  58.551  1.00  0.00    -0.550 OA
ATOM      6  O   UNL     1      -2.203  30.164  58.012  1.00  0.00    -0.550 OA
ENDBRANCH   3   4
ENDBRANCH   2   3
ENDBRANCH   1   2
BRANCH   1   7
ATOM      7  C   UNL     1      -4.244  26.850  54.626  1.00  0.00     0.000 C 
BRANCH   7   8
ATOM      8  C   UNL     1      -2.961  26.271  55.245  1.00  0.00    -0.000 C 
BRANCH   8   9
ATOM      9  C   UNL     1      -1.775  26.281  54.266  1.00  0.00    -0.000 C 
BRANCH   9  10
ATOM     10  C   UNL     1      -0.431  26.025  54.968  1.00  0.00    -0.003 C 
ATOM     11  C   UNL     1      -0.283  26.810  56.270  1.00  0.00     0.004 C 
ENDBRANCH   9  10
ENDBRANCH   8   9
ENDBRANCH   7   8
ENDBRANCH   1   7
TORSDOF 7
ENDMDL
MODEL 6
REMARK VINA RESULT:    -5.066      2.897      3.409
REMARK INTER + INTRA:          -7.468
REMARK INTER:                  -6.982
REMARK INTRA:                  -0.486
REMARK UNBOUND:                -0.328
REMARK SMILES CCCCCCCCC(=O)[O-]
REMARK SMILES IDX 6 1 7 2 8 3 9 4 10 5 11 6 5 7 4 8 3 9 2 10 1 11
REMARK H PARENT
REMARK Flexibility Score: inf
ROOT
ATOM      1  C   UNL     1      -3.230  26.378  53.772  1.00  0.00     0.000 C 
ENDROOT
BRANCH   1   2
ATOM      2  C   UNL     1      -1.714  26.262  53.553  1.00  0.00     0.006 C 
BRANCH   2   3
ATOM      3  C   UNL     1      -0.931  26.297  54.872  1.00  0.00     0.053 C 
BRANCH   3   4
ATOM      4  C   UNL     1       0.411  25.646  54.739  1.00  0.00     0.041 C 
ATOM      5  O   UNL     1       1.389  26.067  55.411  1.00  0.00    -0.550 OA
ATOM      6  O   UNL     1       0.590  24.594  53.849  1.00  0.00    -0.550 OA
ENDBRANCH   3   4
ENDBRANCH   2   3
ENDBRANCH   1   2
BRANCH   1   7
ATOM      7  C   UNL     1      -3.551  26.645  55.250  1.00  0.00     0.000 C 
BRANCH   7   8
ATOM      8  C   UNL     1      -4.772  27.561  55.437  1.00  0.00    -0.000 C 
BRANCH   8   9
ATOM      9  C   UNL     1      -4.483  28.750  56.369  1.00  0.00    -0.000 C 
BRANCH   9  10
ATOM     10  C   UNL     1      -2.983  29.068  56.467  1.00  0.00    -0.003 C 
ATOM     11  C   UNL     1      -2.636  29.914  57.692  1.00  0.00     0.004 C 
ENDBRANCH   9  10
ENDBRANCH   8   9
ENDBRANCH   7   8
ENDBRANCH   1   7
TORSDOF 7
ENDMDL
MODEL 7
REMARK VINA RESULT:    -5.037      3.294      5.802
REMARK INTER + INTRA:          -7.427
REMARK INTER:                  -7.126
REMARK INTRA:                  -0.301
REMARK UNBOUND:                -0.328
REMARK SMILES CCCCCCCCC(=O)[O-]
REMARK SMILES IDX 6 1 7 2 8 3 9 4 10 5 11 6 5 7 4 8 3 9 2 10 1 11
REMARK H PARENT
REMARK Flexibility Score: inf
ROOT
ATOM      1  C   UNL     1      -2.843  26.492  54.350  1.00  0.00     0.000 C 
ENDROOT
BRANCH   1   2
ATOM      2  C   UNL     1      -3.408  26.775  55.750  1.00  0.00     0.006 C 
BRANCH   2   3
ATOM      3  C   UNL     1      -4.366  27.974  55.759  1.00  0.00     0.053 C 
BRANCH   3   4
ATOM      4  C   UNL     1      -3.866  29.077  56.641  1.00  0.00     0.041 C 
ATOM      5  O   UNL     1      -4.663  29.696  57.394  1.00  0.00    -0.550 OA
ATOM      6  O   UNL     1      -2.526  29.444  56.606  1.00  0.00    -0.550 OA
ENDBRANCH   3   4
ENDBRANCH   2   3
ENDBRANCH   1   2
BRANCH   1   7
ATOM      7  C   UNL     1      -1.345  26.160  54.419  1.00  0.00     0.000 C 
BRANCH   7   8
ATOM      8  C   UNL     1      -0.766  25.738  53.058  1.00  0.00    -0.000 C 
BRANCH   8   9
ATOM      9  C   UNL     1      -1.728  26.025  51.892  1.00  0.00    -0.000 C 
BRANCH   9  10
ATOM     10  C   UNL     1      -0.995  26.513  50.632  1.00  0.00    -0.003 C 
ATOM     11  C   UNL     1      -1.767  27.595  49.879  1.00  0.00     0.004 C 
ENDBRANCH   9  10
ENDBRANCH   8   9
ENDBRANCH   7   8
ENDBRANCH   1   7
TORSDOF 7
ENDMDL
MODEL 8
REMARK VINA RESULT:    -4.796      3.646      5.819
REMARK INTER + INTRA:          -7.087
REMARK INTER:                  -6.668
REMARK INTRA:                  -0.419
REMARK UNBOUND:                -0.328
REMARK SMILES CCCCCCCCC(=O)[O-]
REMARK SMILES IDX 6 1 7 2 8 3 9 4 10 5 11 6 5 7 4 8 3 9 2 10 1 11
REMARK H PARENT
REMARK Flexibility Score: inf
ROOT
ATOM      1  C   UNL     1      -3.131  26.522  53.633  1.00  0.00     0.000 C 
ENDROOT
BRANCH   1   2
ATOM      2  C   UNL     1      -3.578  26.527  55.102  1.00  0.00     0.006 C 
BRANCH   2   3
ATOM      3  C   UNL     1      -4.586  27.645  55.400  1.00  0.00     0.053 C 
BRANCH   3   4
ATOM      4  C   UNL     1      -4.014  28.677  56.324  1.00  0.00     0.041 C 
ATOM      5  O   UNL     1      -2.798  28.995  56.244  1.00  0.00    -0.550 OA
ATOM      6  O   UNL     1      -4.817  29.264  57.295  1.00  0.00    -0.550 OA
ENDBRANCH   3   4
ENDBRANCH   2   3
ENDBRANCH   1   2
BRANCH   1   7
ATOM      7  C   UNL     1      -1.659  26.100  53.509  1.00  0.00     0.000 C 
BRANCH   7   8
ATOM      8  C   UNL     1      -0.874  26.294  54.816  1.00  0.00    -0.000 C 
BRANCH   8   9
ATOM      9  C   UNL     1       0.459  25.526  54.825  1.00  0.00    -0.000 C 
BRANCH   9  10
ATOM     10  C   UNL     1       0.752  24.841  53.480  1.00  0.00    -0.003 C 
ATOM     11  C   UNL     1       1.537  23.539  53.637  1.00  0.00     0.004 C 
ENDBRANCH   9  10
ENDBRANCH   8   9
ENDBRANCH   7   8
ENDBRANCH   1   7
TORSDOF 7
ENDMDL
MODEL 9
REMARK VINA RESULT:    -4.791      3.677      4.344
REMARK INTER + INTRA:          -7.081
REMARK INTER:                  -6.661
REMARK INTRA:                  -0.420
REMARK UNBOUND:                -0.328
REMARK SMILES CCCCCCCCC(=O)[O-]
REMARK SMILES IDX 6 1 7 2 8 3 9 4 10 5 11 6 5 7 4 8 3 9 2 10 1 11
REMARK H PARENT
REMARK Flexibility Score: inf
ROOT
ATOM      1  C   UNL     1      -2.332  26.234  54.630  1.00  0.00     0.000 C 
ENDROOT
BRANCH   1   2
ATOM      2  C   UNL     1      -0.845  26.127  54.999  1.00  0.00     0.006 C 
BRANCH   2   3
ATOM      3  C   UNL     1      -0.503  26.917  56.269  1.00  0.00     0.053 C 
BRANCH   3   4
ATOM      4  C   UNL     1       0.965  26.879  56.567  1.00  0.00     0.041 C 
ATOM      5  O   UNL     1       1.397  27.295  57.674  1.00  0.00    -0.550 OA
ATOM      6  O   UNL     1       1.859  26.415  55.610  1.00  0.00    -0.550 OA
ENDBRANCH   3   4
ENDBRANCH   2   3
ENDBRANCH   1   2
BRANCH   1   7
ATOM      7  C   UNL     1      -3.157  26.747  55.820  1.00  0.00     0.000 C 
BRANCH   7   8
ATOM      8  C   UNL     1      -4.474  27.413  55.388  1.00  0.00    -0.000 C 
BRANCH   8   9
ATOM      9  C   UNL     1      -4.845  28.618  56.269  1.00  0.00    -0.000 C 
BRANCH   9  10
ATOM     10  C   UNL     1      -3.617  29.261  56.935  1.00  0.00    -0.003 C 
ATOM     11  C   UNL     1      -3.990  30.360  57.928  1.00  0.00     0.004 C 
ENDBRANCH   9  10
ENDBRANCH   8   9
ENDBRANCH   7   8
ENDBRANCH   1   7
TORSDOF 7
ENDMDL
