MODEL 1
REMARK VINA RESULT:    -3.393      0.000      0.000
REMARK INTER + INTRA:          -6.697
REMARK INTER:                  -5.179
REMARK INTRA:                  -1.519
REMARK UNBOUND:                -1.519
REMARK SMILES CC(=O)CCC=C(C)CCC=C(C)CCC=C(C)C
REMARK SMILES IDX 10 1 11 2 12 3 13 4 14 5 15 6 16 7 18 8 17 9 19 10 9 11 7 12
REMARK SMILES IDX 6 13 8 14 5 15 4 16 2 17 3 18 1 19
REMARK H PARENT
REMARK Flexibility Score: inf
ROOT
ATOM      1  C   UNL     1       2.347 144.217  -6.682  1.00  0.00     0.032 C 
ENDROOT
BRANCH   1   2
ATOM      2  C   UNL     1       3.074 145.299  -5.918  1.00  0.00    -0.028 C 
ATOM      3  C   UNL     1       2.714 146.602  -5.857  1.00  0.00    -0.077 C 
ATOM      4  C   UNL     1       3.570 147.538  -5.044  1.00  0.00     0.039 C 
BRANCH   3   5
ATOM      5  C   UNL     1       1.494 147.162  -6.568  1.00  0.00     0.034 C 
BRANCH   5   6
ATOM      6  C   UNL     1       0.201 146.897  -5.784  1.00  0.00     0.032 C 
BRANCH   6   7
ATOM      7  C   UNL     1      -0.194 148.105  -4.965  1.00  0.00    -0.028 C 
ATOM      8  C   UNL     1      -1.479 146.775  -3.272  1.00  0.00     0.039 C 
ATOM      9  C   UNL     1      -0.962 148.069  -3.854  1.00  0.00    -0.080 C 
ATOM     10  C   UNL     1      -1.308 149.373  -3.181  1.00  0.00     0.039 C 
ENDBRANCH   6   7
ENDBRANCH   5   6
ENDBRANCH   3   5
ENDBRANCH   1   2
BRANCH   1  11
ATOM     11  C   UNL     1       3.256 142.999  -6.871  1.00  0.00     0.034 C 
BRANCH  11  12
ATOM     12  C   UNL     1       3.466 142.705  -8.343  1.00  0.00    -0.077 C 
ATOM     13  C   UNL     1       4.625 142.963  -8.990  1.00  0.00    -0.028 C 
ATOM     14  C   UNL     1       2.341 142.071  -9.120  1.00  0.00     0.039 C 
BRANCH  13  15
ATOM     15  C   UNL     1       5.834 143.641  -8.388  1.00  0.00     0.035 C 
BRANCH  15  16
ATOM     16  C   UNL     1       6.137 144.963  -9.101  1.00  0.00     0.079 C 
BRANCH  16  17
ATOM     17  C   UNL     1       5.363 146.107  -8.500  1.00  0.00     0.130 C 
ATOM     18  O   UNL     1       5.774 146.643  -7.483  1.00  0.00    -0.300 OA
ATOM     19  C   UNL     1       4.091 146.598  -9.125  1.00  0.00     0.087 C 
ENDBRANCH  16  17
ENDBRANCH  15  16
ENDBRANCH  13  15
ENDBRANCH  11  12
ENDBRANCH   1  11
TORSDOF 9
ENDMDL
MODEL 2
REMARK VINA RESULT:    -3.254      2.077      6.916
REMARK INTER + INTRA:          -6.484
REMARK INTER:                  -5.311
REMARK INTRA:                  -1.173
REMARK UNBOUND:                -1.519
REMARK SMILES CC(=O)CCC=C(C)CCC=C(C)CCC=C(C)C
REMARK SMILES IDX 10 1 11 2 12 3 13 4 14 5 15 6 16 7 18 8 17 9 19 10 9 11 7 12
REMARK SMILES IDX 6 13 8 14 5 15 4 16 2 17 3 18 1 19
REMARK H PARENT
REMARK Flexibility Score: inf
ROOT
ATOM      1  C   UNL     1       2.538 144.719  -6.564  1.00  0.00     0.032 C 
ENDROOT
BRANCH   1   2
ATOM      2  C   UNL     1       2.587 143.662  -7.642  1.00  0.00    -0.028 C 
ATOM      3  C   UNL     1       3.688 142.972  -8.023  1.00  0.00    -0.077 C 
ATOM      4  C   UNL     1       3.542 141.954  -9.125  1.00  0.00     0.039 C 
BRANCH   3   5
ATOM      5  C   UNL     1       5.055 143.177  -7.395  1.00  0.00     0.034 C 
BRANCH   5   6
ATOM      6  C   UNL     1       6.088 143.669  -8.419  1.00  0.00     0.032 C 
BRANCH   6   7
ATOM      7  C   UNL     1       5.662 144.984  -9.032  1.00  0.00    -0.028 C 
ATOM      8  C   UNL     1       5.676 146.224  -6.854  1.00  0.00     0.039 C 
ATOM      9  C   UNL     1       5.453 146.127  -8.344  1.00  0.00    -0.080 C 
ATOM     10  C   UNL     1       4.978 147.341  -9.101  1.00  0.00     0.039 C 
ENDBRANCH   6   7
ENDBRANCH   5   6
ENDBRANCH   3   5
ENDBRANCH   1   2
BRANCH   1  11
ATOM     11  C   UNL     1       1.877 145.993  -7.102  1.00  0.00     0.034 C 
BRANCH  11  12
ATOM     12  C   UNL     1       1.849 147.075  -6.041  1.00  0.00    -0.077 C 
ATOM     13  C   UNL     1       0.741 147.384  -5.329  1.00  0.00    -0.028 C 
ATOM     14  C   UNL     1       3.120 147.828  -5.743  1.00  0.00     0.039 C 
BRANCH  13  15
ATOM     15  C   UNL     1      -0.628 146.774  -5.528  1.00  0.00     0.035 C 
BRANCH  15  16
ATOM     16  C   UNL     1      -1.314 146.509  -4.185  1.00  0.00     0.079 C 
BRANCH  16  17
ATOM     17  C   UNL     1      -1.171 147.679  -3.248  1.00  0.00     0.130 C 
ATOM     18  O   UNL     1      -0.408 147.600  -2.298  1.00  0.00    -0.300 OA
ATOM     19  C   UNL     1      -1.954 148.941  -3.455  1.00  0.00     0.087 C 
ENDBRANCH  16  17
ENDBRANCH  15  16
ENDBRANCH  13  15
ENDBRANCH  11  12
ENDBRANCH   1  11
TORSDOF 9
ENDMDL
MODEL 3
REMARK VINA RESULT:    -3.043      1.038      1.213
REMARK INTER + INTRA:          -6.163
REMARK INTER:                  -4.648
REMARK INTRA:                  -1.515
REMARK UNBOUND:                -1.519
REMARK SMILES CC(=O)CCC=C(C)CCC=C(C)CCC=C(C)C
REMARK SMILES IDX 10 1 11 2 12 3 13 4 14 5 15 6 16 7 18 8 17 9 19 10 9 11 7 12
REMARK SMILES IDX 6 13 8 14 5 15 4 16 2 17 3 18 1 19
REMARK H PARENT
REMARK Flexibility Score: inf
ROOT
ATOM      1  C   UNL     1       1.839 144.836  -8.013  1.00  0.00     0.032 C 
ENDROOT
BRANCH   1   2
ATOM      2  C   UNL     1       2.510 144.890  -6.661  1.00  0.00    -0.028 C 
ATOM      3  C   UNL     1       2.643 145.995  -5.889  1.00  0.00    -0.077 C 
ATOM      4  C   UNL     1       3.350 145.854  -4.565  1.00  0.00     0.039 C 
BRANCH   3   5
ATOM      5  C   UNL     1       2.118 147.361  -6.294  1.00  0.00     0.034 C 
BRANCH   5   6
ATOM      6  C   UNL     1       0.591 147.449  -6.169  1.00  0.00     0.032 C 
BRANCH   6   7
ATOM      7  C   UNL     1       0.186 147.956  -4.803  1.00  0.00    -0.028 C 
ATOM      8  C   UNL     1      -1.509 146.149  -4.423  1.00  0.00     0.039 C 
ATOM      9  C   UNL     1      -0.765 147.399  -4.021  1.00  0.00    -0.080 C 
ATOM     10  C   UNL     1      -1.085 148.060  -2.705  1.00  0.00     0.039 C 
ENDBRANCH   6   7
ENDBRANCH   5   6
ENDBRANCH   3   5
ENDBRANCH   1   2
BRANCH   1  11
ATOM     11  C   UNL     1       2.872 144.538  -9.105  1.00  0.00     0.034 C 
BRANCH  11  12
ATOM     12  C   UNL     1       3.472 143.159  -8.917  1.00  0.00    -0.077 C 
ATOM     13  C   UNL     1       4.796 142.946  -8.742  1.00  0.00    -0.028 C 
ATOM     14  C   UNL     1       2.550 141.966  -8.897  1.00  0.00     0.039 C 
BRANCH  13  15
ATOM     15  C   UNL     1       5.869 144.010  -8.787  1.00  0.00     0.035 C 
BRANCH  15  16
ATOM     16  C   UNL     1       5.999 144.719  -7.435  1.00  0.00     0.079 C 
BRANCH  16  17
ATOM     17  C   UNL     1       5.714 146.194  -7.553  1.00  0.00     0.130 C 
ATOM     18  O   UNL     1       5.647 146.876  -6.544  1.00  0.00    -0.300 OA
ATOM     19  C   UNL     1       5.503 146.840  -8.890  1.00  0.00     0.087 C 
ENDBRANCH  16  17
ENDBRANCH  15  16
ENDBRANCH  13  15
ENDBRANCH  11  12
ENDBRANCH   1  11
TORSDOF 9
ENDMDL
MODEL 4
REMARK VINA RESULT:    -2.904      1.475      3.125
REMARK INTER + INTRA:          -5.951
REMARK INTER:                  -4.928
REMARK INTRA:                  -1.023
REMARK UNBOUND:                -1.519
REMARK SMILES CC(=O)CCC=C(C)CCC=C(C)CCC=C(C)C
REMARK SMILES IDX 10 1 11 2 12 3 13 4 14 5 15 6 16 7 18 8 17 9 19 10 9 11 7 12
REMARK SMILES IDX 6 13 8 14 5 15 4 16 2 17 3 18 1 19
REMARK H PARENT
REMARK Flexibility Score: inf
ROOT
ATOM      1  C   UNL     1       4.284 147.091  -6.377  1.00  0.00     0.032 C 
ENDROOT
BRANCH   1   2
ATOM      2  C   UNL     1       3.005 146.353  -6.696  1.00  0.00    -0.028 C 
ATOM      3  C   UNL     1       1.751 146.822  -6.494  1.00  0.00    -0.077 C 
ATOM      4  C   UNL     1       0.593 145.935  -6.873  1.00  0.00     0.039 C 
BRANCH   3   5
ATOM      5  C   UNL     1       1.460 148.191  -5.906  1.00  0.00     0.034 C 
BRANCH   5   6
ATOM      6  C   UNL     1       0.056 148.264  -5.290  1.00  0.00     0.032 C 
BRANCH   6   7
ATOM      7  C   UNL     1       0.065 147.778  -3.858  1.00  0.00    -0.028 C 
ATOM      8  C   UNL     1      -2.240 148.622  -3.354  1.00  0.00     0.039 C 
ATOM      9  C   UNL     1      -0.943 147.949  -2.975  1.00  0.00    -0.080 C 
ATOM     10  C   UNL     1      -0.753 147.448  -1.566  1.00  0.00     0.039 C 
ENDBRANCH   6   7
ENDBRANCH   5   6
ENDBRANCH   3   5
ENDBRANCH   1   2
BRANCH   1  11
ATOM     11  C   UNL     1       5.495 146.277  -6.844  1.00  0.00     0.034 C 
BRANCH  11  12
ATOM     12  C   UNL     1       5.562 146.229  -8.357  1.00  0.00    -0.077 C 
ATOM     13  C   UNL     1       5.645 145.075  -9.058  1.00  0.00    -0.028 C 
ATOM     14  C   UNL     1       5.505 147.526  -9.124  1.00  0.00     0.039 C 
BRANCH  13  15
ATOM     15  C   UNL     1       5.765 143.693  -8.459  1.00  0.00     0.035 C 
BRANCH  15  16
ATOM     16  C   UNL     1       4.714 142.745  -9.044  1.00  0.00     0.079 C 
BRANCH  16  17
ATOM     17  C   UNL     1       3.324 143.112  -8.594  1.00  0.00     0.130 C 
ATOM     18  O   UNL     1       2.774 144.089  -9.076  1.00  0.00    -0.300 OA
ATOM     19  C   UNL     1       2.603 142.303  -7.557  1.00  0.00     0.087 C 
ENDBRANCH  16  17
ENDBRANCH  15  16
ENDBRANCH  13  15
ENDBRANCH  11  12
ENDBRANCH   1  11
TORSDOF 9
ENDMDL
MODEL 5
REMARK VINA RESULT:    -2.838      2.245      6.949
REMARK INTER + INTRA:          -5.849
REMARK INTER:                  -4.817
REMARK INTRA:                  -1.032
REMARK UNBOUND:                -1.519
REMARK SMILES CC(=O)CCC=C(C)CCC=C(C)CCC=C(C)C
REMARK SMILES IDX 10 1 11 2 12 3 13 4 14 5 15 6 16 7 18 8 17 9 19 10 9 11 7 12
REMARK SMILES IDX 6 13 8 14 5 15 4 16 2 17 3 18 1 19
REMARK H PARENT
REMARK Flexibility Score: inf
ROOT
ATOM      1  C   UNL     1       2.547 144.737  -6.357  1.00  0.00     0.032 C 
ENDROOT
BRANCH   1   2
ATOM      2  C   UNL     1       2.373 143.477  -7.174  1.00  0.00    -0.028 C 
ATOM      3  C   UNL     1       2.908 143.249  -8.396  1.00  0.00    -0.077 C 
ATOM      4  C   UNL     1       2.619 141.927  -9.062  1.00  0.00     0.039 C 
BRANCH   3   5
ATOM      5  C   UNL     1       3.779 144.257  -9.125  1.00  0.00     0.034 C 
BRANCH   5   6
ATOM      6  C   UNL     1       5.257 143.844  -9.125  1.00  0.00     0.032 C 
BRANCH   6   7
ATOM      7  C   UNL     1       5.746 143.574  -7.719  1.00  0.00    -0.028 C 
ATOM      8  C   UNL     1       5.766 145.991  -7.056  1.00  0.00     0.039 C 
ATOM      9  C   UNL     1       5.998 144.523  -6.791  1.00  0.00    -0.080 C 
ATOM     10  C   UNL     1       6.531 144.087  -5.450  1.00  0.00     0.039 C 
ENDBRANCH   6   7
ENDBRANCH   5   6
ENDBRANCH   3   5
ENDBRANCH   1   2
BRANCH   1  11
ATOM     11  C   UNL     1       1.833 145.910  -7.036  1.00  0.00     0.034 C 
BRANCH  11  12
ATOM     12  C   UNL     1       1.800 147.121  -6.125  1.00  0.00    -0.077 C 
ATOM     13  C   UNL     1       0.702 147.490  -5.426  1.00  0.00    -0.028 C 
ATOM     14  C   UNL     1       3.054 147.941  -5.967  1.00  0.00     0.039 C 
BRANCH  13  15
ATOM     15  C   UNL     1      -0.652 146.822  -5.502  1.00  0.00     0.035 C 
BRANCH  15  16
ATOM     16  C   UNL     1      -1.188 146.500  -4.103  1.00  0.00     0.079 C 
BRANCH  16  17
ATOM     17  C   UNL     1      -1.076 147.685  -3.180  1.00  0.00     0.130 C 
ATOM     18  O   UNL     1      -0.452 147.578  -2.136  1.00  0.00    -0.300 OA
ATOM     19  C   UNL     1      -1.723 148.996  -3.516  1.00  0.00     0.087 C 
ENDBRANCH  16  17
ENDBRANCH  15  16
ENDBRANCH  13  15
ENDBRANCH  11  12
ENDBRANCH   1  11
TORSDOF 9
ENDMDL
MODEL 6
REMARK VINA RESULT:    -2.288      1.649      3.172
REMARK INTER + INTRA:          -5.011
REMARK INTER:                  -3.909
REMARK INTRA:                  -1.102
REMARK UNBOUND:                -1.519
REMARK SMILES CC(=O)CCC=C(C)CCC=C(C)CCC=C(C)C
REMARK SMILES IDX 10 1 11 2 12 3 13 4 14 5 15 6 16 7 18 8 17 9 19 10 9 11 7 12
REMARK SMILES IDX 6 13 8 14 5 15 4 16 2 17 3 18 1 19
REMARK H PARENT
REMARK Flexibility Score: inf
ROOT
ATOM      1  C   UNL     1       4.024 147.074  -8.355  1.00  0.00     0.032 C 
ENDROOT
BRANCH   1   2
ATOM      2  C   UNL     1       4.029 146.944  -6.850  1.00  0.00    -0.028 C 
ATOM      3  C   UNL     1       3.096 146.299  -6.110  1.00  0.00    -0.077 C 
ATOM      4  C   UNL     1       3.268 146.280  -4.612  1.00  0.00     0.039 C 
BRANCH   3   5
ATOM      5  C   UNL     1       1.892 145.600  -6.715  1.00  0.00     0.034 C 
BRANCH   5   6
ATOM      6  C   UNL     1       0.689 146.543  -6.851  1.00  0.00     0.032 C 
BRANCH   6   7
ATOM      7  C   UNL     1      -0.129 146.566  -5.579  1.00  0.00    -0.028 C 
ATOM      8  C   UNL     1       0.303 148.991  -5.118  1.00  0.00     0.039 C 
ATOM      9  C   UNL     1      -0.293 147.645  -4.783  1.00  0.00    -0.080 C 
ATOM     10  C   UNL     1      -1.100 147.486  -3.520  1.00  0.00     0.039 C 
ENDBRANCH   6   7
ENDBRANCH   5   6
ENDBRANCH   3   5
ENDBRANCH   1   2
BRANCH   1  11
ATOM     11  C   UNL     1       4.372 145.730  -9.003  1.00  0.00     0.034 C 
BRANCH  11  12
ATOM     12  C   UNL     1       5.863 145.467  -8.933  1.00  0.00    -0.077 C 
ATOM     13  C   UNL     1       6.388 144.236  -8.732  1.00  0.00    -0.028 C 
ATOM     14  C   UNL     1       6.810 146.623  -9.125  1.00  0.00     0.039 C 
BRANCH  13  15
ATOM     15  C   UNL     1       5.595 142.977  -8.468  1.00  0.00     0.035 C 
BRANCH  15  16
ATOM     16  C   UNL     1       4.558 143.199  -7.362  1.00  0.00     0.079 C 
BRANCH  16  17
ATOM     17  C   UNL     1       3.214 142.635  -7.741  1.00  0.00     0.130 C 
ATOM     18  O   UNL     1       2.588 141.973  -6.928  1.00  0.00    -0.300 OA
ATOM     19  C   UNL     1       2.629 142.866  -9.103  1.00  0.00     0.087 C 
ENDBRANCH  16  17
ENDBRANCH  15  16
ENDBRANCH  13  15
ENDBRANCH  11  12
ENDBRANCH   1  11
TORSDOF 9
ENDMDL
MODEL 7
REMARK VINA RESULT:    -2.245      2.270      6.792
REMARK INTER + INTRA:          -4.944
REMARK INTER:                  -4.147
REMARK INTRA:                  -0.798
REMARK UNBOUND:                -1.519
REMARK SMILES CC(=O)CCC=C(C)CCC=C(C)CCC=C(C)C
REMARK SMILES IDX 10 1 11 2 12 3 13 4 14 5 15 6 16 7 18 8 17 9 19 10 9 11 7 12
REMARK SMILES IDX 6 13 8 14 5 15 4 16 2 17 3 18 1 19
REMARK H PARENT
REMARK Flexibility Score: inf
ROOT
ATOM      1  C   UNL     1       3.565 146.572  -5.899  1.00  0.00     0.032 C 
ENDROOT
BRANCH   1   2
ATOM      2  C   UNL     1       4.692 146.871  -6.860  1.00  0.00    -0.028 C 
ATOM      3  C   UNL     1       4.633 146.752  -8.207  1.00  0.00    -0.077 C 
ATOM      4  C   UNL     1       5.866 147.093  -9.004  1.00  0.00     0.039 C 
BRANCH   3   5
ATOM      5  C   UNL     1       3.390 146.292  -8.948  1.00  0.00     0.034 C 
BRANCH   5   6
ATOM      6  C   UNL     1       3.359 144.767  -9.125  1.00  0.00     0.032 C 
BRANCH   6   7
ATOM      7  C   UNL     1       4.579 144.124  -8.506  1.00  0.00    -0.028 C 
ATOM      8  C   UNL     1       3.262 142.737  -6.886  1.00  0.00     0.039 C 
ATOM      9  C   UNL     1       4.553 143.232  -7.491  1.00  0.00    -0.080 C 
ATOM     10  C   UNL     1       5.866 142.723  -6.953  1.00  0.00     0.039 C 
ENDBRANCH   6   7
ENDBRANCH   5   6
ENDBRANCH   3   5
ENDBRANCH   1   2
BRANCH   1  11
ATOM     11  C   UNL     1       2.489 147.659  -5.990  1.00  0.00     0.034 C 
BRANCH  11  12
ATOM     12  C   UNL     1       1.108 147.043  -6.092  1.00  0.00    -0.077 C 
ATOM     13  C   UNL     1       0.001 147.618  -5.568  1.00  0.00    -0.028 C 
ATOM     14  C   UNL     1       0.950 145.741  -6.835  1.00  0.00     0.039 C 
BRANCH  13  15
ATOM     15  C   UNL     1      -0.023 148.888  -4.750  1.00  0.00     0.035 C 
BRANCH  15  16
ATOM     16  C   UNL     1      -1.149 148.855  -3.712  1.00  0.00     0.079 C 
BRANCH  16  17
ATOM     17  C   UNL     1      -1.055 147.637  -2.831  1.00  0.00     0.130 C 
ATOM     18  O   UNL     1      -0.347 147.666  -1.837  1.00  0.00    -0.300 OA
ATOM     19  C   UNL     1      -1.811 146.382  -3.155  1.00  0.00     0.087 C 
ENDBRANCH  16  17
ENDBRANCH  15  16
ENDBRANCH  13  15
ENDBRANCH  11  12
ENDBRANCH   1  11
TORSDOF 9
ENDMDL
MODEL 8
REMARK VINA RESULT:    -2.230      1.378      2.013
REMARK INTER + INTRA:          -4.922
REMARK INTER:                  -4.312
REMARK INTRA:                  -0.610
REMARK UNBOUND:                -1.519
REMARK SMILES CC(=O)CCC=C(C)CCC=C(C)CCC=C(C)C
REMARK SMILES IDX 10 1 11 2 12 3 13 4 14 5 15 6 16 7 18 8 17 9 19 10 9 11 7 12
REMARK SMILES IDX 6 13 8 14 5 15 4 16 2 17 3 18 1 19
REMARK H PARENT
REMARK Flexibility Score: inf
ROOT
ATOM      1  C   UNL     1       2.712 145.496  -8.113  1.00  0.00     0.032 C 
ENDROOT
BRANCH   1   2
ATOM      2  C   UNL     1       1.269 145.423  -7.674  1.00  0.00    -0.028 C 
ATOM      3  C   UNL     1       0.669 146.254  -6.788  1.00  0.00    -0.077 C 
ATOM      4  C   UNL     1      -0.786 146.021  -6.470  1.00  0.00     0.039 C 
BRANCH   3   5
ATOM      5  C   UNL     1       1.392 147.401  -6.104  1.00  0.00     0.034 C 
BRANCH   5   6
ATOM      6  C   UNL     1       0.431 148.280  -5.290  1.00  0.00     0.032 C 
BRANCH   6   7
ATOM      7  C   UNL     1       0.240 147.728  -3.895  1.00  0.00    -0.028 C 
ATOM      8  C   UNL     1      -1.926 148.928  -3.510  1.00  0.00     0.039 C 
ATOM      9  C   UNL     1      -0.795 148.025  -3.080  1.00  0.00    -0.080 C 
ATOM     10  C   UNL     1      -0.809 147.429  -1.695  1.00  0.00     0.039 C 
ENDBRANCH   6   7
ENDBRANCH   5   6
ENDBRANCH   3   5
ENDBRANCH   1   2
BRANCH   1  11
ATOM     11  C   UNL     1       3.021 144.370  -9.104  1.00  0.00     0.034 C 
BRANCH  11  12
ATOM     12  C   UNL     1       3.454 143.113  -8.376  1.00  0.00    -0.077 C 
ATOM     13  C   UNL     1       4.694 142.948  -7.859  1.00  0.00    -0.028 C 
ATOM     14  C   UNL     1       2.452 142.003  -8.191  1.00  0.00     0.039 C 
BRANCH  13  15
ATOM     15  C   UNL     1       5.838 143.926  -7.994  1.00  0.00     0.035 C 
BRANCH  15  16
ATOM     16  C   UNL     1       5.955 144.813  -6.750  1.00  0.00     0.079 C 
BRANCH  16  17
ATOM     17  C   UNL     1       5.644 146.253  -7.064  1.00  0.00     0.130 C 
ATOM     18  O   UNL     1       5.274 146.998  -6.170  1.00  0.00    -0.300 OA
ATOM     19  C   UNL     1       5.773 146.790  -8.459  1.00  0.00     0.087 C 
ENDBRANCH  16  17
ENDBRANCH  15  16
ENDBRANCH  13  15
ENDBRANCH  11  12
ENDBRANCH   1  11
TORSDOF 9
ENDMDL
MODEL 9
REMARK VINA RESULT:    -1.478      1.578      4.371
REMARK INTER + INTRA:          -3.774
REMARK INTER:                  -3.682
REMARK INTRA:                  -0.092
REMARK UNBOUND:                -1.519
REMARK SMILES CC(=O)CCC=C(C)CCC=C(C)CCC=C(C)C
REMARK SMILES IDX 10 1 11 2 12 3 13 4 14 5 15 6 16 7 18 8 17 9 19 10 9 11 7 12
REMARK SMILES IDX 6 13 8 14 5 15 4 16 2 17 3 18 1 19
REMARK H PARENT
REMARK Flexibility Score: inf
ROOT
ATOM      1  C   UNL     1       2.120 145.210  -7.944  1.00  0.00     0.032 C 
ENDROOT
BRANCH   1   2
ATOM      2  C   UNL     1       1.258 146.104  -7.083  1.00  0.00    -0.028 C 
ATOM      3  C   UNL     1       1.681 146.813  -6.010  1.00  0.00    -0.077 C 
ATOM      4  C   UNL     1       0.669 147.648  -5.268  1.00  0.00     0.039 C 
BRANCH   3   5
ATOM      5  C   UNL     1       3.118 146.804  -5.521  1.00  0.00     0.034 C 
BRANCH   5   6
ATOM      6  C   UNL     1       3.965 147.883  -6.209  1.00  0.00     0.032 C 
BRANCH   6   7
ATOM      7  C   UNL     1       5.190 147.280  -6.858  1.00  0.00    -0.028 C 
ATOM      8  C   UNL     1       4.136 147.099  -9.125  1.00  0.00     0.039 C 
ATOM      9  C   UNL     1       5.276 146.905  -8.154  1.00  0.00    -0.080 C 
ATOM     10  C   UNL     1       6.556 146.270  -8.632  1.00  0.00     0.039 C 
ENDBRANCH   6   7
ENDBRANCH   5   6
ENDBRANCH   3   5
ENDBRANCH   1   2
BRANCH   1  11
ATOM     11  C   UNL     1       2.341 143.861  -7.252  1.00  0.00     0.034 C 
BRANCH  11  12
ATOM     12  C   UNL     1       2.808 142.816  -8.246  1.00  0.00    -0.077 C 
ATOM     13  C   UNL     1       4.102 142.669  -8.611  1.00  0.00    -0.028 C 
ATOM     14  C   UNL     1       1.790 141.875  -8.837  1.00  0.00     0.039 C 
BRANCH  13  15
ATOM     15  C   UNL     1       5.245 143.551  -8.164  1.00  0.00     0.035 C 
BRANCH  15  16
ATOM     16  C   UNL     1       5.971 142.945  -6.958  1.00  0.00     0.079 C 
BRANCH  16  17
ATOM     17  C   UNL     1       6.047 143.918  -5.811  1.00  0.00     0.130 C 
ATOM     18  O   UNL     1       5.176 144.762  -5.678  1.00  0.00    -0.300 OA
ATOM     19  C   UNL     1       7.181 143.875  -4.829  1.00  0.00     0.087 C 
ENDBRANCH  16  17
ENDBRANCH  15  16
ENDBRANCH  13  15
ENDBRANCH  11  12
ENDBRANCH   1  11
TORSDOF 9
ENDMDL
