MODEL 1
REMARK VINA RESULT:    -4.705      0.000      0.000
REMARK INTER + INTRA:          -5.565
REMARK INTER:                  -5.668
REMARK INTRA:                   0.103
REMARK UNBOUND:                 0.103
REMARK SMILES O=c1c(O)c(-c2ccc(O)c(O)c2)oc2cc(O)cc(O)c12
REMARK SMILES IDX 5 1 3 2 2 3 1 4 22 5 20 6 19 7 17 8 16 9 15 10 14 11 6 12
REMARK SMILES IDX 7 13 8 14 9 15 13 16 11 17 10 18 12 20 4 22 21 24 18 26
REMARK H PARENT 10 19 12 21 4 23 21 25 18 27
REMARK Flexibility Score: inf
ROOT
ATOM      1  C   UNL     1      21.935 -46.499   6.100  1.00  0.00     0.180 A 
ATOM      2  C   UNL     1      22.726 -45.562   6.788  1.00  0.00     0.208 A 
ATOM      3  C   UNL     1      22.096 -44.597   7.590  1.00  0.00     0.238 A 
ATOM      4  O   UNL     1      22.812 -43.795   8.247  1.00  0.00    -0.285 OA
ATOM      5  C   UNL     1      20.684 -44.570   7.682  1.00  0.00     0.111 A 
ATOM      6  C   UNL     1      19.938 -43.611   8.434  1.00  0.00     0.134 A 
ATOM      7  C   UNL     1      18.552 -43.760   8.558  1.00  0.00     0.093 A 
ATOM      8  C   UNL     1      17.875 -44.790   7.907  1.00  0.00     0.123 A 
ATOM      9  C   UNL     1      18.587 -45.698   7.121  1.00  0.00     0.094 A 
ATOM     10  C   UNL     1      19.976 -45.598   7.006  1.00  0.00     0.146 A 
ATOM     11  O   UNL     1      20.616 -46.489   6.259  1.00  0.00    -0.452 OA
ENDROOT
BRANCH   1  12
ATOM     12  C   UNL     1      22.524 -47.530   5.216  1.00  0.00     0.025 A 
ATOM     13  C   UNL     1      23.597 -47.232   4.357  1.00  0.00     0.016 A 
ATOM     14  C   UNL     1      24.121 -48.214   3.515  1.00  0.00     0.051 A 
ATOM     15  C   UNL     1      23.577 -49.503   3.505  1.00  0.00     0.157 A 
ATOM     16  C   UNL     1      21.967 -48.819   5.190  1.00  0.00     0.062 A 
ATOM     17  C   UNL     1      22.493 -49.807   4.345  1.00  0.00     0.158 A 
BRANCH  15  18
ATOM     18  O   UNL     1      24.124 -50.463   2.655  1.00  0.00    -0.504 OA
ATOM     19  H   UNL     1      24.971 -50.966   2.887  1.00  0.00     0.293 HD
ENDBRANCH  15  18
BRANCH  17  20
ATOM     20  O   UNL     1      21.940 -51.087   4.336  1.00  0.00    -0.504 OA
ATOM     21  H   UNL     1      22.516 -51.915   4.433  1.00  0.00     0.293 HD
ENDBRANCH  17  20
ENDBRANCH   1  12
BRANCH   2  22
ATOM     22  O   UNL     1      24.120 -45.620   6.701  1.00  0.00    -0.502 OA
ATOM     23  H   UNL     1      24.669 -44.891   6.263  1.00  0.00     0.293 HD
ENDBRANCH   2  22
BRANCH   6  24
ATOM     24  O   UNL     1      20.504 -42.490   9.047  1.00  0.00    -0.507 OA
ATOM     25  H   UNL     1      21.277 -41.960   8.675  1.00  0.00     0.293 HD
ENDBRANCH   6  24
BRANCH   8  26
ATOM     26  O   UNL     1      16.493 -44.898   8.040  1.00  0.00    -0.508 OA
ATOM     27  H   UNL     1      16.038 -45.799   8.135  1.00  0.00     0.293 HD
ENDBRANCH   8  26
TORSDOF 6
ENDMDL
MODEL 2
REMARK VINA RESULT:    -4.130      2.471      6.154
REMARK INTER + INTRA:          -4.872
REMARK INTER:                  -5.067
REMARK INTRA:                   0.195
REMARK UNBOUND:                 0.103
REMARK SMILES O=c1c(O)c(-c2ccc(O)c(O)c2)oc2cc(O)cc(O)c12
REMARK SMILES IDX 5 1 3 2 2 3 1 4 22 5 20 6 19 7 17 8 16 9 15 10 14 11 6 12
REMARK SMILES IDX 7 13 8 14 9 15 13 16 11 17 10 18 12 20 4 22 21 24 18 26
REMARK H PARENT 10 19 12 21 4 23 21 25 18 27
REMARK Flexibility Score: inf
ROOT
ATOM      1  C   UNL     1      21.954 -46.175   7.493  1.00  0.00     0.180 A 
ATOM      2  C   UNL     1      22.643 -46.919   6.520  1.00  0.00     0.208 A 
ATOM      3  C   UNL     1      22.193 -48.211   6.205  1.00  0.00     0.238 A 
ATOM      4  O   UNL     1      22.780 -48.852   5.294  1.00  0.00    -0.285 OA
ATOM      5  C   UNL     1      21.071 -48.750   6.880  1.00  0.00     0.111 A 
ATOM      6  C   UNL     1      20.553 -50.064   6.671  1.00  0.00     0.134 A 
ATOM      7  C   UNL     1      19.360 -50.444   7.299  1.00  0.00     0.093 A 
ATOM      8  C   UNL     1      18.703 -49.584   8.178  1.00  0.00     0.123 A 
ATOM      9  C   UNL     1      19.233 -48.319   8.436  1.00  0.00     0.094 A 
ATOM     10  C   UNL     1      20.402 -47.897   7.797  1.00  0.00     0.146 A 
ATOM     11  O   UNL     1      20.867 -46.682   8.061  1.00  0.00    -0.452 OA
ENDROOT
BRANCH   1  12
ATOM     12  C   UNL     1      22.383 -44.816   7.896  1.00  0.00     0.025 A 
ATOM     13  C   UNL     1      23.742 -44.455   7.923  1.00  0.00     0.016 A 
ATOM     14  C   UNL     1      24.125 -43.175   8.329  1.00  0.00     0.051 A 
ATOM     15  C   UNL     1      23.163 -42.241   8.727  1.00  0.00     0.157 A 
ATOM     16  C   UNL     1      21.421 -43.883   8.315  1.00  0.00     0.062 A 
ATOM     17  C   UNL     1      21.804 -42.597   8.723  1.00  0.00     0.158 A 
BRANCH  15  18
ATOM     18  O   UNL     1      23.576 -40.971   9.125  1.00  0.00    -0.504 OA
ATOM     19  H   UNL     1      24.305 -40.835   9.815  1.00  0.00     0.293 HD
ENDBRANCH  15  18
BRANCH  17  20
ATOM     20  O   UNL     1      20.839 -41.674   9.125  1.00  0.00    -0.504 OA
ATOM     21  H   UNL     1      19.885 -41.953   9.317  1.00  0.00     0.293 HD
ENDBRANCH  17  20
ENDBRANCH   1  12
BRANCH   2  22
ATOM     22  O   UNL     1      23.734 -46.360   5.849  1.00  0.00    -0.502 OA
ATOM     23  H   UNL     1      24.490 -46.921   5.478  1.00  0.00     0.293 HD
ENDBRANCH   2  22
BRANCH   6  24
ATOM     24  O   UNL     1      21.181 -51.034   5.885  1.00  0.00    -0.507 OA
ATOM     25  H   UNL     1      20.710 -51.804   5.435  1.00  0.00     0.293 HD
ENDBRANCH   6  24
BRANCH   8  26
ATOM     26  O   UNL     1      17.527 -50.001   8.797  1.00  0.00    -0.508 OA
ATOM     27  H   UNL     1      17.523 -50.345   9.751  1.00  0.00     0.293 HD
ENDBRANCH   8  26
TORSDOF 6
ENDMDL
MODEL 3
REMARK VINA RESULT:    -2.693      2.154      6.816
REMARK INTER + INTRA:          -3.142
REMARK INTER:                  -3.471
REMARK INTRA:                   0.329
REMARK UNBOUND:                 0.103
REMARK SMILES O=c1c(O)c(-c2ccc(O)c(O)c2)oc2cc(O)cc(O)c12
REMARK SMILES IDX 5 1 3 2 2 3 1 4 22 5 20 6 19 7 17 8 16 9 15 10 14 11 6 12
REMARK SMILES IDX 7 13 8 14 9 15 13 16 11 17 10 18 12 20 4 22 21 24 18 26
REMARK H PARENT 10 19 12 21 4 23 21 25 18 27
REMARK Flexibility Score: inf
ROOT
ATOM      1  C   UNL     1      21.841 -45.966   7.714  1.00  0.00     0.180 A 
ATOM      2  C   UNL     1      20.640 -46.495   8.217  1.00  0.00     0.208 A 
ATOM      3  C   UNL     1      20.247 -47.785   7.828  1.00  0.00     0.238 A 
ATOM      4  O   UNL     1      19.199 -48.275   8.324  1.00  0.00    -0.285 OA
ATOM      5  C   UNL     1      21.051 -48.524   6.927  1.00  0.00     0.111 A 
ATOM      6  C   UNL     1      20.730 -49.825   6.432  1.00  0.00     0.134 A 
ATOM      7  C   UNL     1      21.663 -50.514   5.648  1.00  0.00     0.093 A 
ATOM      8  C   UNL     1      22.874 -49.928   5.285  1.00  0.00     0.123 A 
ATOM      9  C   UNL     1      23.173 -48.633   5.713  1.00  0.00     0.094 A 
ATOM     10  C   UNL     1      22.279 -47.933   6.527  1.00  0.00     0.146 A 
ATOM     11  O   UNL     1      22.606 -46.708   6.922  1.00  0.00    -0.452 OA
ENDROOT
BRANCH   1  12
ATOM     12  C   UNL     1      22.308 -44.604   8.059  1.00  0.00     0.025 A 
ATOM     13  C   UNL     1      23.678 -44.296   8.130  1.00  0.00     0.016 A 
ATOM     14  C   UNL     1      24.097 -43.011   8.481  1.00  0.00     0.051 A 
ATOM     15  C   UNL     1      23.158 -42.018   8.780  1.00  0.00     0.157 A 
ATOM     16  C   UNL     1      21.369 -43.611   8.379  1.00  0.00     0.062 A 
ATOM     17  C   UNL     1      21.787 -42.319   8.731  1.00  0.00     0.158 A 
BRANCH  15  18
ATOM     18  O   UNL     1      23.607 -40.744   9.125  1.00  0.00    -0.504 OA
ATOM     19  H   UNL     1      23.750 -40.468  10.089  1.00  0.00     0.293 HD
ENDBRANCH  15  18
BRANCH  17  20
ATOM     20  O   UNL     1      20.845 -41.336   9.035  1.00  0.00    -0.504 OA
ATOM     21  H   UNL     1      20.944 -40.385   8.702  1.00  0.00     0.293 HD
ENDBRANCH  17  20
ENDBRANCH   1  12
BRANCH   2  22
ATOM     22  O   UNL     1      19.872 -45.758   9.123  1.00  0.00    -0.502 OA
ATOM     23  H   UNL     1      20.149 -45.623  10.088  1.00  0.00     0.293 HD
ENDBRANCH   2  22
BRANCH   6  24
ATOM     24  O   UNL     1      19.508 -50.465   6.658  1.00  0.00    -0.507 OA
ATOM     25  H   UNL     1      19.013 -51.015   5.974  1.00  0.00     0.293 HD
ENDBRANCH   6  24
BRANCH   8  26
ATOM     26  O   UNL     1      23.771 -50.637   4.491  1.00  0.00    -0.508 OA
ATOM     27  H   UNL     1      24.571 -50.186   4.060  1.00  0.00     0.293 HD
ENDBRANCH   8  26
TORSDOF 6
ENDMDL
