MODEL 1
REMARK VINA RESULT:    -3.991      0.000      0.000
REMARK INTER + INTRA:          -5.644
REMARK INTER:                  -5.390
REMARK INTRA:                  -0.253
REMARK UNBOUND:                -0.253
REMARK SMILES CCCCCCCC(=O)[O-]
REMARK SMILES IDX 5 1 6 2 7 3 8 4 9 5 10 6 4 7 3 8 2 9 1 10
REMARK H PARENT
REMARK Flexibility Score: inf
ROOT
ATOM      1  C   UNL     1      72.855 -37.045  10.448  1.00  0.00     0.000 C 
ENDROOT
BRANCH   1   2
ATOM      2  C   UNL     1      74.331 -37.353  10.154  1.00  0.00     0.006 C 
BRANCH   2   3
ATOM      3  C   UNL     1      75.084 -37.839  11.400  1.00  0.00     0.053 C 
BRANCH   3   4
ATOM      4  C   UNL     1      76.417 -37.172  11.539  1.00  0.00     0.041 C 
ATOM      5  O   UNL     1      76.540 -35.945  11.284  1.00  0.00    -0.550 OA
ATOM      6  O   UNL     1      77.531 -37.910  11.918  1.00  0.00    -0.550 OA
ENDBRANCH   3   4
ENDBRANCH   2   3
ENDBRANCH   1   2
BRANCH   1   7
ATOM      7  C   UNL     1      72.363 -37.835  11.669  1.00  0.00     0.000 C 
BRANCH   7   8
ATOM      8  C   UNL     1      70.912 -38.319  11.517  1.00  0.00    -0.000 C 
BRANCH   8   9
ATOM      9  C   UNL     1      70.819 -39.816  11.189  1.00  0.00    -0.003 C 
ATOM     10  C   UNL     1      69.609 -40.111  10.306  1.00  0.00     0.004 C 
ENDBRANCH   8   9
ENDBRANCH   7   8
ENDBRANCH   1   7
TORSDOF 6
ENDMDL
MODEL 2
REMARK VINA RESULT:    -3.815     13.553     14.990
REMARK INTER + INTRA:          -5.406
REMARK INTER:                  -5.039
REMARK INTRA:                  -0.367
REMARK UNBOUND:                -0.253
REMARK SMILES CCCCCCCC(=O)[O-]
REMARK SMILES IDX 5 1 6 2 7 3 8 4 9 5 10 6 4 7 3 8 2 9 1 10
REMARK H PARENT
REMARK Flexibility Score: inf
ROOT
ATOM      1  C   UNL     1      62.917 -29.060  15.520  1.00  0.00     0.000 C 
ENDROOT
BRANCH   1   2
ATOM      2  C   UNL     1      62.347 -30.418  15.085  1.00  0.00     0.006 C 
BRANCH   2   3
ATOM      3  C   UNL     1      62.712 -30.766  13.635  1.00  0.00     0.053 C 
BRANCH   3   4
ATOM      4  C   UNL     1      62.510 -32.221  13.345  1.00  0.00     0.041 C 
ATOM      5  O   UNL     1      62.635 -33.073  14.264  1.00  0.00    -0.550 OA
ATOM      6  O   UNL     1      62.215 -32.640  12.054  1.00  0.00    -0.550 OA
ENDBRANCH   3   4
ENDBRANCH   2   3
ENDBRANCH   1   2
BRANCH   1   7
ATOM      7  C   UNL     1      61.791 -28.093  15.912  1.00  0.00     0.000 C 
BRANCH   7   8
ATOM      8  C   UNL     1      61.729 -26.856  15.002  1.00  0.00    -0.000 C 
BRANCH   8   9
ATOM      9  C   UNL     1      62.926 -26.764  14.045  1.00  0.00    -0.003 C 
ATOM     10  C   UNL     1      62.489 -26.290  12.662  1.00  0.00     0.004 C 
ENDBRANCH   8   9
ENDBRANCH   7   8
ENDBRANCH   1   7
TORSDOF 6
ENDMDL
MODEL 3
REMARK VINA RESULT:    -3.744     13.100     14.547
REMARK INTER + INTRA:          -5.310
REMARK INTER:                  -4.975
REMARK INTRA:                  -0.335
REMARK UNBOUND:                -0.253
REMARK SMILES CCCCCCCC(=O)[O-]
REMARK SMILES IDX 5 1 6 2 7 3 8 4 9 5 10 6 4 7 3 8 2 9 1 10
REMARK H PARENT
REMARK Flexibility Score: inf
ROOT
ATOM      1  C   UNL     1      63.109 -29.856  13.601  1.00  0.00     0.000 C 
ENDROOT
BRANCH   1   2
ATOM      2  C   UNL     1      62.353 -31.192  13.655  1.00  0.00     0.006 C 
BRANCH   2   3
ATOM      3  C   UNL     1      62.248 -31.745  15.083  1.00  0.00     0.053 C 
BRANCH   3   4
ATOM      4  C   UNL     1      62.436 -33.230  15.119  1.00  0.00     0.041 C 
ATOM      5  O   UNL     1      63.061 -33.811  14.193  1.00  0.00    -0.550 OA
ATOM      6  O   UNL     1      61.893 -33.976  16.157  1.00  0.00    -0.550 OA
ENDBRANCH   3   4
ENDBRANCH   2   3
ENDBRANCH   1   2
BRANCH   1   7
ATOM      7  C   UNL     1      63.098 -29.165  14.972  1.00  0.00     0.000 C 
BRANCH   7   8
ATOM      8  C   UNL     1      62.598 -27.713  14.900  1.00  0.00    -0.000 C 
BRANCH   8   9
ATOM      9  C   UNL     1      61.955 -27.375  13.547  1.00  0.00    -0.003 C 
ATOM     10  C   UNL     1      62.631 -26.167  12.904  1.00  0.00     0.004 C 
ENDBRANCH   8   9
ENDBRANCH   7   8
ENDBRANCH   1   7
TORSDOF 6
ENDMDL
MODEL 4
REMARK VINA RESULT:    -3.628     10.848     11.787
REMARK INTER + INTRA:          -5.154
REMARK INTER:                  -4.701
REMARK INTRA:                  -0.454
REMARK UNBOUND:                -0.253
REMARK SMILES CCCCCCCC(=O)[O-]
REMARK SMILES IDX 5 1 6 2 7 3 8 4 9 5 10 6 4 7 3 8 2 9 1 10
REMARK H PARENT
REMARK Flexibility Score: inf
ROOT
ATOM      1  C   UNL     1      74.140 -32.693  21.560  1.00  0.00     0.000 C 
ENDROOT
BRANCH   1   2
ATOM      2  C   UNL     1      72.617 -32.676  21.756  1.00  0.00     0.006 C 
BRANCH   2   3
ATOM      3  C   UNL     1      71.857 -32.702  20.423  1.00  0.00     0.053 C 
BRANCH   3   4
ATOM      4  C   UNL     1      72.114 -31.469  19.613  1.00  0.00     0.041 C 
ATOM      5  O   UNL     1      72.755 -31.543  18.532  1.00  0.00    -0.550 OA
ATOM      6  O   UNL     1      71.674 -30.232  20.068  1.00  0.00    -0.550 OA
ENDBRANCH   3   4
ENDBRANCH   2   3
ENDBRANCH   1   2
BRANCH   1   7
ATOM      7  C   UNL     1      74.822 -33.551  22.635  1.00  0.00     0.000 C 
BRANCH   7   8
ATOM      8  C   UNL     1      75.018 -35.010  22.192  1.00  0.00    -0.000 C 
BRANCH   8   9
ATOM      9  C   UNL     1      74.016 -35.968  22.852  1.00  0.00    -0.003 C 
ATOM     10  C   UNL     1      72.971 -36.448  21.849  1.00  0.00     0.004 C 
ENDBRANCH   8   9
ENDBRANCH   7   8
ENDBRANCH   1   7
TORSDOF 6
ENDMDL
MODEL 5
REMARK VINA RESULT:    -3.597      5.099      6.684
REMARK INTER + INTRA:          -5.112
REMARK INTER:                  -4.675
REMARK INTRA:                  -0.437
REMARK UNBOUND:                -0.253
REMARK SMILES CCCCCCCC(=O)[O-]
REMARK SMILES IDX 5 1 6 2 7 3 8 4 9 5 10 6 4 7 3 8 2 9 1 10
REMARK H PARENT
REMARK Flexibility Score: inf
ROOT
ATOM      1  C   UNL     1      69.254 -34.443   7.372  1.00  0.00     0.000 C 
ENDROOT
BRANCH   1   2
ATOM      2  C   UNL     1      70.128 -35.677   7.099  1.00  0.00     0.006 C 
BRANCH   2   3
ATOM      3  C   UNL     1      70.141 -36.655   8.282  1.00  0.00     0.053 C 
BRANCH   3   4
ATOM      4  C   UNL     1      71.474 -36.684   8.963  1.00  0.00     0.041 C 
ATOM      5  O   UNL     1      71.588 -37.198  10.108  1.00  0.00    -0.550 OA
ATOM      6  O   UNL     1      72.583 -36.115   8.351  1.00  0.00    -0.550 OA
ENDBRANCH   3   4
ENDBRANCH   2   3
ENDBRANCH   1   2
BRANCH   1   7
ATOM      7  C   UNL     1      69.849 -33.192   6.711  1.00  0.00     0.000 C 
BRANCH   7   8
ATOM      8  C   UNL     1      71.368 -33.077   6.920  1.00  0.00    -0.000 C 
BRANCH   8   9
ATOM      9  C   UNL     1      72.143 -32.989   5.598  1.00  0.00    -0.003 C 
ATOM     10  C   UNL     1      73.191 -34.094   5.500  1.00  0.00     0.004 C 
ENDBRANCH   8   9
ENDBRANCH   7   8
ENDBRANCH   1   7
TORSDOF 6
ENDMDL
MODEL 6
REMARK VINA RESULT:    -3.581      1.833      2.623
REMARK INTER + INTRA:          -5.090
REMARK INTER:                  -4.768
REMARK INTRA:                  -0.323
REMARK UNBOUND:                -0.253
REMARK SMILES CCCCCCCC(=O)[O-]
REMARK SMILES IDX 5 1 6 2 7 3 8 4 9 5 10 6 4 7 3 8 2 9 1 10
REMARK H PARENT
REMARK Flexibility Score: inf
ROOT
ATOM      1  C   UNL     1      71.771 -38.453  11.662  1.00  0.00     0.000 C 
ENDROOT
BRANCH   1   2
ATOM      2  C   UNL     1      72.830 -37.393  11.322  1.00  0.00     0.006 C 
BRANCH   2   3
ATOM      3  C   UNL     1      74.258 -37.893  11.581  1.00  0.00     0.053 C 
BRANCH   3   4
ATOM      4  C   UNL     1      75.260 -37.177  10.730  1.00  0.00     0.041 C 
ATOM      5  O   UNL     1      76.320 -36.729  11.241  1.00  0.00    -0.550 OA
ATOM      6  O   UNL     1      75.009 -36.974   9.379  1.00  0.00    -0.550 OA
ENDBRANCH   3   4
ENDBRANCH   2   3
ENDBRANCH   1   2
BRANCH   1   7
ATOM      7  C   UNL     1      70.396 -38.050  11.111  1.00  0.00     0.000 C 
BRANCH   7   8
ATOM      8  C   UNL     1      70.277 -38.274   9.595  1.00  0.00    -0.000 C 
BRANCH   8   9
ATOM      9  C   UNL     1      69.945 -36.984   8.831  1.00  0.00    -0.003 C 
ATOM     10  C   UNL     1      71.185 -36.414   8.149  1.00  0.00     0.004 C 
ENDBRANCH   8   9
ENDBRANCH   7   8
ENDBRANCH   1   7
TORSDOF 6
ENDMDL
MODEL 7
REMARK VINA RESULT:    -3.560      4.052      5.274
REMARK INTER + INTRA:          -5.062
REMARK INTER:                  -4.642
REMARK INTRA:                  -0.419
REMARK UNBOUND:                -0.253
REMARK SMILES CCCCCCCC(=O)[O-]
REMARK SMILES IDX 5 1 6 2 7 3 8 4 9 5 10 6 4 7 3 8 2 9 1 10
REMARK H PARENT
REMARK Flexibility Score: inf
ROOT
ATOM      1  C   UNL     1      70.747 -36.578   8.341  1.00  0.00     0.000 C 
ENDROOT
BRANCH   1   2
ATOM      2  C   UNL     1      72.169 -36.442   8.907  1.00  0.00     0.006 C 
BRANCH   2   3
ATOM      3  C   UNL     1      73.196 -36.092   7.821  1.00  0.00     0.053 C 
BRANCH   3   4
ATOM      4  C   UNL     1      74.552 -36.641   8.142  1.00  0.00     0.041 C 
ATOM      5  O   UNL     1      75.382 -36.855   7.219  1.00  0.00    -0.550 OA
ATOM      6  O   UNL     1      74.888 -36.947   9.454  1.00  0.00    -0.550 OA
ENDBRANCH   3   4
ENDBRANCH   2   3
ENDBRANCH   1   2
BRANCH   1   7
ATOM      7  C   UNL     1      70.591 -35.764   7.049  1.00  0.00     0.000 C 
BRANCH   7   8
ATOM      8  C   UNL     1      69.622 -34.581   7.208  1.00  0.00    -0.000 C 
BRANCH   8   9
ATOM      9  C   UNL     1      70.114 -33.313   6.495  1.00  0.00    -0.003 C 
ATOM     10  C   UNL     1      71.432 -32.824   7.090  1.00  0.00     0.004 C 
ENDBRANCH   8   9
ENDBRANCH   7   8
ENDBRANCH   1   7
TORSDOF 6
ENDMDL
MODEL 8
REMARK VINA RESULT:    -3.514      3.733      4.925
REMARK INTER + INTRA:          -5.000
REMARK INTER:                  -4.843
REMARK INTRA:                  -0.157
REMARK UNBOUND:                -0.253
REMARK SMILES CCCCCCCC(=O)[O-]
REMARK SMILES IDX 5 1 6 2 7 3 8 4 9 5 10 6 4 7 3 8 2 9 1 10
REMARK H PARENT
REMARK Flexibility Score: inf
ROOT
ATOM      1  C   UNL     1      73.502 -35.942   7.198  1.00  0.00     0.000 C 
ENDROOT
BRANCH   1   2
ATOM      2  C   UNL     1      73.575 -36.479   8.635  1.00  0.00     0.006 C 
BRANCH   2   3
ATOM      3  C   UNL     1      75.000 -36.892   9.032  1.00  0.00     0.053 C 
BRANCH   3   4
ATOM      4  C   UNL     1      75.116 -37.147  10.502  1.00  0.00     0.041 C 
ATOM      5  O   UNL     1      74.154 -37.659  11.133  1.00  0.00    -0.550 OA
ATOM      6  O   UNL     1      76.272 -36.789  11.183  1.00  0.00    -0.550 OA
ENDBRANCH   3   4
ENDBRANCH   2   3
ENDBRANCH   1   2
BRANCH   1   7
ATOM      7  C   UNL     1      72.187 -35.187   6.962  1.00  0.00     0.000 C 
BRANCH   7   8
ATOM      8  C   UNL     1      72.408 -33.774   6.396  1.00  0.00    -0.000 C 
BRANCH   8   9
ATOM      9  C   UNL     1      71.373 -32.763   6.908  1.00  0.00    -0.003 C 
ATOM     10  C   UNL     1      69.956 -33.318   6.787  1.00  0.00     0.004 C 
ENDBRANCH   8   9
ENDBRANCH   7   8
ENDBRANCH   1   7
TORSDOF 6
ENDMDL
MODEL 9
REMARK VINA RESULT:    -3.509      3.714      5.426
REMARK INTER + INTRA:          -4.993
REMARK INTER:                  -4.767
REMARK INTRA:                  -0.226
REMARK UNBOUND:                -0.253
REMARK SMILES CCCCCCCC(=O)[O-]
REMARK SMILES IDX 5 1 6 2 7 3 8 4 9 5 10 6 4 7 3 8 2 9 1 10
REMARK H PARENT
REMARK Flexibility Score: inf
ROOT
ATOM      1  C   UNL     1      72.055 -36.773   9.939  1.00  0.00     0.000 C 
ENDROOT
BRANCH   1   2
ATOM      2  C   UNL     1      72.728 -36.328   8.632  1.00  0.00     0.006 C 
BRANCH   2   3
ATOM      3  C   UNL     1      71.748 -35.629   7.680  1.00  0.00     0.053 C 
BRANCH   3   4
ATOM      4  C   UNL     1      72.361 -34.425   7.036  1.00  0.00     0.041 C 
ATOM      5  O   UNL     1      71.965 -33.270   7.346  1.00  0.00    -0.550 OA
ATOM      6  O   UNL     1      73.347 -34.577   6.070  1.00  0.00    -0.550 OA
ENDBRANCH   3   4
ENDBRANCH   2   3
ENDBRANCH   1   2
BRANCH   1   7
ATOM      7  C   UNL     1      73.041 -37.541  10.830  1.00  0.00     0.000 C 
BRANCH   7   8
ATOM      8  C   UNL     1      74.492 -37.444  10.328  1.00  0.00    -0.000 C 
BRANCH   8   9
ATOM      9  C   UNL     1      75.517 -37.492  11.469  1.00  0.00    -0.003 C 
ATOM     10  C   UNL     1      76.546 -36.373  11.331  1.00  0.00     0.004 C 
ENDBRANCH   8   9
ENDBRANCH   7   8
ENDBRANCH   1   7
TORSDOF 6
ENDMDL
