MODEL 1
REMARK VINA RESULT:    49.495      0.000      0.000
REMARK INTER + INTRA:          58.569
REMARK INTER:                  56.729
REMARK INTRA:                   1.839
REMARK UNBOUND:                 1.839
REMARK SMILES C=C(C)[C@@H]1CC[C@@]2(C(=O)[O-])CC[C@]3(C)[C@H](CC[C@@H]4[C@]5(C)CC[C@H](O)C(C)(C)[C@H]5CC[C@@]43C)[C@@H]12
REMARK SMILES IDX 7 1 6 2 33 3 11 4 5 5 15 6 4 7 12 8 16 9 13 10 17 11 31 12
REMARK SMILES IDX 14 13 18 14 30 15 32 16 19 17 29 18 21 19 20 20 28 21 22 22
REMARK SMILES IDX 25 23 23 24 26 25 27 26 8 27 9 28 10 29 2 30 3 31 1 32 24 33
REMARK H PARENT 24 34
REMARK Flexibility Score: inf
ROOT
ATOM      1  C   UNL     1      -8.710  11.716 -13.680  1.00  0.00     0.014 C 
ATOM      2  C   UNL     1      -8.085  11.508 -15.084  1.00  0.00     0.014 C 
ATOM      3  C   UNL     1      -9.767  12.857 -13.887  1.00  0.00     0.012 C 
ATOM      4  C   UNL     1      -7.627  12.039 -12.623  1.00  0.00     0.014 C 
ATOM      5  C   UNL     1      -9.037  12.115 -16.111  1.00  0.00     0.009 C 
ATOM      6  C   UNL     1      -9.222  14.320 -13.686  1.00  0.00     0.000 C 
ATOM      7  C   UNL     1     -10.247  12.662 -15.351  1.00  0.00     0.018 C 
ATOM      8  C   UNL     1      -7.114  13.479 -12.674  1.00  0.00     0.008 C 
ATOM      9  C   UNL     1     -10.389  15.299 -13.572  1.00  0.00     0.005 C 
ATOM     10  C   UNL     1      -8.251  14.528 -12.478  1.00  0.00    -0.024 C 
ATOM     11  C   UNL     1      -9.898  16.721 -13.692  1.00  0.00     0.005 C 
ATOM     12  C   UNL     1      -7.661  16.044 -12.451  1.00  0.00    -0.024 C 
ATOM     13  C   UNL     1      -9.002  14.229 -11.133  1.00  0.00     0.012 C 
ATOM     14  C   UNL     1      -8.823  17.147 -12.641  1.00  0.00     0.002 C 
ATOM     15  C   UNL     1      -6.583  16.241 -13.569  1.00  0.00     0.008 C 
ATOM     16  C   UNL     1      -6.932  16.241 -11.069  1.00  0.00     0.012 C 
ATOM     17  C   UNL     1      -8.316  18.657 -12.913  1.00  0.00    -0.026 C 
ATOM     18  C   UNL     1      -6.081  17.680 -13.736  1.00  0.00     0.005 C 
ATOM     19  C   UNL     1      -9.495  19.578 -13.395  1.00  0.00     0.010 C 
ATOM     20  C   UNL     1      -7.812  19.266 -11.570  1.00  0.00     0.012 C 
ATOM     21  C   UNL     1      -7.231  18.652 -14.054  1.00  0.00     0.003 C 
ATOM     22  C   UNL     1      -9.058  20.982 -13.834  1.00  0.00     0.033 C 
ATOM     23  C   UNL     1      -6.765  20.071 -14.596  1.00  0.00    -0.006 C 
ATOM     24  C   UNL     1      -8.027  20.923 -14.973  1.00  0.00     0.120 C 
ATOM     25  C   UNL     1      -5.907  19.874 -15.887  1.00  0.00     0.014 C 
ATOM     26  C   UNL     1      -5.878  20.869 -13.593  1.00  0.00     0.014 C 
ENDROOT
BRANCH   1  27
ATOM     27  C   UNL     1      -9.371  10.414 -13.230  1.00  0.00     0.048 C 
ATOM     28  O   UNL     1      -9.586   9.468 -14.035  1.00  0.00    -0.550 OA
ATOM     29  O   UNL     1      -9.849  10.296 -11.933  1.00  0.00    -0.550 OA
ENDBRANCH   1  27
BRANCH   7  30
ATOM     30  C   UNL     1     -11.516  11.806 -15.423  1.00  0.00    -0.077 C 
ATOM     31  C   UNL     1     -11.379  10.317 -15.238  1.00  0.00     0.039 C 
ATOM     32  C   UNL     1     -12.729  12.294 -15.735  1.00  0.00     0.008 C 
ENDBRANCH   7  30
BRANCH  24  33
ATOM     33  O   UNL     1      -8.650  20.385 -16.123  1.00  0.00    -0.393 OA
ATOM     34  H   UNL     1      -8.751  19.407 -15.977  1.00  0.00     0.210 HD
ENDBRANCH  24  33
TORSDOF 3
ENDMDL
