MODEL 1
REMARK VINA RESULT:    -2.593      0.000      0.000
REMARK INTER + INTRA:          -5.193
REMARK INTER:                  -4.715
REMARK INTRA:                  -0.479
REMARK UNBOUND:                -0.479
REMARK SMILES CCCCCCCCCCCCCCCC(=O)[O-]
REMARK SMILES IDX 9 1 10 2 11 3 12 4 13 5 14 6 15 7 16 8 17 9 18 10 8 11 7 12
REMARK SMILES IDX 6 13 5 14 4 15 3 16 2 17 1 18
REMARK H PARENT
REMARK Flexibility Score: inf
ROOT
ATOM      1  C   UNL     1      44.924 -26.465   3.384  1.00  0.00     0.000 C 
ENDROOT
BRANCH   1   2
ATOM      2  C   UNL     1      46.125 -26.982   4.192  1.00  0.00     0.000 C 
BRANCH   2   3
ATOM      3  C   UNL     1      45.756 -27.334   5.642  1.00  0.00     0.000 C 
BRANCH   3   4
ATOM      4  C   UNL     1      46.124 -28.791   5.963  1.00  0.00     0.000 C 
BRANCH   4   5
ATOM      5  C   UNL     1      45.441 -29.317   7.238  1.00  0.00     0.000 C 
BRANCH   5   6
ATOM      6  C   UNL     1      45.850 -28.600   8.541  1.00  0.00     0.006 C 
BRANCH   6   7
ATOM      7  C   UNL     1      45.988 -29.524   9.761  1.00  0.00     0.053 C 
BRANCH   7   8
ATOM      8  C   UNL     1      44.711 -29.621  10.539  1.00  0.00     0.041 C 
ATOM      9  O   UNL     1      44.369 -30.715  11.060  1.00  0.00    -0.550 OA
ATOM     10  O   UNL     1      43.917 -28.495  10.716  1.00  0.00    -0.550 OA
ENDBRANCH   7   8
ENDBRANCH   6   7
ENDBRANCH   5   6
ENDBRANCH   4   5
ENDBRANCH   3   4
ENDBRANCH   2   3
ENDBRANCH   1   2
BRANCH   1  11
ATOM     11  C   UNL     1      44.969 -26.903   1.912  1.00  0.00     0.000 C 
BRANCH  11  12
ATOM     12  C   UNL     1      46.025 -26.102   1.134  1.00  0.00    -0.000 C 
BRANCH  12  13
ATOM     13  C   UNL     1      45.514 -24.720   0.697  1.00  0.00    -0.000 C 
BRANCH  13  14
ATOM     14  C   UNL     1      46.111 -24.267  -0.646  1.00  0.00    -0.000 C 
BRANCH  14  15
ATOM     15  C   UNL     1      45.390 -24.882  -1.859  1.00  0.00    -0.000 C 
BRANCH  15  16
ATOM     16  C   UNL     1      45.893 -24.390  -3.229  1.00  0.00    -0.000 C 
BRANCH  16  17
ATOM     17  C   UNL     1      45.858 -25.484  -4.307  1.00  0.00    -0.003 C 
ATOM     18  C   UNL     1      45.379 -24.923  -5.643  1.00  0.00     0.004 C 
ENDBRANCH  16  17
ENDBRANCH  15  16
ENDBRANCH  14  15
ENDBRANCH  13  14
ENDBRANCH  12  13
ENDBRANCH  11  12
ENDBRANCH   1  11
TORSDOF 14
ENDMDL
MODEL 2
REMARK VINA RESULT:    -2.077      1.614      2.702
REMARK INTER + INTRA:          -4.255
REMARK INTER:                  -3.678
REMARK INTRA:                  -0.577
REMARK UNBOUND:                -0.479
REMARK SMILES CCCCCCCCCCCCCCCC(=O)[O-]
REMARK SMILES IDX 9 1 10 2 11 3 12 4 13 5 14 6 15 7 16 8 17 9 18 10 8 11 7 12
REMARK SMILES IDX 6 13 5 14 4 15 3 16 2 17 1 18
REMARK H PARENT
REMARK Flexibility Score: inf
ROOT
ATOM      1  C   UNL     1      44.979 -25.971   1.354  1.00  0.00     0.000 C 
ENDROOT
BRANCH   1   2
ATOM      2  C   UNL     1      45.927 -26.898   2.131  1.00  0.00     0.000 C 
BRANCH   2   3
ATOM      3  C   UNL     1      45.180 -27.847   3.080  1.00  0.00     0.000 C 
BRANCH   3   4
ATOM      4  C   UNL     1      45.710 -29.283   2.948  1.00  0.00     0.000 C 
BRANCH   4   5
ATOM      5  C   UNL     1      46.015 -29.940   4.307  1.00  0.00     0.000 C 
BRANCH   5   6
ATOM      6  C   UNL     1      46.125 -28.961   5.494  1.00  0.00     0.006 C 
BRANCH   6   7
ATOM      7  C   UNL     1      45.930 -29.608   6.874  1.00  0.00     0.053 C 
BRANCH   7   8
ATOM      8  C   UNL     1      45.710 -28.586   7.947  1.00  0.00     0.041 C 
ATOM      9  O   UNL     1      45.741 -27.358   7.668  1.00  0.00    -0.550 OA
ATOM     10  O   UNL     1      45.437 -28.990   9.248  1.00  0.00    -0.550 OA
ENDBRANCH   7   8
ENDBRANCH   6   7
ENDBRANCH   5   6
ENDBRANCH   4   5
ENDBRANCH   3   4
ENDBRANCH   2   3
ENDBRANCH   1   2
BRANCH   1  11
ATOM     11  C   UNL     1      45.666 -25.286   0.162  1.00  0.00     0.000 C 
BRANCH  11  12
ATOM     12  C   UNL     1      44.662 -24.439  -0.636  1.00  0.00    -0.000 C 
BRANCH  12  13
ATOM     13  C   UNL     1      45.352 -23.448  -1.587  1.00  0.00    -0.000 C 
BRANCH  13  14
ATOM     14  C   UNL     1      46.124 -24.151  -2.716  1.00  0.00    -0.000 C 
BRANCH  14  15
ATOM     15  C   UNL     1      45.235 -25.086  -3.556  1.00  0.00    -0.000 C 
BRANCH  15  16
ATOM     16  C   UNL     1      45.613 -25.172  -5.046  1.00  0.00    -0.000 C 
BRANCH  16  17
ATOM     17  C   UNL     1      45.616 -23.804  -5.743  1.00  0.00    -0.003 C 
ATOM     18  C   UNL     1      46.014 -23.934  -7.210  1.00  0.00     0.004 C 
ENDBRANCH  16  17
ENDBRANCH  15  16
ENDBRANCH  14  15
ENDBRANCH  13  14
ENDBRANCH  12  13
ENDBRANCH  11  12
ENDBRANCH   1  11
TORSDOF 14
ENDMDL
MODEL 3
REMARK VINA RESULT:    -0.960      3.344      5.998
REMARK INTER + INTRA:          -2.224
REMARK INTER:                  -2.658
REMARK INTRA:                   0.434
REMARK UNBOUND:                -0.479
REMARK SMILES CCCCCCCCCCCCCCCC(=O)[O-]
REMARK SMILES IDX 9 1 10 2 11 3 12 4 13 5 14 6 15 7 16 8 17 9 18 10 8 11 7 12
REMARK SMILES IDX 6 13 5 14 4 15 3 16 2 17 1 18
REMARK H PARENT
REMARK Flexibility Score: inf
ROOT
ATOM      1  C   UNL     1      44.933 -24.001  -1.966  1.00  0.00     0.000 C 
ENDROOT
BRANCH   1   2
ATOM      2  C   UNL     1      46.071 -23.302  -1.205  1.00  0.00     0.000 C 
BRANCH   2   3
ATOM      3  C   UNL     1      45.739 -23.073   0.277  1.00  0.00     0.000 C 
BRANCH   3   4
ATOM      4  C   UNL     1      46.124 -24.297   1.121  1.00  0.00     0.000 C 
BRANCH   4   5
ATOM      5  C   UNL     1      45.057 -25.406   1.093  1.00  0.00     0.000 C 
BRANCH   5   6
ATOM      6  C   UNL     1      45.332 -26.599   2.032  1.00  0.00     0.006 C 
BRANCH   6   7
ATOM      7  C   UNL     1      46.059 -26.232   3.335  1.00  0.00     0.053 C 
BRANCH   7   8
ATOM      8  C   UNL     1      45.813 -27.237   4.418  1.00  0.00     0.041 C 
ATOM      9  O   UNL     1      45.643 -28.450   4.128  1.00  0.00    -0.550 OA
ATOM     10  O   UNL     1      45.805 -26.838   5.749  1.00  0.00    -0.550 OA
ENDBRANCH   7   8
ENDBRANCH   6   7
ENDBRANCH   5   6
ENDBRANCH   4   5
ENDBRANCH   3   4
ENDBRANCH   2   3
ENDBRANCH   1   2
BRANCH   1  11
ATOM     11  C   UNL     1      45.431 -25.166  -2.836  1.00  0.00     0.000 C 
BRANCH  11  12
ATOM     12  C   UNL     1      44.981 -24.992  -4.295  1.00  0.00    -0.000 C 
BRANCH  12  13
ATOM     13  C   UNL     1      46.122 -24.522  -5.211  1.00  0.00    -0.000 C 
BRANCH  13  14
ATOM     14  C   UNL     1      46.046 -23.018  -5.526  1.00  0.00    -0.000 C 
BRANCH  14  15
ATOM     15  C   UNL     1      45.467 -22.728  -6.923  1.00  0.00    -0.000 C 
BRANCH  15  16
ATOM     16  C   UNL     1      46.062 -23.581  -8.059  1.00  0.00    -0.000 C 
BRANCH  16  17
ATOM     17  C   UNL     1      46.040 -25.086  -7.753  1.00  0.00    -0.003 C 
ATOM     18  C   UNL     1      46.044 -25.908  -9.037  1.00  0.00     0.004 C 
ENDBRANCH  16  17
ENDBRANCH  15  16
ENDBRANCH  14  15
ENDBRANCH  13  14
ENDBRANCH  12  13
ENDBRANCH  11  12
ENDBRANCH   1  11
TORSDOF 14
ENDMDL
MODEL 4
REMARK VINA RESULT:    -0.015      4.132      6.292
REMARK INTER + INTRA:          -0.505
REMARK INTER:                  -0.737
REMARK INTRA:                   0.232
REMARK UNBOUND:                -0.479
REMARK SMILES CCCCCCCCCCCCCCCC(=O)[O-]
REMARK SMILES IDX 9 1 10 2 11 3 12 4 13 5 14 6 15 7 16 8 17 9 18 10 8 11 7 12
REMARK SMILES IDX 6 13 5 14 4 15 3 16 2 17 1 18
REMARK H PARENT
REMARK Flexibility Score: inf
ROOT
ATOM      1  C   UNL     1      44.876 -23.975  -1.956  1.00  0.00     0.000 C 
ENDROOT
BRANCH   1   2
ATOM      2  C   UNL     1      46.046 -23.613  -1.026  1.00  0.00     0.000 C 
BRANCH   2   3
ATOM      3  C   UNL     1      45.576 -23.099   0.343  1.00  0.00     0.000 C 
BRANCH   3   4
ATOM      4  C   UNL     1      45.375 -24.262   1.326  1.00  0.00     0.000 C 
BRANCH   4   5
ATOM      5  C   UNL     1      45.986 -25.584   0.826  1.00  0.00     0.000 C 
BRANCH   5   6
ATOM      6  C   UNL     1      46.123 -26.686   1.898  1.00  0.00     0.006 C 
BRANCH   6   7
ATOM      7  C   UNL     1      44.817 -27.431   2.217  1.00  0.00     0.053 C 
BRANCH   7   8
ATOM      8  C   UNL     1      45.071 -28.826   2.699  1.00  0.00     0.041 C 
ATOM      9  O   UNL     1      44.996 -29.796   1.900  1.00  0.00    -0.550 OA
ATOM     10  O   UNL     1      45.424 -29.051   4.024  1.00  0.00    -0.550 OA
ENDBRANCH   7   8
ENDBRANCH   6   7
ENDBRANCH   5   6
ENDBRANCH   4   5
ENDBRANCH   3   4
ENDBRANCH   2   3
ENDBRANCH   1   2
BRANCH   1  11
ATOM     11  C   UNL     1      45.149 -25.238  -2.787  1.00  0.00     0.000 C 
BRANCH  11  12
ATOM     12  C   UNL     1      44.819 -25.001  -4.269  1.00  0.00    -0.000 C 
BRANCH  12  13
ATOM     13  C   UNL     1      46.055 -24.609  -5.094  1.00  0.00    -0.000 C 
BRANCH  13  14
ATOM     14  C   UNL     1      46.091 -23.108  -5.427  1.00  0.00    -0.000 C 
BRANCH  14  15
ATOM     15  C   UNL     1      45.608 -22.801  -6.856  1.00  0.00    -0.000 C 
BRANCH  15  16
ATOM     16  C   UNL     1      46.090 -23.794  -7.930  1.00  0.00    -0.000 C 
BRANCH  16  17
ATOM     17  C   UNL     1      45.580 -25.224  -7.694  1.00  0.00    -0.003 C 
ATOM     18  C   UNL     1      46.065 -26.168  -8.790  1.00  0.00     0.004 C 
ENDBRANCH  16  17
ENDBRANCH  15  16
ENDBRANCH  14  15
ENDBRANCH  13  14
ENDBRANCH  12  13
ENDBRANCH  11  12
ENDBRANCH   1  11
TORSDOF 14
ENDMDL
MODEL 5
REMARK VINA RESULT:     0.313      6.595     12.322
REMARK INTER + INTRA:           0.091
REMARK INTER:                   0.192
REMARK INTRA:                  -0.101
REMARK UNBOUND:                -0.479
REMARK SMILES CCCCCCCCCCCCCCCC(=O)[O-]
REMARK SMILES IDX 9 1 10 2 11 3 12 4 13 5 14 6 15 7 16 8 17 9 18 10 8 11 7 12
REMARK SMILES IDX 6 13 5 14 4 15 3 16 2 17 1 18
REMARK H PARENT
REMARK Flexibility Score: inf
ROOT
ATOM      1  C   UNL     1      44.481 -24.423  -2.098  1.00  0.00     0.000 C 
ENDROOT
BRANCH   1   2
ATOM      2  C   UNL     1      45.204 -24.081  -3.411  1.00  0.00     0.000 C 
BRANCH   2   3
ATOM      3  C   UNL     1      44.850 -25.048  -4.551  1.00  0.00     0.000 C 
BRANCH   3   4
ATOM      4  C   UNL     1      46.109 -25.468  -5.324  1.00  0.00     0.000 C 
BRANCH   4   5
ATOM      5  C   UNL     1      45.792 -26.101  -6.691  1.00  0.00     0.000 C 
BRANCH   5   6
ATOM      6  C   UNL     1      46.123 -25.217  -7.911  1.00  0.00     0.006 C 
BRANCH   6   7
ATOM      7  C   UNL     1      45.172 -24.026  -8.112  1.00  0.00     0.053 C 
BRANCH   7   8
ATOM      8  C   UNL     1      45.748 -22.751  -7.575  1.00  0.00     0.041 C 
ATOM      9  O   UNL     1      45.996 -22.637  -6.346  1.00  0.00    -0.550 OA
ATOM     10  O   UNL     1      46.043 -21.704  -8.438  1.00  0.00    -0.550 OA
ENDBRANCH   7   8
ENDBRANCH   6   7
ENDBRANCH   5   6
ENDBRANCH   4   5
ENDBRANCH   3   4
ENDBRANCH   2   3
ENDBRANCH   1   2
BRANCH   1  11
ATOM     11  C   UNL     1      45.427 -25.006  -1.036  1.00  0.00     0.000 C 
BRANCH  11  12
ATOM     12  C   UNL     1      45.444 -24.127   0.224  1.00  0.00    -0.000 C 
BRANCH  12  13
ATOM     13  C   UNL     1      46.118 -24.821   1.418  1.00  0.00    -0.000 C 
BRANCH  13  14
ATOM     14  C   UNL     1      45.363 -26.082   1.872  1.00  0.00    -0.000 C 
BRANCH  14  15
ATOM     15  C   UNL     1      46.022 -26.771   3.080  1.00  0.00    -0.000 C 
BRANCH  15  16
ATOM     16  C   UNL     1      45.423 -26.393   4.447  1.00  0.00    -0.000 C 
BRANCH  16  17
ATOM     17  C   UNL     1      45.946 -27.272   5.594  1.00  0.00    -0.003 C 
ATOM     18  C   UNL     1      46.071 -26.472   6.886  1.00  0.00     0.004 C 
ENDBRANCH  16  17
ENDBRANCH  15  16
ENDBRANCH  14  15
ENDBRANCH  13  14
ENDBRANCH  12  13
ENDBRANCH  11  12
ENDBRANCH   1  11
TORSDOF 14
ENDMDL
