MODEL 1
REMARK VINA RESULT:    -6.037      0.000      0.000
REMARK INTER + INTRA:         -11.215
REMARK INTER:                 -10.626
REMARK INTRA:                  -0.590
REMARK UNBOUND:                -0.590
REMARK SMILES CCCCCCC=CCCCCCCCC(=O)[O-]
REMARK SMILES IDX 10 1 11 2 12 3 13 4 14 5 15 6 16 7 17 8 18 9 9 10 8 11 7 12
REMARK SMILES IDX 6 13 5 14 4 15 3 16 2 17 1 18
REMARK H PARENT
REMARK Flexibility Score: inf
ROOT
ATOM      1  C   UNL     1      25.306   1.851 -26.440  1.00  0.00     0.004 C 
ENDROOT
BRANCH   1   2
ATOM      2  C   UNL     1      25.543   3.353 -26.703  1.00  0.00     0.000 C 
BRANCH   2   3
ATOM      3  C   UNL     1      27.022   3.787 -26.724  1.00  0.00     0.000 C 
BRANCH   3   4
ATOM      4  C   UNL     1      27.732   3.618 -28.079  1.00  0.00     0.000 C 
BRANCH   4   5
ATOM      5  C   UNL     1      29.167   4.174 -28.073  1.00  0.00     0.006 C 
BRANCH   5   6
ATOM      6  C   UNL     1      29.943   3.763 -26.815  1.00  0.00     0.053 C 
BRANCH   6   7
ATOM      7  C   UNL     1      30.741   4.901 -26.255  1.00  0.00     0.041 C 
ATOM      8  O   UNL     1      30.749   5.120 -25.014  1.00  0.00    -0.550 OA
ATOM      9  O   UNL     1      31.451   5.738 -27.105  1.00  0.00    -0.550 OA
ENDBRANCH   6   7
ENDBRANCH   5   6
ENDBRANCH   4   5
ENDBRANCH   3   4
ENDBRANCH   2   3
ENDBRANCH   1   2
BRANCH   1  10
ATOM     10  C   UNL     1      23.977   1.313 -26.996  1.00  0.00     0.027 C 
BRANCH  10  11
ATOM     11  C   UNL     1      23.972  -0.185 -27.137  1.00  0.00    -0.031 C 
ATOM     12  C   UNL     1      23.416  -0.979 -26.212  1.00  0.00    -0.031 C 
BRANCH  12  13
ATOM     13  C   UNL     1      23.423  -2.473 -26.379  1.00  0.00     0.027 C 
BRANCH  13  14
ATOM     14  C   UNL     1      22.468  -3.146 -25.383  1.00  0.00     0.004 C 
BRANCH  14  15
ATOM     15  C   UNL     1      21.209  -3.711 -26.060  1.00  0.00     0.000 C 
BRANCH  15  16
ATOM     16  C   UNL     1      21.151  -3.390 -27.564  1.00  0.00    -0.000 C 
BRANCH  16  17
ATOM     17  C   UNL     1      19.718  -3.423 -28.118  1.00  0.00    -0.003 C 
ATOM     18  C   UNL     1      18.770  -4.252 -27.251  1.00  0.00     0.004 C 
ENDBRANCH  16  17
ENDBRANCH  15  16
ENDBRANCH  14  15
ENDBRANCH  13  14
ENDBRANCH  12  13
ENDBRANCH  10  11
ENDBRANCH   1  10
TORSDOF 13
ENDMDL
MODEL 2
REMARK VINA RESULT:    -6.037      5.972     10.812
REMARK INTER + INTRA:         -11.214
REMARK INTER:                 -10.563
REMARK INTRA:                  -0.651
REMARK UNBOUND:                -0.590
REMARK SMILES CCCCCCC=CCCCCCCCC(=O)[O-]
REMARK SMILES IDX 10 1 11 2 12 3 13 4 14 5 15 6 16 7 17 8 18 9 9 10 8 11 7 12
REMARK SMILES IDX 6 13 5 14 4 15 3 16 2 17 1 18
REMARK H PARENT
REMARK Flexibility Score: inf
ROOT
ATOM      1  C   UNL     1      23.691  -1.960 -25.802  1.00  0.00     0.004 C 
ENDROOT
BRANCH   1   2
ATOM      2  C   UNL     1      22.816  -3.228 -25.899  1.00  0.00     0.000 C 
BRANCH   2   3
ATOM      3  C   UNL     1      21.753  -3.204 -27.015  1.00  0.00     0.000 C 
BRANCH   3   4
ATOM      4  C   UNL     1      20.479  -4.015 -26.721  1.00  0.00     0.000 C 
BRANCH   4   5
ATOM      5  C   UNL     1      19.241  -3.468 -27.453  1.00  0.00     0.006 C 
BRANCH   5   6
ATOM      6  C   UNL     1      17.976  -3.545 -26.588  1.00  0.00     0.053 C 
BRANCH   6   7
ATOM      7  C   UNL     1      17.393  -4.925 -26.574  1.00  0.00     0.041 C 
ATOM      8  O   UNL     1      16.900  -5.394 -25.513  1.00  0.00    -0.550 OA
ATOM      9  O   UNL     1      17.421  -5.705 -27.723  1.00  0.00    -0.550 OA
ENDBRANCH   6   7
ENDBRANCH   5   6
ENDBRANCH   4   5
ENDBRANCH   3   4
ENDBRANCH   2   3
ENDBRANCH   1   2
BRANCH   1  10
ATOM     10  C   UNL     1      23.972  -1.280 -27.153  1.00  0.00     0.027 C 
BRANCH  10  11
ATOM     11  C   UNL     1      24.391   0.157 -27.001  1.00  0.00    -0.031 C 
ATOM     12  C   UNL     1      24.587   0.710 -25.797  1.00  0.00    -0.031 C 
BRANCH  12  13
ATOM     13  C   UNL     1      25.008   2.148 -25.673  1.00  0.00     0.027 C 
BRANCH  13  14
ATOM     14  C   UNL     1      25.454   2.714 -27.029  1.00  0.00     0.004 C 
BRANCH  14  15
ATOM     15  C   UNL     1      26.716   3.584 -26.920  1.00  0.00     0.000 C 
BRANCH  15  16
ATOM     16  C   UNL     1      27.680   3.380 -28.102  1.00  0.00    -0.000 C 
BRANCH  16  17
ATOM     17  C   UNL     1      28.955   4.229 -27.975  1.00  0.00    -0.003 C 
ATOM     18  C   UNL     1      29.935   3.670 -26.942  1.00  0.00     0.004 C 
ENDBRANCH  16  17
ENDBRANCH  15  16
ENDBRANCH  14  15
ENDBRANCH  13  14
ENDBRANCH  12  13
ENDBRANCH  10  11
ENDBRANCH   1  10
TORSDOF 13
ENDMDL
MODEL 3
REMARK VINA RESULT:    -5.890     11.858     14.527
REMARK INTER + INTRA:         -10.955
REMARK INTER:                 -10.332
REMARK INTRA:                  -0.623
REMARK UNBOUND:                -0.590
REMARK SMILES CCCCCCC=CCCCCCCCC(=O)[O-]
REMARK SMILES IDX 10 1 11 2 12 3 13 4 14 5 15 6 16 7 17 8 18 9 9 10 8 11 7 12
REMARK SMILES IDX 6 13 5 14 4 15 3 16 2 17 1 18
REMARK H PARENT
REMARK Flexibility Score: inf
ROOT
ATOM      1  C   UNL     1      23.169   0.370 -16.711  1.00  0.00     0.004 C 
ENDROOT
BRANCH   1   2
ATOM      2  C   UNL     1      22.394   1.703 -16.666  1.00  0.00     0.000 C 
BRANCH   2   3
ATOM      3  C   UNL     1      20.867   1.577 -16.829  1.00  0.00     0.000 C 
BRANCH   3   4
ATOM      4  C   UNL     1      20.079   1.429 -15.515  1.00  0.00     0.000 C 
BRANCH   4   5
ATOM      5  C   UNL     1      18.581   1.735 -15.680  1.00  0.00     0.006 C 
BRANCH   5   6
ATOM      6  C   UNL     1      17.696   0.576 -15.202  1.00  0.00     0.053 C 
BRANCH   6   7
ATOM      7  C   UNL     1      16.810   0.063 -16.296  1.00  0.00     0.041 C 
ATOM      8  O   UNL     1      17.304  -0.280 -17.404  1.00  0.00    -0.550 OA
ATOM      9  O   UNL     1      15.437  -0.007 -16.105  1.00  0.00    -0.550 OA
ENDBRANCH   6   7
ENDBRANCH   5   6
ENDBRANCH   4   5
ENDBRANCH   3   4
ENDBRANCH   2   3
ENDBRANCH   1   2
BRANCH   1  10
ATOM     10  C   UNL     1      24.165   0.177 -15.555  1.00  0.00     0.027 C 
BRANCH  10  11
ATOM     11  C   UNL     1      25.232  -0.835 -15.873  1.00  0.00    -0.031 C 
ATOM     12  C   UNL     1      26.315  -0.515 -16.595  1.00  0.00    -0.031 C 
BRANCH  12  13
ATOM     13  C   UNL     1      27.368  -1.545 -16.897  1.00  0.00     0.027 C 
BRANCH  13  14
ATOM     14  C   UNL     1      28.775  -0.994 -16.627  1.00  0.00     0.004 C 
BRANCH  14  15
ATOM     15  C   UNL     1      28.941  -0.477 -15.189  1.00  0.00     0.000 C 
BRANCH  15  16
ATOM     16  C   UNL     1      30.384  -0.041 -14.879  1.00  0.00    -0.000 C 
BRANCH  16  17
ATOM     17  C   UNL     1      30.951   0.914 -15.941  1.00  0.00    -0.003 C 
ATOM     18  C   UNL     1      32.426   0.648 -16.244  1.00  0.00     0.004 C 
ENDBRANCH  16  17
ENDBRANCH  15  16
ENDBRANCH  14  15
ENDBRANCH  13  14
ENDBRANCH  12  13
ENDBRANCH  10  11
ENDBRANCH   1  10
TORSDOF 13
ENDMDL
MODEL 4
REMARK VINA RESULT:    -5.871      1.593      3.454
REMARK INTER + INTRA:         -10.923
REMARK INTER:                  -9.922
REMARK INTRA:                  -1.001
REMARK UNBOUND:                -0.590
REMARK SMILES CCCCCCC=CCCCCCCCC(=O)[O-]
REMARK SMILES IDX 10 1 11 2 12 3 13 4 14 5 15 6 16 7 17 8 18 9 9 10 8 11 7 12
REMARK SMILES IDX 6 13 5 14 4 15 3 16 2 17 1 18
REMARK H PARENT
REMARK Flexibility Score: inf
ROOT
ATOM      1  C   UNL     1      24.353  -1.228 -26.939  1.00  0.00     0.004 C 
ENDROOT
BRANCH   1   2
ATOM      2  C   UNL     1      23.890   0.236 -26.785  1.00  0.00     0.000 C 
BRANCH   2   3
ATOM      3  C   UNL     1      25.014   1.288 -26.850  1.00  0.00     0.000 C 
BRANCH   3   4
ATOM      4  C   UNL     1      24.627   2.689 -26.345  1.00  0.00     0.000 C 
BRANCH   4   5
ATOM      5  C   UNL     1      25.847   3.595 -26.105  1.00  0.00     0.006 C 
BRANCH   5   6
ATOM      6  C   UNL     1      26.821   3.582 -27.292  1.00  0.00     0.053 C 
BRANCH   6   7
ATOM      7  C   UNL     1      28.127   4.232 -26.949  1.00  0.00     0.041 C 
ATOM      8  O   UNL     1      28.152   5.415 -26.517  1.00  0.00    -0.550 OA
ATOM      9  O   UNL     1      29.317   3.542 -27.134  1.00  0.00    -0.550 OA
ENDBRANCH   6   7
ENDBRANCH   5   6
ENDBRANCH   4   5
ENDBRANCH   3   4
ENDBRANCH   2   3
ENDBRANCH   1   2
BRANCH   1  10
ATOM     10  C   UNL     1      23.406  -2.261 -26.306  1.00  0.00     0.027 C 
BRANCH  10  11
ATOM     11  C   UNL     1      22.072  -2.325 -26.999  1.00  0.00    -0.031 C 
ATOM     12  C   UNL     1      21.533  -3.491 -27.381  1.00  0.00    -0.031 C 
BRANCH  12  13
ATOM     13  C   UNL     1      20.196  -3.527 -28.070  1.00  0.00     0.027 C 
BRANCH  13  14
ATOM     14  C   UNL     1      19.177  -4.342 -27.260  1.00  0.00     0.004 C 
BRANCH  14  15
ATOM     15  C   UNL     1      18.135  -3.455 -26.561  1.00  0.00     0.000 C 
BRANCH  15  16
ATOM     16  C   UNL     1      18.355  -3.370 -25.040  1.00  0.00    -0.000 C 
BRANCH  16  17
ATOM     17  C   UNL     1      19.406  -4.372 -24.540  1.00  0.00    -0.003 C 
ATOM     18  C   UNL     1      20.549  -3.699 -23.781  1.00  0.00     0.004 C 
ENDBRANCH  16  17
ENDBRANCH  15  16
ENDBRANCH  14  15
ENDBRANCH  13  14
ENDBRANCH  12  13
ENDBRANCH  10  11
ENDBRANCH   1  10
TORSDOF 13
ENDMDL
MODEL 5
REMARK VINA RESULT:    -5.827     10.872     11.730
REMARK INTER + INTRA:         -10.845
REMARK INTER:                 -10.323
REMARK INTRA:                  -0.522
REMARK UNBOUND:                -0.590
REMARK SMILES CCCCCCC=CCCCCCCCC(=O)[O-]
REMARK SMILES IDX 10 1 11 2 12 3 13 4 14 5 15 6 16 7 17 8 18 9 9 10 8 11 7 12
REMARK SMILES IDX 6 13 5 14 4 15 3 16 2 17 1 18
REMARK H PARENT
REMARK Flexibility Score: inf
ROOT
ATOM      1  C   UNL     1      25.820  -0.339 -17.355  1.00  0.00     0.004 C 
ENDROOT
BRANCH   1   2
ATOM      2  C   UNL     1      26.716  -1.588 -17.226  1.00  0.00     0.000 C 
BRANCH   2   3
ATOM      3  C   UNL     1      28.173  -1.307 -16.813  1.00  0.00     0.000 C 
BRANCH   3   4
ATOM      4  C   UNL     1      28.357  -0.803 -15.370  1.00  0.00     0.000 C 
BRANCH   4   5
ATOM      5  C   UNL     1      29.805  -0.384 -15.064  1.00  0.00     0.006 C 
BRANCH   5   6
ATOM      6  C   UNL     1      30.742  -0.624 -16.256  1.00  0.00     0.053 C 
BRANCH   6   7
ATOM      7  C   UNL     1      32.038   0.112 -16.103  1.00  0.00     0.041 C 
ATOM      8  O   UNL     1      33.110  -0.524 -15.922  1.00  0.00    -0.550 OA
ATOM      9  O   UNL     1      32.058   1.501 -16.130  1.00  0.00    -0.550 OA
ENDBRANCH   6   7
ENDBRANCH   5   6
ENDBRANCH   4   5
ENDBRANCH   3   4
ENDBRANCH   2   3
ENDBRANCH   1   2
BRANCH   1  10
ATOM     10  C   UNL     1      24.962  -0.045 -16.112  1.00  0.00     0.027 C 
BRANCH  10  11
ATOM     11  C   UNL     1      23.658   0.624 -16.454  1.00  0.00    -0.031 C 
ATOM     12  C   UNL     1      23.147   1.601 -15.691  1.00  0.00    -0.031 C 
BRANCH  12  13
ATOM     13  C   UNL     1      21.843   2.255 -16.056  1.00  0.00     0.027 C 
BRANCH  13  14
ATOM     14  C   UNL     1      20.730   1.213 -16.232  1.00  0.00     0.004 C 
BRANCH  14  15
ATOM     15  C   UNL     1      19.365   1.716 -15.735  1.00  0.00     0.000 C 
BRANCH  15  16
ATOM     16  C   UNL     1      18.693   0.736 -14.757  1.00  0.00    -0.000 C 
BRANCH  16  17
ATOM     17  C   UNL     1      17.175   0.638 -14.972  1.00  0.00    -0.003 C 
ATOM     18  C   UNL     1      16.793  -0.415 -16.013  1.00  0.00     0.004 C 
ENDBRANCH  16  17
ENDBRANCH  15  16
ENDBRANCH  14  15
ENDBRANCH  13  14
ENDBRANCH  12  13
ENDBRANCH  10  11
ENDBRANCH   1  10
TORSDOF 13
ENDMDL
MODEL 6
REMARK VINA RESULT:    -5.797      4.858      9.404
REMARK INTER + INTRA:         -10.792
REMARK INTER:                  -9.293
REMARK INTRA:                  -1.498
REMARK UNBOUND:                -0.590
REMARK SMILES CCCCCCC=CCCCCCCCC(=O)[O-]
REMARK SMILES IDX 10 1 11 2 12 3 13 4 14 5 15 6 16 7 17 8 18 9 9 10 8 11 7 12
REMARK SMILES IDX 6 13 5 14 4 15 3 16 2 17 1 18
REMARK H PARENT
REMARK Flexibility Score: inf
ROOT
ATOM      1  C   UNL     1      18.791  -3.519 -27.539  1.00  0.00     0.004 C 
ENDROOT
BRANCH   1   2
ATOM      2  C   UNL     1      18.670  -4.781 -26.661  1.00  0.00     0.000 C 
BRANCH   2   3
ATOM      3  C   UNL     1      18.197  -4.529 -25.216  1.00  0.00     0.000 C 
BRANCH   3   4
ATOM      4  C   UNL     1      19.127  -3.641 -24.370  1.00  0.00     0.000 C 
BRANCH   4   5
ATOM      5  C   UNL     1      20.233  -4.441 -23.660  1.00  0.00     0.006 C 
BRANCH   5   6
ATOM      6  C   UNL     1      21.255  -3.529 -22.969  1.00  0.00     0.053 C 
BRANCH   6   7
ATOM      7  C   UNL     1      22.312  -4.316 -22.255  1.00  0.00     0.041 C 
ATOM      8  O   UNL     1      23.471  -3.842 -22.118  1.00  0.00    -0.550 OA
ATOM      9  O   UNL     1      22.026  -5.585 -21.768  1.00  0.00    -0.550 OA
ENDBRANCH   6   7
ENDBRANCH   5   6
ENDBRANCH   4   5
ENDBRANCH   3   4
ENDBRANCH   2   3
ENDBRANCH   1   2
BRANCH   1  10
ATOM     10  C   UNL     1      20.187  -3.303 -28.148  1.00  0.00     0.027 C 
BRANCH  10  11
ATOM     11  C   UNL     1      21.296  -3.622 -27.182  1.00  0.00    -0.031 C 
ATOM     12  C   UNL     1      22.228  -2.716 -26.857  1.00  0.00    -0.031 C 
BRANCH  12  13
ATOM     13  C   UNL     1      23.325  -3.059 -25.887  1.00  0.00     0.027 C 
BRANCH  13  14
ATOM     14  C   UNL     1      23.774  -1.821 -25.097  1.00  0.00     0.004 C 
BRANCH  14  15
ATOM     15  C   UNL     1      24.461  -0.771 -25.985  1.00  0.00     0.000 C 
BRANCH  15  16
ATOM     16  C   UNL     1      23.784   0.608 -25.904  1.00  0.00    -0.000 C 
BRANCH  16  17
ATOM     17  C   UNL     1      24.063   1.474 -27.143  1.00  0.00    -0.003 C 
ATOM     18  C   UNL     1      25.260   2.406 -26.954  1.00  0.00     0.004 C 
ENDBRANCH  16  17
ENDBRANCH  15  16
ENDBRANCH  14  15
ENDBRANCH  13  14
ENDBRANCH  12  13
ENDBRANCH  10  11
ENDBRANCH   1  10
TORSDOF 13
ENDMDL
MODEL 7
REMARK VINA RESULT:    -5.794      4.630      6.571
REMARK INTER + INTRA:         -10.787
REMARK INTER:                  -9.391
REMARK INTRA:                  -1.396
REMARK UNBOUND:                -0.590
REMARK SMILES CCCCCCC=CCCCCCCCC(=O)[O-]
REMARK SMILES IDX 10 1 11 2 12 3 13 4 14 5 15 6 16 7 17 8 18 9 9 10 8 11 7 12
REMARK SMILES IDX 6 13 5 14 4 15 3 16 2 17 1 18
REMARK H PARENT
REMARK Flexibility Score: inf
ROOT
ATOM      1  C   UNL     1      26.770   3.760 -26.863  1.00  0.00     0.004 C 
ENDROOT
BRANCH   1   2
ATOM      2  C   UNL     1      27.742   3.399 -28.006  1.00  0.00     0.000 C 
BRANCH   2   3
ATOM      3  C   UNL     1      29.237   3.567 -27.669  1.00  0.00     0.000 C 
BRANCH   3   4
ATOM      4  C   UNL     1      29.628   4.945 -27.106  1.00  0.00     0.000 C 
BRANCH   4   5
ATOM      5  C   UNL     1      31.152   5.148 -27.032  1.00  0.00     0.006 C 
BRANCH   5   6
ATOM      6  C   UNL     1      31.526   6.560 -26.563  1.00  0.00     0.053 C 
BRANCH   6   7
ATOM      7  C   UNL     1      32.098   6.554 -25.178  1.00  0.00     0.041 C 
ATOM      8  O   UNL     1      31.680   5.729 -24.323  1.00  0.00    -0.550 OA
ATOM      9  O   UNL     1      33.072   7.479 -24.822  1.00  0.00    -0.550 OA
ENDBRANCH   6   7
ENDBRANCH   5   6
ENDBRANCH   4   5
ENDBRANCH   3   4
ENDBRANCH   2   3
ENDBRANCH   1   2
BRANCH   1  10
ATOM     10  C   UNL     1      25.492   2.905 -26.826  1.00  0.00     0.027 C 
BRANCH  10  11
ATOM     11  C   UNL     1      25.060   2.570 -25.424  1.00  0.00    -0.031 C 
ATOM     12  C   UNL     1      24.316   3.413 -24.695  1.00  0.00    -0.031 C 
BRANCH  12  13
ATOM     13  C   UNL     1      23.896   3.053 -23.297  1.00  0.00     0.027 C 
BRANCH  13  14
ATOM     14  C   UNL     1      24.925   3.539 -22.267  1.00  0.00     0.004 C 
BRANCH  14  15
ATOM     15  C   UNL     1      25.143   5.060 -22.322  1.00  0.00     0.000 C 
BRANCH  15  16
ATOM     16  C   UNL     1      26.632   5.446 -22.280  1.00  0.00    -0.000 C 
BRANCH  16  17
ATOM     17  C   UNL     1      27.560   4.228 -22.397  1.00  0.00    -0.003 C 
ATOM     18  C   UNL     1      28.541   4.344 -23.565  1.00  0.00     0.004 C 
ENDBRANCH  16  17
ENDBRANCH  15  16
ENDBRANCH  14  15
ENDBRANCH  13  14
ENDBRANCH  12  13
ENDBRANCH  10  11
ENDBRANCH   1  10
TORSDOF 13
ENDMDL
MODEL 8
REMARK VINA RESULT:    -5.718      4.968     10.297
REMARK INTER + INTRA:         -10.654
REMARK INTER:                  -9.977
REMARK INTRA:                  -0.677
REMARK UNBOUND:                -0.590
REMARK SMILES CCCCCCC=CCCCCCCCC(=O)[O-]
REMARK SMILES IDX 10 1 11 2 12 3 13 4 14 5 15 6 16 7 17 8 18 9 9 10 8 11 7 12
REMARK SMILES IDX 6 13 5 14 4 15 3 16 2 17 1 18
REMARK H PARENT
REMARK Flexibility Score: inf
ROOT
ATOM      1  C   UNL     1      24.143   0.149 -26.886  1.00  0.00     0.004 C 
ENDROOT
BRANCH   1   2
ATOM      2  C   UNL     1      23.588  -0.644 -25.683  1.00  0.00     0.000 C 
BRANCH   2   3
ATOM      3  C   UNL     1      24.224  -2.030 -25.465  1.00  0.00     0.000 C 
BRANCH   3   4
ATOM      4  C   UNL     1      23.238  -3.212 -25.487  1.00  0.00     0.000 C 
BRANCH   4   5
ATOM      5  C   UNL     1      22.112  -3.030 -26.520  1.00  0.00     0.006 C 
BRANCH   5   6
ATOM      6  C   UNL     1      20.938  -3.986 -26.272  1.00  0.00     0.053 C 
BRANCH   6   7
ATOM      7  C   UNL     1      19.990  -4.016 -27.432  1.00  0.00     0.041 C 
ATOM      8  O   UNL     1      18.841  -4.518 -27.298  1.00  0.00    -0.550 OA
ATOM      9  O   UNL     1      20.383  -3.519 -28.667  1.00  0.00    -0.550 OA
ENDBRANCH   6   7
ENDBRANCH   5   6
ENDBRANCH   4   5
ENDBRANCH   3   4
ENDBRANCH   2   3
ENDBRANCH   1   2
BRANCH   1  10
ATOM     10  C   UNL     1      24.100   1.676 -26.711  1.00  0.00     0.027 C 
BRANCH  10  11
ATOM     11  C   UNL     1      25.425   2.329 -26.999  1.00  0.00    -0.031 C 
ATOM     12  C   UNL     1      25.823   3.432 -26.350  1.00  0.00    -0.031 C 
BRANCH  12  13
ATOM     13  C   UNL     1      27.153   4.063 -26.656  1.00  0.00     0.027 C 
BRANCH  13  14
ATOM     14  C   UNL     1      27.804   3.416 -27.887  1.00  0.00     0.004 C 
BRANCH  14  15
ATOM     15  C   UNL     1      29.306   3.724 -27.992  1.00  0.00     0.000 C 
BRANCH  15  16
ATOM     16  C   UNL     1      29.991   3.810 -26.617  1.00  0.00    -0.000 C 
BRANCH  16  17
ATOM     17  C   UNL     1      30.861   5.067 -26.470  1.00  0.00    -0.003 C 
ATOM     18  C   UNL     1      31.084   5.463 -25.010  1.00  0.00     0.004 C 
ENDBRANCH  16  17
ENDBRANCH  15  16
ENDBRANCH  14  15
ENDBRANCH  13  14
ENDBRANCH  12  13
ENDBRANCH  10  11
ENDBRANCH   1  10
TORSDOF 13
ENDMDL
MODEL 9
REMARK VINA RESULT:    -5.702      1.860      3.521
REMARK INTER + INTRA:         -10.626
REMARK INTER:                 -10.074
REMARK INTRA:                  -0.552
REMARK UNBOUND:                -0.590
REMARK SMILES CCCCCCC=CCCCCCCCC(=O)[O-]
REMARK SMILES IDX 10 1 11 2 12 3 13 4 14 5 15 6 16 7 17 8 18 9 9 10 8 11 7 12
REMARK SMILES IDX 6 13 5 14 4 15 3 16 2 17 1 18
REMARK H PARENT
REMARK Flexibility Score: inf
ROOT
ATOM      1  C   UNL     1      27.534   3.406 -27.921  1.00  0.00     0.004 C 
ENDROOT
BRANCH   1   2
ATOM      2  C   UNL     1      28.880   4.134 -28.114  1.00  0.00     0.000 C 
BRANCH   2   3
ATOM      3  C   UNL     1      29.912   3.907 -26.992  1.00  0.00     0.000 C 
BRANCH   3   4
ATOM      4  C   UNL     1      31.162   4.802 -27.064  1.00  0.00     0.000 C 
BRANCH   4   5
ATOM      5  C   UNL     1      31.079   6.019 -26.126  1.00  0.00     0.006 C 
BRANCH   5   6
ATOM      6  C   UNL     1      31.249   5.628 -24.652  1.00  0.00     0.053 C 
BRANCH   6   7
ATOM      7  C   UNL     1      32.259   6.490 -23.959  1.00  0.00     0.041 C 
ATOM      8  O   UNL     1      32.925   6.034 -22.992  1.00  0.00    -0.550 OA
ATOM      9  O   UNL     1      32.444   7.807 -24.361  1.00  0.00    -0.550 OA
ENDBRANCH   6   7
ENDBRANCH   5   6
ENDBRANCH   4   5
ENDBRANCH   3   4
ENDBRANCH   2   3
ENDBRANCH   1   2
BRANCH   1  10
ATOM     10  C   UNL     1      26.767   3.818 -26.654  1.00  0.00     0.027 C 
BRANCH  10  11
ATOM     11  C   UNL     1      25.372   3.254 -26.611  1.00  0.00    -0.031 C 
ATOM     12  C   UNL     1      25.115   1.986 -26.960  1.00  0.00    -0.031 C 
BRANCH  12  13
ATOM     13  C   UNL     1      23.713   1.445 -26.906  1.00  0.00     0.027 C 
BRANCH  13  14
ATOM     14  C   UNL     1      23.654   0.137 -26.105  1.00  0.00     0.004 C 
BRANCH  14  15
ATOM     15  C   UNL     1      23.851  -1.106 -26.987  1.00  0.00     0.000 C 
BRANCH  15  16
ATOM     16  C   UNL     1      24.009  -2.397 -26.164  1.00  0.00    -0.000 C 
BRANCH  16  17
ATOM     17  C   UNL     1      22.777  -3.310 -26.260  1.00  0.00    -0.003 C 
ATOM     18  C   UNL     1      22.002  -3.395 -24.945  1.00  0.00     0.004 C 
ENDBRANCH  16  17
ENDBRANCH  15  16
ENDBRANCH  14  15
ENDBRANCH  13  14
ENDBRANCH  12  13
ENDBRANCH  10  11
ENDBRANCH   1  10
TORSDOF 13
ENDMDL
