MODEL 1
REMARK VINA RESULT:    -3.518      0.000      0.000
REMARK INTER + INTRA:          -4.686
REMARK INTER:                  -4.237
REMARK INTRA:                  -0.449
REMARK UNBOUND:                -0.449
REMARK SMILES NC(=O)C[C@@H]([NH3+])C(=O)[O-]
REMARK SMILES IDX 4 1 5 2 6 3 7 7 8 8 9 9 2 10 3 11 1 12
REMARK H PARENT 6 4 6 5 6 6 1 13 1 14
REMARK Flexibility Score: inf
ROOT
ATOM      1  C   UNL     1      12.557  15.110  45.981  1.00  0.00     0.171 C 
ENDROOT
BRANCH   1   2
ATOM      2  C   UNL     1      13.760  15.790  46.665  1.00  0.00     0.237 C 
BRANCH   2   3
ATOM      3  N   UNL     1      13.835  15.401  48.078  1.00  0.00    -0.350 N 
ATOM      4  H   UNL     1      12.963  15.700  48.575  1.00  0.00     0.345 HD
ATOM      5  H   UNL     1      14.648  15.876  48.536  1.00  0.00     0.345 HD
ATOM      6  H   UNL     1      13.943  14.365  48.172  1.00  0.00     0.345 HD
ENDBRANCH   2   3
BRANCH   2   7
ATOM      7  C   UNL     1      15.048  15.448  45.962  1.00  0.00     0.100 C 
ATOM      8  O   UNL     1      15.770  16.357  45.471  1.00  0.00    -0.544 OA
ATOM      9  O   UNL     1      15.457  14.124  45.866  1.00  0.00    -0.544 OA
ENDBRANCH   2   7
ENDBRANCH   1   2
BRANCH   1  10
ATOM     10  C   UNL     1      12.163  13.843  46.687  1.00  0.00     0.223 C 
ATOM     11  O   UNL     1      11.445  13.902  47.721  1.00  0.00    -0.275 OA
ATOM     12  N   UNL     1      12.563  12.573  46.174  1.00  0.00    -0.369 N 
ATOM     13  H   UNL     1      12.275  11.695  46.659  1.00  0.00     0.159 HD
ATOM     14  H   UNL     1      13.142  12.505  45.308  1.00  0.00     0.159 HD
ENDBRANCH   1  10
TORSDOF 4
ENDMDL
MODEL 2
REMARK VINA RESULT:    -3.382     18.354     19.057
REMARK INTER + INTRA:          -4.522
REMARK INTER:                  -4.389
REMARK INTRA:                  -0.134
REMARK UNBOUND:                -0.449
REMARK SMILES NC(=O)C[C@@H]([NH3+])C(=O)[O-]
REMARK SMILES IDX 4 1 5 2 6 3 7 7 8 8 9 9 2 10 3 11 1 12
REMARK H PARENT 6 4 6 5 6 6 1 13 1 14
REMARK Flexibility Score: inf
ROOT
ATOM      1  C   UNL     1      28.589   4.029  39.050  1.00  0.00     0.171 C 
ENDROOT
BRANCH   1   2
ATOM      2  C   UNL     1      27.984   4.813  40.231  1.00  0.00     0.237 C 
BRANCH   2   3
ATOM      3  N   UNL     1      28.061   4.023  41.465  1.00  0.00    -0.350 N 
ATOM      4  H   UNL     1      27.237   3.380  41.527  1.00  0.00     0.345 HD
ATOM      5  H   UNL     1      28.039   4.659  42.297  1.00  0.00     0.345 HD
ATOM      6  H   UNL     1      28.939   3.456  41.488  1.00  0.00     0.345 HD
ENDBRANCH   2   3
BRANCH   2   7
ATOM      7  C   UNL     1      28.678   6.138  40.416  1.00  0.00     0.100 C 
ATOM      8  O   UNL     1      29.125   6.770  39.422  1.00  0.00    -0.544 OA
ATOM      9  O   UNL     1      28.816   6.678  41.689  1.00  0.00    -0.544 OA
ENDBRANCH   2   7
ENDBRANCH   1   2
BRANCH   1  10
ATOM     10  C   UNL     1      27.581   3.811  37.957  1.00  0.00     0.223 C 
ATOM     11  O   UNL     1      26.707   4.689  37.729  1.00  0.00    -0.275 OA
ATOM     12  N   UNL     1      27.631   2.635  37.149  1.00  0.00    -0.369 N 
ATOM     13  H   UNL     1      26.938   2.494  36.381  1.00  0.00     0.159 HD
ATOM     14  H   UNL     1      28.360   1.906  37.311  1.00  0.00     0.159 HD
ENDBRANCH   1  10
TORSDOF 4
ENDMDL
MODEL 3
REMARK VINA RESULT:    -3.245     19.017     19.655
REMARK INTER + INTRA:          -4.358
REMARK INTER:                  -3.984
REMARK INTRA:                  -0.374
REMARK UNBOUND:                -0.449
REMARK SMILES NC(=O)C[C@@H]([NH3+])C(=O)[O-]
REMARK SMILES IDX 4 1 5 2 6 3 7 7 8 8 9 9 2 10 3 11 1 12
REMARK H PARENT 6 4 6 5 6 6 1 13 1 14
REMARK Flexibility Score: inf
ROOT
ATOM      1  C   UNL     1      28.974   4.493  38.163  1.00  0.00     0.171 C 
ENDROOT
BRANCH   1   2
ATOM      2  C   UNL     1      28.924   4.825  39.669  1.00  0.00     0.237 C 
BRANCH   2   3
ATOM      3  N   UNL     1      27.940   5.882  39.929  1.00  0.00    -0.350 N 
ATOM      4  H   UNL     1      26.984   5.464  40.016  1.00  0.00     0.345 HD
ATOM      5  H   UNL     1      27.927   6.561  39.132  1.00  0.00     0.345 HD
ATOM      6  H   UNL     1      28.170   6.393  40.813  1.00  0.00     0.345 HD
ENDBRANCH   2   3
BRANCH   2   7
ATOM      7  C   UNL     1      28.601   3.600  40.484  1.00  0.00     0.100 C 
ATOM      8  O   UNL     1      27.845   3.682  41.489  1.00  0.00    -0.544 OA
ATOM      9  O   UNL     1      29.125   2.366  40.120  1.00  0.00    -0.544 OA
ENDBRANCH   2   7
ENDBRANCH   1   2
BRANCH   1  10
ATOM     10  C   UNL     1      27.671   3.923  37.679  1.00  0.00     0.223 C 
ATOM     11  O   UNL     1      26.631   4.635  37.703  1.00  0.00    -0.275 OA
ATOM     12  N   UNL     1      27.609   2.597  37.157  1.00  0.00    -0.369 N 
ATOM     13  H   UNL     1      26.705   2.210  36.808  1.00  0.00     0.159 HD
ATOM     14  H   UNL     1      28.465   2.000  37.113  1.00  0.00     0.159 HD
ENDBRANCH   1  10
TORSDOF 4
ENDMDL
MODEL 4
REMARK VINA RESULT:    -3.177      1.732      3.657
REMARK INTER + INTRA:          -4.276
REMARK INTER:                  -4.246
REMARK INTRA:                  -0.030
REMARK UNBOUND:                -0.449
REMARK SMILES NC(=O)C[C@@H]([NH3+])C(=O)[O-]
REMARK SMILES IDX 4 1 5 2 6 3 7 7 8 8 9 9 2 10 3 11 1 12
REMARK H PARENT 6 4 6 5 6 6 1 13 1 14
REMARK Flexibility Score: inf
ROOT
ATOM      1  C   UNL     1      14.052  15.976  46.815  1.00  0.00     0.171 C 
ENDROOT
BRANCH   1   2
ATOM      2  C   UNL     1      13.426  14.699  47.411  1.00  0.00     0.237 C 
BRANCH   2   3
ATOM      3  N   UNL     1      12.790  14.992  48.701  1.00  0.00    -0.350 N 
ATOM      4  H   UNL     1      13.512  14.997  49.459  1.00  0.00     0.345 HD
ATOM      5  H   UNL     1      12.085  14.253  48.927  1.00  0.00     0.345 HD
ATOM      6  H   UNL     1      12.316  15.925  48.676  1.00  0.00     0.345 HD
ENDBRANCH   2   3
BRANCH   2   7
ATOM      7  C   UNL     1      12.425  14.091  46.463  1.00  0.00     0.100 C 
ATOM      8  O   UNL     1      12.267  12.842  46.414  1.00  0.00    -0.544 OA
ATOM      9  O   UNL     1      11.657  14.911  45.646  1.00  0.00    -0.544 OA
ENDBRANCH   2   7
ENDBRANCH   1   2
BRANCH   1  10
ATOM     10  C   UNL     1      15.229  15.657  45.937  1.00  0.00     0.223 C 
ATOM     11  O   UNL     1      15.593  14.460  45.790  1.00  0.00    -0.275 OA
ATOM     12  N   UNL     1      15.915  16.696  45.238  1.00  0.00    -0.369 N 
ATOM     13  H   UNL     1      16.723  16.468  44.619  1.00  0.00     0.159 HD
ATOM     14  H   UNL     1      15.616  17.691  45.334  1.00  0.00     0.159 HD
ENDBRANCH   1  10
TORSDOF 4
ENDMDL
MODEL 5
REMARK VINA RESULT:    -3.139      2.237      2.727
REMARK INTER + INTRA:          -4.230
REMARK INTER:                  -4.192
REMARK INTRA:                  -0.038
REMARK UNBOUND:                -0.449
REMARK SMILES NC(=O)C[C@@H]([NH3+])C(=O)[O-]
REMARK SMILES IDX 4 1 5 2 6 3 7 7 8 8 9 9 2 10 3 11 1 12
REMARK H PARENT 6 4 6 5 6 6 1 13 1 14
REMARK Flexibility Score: inf
ROOT
ATOM      1  C   UNL     1      13.256  15.628  46.194  1.00  0.00     0.171 C 
ENDROOT
BRANCH   1   2
ATOM      2  C   UNL     1      13.570  14.561  47.262  1.00  0.00     0.237 C 
BRANCH   2   3
ATOM      3  N   UNL     1      12.869  14.866  48.515  1.00  0.00    -0.350 N 
ATOM      4  H   UNL     1      12.659  15.891  48.563  1.00  0.00     0.345 HD
ATOM      5  H   UNL     1      13.476  14.620  49.331  1.00  0.00     0.345 HD
ATOM      6  H   UNL     1      11.972  14.331  48.578  1.00  0.00     0.345 HD
ENDBRANCH   2   3
BRANCH   2   7
ATOM      7  C   UNL     1      13.197  13.184  46.779  1.00  0.00     0.100 C 
ATOM      8  O   UNL     1      11.987  12.845  46.684  1.00  0.00    -0.544 OA
ATOM      9  O   UNL     1      14.190  12.282  46.418  1.00  0.00    -0.544 OA
ENDBRANCH   2   7
ENDBRANCH   1   2
BRANCH   1  10
ATOM     10  C   UNL     1      11.822  15.561  45.749  1.00  0.00     0.223 C 
ATOM     11  O   UNL     1      10.920  16.063  46.471  1.00  0.00    -0.275 OA
ATOM     12  N   UNL     1      11.479  14.967  44.498  1.00  0.00    -0.369 N 
ATOM     13  H   UNL     1      10.483  14.935  44.186  1.00  0.00     0.159 HD
ATOM     14  H   UNL     1      12.216  14.563  43.878  1.00  0.00     0.159 HD
ENDBRANCH   1  10
TORSDOF 4
ENDMDL
MODEL 6
REMARK VINA RESULT:    -3.127      2.134      3.054
REMARK INTER + INTRA:          -4.216
REMARK INTER:                  -4.115
REMARK INTRA:                  -0.101
REMARK UNBOUND:                -0.449
REMARK SMILES NC(=O)C[C@@H]([NH3+])C(=O)[O-]
REMARK SMILES IDX 4 1 5 2 6 3 7 7 8 8 9 9 2 10 3 11 1 12
REMARK H PARENT 6 4 6 5 6 6 1 13 1 14
REMARK Flexibility Score: inf
ROOT
ATOM      1  C   UNL     1      11.806  14.280  48.011  1.00  0.00     0.171 C 
ENDROOT
BRANCH   1   2
ATOM      2  C   UNL     1      12.925  13.951  47.003  1.00  0.00     0.237 C 
BRANCH   2   3
ATOM      3  N   UNL     1      12.552  12.793  46.182  1.00  0.00    -0.350 N 
ATOM      4  H   UNL     1      11.745  12.291  46.622  1.00  0.00     0.345 HD
ATOM      5  H   UNL     1      13.356  12.125  46.122  1.00  0.00     0.345 HD
ATOM      6  H   UNL     1      12.282  13.094  45.217  1.00  0.00     0.345 HD
ENDBRANCH   2   3
BRANCH   2   7
ATOM      7  C   UNL     1      13.230  15.136  46.124  1.00  0.00     0.100 C 
ATOM      8  O   UNL     1      12.346  15.611  45.361  1.00  0.00    -0.544 OA
ATOM      9  O   UNL     1      14.488  15.724  46.163  1.00  0.00    -0.544 OA
ENDBRANCH   2   7
ENDBRANCH   1   2
BRANCH   1  10
ATOM     10  C   UNL     1      12.322  15.095  49.164  1.00  0.00     0.223 C 
ATOM     11  O   UNL     1      13.549  15.067  49.448  1.00  0.00    -0.275 OA
ATOM     12  N   UNL     1      11.441  15.931  49.913  1.00  0.00    -0.369 N 
ATOM     13  H   UNL     1      11.806  16.506  50.703  1.00  0.00     0.159 HD
ATOM     14  H   UNL     1      10.425  15.981  49.679  1.00  0.00     0.159 HD
ENDBRANCH   1  10
TORSDOF 4
ENDMDL
MODEL 7
REMARK VINA RESULT:    -3.014     18.231     19.314
REMARK INTER + INTRA:          -4.080
REMARK INTER:                  -3.962
REMARK INTRA:                  -0.118
REMARK UNBOUND:                -0.449
REMARK SMILES NC(=O)C[C@@H]([NH3+])C(=O)[O-]
REMARK SMILES IDX 4 1 5 2 6 3 7 7 8 8 9 9 2 10 3 11 1 12
REMARK H PARENT 6 4 6 5 6 6 1 13 1 14
REMARK Flexibility Score: inf
ROOT
ATOM      1  C   UNL     1      27.889   4.924  40.504  1.00  0.00     0.171 C 
ENDROOT
BRANCH   1   2
ATOM      2  C   UNL     1      28.595   4.000  39.492  1.00  0.00     0.237 C 
BRANCH   2   3
ATOM      3  N   UNL     1      28.919   2.710  40.113  1.00  0.00    -0.350 N 
ATOM      4  H   UNL     1      28.245   2.510  40.888  1.00  0.00     0.345 HD
ATOM      5  H   UNL     1      29.883   2.744  40.520  1.00  0.00     0.345 HD
ATOM      6  H   UNL     1      28.869   1.937  39.409  1.00  0.00     0.345 HD
ENDBRANCH   2   3
BRANCH   2   7
ATOM      7  C   UNL     1      27.746   3.789  38.265  1.00  0.00     0.100 C 
ATOM      8  O   UNL     1      27.902   2.765  37.547  1.00  0.00    -0.544 OA
ATOM      9  O   UNL     1      26.771   4.719  37.928  1.00  0.00    -0.544 OA
ENDBRANCH   2   7
ENDBRANCH   1   2
BRANCH   1  10
ATOM     10  C   UNL     1      28.529   6.282  40.554  1.00  0.00     0.223 C 
ATOM     11  O   UNL     1      29.125   6.730  39.538  1.00  0.00    -0.275 OA
ATOM     12  N   UNL     1      28.436   7.085  41.730  1.00  0.00    -0.369 N 
ATOM     13  H   UNL     1      28.869   8.034  41.756  1.00  0.00     0.159 HD
ATOM     14  H   UNL     1      27.930   6.738  42.575  1.00  0.00     0.159 HD
ENDBRANCH   1  10
TORSDOF 4
ENDMDL
MODEL 8
REMARK VINA RESULT:    -2.967      2.018      3.338
REMARK INTER + INTRA:          -4.022
REMARK INTER:                  -3.729
REMARK INTRA:                  -0.293
REMARK UNBOUND:                -0.449
REMARK SMILES NC(=O)C[C@@H]([NH3+])C(=O)[O-]
REMARK SMILES IDX 4 1 5 2 6 3 7 7 8 8 9 9 2 10 3 11 1 12
REMARK H PARENT 6 4 6 5 6 6 1 13 1 14
REMARK Flexibility Score: inf
ROOT
ATOM      1  C   UNL     1      13.089  14.630  47.660  1.00  0.00     0.171 C 
ENDROOT
BRANCH   1   2
ATOM      2  C   UNL     1      12.660  13.399  46.837  1.00  0.00     0.237 C 
BRANCH   2   3
ATOM      3  N   UNL     1      12.028  13.815  45.580  1.00  0.00    -0.350 N 
ATOM      4  H   UNL     1      12.756  14.172  44.918  1.00  0.00     0.345 HD
ATOM      5  H   UNL     1      11.348  14.589  45.763  1.00  0.00     0.345 HD
ATOM      6  H   UNL     1      11.525  13.013  45.134  1.00  0.00     0.345 HD
ENDBRANCH   2   3
BRANCH   2   7
ATOM      7  C   UNL     1      13.835  12.498  46.556  1.00  0.00     0.100 C 
ATOM      8  O   UNL     1      13.750  11.256  46.749  1.00  0.00    -0.544 OA
ATOM      9  O   UNL     1      15.019  13.035  46.064  1.00  0.00    -0.544 OA
ENDBRANCH   2   7
ENDBRANCH   1   2
BRANCH   1  10
ATOM     10  C   UNL     1      13.539  15.758  46.774  1.00  0.00     0.223 C 
ATOM     11  O   UNL     1      12.686  16.423  46.128  1.00  0.00    -0.275 OA
ATOM     12  N   UNL     1      14.921  16.105  46.689  1.00  0.00    -0.369 N 
ATOM     13  H   UNL     1      15.228  16.898  46.084  1.00  0.00     0.159 HD
ATOM     14  H   UNL     1      15.639  15.577  47.232  1.00  0.00     0.159 HD
ENDBRANCH   1  10
TORSDOF 4
ENDMDL
MODEL 9
REMARK VINA RESULT:    -2.869      1.893      2.697
REMARK INTER + INTRA:          -3.905
REMARK INTER:                  -3.641
REMARK INTRA:                  -0.263
REMARK UNBOUND:                -0.449
REMARK SMILES NC(=O)C[C@@H]([NH3+])C(=O)[O-]
REMARK SMILES IDX 4 1 5 2 6 3 7 7 8 8 9 9 2 10 3 11 1 12
REMARK H PARENT 6 4 6 5 6 6 1 13 1 14
REMARK Flexibility Score: inf
ROOT
ATOM      1  C   UNL     1      12.286  12.915  46.520  1.00  0.00     0.171 C 
ENDROOT
BRANCH   1   2
ATOM      2  C   UNL     1      12.280  14.254  47.284  1.00  0.00     0.237 C 
BRANCH   2   3
ATOM      3  N   UNL     1      13.286  14.240  48.352  1.00  0.00    -0.350 N 
ATOM      4  H   UNL     1      13.748  15.177  48.417  1.00  0.00     0.345 HD
ATOM      5  H   UNL     1      14.024  13.528  48.138  1.00  0.00     0.345 HD
ATOM      6  H   UNL     1      12.846  14.012  49.274  1.00  0.00     0.345 HD
ENDBRANCH   2   3
BRANCH   2   7
ATOM      7  C   UNL     1      12.525  15.412  46.352  1.00  0.00     0.100 C 
ATOM      8  O   UNL     1      13.629  16.020  46.364  1.00  0.00    -0.544 OA
ATOM      9  O   UNL     1      11.537  15.806  45.460  1.00  0.00    -0.544 OA
ENDBRANCH   2   7
ENDBRANCH   1   2
BRANCH   1  10
ATOM     10  C   UNL     1      13.633  12.252  46.575  1.00  0.00     0.223 C 
ATOM     11  O   UNL     1      14.660  12.896  46.232  1.00  0.00    -0.275 OA
ATOM     12  N   UNL     1      13.764  10.912  47.050  1.00  0.00    -0.369 N 
ATOM     13  H   UNL     1      14.703  10.461  47.101  1.00  0.00     0.159 HD
ATOM     14  H   UNL     1      12.926  10.371  47.357  1.00  0.00     0.159 HD
ENDBRANCH   1  10
TORSDOF 4
ENDMDL
