MODEL 1
REMARK VINA RESULT:    -2.821      0.000      0.000
REMARK INTER + INTRA:          -2.821
REMARK INTER:                  -2.821
REMARK INTRA:                   0.000
REMARK UNBOUND:                 0.000
REMARK SMILES CC(=O)[O-]
REMARK SMILES IDX 1 1 2 2 3 3 4 4
REMARK H PARENT
REMARK Flexibility Score: inf
ROOT
ATOM      1  C   UNL     1       6.505   0.665  30.339  1.00  0.00     0.063 C 
ATOM      2  C   UNL     1       7.364   1.005  31.509  1.00  0.00     0.038 C 
ATOM      3  O   UNL     1       7.902   0.088  32.184  1.00  0.00    -0.550 OA
ATOM      4  O   UNL     1       7.527   2.330  31.892  1.00  0.00    -0.550 OA
ENDROOT
TORSDOF 0
ENDMDL
MODEL 2
REMARK VINA RESULT:    -2.690      1.544      1.840
REMARK INTER + INTRA:          -2.690
REMARK INTER:                  -2.690
REMARK INTRA:                   0.000
REMARK UNBOUND:                 0.000
REMARK SMILES CC(=O)[O-]
REMARK SMILES IDX 1 1 2 2 3 3 4 4
REMARK H PARENT
REMARK Flexibility Score: inf
ROOT
ATOM      1  C   UNL     1       6.836   2.308  31.397  1.00  0.00     0.063 C 
ATOM      2  C   UNL     1       6.902   0.832  31.190  1.00  0.00     0.038 C 
ATOM      3  O   UNL     1       7.574   0.114  31.977  1.00  0.00    -0.550 OA
ATOM      4  O   UNL     1       6.268   0.253  30.098  1.00  0.00    -0.550 OA
ENDROOT
TORSDOF 0
ENDMDL
MODEL 3
REMARK VINA RESULT:    -2.542     15.937     16.016
REMARK INTER + INTRA:          -2.542
REMARK INTER:                  -2.542
REMARK INTRA:                   0.000
REMARK UNBOUND:                 0.000
REMARK SMILES CC(=O)[O-]
REMARK SMILES IDX 1 1 2 2 3 3 4 4
REMARK H PARENT
REMARK Flexibility Score: inf
ROOT
ATOM      1  C   UNL     1      20.083  -2.357  22.828  1.00  0.00     0.063 C 
ATOM      2  C   UNL     1      20.704  -1.005  22.938  1.00  0.00     0.038 C 
ATOM      3  O   UNL     1      21.722  -0.835  23.660  1.00  0.00    -0.550 OA
ATOM      4  O   UNL     1      20.130   0.080  22.288  1.00  0.00    -0.550 OA
ENDROOT
TORSDOF 0
ENDMDL
MODEL 4
REMARK VINA RESULT:    -2.470      9.371      9.515
REMARK INTER + INTRA:          -2.470
REMARK INTER:                  -2.470
REMARK INTRA:                   0.000
REMARK UNBOUND:                 0.000
REMARK SMILES CC(=O)[O-]
REMARK SMILES IDX 1 1 2 2 3 3 4 4
REMARK H PARENT
REMARK Flexibility Score: inf
ROOT
ATOM      1  C   UNL     1      15.512   1.880  25.122  1.00  0.00     0.063 C 
ATOM      2  C   UNL     1      14.983   1.056  26.246  1.00  0.00     0.038 C 
ATOM      3  O   UNL     1      14.443   1.614  27.238  1.00  0.00    -0.550 OA
ATOM      4  O   UNL     1      15.134  -0.325  26.230  1.00  0.00    -0.550 OA
ENDROOT
TORSDOF 0
ENDMDL
MODEL 5
REMARK VINA RESULT:    -2.470      6.782      6.930
REMARK INTER + INTRA:          -2.470
REMARK INTER:                  -2.470
REMARK INTRA:                   0.000
REMARK UNBOUND:                 0.000
REMARK SMILES CC(=O)[O-]
REMARK SMILES IDX 1 1 2 2 3 3 4 4
REMARK H PARENT
REMARK Flexibility Score: inf
ROOT
ATOM      1  C   UNL     1      10.640   0.053  26.142  1.00  0.00     0.063 C 
ATOM      2  C   UNL     1      11.986  -0.397  26.601  1.00  0.00     0.038 C 
ATOM      3  O   UNL     1      12.593  -1.308  25.979  1.00  0.00    -0.550 OA
ATOM      4  O   UNL     1      12.549   0.149  27.746  1.00  0.00    -0.550 OA
ENDROOT
TORSDOF 0
ENDMDL
MODEL 6
REMARK VINA RESULT:    -2.449      9.352      9.488
REMARK INTER + INTRA:          -2.449
REMARK INTER:                  -2.449
REMARK INTRA:                   0.000
REMARK UNBOUND:                 0.000
REMARK SMILES CC(=O)[O-]
REMARK SMILES IDX 1 1 2 2 3 3 4 4
REMARK H PARENT
REMARK Flexibility Score: inf
ROOT
ATOM      1  C   UNL     1      15.770  -2.368  26.557  1.00  0.00     0.063 C 
ATOM      2  C   UNL     1      14.712  -1.339  26.340  1.00  0.00     0.038 C 
ATOM      3  O   UNL     1      13.505  -1.686  26.247  1.00  0.00    -0.550 OA
ATOM      4  O   UNL     1      15.060  -0.004  26.185  1.00  0.00    -0.550 OA
ENDROOT
TORSDOF 0
ENDMDL
MODEL 7
REMARK VINA RESULT:    -2.419      7.283      7.606
REMARK INTER + INTRA:          -2.419
REMARK INTER:                  -2.419
REMARK INTRA:                   0.000
REMARK UNBOUND:                 0.000
REMARK SMILES CC(=O)[O-]
REMARK SMILES IDX 1 1 2 2 3 3 4 4
REMARK H PARENT
REMARK Flexibility Score: inf
ROOT
ATOM      1  C   UNL     1      13.041   0.758  29.599  1.00  0.00     0.063 C 
ATOM      2  C   UNL     1      14.017   0.481  28.507  1.00  0.00     0.038 C 
ATOM      3  O   UNL     1      14.452   1.423  27.794  1.00  0.00    -0.550 OA
ATOM      4  O   UNL     1      14.408  -0.824  28.238  1.00  0.00    -0.550 OA
ENDROOT
TORSDOF 0
ENDMDL
MODEL 8
REMARK VINA RESULT:    -2.363      7.307      7.468
REMARK INTER + INTRA:          -2.363
REMARK INTER:                  -2.363
REMARK INTRA:                   0.000
REMARK UNBOUND:                 0.000
REMARK SMILES CC(=O)[O-]
REMARK SMILES IDX 1 1 2 2 3 3 4 4
REMARK H PARENT
REMARK Flexibility Score: inf
ROOT
ATOM      1  C   UNL     1      13.201   0.501  29.758  1.00  0.00     0.063 C 
ATOM      2  C   UNL     1      14.015   0.311  28.524  1.00  0.00     0.038 C 
ATOM      3  O   UNL     1      14.314  -0.850  28.137  1.00  0.00    -0.550 OA
ATOM      4  O   UNL     1      14.491   1.414  27.827  1.00  0.00    -0.550 OA
ENDROOT
TORSDOF 0
ENDMDL
MODEL 9
REMARK VINA RESULT:    -2.336      9.173      9.414
REMARK INTER + INTRA:          -2.336
REMARK INTER:                  -2.336
REMARK INTRA:                   0.000
REMARK UNBOUND:                 0.000
REMARK SMILES CC(=O)[O-]
REMARK SMILES IDX 1 1 2 2 3 3 4 4
REMARK H PARENT
REMARK Flexibility Score: inf
ROOT
ATOM      1  C   UNL     1      13.182  -1.335  26.298  1.00  0.00     0.063 C 
ATOM      2  C   UNL     1      14.659  -1.130  26.270  1.00  0.00     0.038 C 
ATOM      3  O   UNL     1      15.133   0.034  26.197  1.00  0.00    -0.550 OA
ATOM      4  O   UNL     1      15.514  -2.225  26.267  1.00  0.00    -0.550 OA
ENDROOT
TORSDOF 0
ENDMDL
