MODEL 1
REMARK VINA RESULT:    11.853      0.000      0.000
REMARK INTER + INTRA:          32.764
REMARK INTER:                  31.254
REMARK INTRA:                   1.510
REMARK UNBOUND:                 1.510
REMARK SMILES CCCCCCCCCCCCCCCCCCCCCCCCCCCCCC(=O)[O-]
REMARK SMILES IDX 16 1 17 2 18 3 19 4 20 5 21 6 22 7 23 8 24 9 25 10 26 11
REMARK SMILES IDX 27 12 28 13 29 14 30 15 31 16 32 17 15 18 14 19 13 20 12 21
REMARK SMILES IDX 11 22 10 23 9 24 8 25 7 26 6 27 5 28 4 29 3 30 2 31 1 32
REMARK H PARENT
REMARK Flexibility Score: inf
ROOT
ATOM      1  C   UNL     1      -5.672  35.095  23.878  1.00  0.00     0.000 C 
ENDROOT
BRANCH   1   2
ATOM      2  C   UNL     1      -5.454  33.753  23.152  1.00  0.00     0.000 C 
BRANCH   2   3
ATOM      3  C   UNL     1      -5.907  33.783  21.684  1.00  0.00     0.000 C 
BRANCH   3   4
ATOM      4  C   UNL     1      -4.794  34.328  20.774  1.00  0.00     0.000 C 
BRANCH   4   5
ATOM      5  C   UNL     1      -4.927  33.826  19.327  1.00  0.00     0.000 C 
BRANCH   5   6
ATOM      6  C   UNL     1      -5.872  34.699  18.487  1.00  0.00     0.000 C 
BRANCH   6   7
ATOM      7  C   UNL     1      -5.123  35.479  17.382  1.00  0.00     0.000 C 
BRANCH   7   8
ATOM      8  C   UNL     1      -3.690  34.971  17.143  1.00  0.00     0.000 C 
BRANCH   8   9
ATOM      9  C   UNL     1      -3.325  34.757  15.661  1.00  0.00     0.000 C 
BRANCH   9  10
ATOM     10  C   UNL     1      -1.841  35.041  15.333  1.00  0.00     0.000 C 
BRANCH  10  11
ATOM     11  C   UNL     1      -1.569  36.518  15.006  1.00  0.00     0.000 C 
BRANCH  11  12
ATOM     12  C   UNL     1      -2.842  37.379  15.042  1.00  0.00     0.000 C 
BRANCH  12  13
ATOM     13  C   UNL     1      -3.800  37.078  13.875  1.00  0.00     0.006 C 
BRANCH  13  14
ATOM     14  C   UNL     1      -5.166  37.752  14.062  1.00  0.00     0.053 C 
BRANCH  14  15
ATOM     15  C   UNL     1      -5.032  39.232  14.247  1.00  0.00     0.041 C 
ATOM     16  O   UNL     1      -5.955  40.005  13.875  1.00  0.00    -0.550 OA
ATOM     17  O   UNL     1      -3.876  39.761  14.804  1.00  0.00    -0.550 OA
ENDBRANCH  14  15
ENDBRANCH  13  14
ENDBRANCH  12  13
ENDBRANCH  11  12
ENDBRANCH  10  11
ENDBRANCH   9  10
ENDBRANCH   8   9
ENDBRANCH   7   8
ENDBRANCH   6   7
ENDBRANCH   5   6
ENDBRANCH   4   5
ENDBRANCH   3   4
ENDBRANCH   2   3
ENDBRANCH   1   2
BRANCH   1  18
ATOM     18  C   UNL     1      -6.115  36.257  22.966  1.00  0.00     0.000 C 
BRANCH  18  19
ATOM     19  C   UNL     1      -5.067  36.665  21.913  1.00  0.00     0.000 C 
BRANCH  19  20
ATOM     20  C   UNL     1      -5.705  37.278  20.654  1.00  0.00     0.000 C 
BRANCH  20  21
ATOM     21  C   UNL     1      -5.108  38.653  20.298  1.00  0.00     0.000 C 
BRANCH  21  22
ATOM     22  C   UNL     1      -5.761  39.843  21.029  1.00  0.00     0.000 C 
BRANCH  22  23
ATOM     23  C   UNL     1      -5.841  39.706  22.564  1.00  0.00     0.000 C 
BRANCH  23  24
ATOM     24  C   UNL     1      -4.508  39.910  23.307  1.00  0.00    -0.000 C 
BRANCH  24  25
ATOM     25  C   UNL     1      -4.638  39.726  24.825  1.00  0.00    -0.000 C 
BRANCH  25  26
ATOM     26  C   UNL     1      -4.986  38.271  25.180  1.00  0.00    -0.000 C 
BRANCH  26  27
ATOM     27  C   UNL     1      -4.410  37.862  26.545  1.00  0.00    -0.000 C 
BRANCH  27  28
ATOM     28  C   UNL     1      -3.540  36.595  26.454  1.00  0.00    -0.000 C 
BRANCH  28  29
ATOM     29  C   UNL     1      -2.670  36.397  27.713  1.00  0.00    -0.000 C 
BRANCH  29  30
ATOM     30  C   UNL     1      -2.120  34.967  27.857  1.00  0.00    -0.000 C 
BRANCH  30  31
ATOM     31  C   UNL     1      -2.104  34.471  29.309  1.00  0.00    -0.003 C 
ATOM     32  C   UNL     1      -0.680  34.191  29.779  1.00  0.00     0.004 C 
ENDBRANCH  30  31
ENDBRANCH  29  30
ENDBRANCH  28  29
ENDBRANCH  27  28
ENDBRANCH  26  27
ENDBRANCH  25  26
ENDBRANCH  24  25
ENDBRANCH  23  24
ENDBRANCH  22  23
ENDBRANCH  21  22
ENDBRANCH  20  21
ENDBRANCH  19  20
ENDBRANCH  18  19
ENDBRANCH   1  18
TORSDOF 28
ENDMDL
MODEL 2
REMARK VINA RESULT:    12.997      2.388      5.691
REMARK INTER + INTRA:          35.781
REMARK INTER:                  37.320
REMARK INTRA:                  -1.539
REMARK UNBOUND:                 1.510
REMARK SMILES CCCCCCCCCCCCCCCCCCCCCCCCCCCCCC(=O)[O-]
REMARK SMILES IDX 16 1 17 2 18 3 19 4 20 5 21 6 22 7 23 8 24 9 25 10 26 11
REMARK SMILES IDX 27 12 28 13 29 14 30 15 31 16 32 17 15 18 14 19 13 20 12 21
REMARK SMILES IDX 11 22 10 23 9 24 8 25 7 26 6 27 5 28 4 29 3 30 2 31 1 32
REMARK H PARENT
REMARK Flexibility Score: inf
ROOT
ATOM      1  C   UNL     1      -5.353  37.455  24.103  1.00  0.00     0.000 C 
ENDROOT
BRANCH   1   2
ATOM      2  C   UNL     1      -5.370  38.995  24.033  1.00  0.00     0.000 C 
BRANCH   2   3
ATOM      3  C   UNL     1      -5.020  39.537  22.637  1.00  0.00     0.000 C 
BRANCH   3   4
ATOM      4  C   UNL     1      -6.097  39.151  21.610  1.00  0.00     0.000 C 
BRANCH   4   5
ATOM      5  C   UNL     1      -5.519  38.981  20.195  1.00  0.00     0.000 C 
BRANCH   5   6
ATOM      6  C   UNL     1      -4.867  37.605  19.989  1.00  0.00     0.000 C 
BRANCH   6   7
ATOM      7  C   UNL     1      -5.795  36.447  20.421  1.00  0.00     0.000 C 
BRANCH   7   8
ATOM      8  C   UNL     1      -5.033  35.231  20.978  1.00  0.00     0.000 C 
BRANCH   8   9
ATOM      9  C   UNL     1      -4.458  34.288  19.903  1.00  0.00     0.000 C 
BRANCH   9  10
ATOM     10  C   UNL     1      -4.931  34.611  18.467  1.00  0.00     0.000 C 
BRANCH  10  11
ATOM     11  C   UNL     1      -3.800  34.529  17.429  1.00  0.00     0.000 C 
BRANCH  11  12
ATOM     12  C   UNL     1      -3.909  35.613  16.345  1.00  0.00     0.000 C 
BRANCH  12  13
ATOM     13  C   UNL     1      -2.645  35.711  15.469  1.00  0.00     0.006 C 
BRANCH  13  14
ATOM     14  C   UNL     1      -2.937  36.345  14.103  1.00  0.00     0.053 C 
BRANCH  14  15
ATOM     15  C   UNL     1      -4.068  37.323  14.177  1.00  0.00     0.041 C 
ATOM     16  O   UNL     1      -5.238  36.966  13.875  1.00  0.00    -0.550 OA
ATOM     17  O   UNL     1      -3.828  38.638  14.553  1.00  0.00    -0.550 OA
ENDBRANCH  14  15
ENDBRANCH  13  14
ENDBRANCH  12  13
ENDBRANCH  11  12
ENDBRANCH  10  11
ENDBRANCH   9  10
ENDBRANCH   8   9
ENDBRANCH   7   8
ENDBRANCH   6   7
ENDBRANCH   5   6
ENDBRANCH   4   5
ENDBRANCH   3   4
ENDBRANCH   2   3
ENDBRANCH   1   2
BRANCH   1  18
ATOM     18  C   UNL     1      -5.111  36.877  25.512  1.00  0.00     0.000 C 
BRANCH  18  19
ATOM     19  C   UNL     1      -5.152  37.926  26.639  1.00  0.00     0.000 C 
BRANCH  19  20
ATOM     20  C   UNL     1      -3.790  38.100  27.331  1.00  0.00     0.000 C 
BRANCH  20  21
ATOM     21  C   UNL     1      -2.700  37.193  26.729  1.00  0.00     0.000 C 
BRANCH  21  22
ATOM     22  C   UNL     1      -2.729  35.736  27.232  1.00  0.00     0.000 C 
BRANCH  22  23
ATOM     23  C   UNL     1      -1.622  35.369  28.244  1.00  0.00     0.000 C 
BRANCH  23  24
ATOM     24  C   UNL     1      -1.948  34.178  29.163  1.00  0.00    -0.000 C 
BRANCH  24  25
ATOM     25  C   UNL     1      -0.715  33.324  29.490  1.00  0.00    -0.000 C 
BRANCH  25  26
ATOM     26  C   UNL     1       0.546  34.194  29.618  1.00  0.00    -0.000 C 
BRANCH  26  27
ATOM     27  C   UNL     1       1.785  33.494  29.036  1.00  0.00    -0.000 C 
BRANCH  27  28
ATOM     28  C   UNL     1       3.032  33.690  29.917  1.00  0.00    -0.000 C 
BRANCH  28  29
ATOM     29  C   UNL     1       4.014  34.716  29.313  1.00  0.00    -0.000 C 
BRANCH  29  30
ATOM     30  C   UNL     1       3.976  34.768  27.775  1.00  0.00    -0.000 C 
BRANCH  30  31
ATOM     31  C   UNL     1       3.776  36.186  27.225  1.00  0.00    -0.003 C 
ATOM     32  C   UNL     1       5.114  36.882  27.000  1.00  0.00     0.004 C 
ENDBRANCH  30  31
ENDBRANCH  29  30
ENDBRANCH  28  29
ENDBRANCH  27  28
ENDBRANCH  26  27
ENDBRANCH  25  26
ENDBRANCH  24  25
ENDBRANCH  23  24
ENDBRANCH  22  23
ENDBRANCH  21  22
ENDBRANCH  20  21
ENDBRANCH  19  20
ENDBRANCH  18  19
ENDBRANCH   1  18
TORSDOF 28
ENDMDL
MODEL 3
REMARK VINA RESULT:    13.814      2.029      4.780
REMARK INTER + INTRA:          37.935
REMARK INTER:                  34.919
REMARK INTRA:                   3.017
REMARK UNBOUND:                 1.510
REMARK SMILES CCCCCCCCCCCCCCCCCCCCCCCCCCCCCC(=O)[O-]
REMARK SMILES IDX 16 1 17 2 18 3 19 4 20 5 21 6 22 7 23 8 24 9 25 10 26 11
REMARK SMILES IDX 27 12 28 13 29 14 30 15 31 16 32 17 15 18 14 19 13 20 12 21
REMARK SMILES IDX 11 22 10 23 9 24 8 25 7 26 6 27 5 28 4 29 3 30 2 31 1 32
REMARK H PARENT
REMARK Flexibility Score: inf
ROOT
ATOM      1  C   UNL     1      -5.923  34.513  24.758  1.00  0.00     0.000 C 
ENDROOT
BRANCH   1   2
ATOM      2  C   UNL     1      -6.122  33.509  23.605  1.00  0.00     0.000 C 
BRANCH   2   3
ATOM      3  C   UNL     1      -4.942  33.482  22.621  1.00  0.00     0.000 C 
BRANCH   3   4
ATOM      4  C   UNL     1      -4.629  34.893  22.096  1.00  0.00     0.000 C 
BRANCH   4   5
ATOM      5  C   UNL     1      -5.902  35.674  21.730  1.00  0.00     0.000 C 
BRANCH   5   6
ATOM      6  C   UNL     1      -5.608  37.136  21.362  1.00  0.00     0.000 C 
BRANCH   6   7
ATOM      7  C   UNL     1      -5.229  37.300  19.872  1.00  0.00     0.000 C 
BRANCH   7   8
ATOM      8  C   UNL     1      -5.700  36.129  18.991  1.00  0.00     0.000 C 
BRANCH   8   9
ATOM      9  C   UNL     1      -4.724  34.937  18.935  1.00  0.00     0.000 C 
BRANCH   9  10
ATOM     10  C   UNL     1      -4.417  34.445  17.502  1.00  0.00     0.000 C 
BRANCH  10  11
ATOM     11  C   UNL     1      -3.630  35.471  16.669  1.00  0.00     0.000 C 
BRANCH  11  12
ATOM     12  C   UNL     1      -2.568  34.819  15.770  1.00  0.00     0.000 C 
BRANCH  12  13
ATOM     13  C   UNL     1      -1.809  35.842  14.904  1.00  0.00     0.006 C 
BRANCH  13  14
ATOM     14  C   UNL     1      -2.444  37.237  14.970  1.00  0.00     0.053 C 
BRANCH  14  15
ATOM     15  C   UNL     1      -3.836  37.239  14.418  1.00  0.00     0.041 C 
ATOM     16  O   UNL     1      -4.537  38.284  14.466  1.00  0.00    -0.550 OA
ATOM     17  O   UNL     1      -4.370  36.077  13.876  1.00  0.00    -0.550 OA
ENDBRANCH  14  15
ENDBRANCH  13  14
ENDBRANCH  12  13
ENDBRANCH  11  12
ENDBRANCH  10  11
ENDBRANCH   9  10
ENDBRANCH   8   9
ENDBRANCH   7   8
ENDBRANCH   6   7
ENDBRANCH   5   6
ENDBRANCH   4   5
ENDBRANCH   3   4
ENDBRANCH   2   3
ENDBRANCH   1   2
BRANCH   1  18
ATOM     18  C   UNL     1      -5.923  35.995  24.330  1.00  0.00     0.000 C 
BRANCH  18  19
ATOM     19  C   UNL     1      -5.568  36.977  25.462  1.00  0.00     0.000 C 
BRANCH  19  20
ATOM     20  C   UNL     1      -4.235  36.629  26.146  1.00  0.00     0.000 C 
BRANCH  20  21
ATOM     21  C   UNL     1      -3.421  37.881  26.527  1.00  0.00     0.000 C 
BRANCH  21  22
ATOM     22  C   UNL     1      -2.386  37.656  27.648  1.00  0.00     0.000 C 
BRANCH  22  23
ATOM     23  C   UNL     1      -1.660  36.294  27.606  1.00  0.00     0.000 C 
BRANCH  23  24
ATOM     24  C   UNL     1      -2.489  35.098  28.109  1.00  0.00    -0.000 C 
BRANCH  24  25
ATOM     25  C   UNL     1      -1.618  33.942  28.620  1.00  0.00    -0.000 C 
BRANCH  25  26
ATOM     26  C   UNL     1      -1.528  33.951  30.154  1.00  0.00    -0.000 C 
BRANCH  26  27
ATOM     27  C   UNL     1      -0.119  34.324  30.643  1.00  0.00    -0.000 C 
BRANCH  27  28
ATOM     28  C   UNL     1       0.982  33.800  29.704  1.00  0.00    -0.000 C 
BRANCH  28  29
ATOM     29  C   UNL     1       2.378  34.328  30.094  1.00  0.00    -0.000 C 
BRANCH  29  30
ATOM     30  C   UNL     1       3.510  33.320  29.829  1.00  0.00    -0.000 C 
BRANCH  30  31
ATOM     31  C   UNL     1       3.567  32.192  30.868  1.00  0.00    -0.003 C 
ATOM     32  C   UNL     1       4.573  32.511  31.969  1.00  0.00     0.004 C 
ENDBRANCH  30  31
ENDBRANCH  29  30
ENDBRANCH  28  29
ENDBRANCH  27  28
ENDBRANCH  26  27
ENDBRANCH  25  26
ENDBRANCH  24  25
ENDBRANCH  23  24
ENDBRANCH  22  23
ENDBRANCH  21  22
ENDBRANCH  20  21
ENDBRANCH  19  20
ENDBRANCH  18  19
ENDBRANCH   1  18
TORSDOF 28
ENDMDL
MODEL 4
REMARK VINA RESULT:    14.102      4.961     11.732
REMARK INTER + INTRA:          38.694
REMARK INTER:                  40.099
REMARK INTRA:                  -1.405
REMARK UNBOUND:                 1.510
REMARK SMILES CCCCCCCCCCCCCCCCCCCCCCCCCCCCCC(=O)[O-]
REMARK SMILES IDX 16 1 17 2 18 3 19 4 20 5 21 6 22 7 23 8 24 9 25 10 26 11
REMARK SMILES IDX 27 12 28 13 29 14 30 15 31 16 32 17 15 18 14 19 13 20 12 21
REMARK SMILES IDX 11 22 10 23 9 24 8 25 7 26 6 27 5 28 4 29 3 30 2 31 1 32
REMARK H PARENT
REMARK Flexibility Score: inf
ROOT
ATOM      1  C   UNL     1      -4.687  39.322  23.440  1.00  0.00     0.000 C 
ENDROOT
BRANCH   1   2
ATOM      2  C   UNL     1      -5.325  38.921  24.785  1.00  0.00     0.000 C 
BRANCH   2   3
ATOM      3  C   UNL     1      -5.447  37.399  24.962  1.00  0.00     0.000 C 
BRANCH   3   4
ATOM      4  C   UNL     1      -4.328  36.858  25.866  1.00  0.00     0.000 C 
BRANCH   4   5
ATOM      5  C   UNL     1      -3.750  37.942  26.791  1.00  0.00     0.000 C 
BRANCH   5   6
ATOM      6  C   UNL     1      -2.214  37.920  26.834  1.00  0.00     0.000 C 
BRANCH   6   7
ATOM      7  C   UNL     1      -1.654  36.493  27.033  1.00  0.00     0.000 C 
BRANCH   7   8
ATOM      8  C   UNL     1      -1.967  35.904  28.421  1.00  0.00     0.000 C 
BRANCH   8   9
ATOM      9  C   UNL     1      -2.424  34.432  28.404  1.00  0.00     0.000 C 
BRANCH   9  10
ATOM     10  C   UNL     1      -2.110  33.663  29.708  1.00  0.00     0.000 C 
BRANCH  10  11
ATOM     11  C   UNL     1      -0.681  33.907  30.221  1.00  0.00     0.000 C 
BRANCH  11  12
ATOM     12  C   UNL     1       0.395  33.388  29.253  1.00  0.00     0.000 C 
BRANCH  12  13
ATOM     13  C   UNL     1       1.793  33.960  29.552  1.00  0.00     0.006 C 
BRANCH  13  14
ATOM     14  C   UNL     1       2.847  32.855  29.707  1.00  0.00     0.053 C 
BRANCH  14  15
ATOM     15  C   UNL     1       4.129  33.387  30.269  1.00  0.00     0.041 C 
ATOM     16  O   UNL     1       4.242  33.591  31.507  1.00  0.00    -0.550 OA
ATOM     17  O   UNL     1       5.189  33.685  29.424  1.00  0.00    -0.550 OA
ENDBRANCH  14  15
ENDBRANCH  13  14
ENDBRANCH  12  13
ENDBRANCH  11  12
ENDBRANCH  10  11
ENDBRANCH   9  10
ENDBRANCH   8   9
ENDBRANCH   7   8
ENDBRANCH   6   7
ENDBRANCH   5   6
ENDBRANCH   4   5
ENDBRANCH   3   4
ENDBRANCH   2   3
ENDBRANCH   1   2
BRANCH   1  18
ATOM     18  C   UNL     1      -5.623  39.202  22.220  1.00  0.00     0.000 C 
BRANCH  18  19
ATOM     19  C   UNL     1      -4.932  38.681  20.946  1.00  0.00     0.000 C 
BRANCH  19  20
ATOM     20  C   UNL     1      -5.494  37.325  20.484  1.00  0.00     0.000 C 
BRANCH  20  21
ATOM     21  C   UNL     1      -6.125  36.522  21.638  1.00  0.00     0.000 C 
BRANCH  21  22
ATOM     22  C   UNL     1      -5.189  35.478  22.278  1.00  0.00     0.000 C 
BRANCH  22  23
ATOM     23  C   UNL     1      -3.987  35.054  21.408  1.00  0.00     0.000 C 
BRANCH  23  24
ATOM     24  C   UNL     1      -4.279  33.932  20.395  1.00  0.00    -0.000 C 
BRANCH  24  25
ATOM     25  C   UNL     1      -5.442  34.270  19.451  1.00  0.00    -0.000 C 
BRANCH  25  26
ATOM     26  C   UNL     1      -5.003  34.190  17.979  1.00  0.00    -0.000 C 
BRANCH  26  27
ATOM     27  C   UNL     1      -4.403  35.517  17.488  1.00  0.00    -0.000 C 
BRANCH  27  28
ATOM     28  C   UNL     1      -3.537  35.335  16.229  1.00  0.00    -0.000 C 
BRANCH  28  29
ATOM     29  C   UNL     1      -4.282  35.759  14.945  1.00  0.00    -0.000 C 
BRANCH  29  30
ATOM     30  C   UNL     1      -3.682  37.006  14.273  1.00  0.00    -0.000 C 
BRANCH  30  31
ATOM     31  C   UNL     1      -2.162  37.115  14.454  1.00  0.00    -0.003 C 
ATOM     32  C   UNL     1      -1.463  35.834  14.010  1.00  0.00     0.004 C 
ENDBRANCH  30  31
ENDBRANCH  29  30
ENDBRANCH  28  29
ENDBRANCH  27  28
ENDBRANCH  26  27
ENDBRANCH  25  26
ENDBRANCH  24  25
ENDBRANCH  23  24
ENDBRANCH  22  23
ENDBRANCH  21  22
ENDBRANCH  20  21
ENDBRANCH  19  20
ENDBRANCH  18  19
ENDBRANCH   1  18
TORSDOF 28
ENDMDL
MODEL 5
REMARK VINA RESULT:    14.117      3.531      5.042
REMARK INTER + INTRA:          38.734
REMARK INTER:                  38.837
REMARK INTRA:                  -0.103
REMARK UNBOUND:                 1.510
REMARK SMILES CCCCCCCCCCCCCCCCCCCCCCCCCCCCCC(=O)[O-]
REMARK SMILES IDX 16 1 17 2 18 3 19 4 20 5 21 6 22 7 23 8 24 9 25 10 26 11
REMARK SMILES IDX 27 12 28 13 29 14 30 15 31 16 32 17 15 18 14 19 13 20 12 21
REMARK SMILES IDX 11 22 10 23 9 24 8 25 7 26 6 27 5 28 4 29 3 30 2 31 1 32
REMARK H PARENT
REMARK Flexibility Score: inf
ROOT
ATOM      1  C   UNL     1      -5.415  34.969  24.916  1.00  0.00     0.000 C 
ENDROOT
BRANCH   1   2
ATOM      2  C   UNL     1      -6.057  34.000  23.903  1.00  0.00     0.000 C 
BRANCH   2   3
ATOM      3  C   UNL     1      -5.208  33.807  22.636  1.00  0.00     0.000 C 
BRANCH   3   4
ATOM      4  C   UNL     1      -4.798  35.161  22.035  1.00  0.00     0.000 C 
BRANCH   4   5
ATOM      5  C   UNL     1      -5.988  35.904  21.406  1.00  0.00     0.000 C 
BRANCH   5   6
ATOM      6  C   UNL     1      -5.646  37.355  21.037  1.00  0.00     0.000 C 
BRANCH   6   7
ATOM      7  C   UNL     1      -4.781  37.447  19.759  1.00  0.00     0.000 C 
BRANCH   7   8
ATOM      8  C   UNL     1      -5.422  36.759  18.540  1.00  0.00     0.000 C 
BRANCH   8   9
ATOM      9  C   UNL     1      -5.505  35.223  18.642  1.00  0.00     0.000 C 
BRANCH   9  10
ATOM     10  C   UNL     1      -4.285  34.487  18.041  1.00  0.00     0.000 C 
BRANCH  10  11
ATOM     11  C   UNL     1      -3.335  35.424  17.276  1.00  0.00     0.000 C 
BRANCH  11  12
ATOM     12  C   UNL     1      -2.921  34.862  15.906  1.00  0.00     0.000 C 
BRANCH  12  13
ATOM     13  C   UNL     1      -2.018  35.826  15.114  1.00  0.00     0.006 C 
BRANCH  13  14
ATOM     14  C   UNL     1      -2.726  36.393  13.875  1.00  0.00     0.053 C 
BRANCH  14  15
ATOM     15  C   UNL     1      -3.939  37.189  14.247  1.00  0.00     0.041 C 
ATOM     16  O   UNL     1      -3.819  38.376  14.652  1.00  0.00    -0.550 OA
ATOM     17  O   UNL     1      -5.199  36.612  14.172  1.00  0.00    -0.550 OA
ENDBRANCH  14  15
ENDBRANCH  13  14
ENDBRANCH  12  13
ENDBRANCH  11  12
ENDBRANCH  10  11
ENDBRANCH   9  10
ENDBRANCH   8   9
ENDBRANCH   7   8
ENDBRANCH   6   7
ENDBRANCH   5   6
ENDBRANCH   4   5
ENDBRANCH   3   4
ENDBRANCH   2   3
ENDBRANCH   1   2
BRANCH   1  18
ATOM     18  C   UNL     1      -6.124  36.333  25.042  1.00  0.00     0.000 C 
BRANCH  18  19
ATOM     19  C   UNL     1      -5.545  37.243  26.142  1.00  0.00     0.000 C 
BRANCH  19  20
ATOM     20  C   UNL     1      -4.141  37.768  25.794  1.00  0.00     0.000 C 
BRANCH  20  21
ATOM     21  C   UNL     1      -3.020  36.875  26.359  1.00  0.00     0.000 C 
BRANCH  21  22
ATOM     22  C   UNL     1      -2.336  37.430  27.625  1.00  0.00     0.000 C 
BRANCH  22  23
ATOM     23  C   UNL     1      -1.133  38.362  27.364  1.00  0.00     0.000 C 
BRANCH  23  24
ATOM     24  C   UNL     1       0.213  37.646  27.154  1.00  0.00    -0.000 C 
BRANCH  24  25
ATOM     25  C   UNL     1       0.942  38.108  25.885  1.00  0.00    -0.000 C 
BRANCH  25  26
ATOM     26  C   UNL     1       2.466  38.100  26.086  1.00  0.00    -0.000 C 
BRANCH  26  27
ATOM     27  C   UNL     1       3.054  39.521  26.060  1.00  0.00    -0.000 C 
BRANCH  27  28
ATOM     28  C   UNL     1       4.375  39.619  26.844  1.00  0.00    -0.000 C 
BRANCH  28  29
ATOM     29  C   UNL     1       5.340  38.465  26.502  1.00  0.00    -0.000 C 
BRANCH  29  30
ATOM     30  C   UNL     1       5.201  37.253  27.439  1.00  0.00    -0.000 C 
BRANCH  30  31
ATOM     31  C   UNL     1       4.368  36.116  26.833  1.00  0.00    -0.003 C 
ATOM     32  C   UNL     1       4.742  34.772  27.449  1.00  0.00     0.004 C 
ENDBRANCH  30  31
ENDBRANCH  29  30
ENDBRANCH  28  29
ENDBRANCH  27  28
ENDBRANCH  26  27
ENDBRANCH  25  26
ENDBRANCH  24  25
ENDBRANCH  23  24
ENDBRANCH  22  23
ENDBRANCH  21  22
ENDBRANCH  20  21
ENDBRANCH  19  20
ENDBRANCH  18  19
ENDBRANCH   1  18
TORSDOF 28
ENDMDL
MODEL 6
REMARK VINA RESULT:    14.609      3.450      5.545
REMARK INTER + INTRA:          40.033
REMARK INTER:                  41.527
REMARK INTRA:                  -1.494
REMARK UNBOUND:                 1.510
REMARK SMILES CCCCCCCCCCCCCCCCCCCCCCCCCCCCCC(=O)[O-]
REMARK SMILES IDX 16 1 17 2 18 3 19 4 20 5 21 6 22 7 23 8 24 9 25 10 26 11
REMARK SMILES IDX 27 12 28 13 29 14 30 15 31 16 32 17 15 18 14 19 13 20 12 21
REMARK SMILES IDX 11 22 10 23 9 24 8 25 7 26 6 27 5 28 4 29 3 30 2 31 1 32
REMARK H PARENT
REMARK Flexibility Score: inf
ROOT
ATOM      1  C   UNL     1      -5.603  37.680  24.120  1.00  0.00     0.000 C 
ENDROOT
BRANCH   1   2
ATOM      2  C   UNL     1      -5.270  39.185  24.137  1.00  0.00     0.000 C 
BRANCH   2   3
ATOM      3  C   UNL     1      -5.189  39.798  22.730  1.00  0.00     0.000 C 
BRANCH   3   4
ATOM      4  C   UNL     1      -6.118  39.059  21.752  1.00  0.00     0.000 C 
BRANCH   4   5
ATOM      5  C   UNL     1      -5.525  38.974  20.336  1.00  0.00     0.000 C 
BRANCH   5   6
ATOM      6  C   UNL     1      -4.762  37.662  20.098  1.00  0.00     0.000 C 
BRANCH   6   7
ATOM      7  C   UNL     1      -5.619  36.418  20.425  1.00  0.00     0.000 C 
BRANCH   7   8
ATOM      8  C   UNL     1      -4.784  35.202  20.865  1.00  0.00     0.000 C 
BRANCH   8   9
ATOM      9  C   UNL     1      -4.332  34.285  19.712  1.00  0.00     0.000 C 
BRANCH   9  10
ATOM     10  C   UNL     1      -4.960  34.640  18.344  1.00  0.00     0.000 C 
BRANCH  10  11
ATOM     11  C   UNL     1      -3.937  34.644  17.196  1.00  0.00     0.000 C 
BRANCH  11  12
ATOM     12  C   UNL     1      -4.107  35.846  16.253  1.00  0.00     0.000 C 
BRANCH  12  13
ATOM     13  C   UNL     1      -3.310  35.694  14.943  1.00  0.00     0.006 C 
BRANCH  13  14
ATOM     14  C   UNL     1      -3.748  36.710  13.880  1.00  0.00     0.053 C 
BRANCH  14  15
ATOM     15  C   UNL     1      -4.029  38.053  14.480  1.00  0.00     0.041 C 
ATOM     16  O   UNL     1      -4.878  38.819  13.953  1.00  0.00    -0.550 OA
ATOM     17  O   UNL     1      -3.332  38.471  15.606  1.00  0.00    -0.550 OA
ENDBRANCH  14  15
ENDBRANCH  13  14
ENDBRANCH  12  13
ENDBRANCH  11  12
ENDBRANCH  10  11
ENDBRANCH   9  10
ENDBRANCH   8   9
ENDBRANCH   7   8
ENDBRANCH   6   7
ENDBRANCH   5   6
ENDBRANCH   4   5
ENDBRANCH   3   4
ENDBRANCH   2   3
ENDBRANCH   1   2
BRANCH   1  18
ATOM     18  C   UNL     1      -5.210  36.918  25.402  1.00  0.00     0.000 C 
BRANCH  18  19
ATOM     19  C   UNL     1      -4.096  37.598  26.222  1.00  0.00     0.000 C 
BRANCH  19  20
ATOM     20  C   UNL     1      -3.014  36.606  26.681  1.00  0.00     0.000 C 
BRANCH  20  21
ATOM     21  C   UNL     1      -2.046  37.221  27.710  1.00  0.00     0.000 C 
BRANCH  21  22
ATOM     22  C   UNL     1      -1.087  38.282  27.133  1.00  0.00     0.000 C 
BRANCH  22  23
ATOM     23  C   UNL     1      -0.602  38.013  25.693  1.00  0.00     0.000 C 
BRANCH  23  24
ATOM     24  C   UNL     1       0.819  38.516  25.380  1.00  0.00    -0.000 C 
BRANCH  24  25
ATOM     25  C   UNL     1       1.757  38.444  26.594  1.00  0.00    -0.000 C 
BRANCH  25  26
ATOM     26  C   UNL     1       3.170  38.001  26.179  1.00  0.00    -0.000 C 
BRANCH  26  27
ATOM     27  C   UNL     1       4.205  38.290  27.278  1.00  0.00    -0.000 C 
BRANCH  27  28
ATOM     28  C   UNL     1       5.159  37.104  27.505  1.00  0.00    -0.000 C 
BRANCH  28  29
ATOM     29  C   UNL     1       4.531  35.762  27.072  1.00  0.00    -0.000 C 
BRANCH  29  30
ATOM     30  C   UNL     1       4.283  34.796  28.244  1.00  0.00    -0.000 C 
BRANCH  30  31
ATOM     31  C   UNL     1       5.521  33.968  28.614  1.00  0.00    -0.003 C 
ATOM     32  C   UNL     1       6.360  33.653  27.380  1.00  0.00     0.004 C 
ENDBRANCH  30  31
ENDBRANCH  29  30
ENDBRANCH  28  29
ENDBRANCH  27  28
ENDBRANCH  26  27
ENDBRANCH  25  26
ENDBRANCH  24  25
ENDBRANCH  23  24
ENDBRANCH  22  23
ENDBRANCH  21  22
ENDBRANCH  20  21
ENDBRANCH  19  20
ENDBRANCH  18  19
ENDBRANCH   1  18
TORSDOF 28
ENDMDL
