MODEL 1
REMARK VINA RESULT:    -5.320      0.000      0.000
REMARK INTER + INTRA:          -5.476
REMARK INTER:                  -5.476
REMARK INTRA:                   0.000
REMARK UNBOUND:                 0.000
REMARK SMILES O=c1ccc2cc(O)ccc2o1
REMARK SMILES IDX 9 1 10 2 11 3 5 4 4 5 3 6 2 7 1 8 12 9 6 10 7 11 8 12
REMARK H PARENT 8 13
REMARK Flexibility Score: inf
ROOT
ATOM      1  C   UNL     1      20.316   0.205 -17.657  1.00  0.00     0.050 A 
ATOM      2  C   UNL     1      21.071   0.850 -18.641  1.00  0.00     0.052 A 
ATOM      3  C   UNL     1      21.081   0.361 -19.951  1.00  0.00     0.138 A 
ATOM      4  C   UNL     1      20.325  -0.787 -20.276  1.00  0.00     0.021 A 
ATOM      5  C   UNL     1      20.354  -1.253 -21.594  1.00  0.00     0.019 A 
ATOM      6  C   UNL     1      21.122  -0.578 -22.542  1.00  0.00     0.094 A 
ATOM      7  C   UNL     1      21.846   0.553 -22.147  1.00  0.00     0.336 A 
ATOM      8  O   UNL     1      22.545   1.176 -22.988  1.00  0.00    -0.246 OA
ATOM      9  O   UNL     1      21.801   0.975 -20.886  1.00  0.00    -0.423 OA
ATOM     10  C   UNL     1      19.569  -1.431 -19.286  1.00  0.00     0.058 A 
ATOM     11  C   UNL     1      19.564  -0.933 -17.974  1.00  0.00     0.116 A 
ENDROOT
BRANCH  11  12
ATOM     12  O   UNL     1      18.818  -1.562 -16.980  1.00  0.00    -0.508 OA
ATOM     13  H   UNL     1      19.240  -2.227 -16.343  1.00  0.00     0.293 HD
ENDBRANCH  11  12
TORSDOF 1
ENDMDL
MODEL 2
REMARK VINA RESULT:    -5.232      1.457      4.329
REMARK INTER + INTRA:          -5.385
REMARK INTER:                  -5.385
REMARK INTRA:                   0.000
REMARK UNBOUND:                 0.000
REMARK SMILES O=c1ccc2cc(O)ccc2o1
REMARK SMILES IDX 9 1 10 2 11 3 5 4 4 5 3 6 2 7 1 8 12 9 6 10 7 11 8 12
REMARK H PARENT 8 13
REMARK Flexibility Score: inf
ROOT
ATOM      1  C   UNL     1      21.765   0.632 -21.309  1.00  0.00     0.050 A 
ATOM      2  C   UNL     1      21.512   1.058 -20.003  1.00  0.00     0.052 A 
ATOM      3  C   UNL     1      20.654   0.324 -19.179  1.00  0.00     0.138 A 
ATOM      4  C   UNL     1      20.043  -0.850 -19.672  1.00  0.00     0.021 A 
ATOM      5  C   UNL     1      19.189  -1.564 -18.826  1.00  0.00     0.019 A 
ATOM      6  C   UNL     1      18.966  -1.100 -17.529  1.00  0.00     0.094 A 
ATOM      7  C   UNL     1      19.605   0.071 -17.108  1.00  0.00     0.336 A 
ATOM      8  O   UNL     1      19.417   0.506 -15.942  1.00  0.00    -0.246 OA
ATOM      9  O   UNL     1      20.413   0.731 -17.934  1.00  0.00    -0.423 OA
ATOM     10  C   UNL     1      20.299  -1.274 -20.984  1.00  0.00     0.058 A 
ATOM     11  C   UNL     1      21.162  -0.532 -21.804  1.00  0.00     0.116 A 
ENDROOT
BRANCH  11  12
ATOM     12  O   UNL     1      21.427  -0.940 -23.109  1.00  0.00    -0.508 OA
ATOM     13  H   UNL     1      22.304  -1.383 -23.358  1.00  0.00     0.293 HD
ENDBRANCH  11  12
TORSDOF 1
ENDMDL
MODEL 3
REMARK VINA RESULT:    -5.069      2.064      3.173
REMARK INTER + INTRA:          -5.218
REMARK INTER:                  -5.218
REMARK INTRA:                   0.000
REMARK UNBOUND:                 0.000
REMARK SMILES O=c1ccc2cc(O)ccc2o1
REMARK SMILES IDX 9 1 10 2 11 3 5 4 4 5 3 6 2 7 1 8 12 9 6 10 7 11 8 12
REMARK H PARENT 8 13
REMARK Flexibility Score: inf
ROOT
ATOM      1  C   UNL     1      22.540   1.734 -16.828  1.00  0.00     0.050 A 
ATOM      2  C   UNL     1      22.440   1.331 -18.163  1.00  0.00     0.052 A 
ATOM      3  C   UNL     1      21.329   0.599 -18.593  1.00  0.00     0.138 A 
ATOM      4  C   UNL     1      20.308   0.270 -17.675  1.00  0.00     0.021 A 
ATOM      5  C   UNL     1      19.209  -0.463 -18.133  1.00  0.00     0.019 A 
ATOM      6  C   UNL     1      19.152  -0.844 -19.474  1.00  0.00     0.094 A 
ATOM      7  C   UNL     1      20.201  -0.482 -20.327  1.00  0.00     0.336 A 
ATOM      8  O   UNL     1      20.167  -0.816 -21.540  1.00  0.00    -0.246 OA
ATOM      9  O   UNL     1      21.235   0.215 -19.864  1.00  0.00    -0.423 OA
ATOM     10  C   UNL     1      20.413   0.676 -16.337  1.00  0.00     0.058 A 
ATOM     11  C   UNL     1      21.530   1.410 -15.913  1.00  0.00     0.116 A 
ENDROOT
BRANCH  11  12
ATOM     12  O   UNL     1      21.649   1.821 -14.587  1.00  0.00    -0.508 OA
ATOM     13  H   UNL     1      22.526   2.170 -14.218  1.00  0.00     0.293 HD
ENDBRANCH  11  12
TORSDOF 1
ENDMDL
MODEL 4
REMARK VINA RESULT:    -5.058      2.430      4.363
REMARK INTER + INTRA:          -5.206
REMARK INTER:                  -5.206
REMARK INTRA:                   0.000
REMARK UNBOUND:                 0.000
REMARK SMILES O=c1ccc2cc(O)ccc2o1
REMARK SMILES IDX 9 1 10 2 11 3 5 4 4 5 3 6 2 7 1 8 12 9 6 10 7 11 8 12
REMARK H PARENT 8 13
REMARK Flexibility Score: inf
ROOT
ATOM      1  C   UNL     1      18.850  -0.673 -18.745  1.00  0.00     0.050 A 
ATOM      2  C   UNL     1      19.390  -0.303 -17.510  1.00  0.00     0.052 A 
ATOM      3  C   UNL     1      20.603   0.388 -17.453  1.00  0.00     0.138 A 
ATOM      4  C   UNL     1      21.283   0.712 -18.648  1.00  0.00     0.021 A 
ATOM      5  C   UNL     1      22.494   1.404 -18.560  1.00  0.00     0.019 A 
ATOM      6  C   UNL     1      22.994   1.752 -17.305  1.00  0.00     0.094 A 
ATOM      7  C   UNL     1      22.267   1.398 -16.163  1.00  0.00     0.336 A 
ATOM      8  O   UNL     1      22.701   1.703 -15.022  1.00  0.00    -0.246 OA
ATOM      9  O   UNL     1      21.116   0.739 -16.275  1.00  0.00    -0.423 OA
ATOM     10  C   UNL     1      20.738   0.339 -19.885  1.00  0.00     0.058 A 
ATOM     11  C   UNL     1      19.520  -0.354 -19.934  1.00  0.00     0.116 A 
ENDROOT
BRANCH  11  12
ATOM     12  O   UNL     1      18.966  -0.731 -21.155  1.00  0.00    -0.508 OA
ATOM     13  H   UNL     1      18.036  -0.437 -21.428  1.00  0.00     0.293 HD
ENDBRANCH  11  12
TORSDOF 1
ENDMDL
MODEL 5
REMARK VINA RESULT:    -5.048      0.773      4.771
REMARK INTER + INTRA:          -5.196
REMARK INTER:                  -5.196
REMARK INTRA:                   0.000
REMARK UNBOUND:                 0.000
REMARK SMILES O=c1ccc2cc(O)ccc2o1
REMARK SMILES IDX 9 1 10 2 11 3 5 4 4 5 3 6 2 7 1 8 12 9 6 10 7 11 8 12
REMARK H PARENT 8 13
REMARK Flexibility Score: inf
ROOT
ATOM      1  C   UNL     1      21.002  -0.598 -22.399  1.00  0.00     0.050 A 
ATOM      2  C   UNL     1      20.251  -1.257 -21.422  1.00  0.00     0.052 A 
ATOM      3  C   UNL     1      20.241  -0.783 -20.106  1.00  0.00     0.138 A 
ATOM      4  C   UNL     1      20.992   0.364 -19.769  1.00  0.00     0.021 A 
ATOM      5  C   UNL     1      20.963   0.815 -18.446  1.00  0.00     0.019 A 
ATOM      6  C   UNL     1      20.199   0.125 -17.504  1.00  0.00     0.094 A 
ATOM      7  C   UNL     1      19.480  -1.005 -17.911  1.00  0.00     0.336 A 
ATOM      8  O   UNL     1      18.785  -1.641 -17.076  1.00  0.00    -0.246 OA
ATOM      9  O   UNL     1      19.525  -1.412 -19.177  1.00  0.00    -0.423 OA
ATOM     10  C   UNL     1      21.744   1.023 -20.752  1.00  0.00     0.058 A 
ATOM     11  C   UNL     1      21.748   0.541 -22.070  1.00  0.00     0.116 A 
ENDROOT
BRANCH  11  12
ATOM     12  O   UNL     1      22.491   1.184 -23.058  1.00  0.00    -0.508 OA
ATOM     13  H   UNL     1      22.069   1.474 -23.932  1.00  0.00     0.293 HD
ENDBRANCH  11  12
TORSDOF 1
ENDMDL
MODEL 6
REMARK VINA RESULT:    -5.031     16.286     18.463
REMARK INTER + INTRA:          -5.178
REMARK INTER:                  -5.178
REMARK INTRA:                   0.000
REMARK UNBOUND:                 0.000
REMARK SMILES O=c1ccc2cc(O)ccc2o1
REMARK SMILES IDX 9 1 10 2 11 3 5 4 4 5 3 6 2 7 1 8 12 9 6 10 7 11 8 12
REMARK H PARENT 8 13
REMARK Flexibility Score: inf
ROOT
ATOM      1  C   UNL     1       7.621  -7.168  -5.679  1.00  0.00     0.050 A 
ATOM      2  C   UNL     1       8.177  -8.091  -6.570  1.00  0.00     0.052 A 
ATOM      3  C   UNL     1       9.184  -7.693  -7.455  1.00  0.00     0.138 A 
ATOM      4  C   UNL     1       9.637  -6.355  -7.446  1.00  0.00     0.021 A 
ATOM      5  C   UNL     1      10.644  -5.986  -8.342  1.00  0.00     0.019 A 
ATOM      6  C   UNL     1      11.169  -6.941  -9.213  1.00  0.00     0.094 A 
ATOM      7  C   UNL     1      10.672  -8.248  -9.166  1.00  0.00     0.336 A 
ATOM      8  O   UNL     1      11.133  -9.124  -9.943  1.00  0.00    -0.246 OA
ATOM      9  O   UNL     1       9.712  -8.573  -8.302  1.00  0.00    -0.423 OA
ATOM     10  C   UNL     1       9.076  -5.433  -6.551  1.00  0.00     0.058 A 
ATOM     11  C   UNL     1       8.067  -5.840  -5.666  1.00  0.00     0.116 A 
ENDROOT
BRANCH  11  12
ATOM     12  O   UNL     1       7.499  -4.935  -4.771  1.00  0.00    -0.508 OA
ATOM     13  H   UNL     1       8.052  -4.486  -4.051  1.00  0.00     0.293 HD
ENDBRANCH  11  12
TORSDOF 1
ENDMDL
MODEL 7
REMARK VINA RESULT:    -5.002     15.597     18.183
REMARK INTER + INTRA:          -5.149
REMARK INTER:                  -5.149
REMARK INTRA:                   0.000
REMARK UNBOUND:                 0.000
REMARK SMILES O=c1ccc2cc(O)ccc2o1
REMARK SMILES IDX 9 1 10 2 11 3 5 4 4 5 3 6 2 7 1 8 12 9 6 10 7 11 8 12
REMARK H PARENT 8 13
REMARK Flexibility Score: inf
ROOT
ATOM      1  C   UNL     1       7.830  -6.328  -5.850  1.00  0.00     0.050 A 
ATOM      2  C   UNL     1       8.787  -5.657  -6.616  1.00  0.00     0.052 A 
ATOM      3  C   UNL     1       9.607  -6.369  -7.497  1.00  0.00     0.138 A 
ATOM      4  C   UNL     1       9.464  -7.769  -7.610  1.00  0.00     0.021 A 
ATOM      5  C   UNL     1      10.297  -8.455  -8.499  1.00  0.00     0.019 A 
ATOM      6  C   UNL     1      11.238  -7.743  -9.242  1.00  0.00     0.094 A 
ATOM      7  C   UNL     1      11.324  -6.356  -9.078  1.00  0.00     0.336 A 
ATOM      8  O   UNL     1      12.166  -5.695  -9.739  1.00  0.00    -0.246 OA
ATOM      9  O   UNL     1      10.518  -5.728  -8.225  1.00  0.00    -0.423 OA
ATOM     10  C   UNL     1       8.502  -8.439  -6.840  1.00  0.00     0.058 A 
ATOM     11  C   UNL     1       7.683  -7.717  -5.959  1.00  0.00     0.116 A 
ENDROOT
BRANCH  11  12
ATOM     12  O   UNL     1       6.723  -8.368  -5.187  1.00  0.00    -0.508 OA
ATOM     13  H   UNL     1       6.817  -8.447  -4.182  1.00  0.00     0.293 HD
ENDBRANCH  11  12
TORSDOF 1
ENDMDL
MODEL 8
REMARK VINA RESULT:    -4.977      7.517      9.030
REMARK INTER + INTRA:          -5.122
REMARK INTER:                  -5.122
REMARK INTRA:                   0.000
REMARK UNBOUND:                 0.000
REMARK SMILES O=c1ccc2cc(O)ccc2o1
REMARK SMILES IDX 9 1 10 2 11 3 5 4 4 5 3 6 2 7 1 8 12 9 6 10 7 11 8 12
REMARK H PARENT 8 13
REMARK Flexibility Score: inf
ROOT
ATOM      1  C   UNL     1      24.274   5.464 -20.293  1.00  0.00     0.050 A 
ATOM      2  C   UNL     1      24.983   6.457 -19.611  1.00  0.00     0.052 A 
ATOM      3  C   UNL     1      24.301   7.525 -19.019  1.00  0.00     0.138 A 
ATOM      4  C   UNL     1      22.894   7.596 -19.112  1.00  0.00     0.021 A 
ATOM      5  C   UNL     1      22.240   8.675 -18.511  1.00  0.00     0.019 A 
ATOM      6  C   UNL     1      22.988   9.643 -17.841  1.00  0.00     0.094 A 
ATOM      7  C   UNL     1      24.380   9.507 -17.789  1.00  0.00     0.336 A 
ATOM      8  O   UNL     1      25.074  10.369 -17.190  1.00  0.00    -0.246 OA
ATOM      9  O   UNL     1      24.978   8.470 -18.370  1.00  0.00    -0.423 OA
ATOM     10  C   UNL     1      22.187   6.597 -19.797  1.00  0.00     0.058 A 
ATOM     11  C   UNL     1      22.878   5.529 -20.388  1.00  0.00     0.116 A 
ENDROOT
BRANCH  11  12
ATOM     12  O   UNL     1      22.190   4.530 -21.072  1.00  0.00    -0.508 OA
ATOM     13  H   UNL     1      22.113   4.536 -22.082  1.00  0.00     0.293 HD
ENDBRANCH  11  12
TORSDOF 1
ENDMDL
MODEL 9
REMARK VINA RESULT:    -4.934      7.837      9.270
REMARK INTER + INTRA:          -5.078
REMARK INTER:                  -5.078
REMARK INTRA:                   0.000
REMARK UNBOUND:                 0.000
REMARK SMILES O=c1ccc2cc(O)ccc2o1
REMARK SMILES IDX 9 1 10 2 11 3 5 4 4 5 3 6 2 7 1 8 12 9 6 10 7 11 8 12
REMARK H PARENT 8 13
REMARK Flexibility Score: inf
ROOT
ATOM      1  C   UNL     1      22.833   9.984 -17.855  1.00  0.00     0.050 A 
ATOM      2  C   UNL     1      22.236   8.949 -18.580  1.00  0.00     0.052 A 
ATOM      3  C   UNL     1      23.002   7.862 -19.011  1.00  0.00     0.138 A 
ATOM      4  C   UNL     1      24.382   7.813 -18.711  1.00  0.00     0.021 A 
ATOM      5  C   UNL     1      25.123   6.715 -19.155  1.00  0.00     0.019 A 
ATOM      6  C   UNL     1      24.485   5.705 -19.877  1.00  0.00     0.094 A 
ATOM      7  C   UNL     1      23.115   5.820 -20.137  1.00  0.00     0.336 A 
ATOM      8  O   UNL     1      22.521   4.920 -20.785  1.00  0.00    -0.246 OA
ATOM      9  O   UNL     1      22.433   6.877 -19.702  1.00  0.00    -0.423 OA
ATOM     10  C   UNL     1      24.976   8.854 -17.984  1.00  0.00     0.058 A 
ATOM     11  C   UNL     1      24.200   9.941 -17.554  1.00  0.00     0.116 A 
ENDROOT
BRANCH  11  12
ATOM     12  O   UNL     1      24.776  10.983 -16.830  1.00  0.00    -0.508 OA
ATOM     13  H   UNL     1      24.218  11.744 -16.463  1.00  0.00     0.293 HD
ENDBRANCH  11  12
TORSDOF 1
ENDMDL
