MODEL 1
REMARK VINA RESULT:    -4.910      0.000      0.000
REMARK INTER + INTRA:          -5.290
REMARK INTER:                  -5.197
REMARK INTRA:                  -0.093
REMARK UNBOUND:                -0.093
REMARK SMILES C=C(C)[C@H]1CC=C(C)C(=O)C1
REMARK SMILES IDX 8 1 7 2 6 3 5 4 4 5 11 6 9 7 10 8 2 9 1 10 3 11
REMARK H PARENT
REMARK Flexibility Score: inf
ROOT
ATOM      1  C   UNL     1      20.034 -24.827 -23.557  1.00  0.00     0.048 C 
ATOM      2  C   UNL     1      19.156 -23.809 -24.234  1.00  0.00    -0.012 C 
ATOM      3  C   UNL     1      19.705 -22.880 -25.034  1.00  0.00    -0.019 C 
ATOM      4  C   UNL     1      18.876 -21.827 -25.722  1.00  0.00     0.036 C 
ATOM      5  C   UNL     1      17.477 -22.369 -26.076  1.00  0.00     0.025 C 
ATOM      6  C   UNL     1      16.786 -22.926 -24.818  1.00  0.00     0.089 C 
ATOM      7  C   UNL     1      17.681 -23.912 -24.117  1.00  0.00     0.158 C 
ATOM      8  O   UNL     1      17.162 -24.805 -23.395  1.00  0.00    -0.295 OA
ENDROOT
BRANCH   5   9
ATOM      9  C   UNL     1      16.623 -21.311 -26.764  1.00  0.00    -0.077 C 
ATOM     10  C   UNL     1      16.379 -20.123 -26.184  1.00  0.00     0.008 C 
ATOM     11  C   UNL     1      16.031 -21.584 -28.123  1.00  0.00     0.039 C 
ENDBRANCH   5   9
TORSDOF 1
ENDMDL
MODEL 2
REMARK VINA RESULT:    -4.734      1.796      4.754
REMARK INTER + INTRA:          -5.103
REMARK INTER:                  -5.006
REMARK INTRA:                  -0.098
REMARK UNBOUND:                -0.093
REMARK SMILES C=C(C)[C@H]1CC=C(C)C(=O)C1
REMARK SMILES IDX 8 1 7 2 6 3 5 4 4 5 11 6 9 7 10 8 2 9 1 10 3 11
REMARK H PARENT
REMARK Flexibility Score: inf
ROOT
ATOM      1  C   UNL     1      16.676 -22.011 -27.356  1.00  0.00     0.048 C 
ATOM      2  C   UNL     1      17.361 -22.784 -26.262  1.00  0.00    -0.012 C 
ATOM      3  C   UNL     1      17.223 -24.119 -26.199  1.00  0.00    -0.019 C 
ATOM      4  C   UNL     1      17.872 -24.938 -25.115  1.00  0.00     0.036 C 
ATOM      5  C   UNL     1      19.214 -24.318 -24.680  1.00  0.00     0.025 C 
ATOM      6  C   UNL     1      19.012 -22.850 -24.260  1.00  0.00     0.089 C 
ATOM      7  C   UNL     1      18.287 -22.087 -25.335  1.00  0.00     0.158 C 
ATOM      8  O   UNL     1      18.447 -20.839 -25.416  1.00  0.00    -0.295 OA
ENDROOT
BRANCH   5   9
ATOM      9  C   UNL     1      19.878 -25.132 -23.577  1.00  0.00    -0.077 C 
ATOM     10  C   UNL     1      20.716 -24.562 -22.694  1.00  0.00     0.008 C 
ATOM     11  C   UNL     1      19.602 -26.609 -23.458  1.00  0.00     0.039 C 
ENDBRANCH   5   9
TORSDOF 1
ENDMDL
MODEL 3
REMARK VINA RESULT:    -4.730      2.199      5.034
REMARK INTER + INTRA:          -5.100
REMARK INTER:                  -5.004
REMARK INTRA:                  -0.096
REMARK UNBOUND:                -0.093
REMARK SMILES C=C(C)[C@H]1CC=C(C)C(=O)C1
REMARK SMILES IDX 8 1 7 2 6 3 5 4 4 5 11 6 9 7 10 8 2 9 1 10 3 11
REMARK H PARENT
REMARK Flexibility Score: inf
ROOT
ATOM      1  C   UNL     1      18.209 -20.559 -25.510  1.00  0.00     0.048 C 
ATOM      2  C   UNL     1      18.589 -21.825 -24.792  1.00  0.00    -0.012 C 
ATOM      3  C   UNL     1      18.890 -22.929 -25.496  1.00  0.00    -0.019 C 
ATOM      4  C   UNL     1      19.260 -24.227 -24.827  1.00  0.00     0.036 C 
ATOM      5  C   UNL     1      20.006 -23.974 -23.503  1.00  0.00     0.025 C 
ATOM      6  C   UNL     1      19.171 -23.062 -22.585  1.00  0.00     0.089 C 
ATOM      7  C   UNL     1      18.753 -21.816 -23.317  1.00  0.00     0.158 C 
ATOM      8  O   UNL     1      18.506 -20.770 -22.657  1.00  0.00    -0.295 OA
ENDROOT
BRANCH   5   9
ATOM      9  C   UNL     1      20.378 -25.279 -22.810  1.00  0.00    -0.077 C 
ATOM     10  C   UNL     1      19.821 -26.447 -23.173  1.00  0.00     0.008 C 
ATOM     11  C   UNL     1      21.389 -25.280 -21.692  1.00  0.00     0.039 C 
ENDBRANCH   5   9
TORSDOF 1
ENDMDL
MODEL 4
REMARK VINA RESULT:    -4.709      1.540      4.690
REMARK INTER + INTRA:          -5.077
REMARK INTER:                  -4.983
REMARK INTRA:                  -0.094
REMARK UNBOUND:                -0.093
REMARK SMILES C=C(C)[C@H]1CC=C(C)C(=O)C1
REMARK SMILES IDX 8 1 7 2 6 3 5 4 4 5 11 6 9 7 10 8 2 9 1 10 3 11
REMARK H PARENT
REMARK Flexibility Score: inf
ROOT
ATOM      1  C   UNL     1      16.953 -22.364 -26.853  1.00  0.00     0.048 C 
ATOM      2  C   UNL     1      17.866 -23.211 -26.008  1.00  0.00    -0.012 C 
ATOM      3  C   UNL     1      19.030 -22.705 -25.569  1.00  0.00    -0.019 C 
ATOM      4  C   UNL     1      19.989 -23.514 -24.735  1.00  0.00     0.036 C 
ATOM      5  C   UNL     1      19.234 -24.510 -23.833  1.00  0.00     0.025 C 
ATOM      6  C   UNL     1      18.305 -25.398 -24.680  1.00  0.00     0.089 C 
ATOM      7  C   UNL     1      17.421 -24.553 -25.558  1.00  0.00     0.158 C 
ATOM      8  O   UNL     1      16.312 -25.015 -25.939  1.00  0.00    -0.295 OA
ENDROOT
BRANCH   5   9
ATOM      9  C   UNL     1      20.193 -25.342 -22.991  1.00  0.00    -0.077 C 
ATOM     10  C   UNL     1      21.163 -24.766 -22.260  1.00  0.00     0.008 C 
ATOM     11  C   UNL     1      20.066 -26.844 -22.964  1.00  0.00     0.039 C 
ENDBRANCH   5   9
TORSDOF 1
ENDMDL
MODEL 5
REMARK VINA RESULT:    -4.687      1.996      4.581
REMARK INTER + INTRA:          -5.054
REMARK INTER:                  -4.963
REMARK INTRA:                  -0.092
REMARK UNBOUND:                -0.093
REMARK SMILES C=C(C)[C@H]1CC=C(C)C(=O)C1
REMARK SMILES IDX 8 1 7 2 6 3 5 4 4 5 11 6 9 7 10 8 2 9 1 10 3 11
REMARK H PARENT
REMARK Flexibility Score: inf
ROOT
ATOM      1  C   UNL     1      16.442 -21.852 -28.125  1.00  0.00     0.048 C 
ATOM      2  C   UNL     1      17.044 -22.318 -26.827  1.00  0.00    -0.012 C 
ATOM      3  C   UNL     1      17.377 -23.610 -26.671  1.00  0.00    -0.019 C 
ATOM      4  C   UNL     1      17.965 -24.134 -25.387  1.00  0.00     0.036 C 
ATOM      5  C   UNL     1      18.834 -23.063 -24.699  1.00  0.00     0.025 C 
ATOM      6  C   UNL     1      18.020 -21.773 -24.484  1.00  0.00     0.089 C 
ATOM      7  C   UNL     1      17.383 -21.330 -25.773  1.00  0.00     0.158 C 
ATOM      8  O   UNL     1      17.104 -20.111 -25.933  1.00  0.00    -0.295 OA
ENDROOT
BRANCH   5   9
ATOM      9  C   UNL     1      19.428 -23.576 -23.393  1.00  0.00    -0.077 C 
ATOM     10  C   UNL     1      20.368 -24.537 -23.383  1.00  0.00     0.008 C 
ATOM     11  C   UNL     1      18.964 -23.007 -22.077  1.00  0.00     0.039 C 
ENDBRANCH   5   9
TORSDOF 1
ENDMDL
MODEL 6
REMARK VINA RESULT:    -4.677      1.368      4.413
REMARK INTER + INTRA:          -5.044
REMARK INTER:                  -4.948
REMARK INTRA:                  -0.096
REMARK UNBOUND:                -0.093
REMARK SMILES C=C(C)[C@H]1CC=C(C)C(=O)C1
REMARK SMILES IDX 8 1 7 2 6 3 5 4 4 5 11 6 9 7 10 8 2 9 1 10 3 11
REMARK H PARENT
REMARK Flexibility Score: inf
ROOT
ATOM      1  C   UNL     1      16.637 -20.446 -26.295  1.00  0.00     0.048 C 
ATOM      2  C   UNL     1      17.416 -21.650 -25.841  1.00  0.00    -0.012 C 
ATOM      3  C   UNL     1      18.731 -21.539 -25.589  1.00  0.00    -0.019 C 
ATOM      4  C   UNL     1      19.562 -22.716 -25.149  1.00  0.00     0.036 C 
ATOM      5  C   UNL     1      18.730 -23.693 -24.296  1.00  0.00     0.025 C 
ATOM      6  C   UNL     1      17.465 -24.126 -25.060  1.00  0.00     0.089 C 
ATOM      7  C   UNL     1      16.708 -22.922 -25.552  1.00  0.00     0.158 C 
ATOM      8  O   UNL     1      15.467 -23.018 -25.754  1.00  0.00    -0.295 OA
ENDROOT
BRANCH   5   9
ATOM      9  C   UNL     1      19.556 -24.894 -23.851  1.00  0.00    -0.077 C 
ATOM     10  C   UNL     1      19.291 -26.131 -24.304  1.00  0.00     0.008 C 
ATOM     11  C   UNL     1      20.697 -24.710 -22.884  1.00  0.00     0.039 C 
ENDBRANCH   5   9
TORSDOF 1
ENDMDL
MODEL 7
REMARK VINA RESULT:    -4.576     10.244     12.854
REMARK INTER + INTRA:          -4.936
REMARK INTER:                  -4.840
REMARK INTRA:                  -0.096
REMARK UNBOUND:                -0.093
REMARK SMILES C=C(C)[C@H]1CC=C(C)C(=O)C1
REMARK SMILES IDX 8 1 7 2 6 3 5 4 4 5 11 6 9 7 10 8 2 9 1 10 3 11
REMARK H PARENT
REMARK Flexibility Score: inf
ROOT
ATOM      1  C   UNL     1      20.015 -24.065 -17.058  1.00  0.00     0.048 C 
ATOM      2  C   UNL     1      20.205 -24.244 -15.577  1.00  0.00    -0.012 C 
ATOM      3  C   UNL     1      19.154 -24.123 -14.748  1.00  0.00    -0.019 C 
ATOM      4  C   UNL     1      19.291 -24.276 -13.256  1.00  0.00     0.036 C 
ATOM      5  C   UNL     1      20.392 -25.294 -12.903  1.00  0.00     0.025 C 
ATOM      6  C   UNL     1      21.721 -24.899 -13.574  1.00  0.00     0.089 C 
ATOM      7  C   UNL     1      21.522 -24.677 -15.049  1.00  0.00     0.158 C 
ATOM      8  O   UNL     1      22.501 -24.826 -15.829  1.00  0.00    -0.295 OA
ENDROOT
BRANCH   5   9
ATOM      9  C   UNL     1      20.549 -25.451 -11.395  1.00  0.00    -0.077 C 
ATOM     10  C   UNL     1      19.563 -25.106 -10.550  1.00  0.00     0.008 C 
ATOM     11  C   UNL     1      21.830 -26.002 -10.822  1.00  0.00     0.039 C 
ENDBRANCH   5   9
TORSDOF 1
ENDMDL
MODEL 8
REMARK VINA RESULT:    -4.575     10.338     13.121
REMARK INTER + INTRA:          -4.935
REMARK INTER:                  -4.844
REMARK INTRA:                  -0.092
REMARK UNBOUND:                -0.093
REMARK SMILES C=C(C)[C@H]1CC=C(C)C(=O)C1
REMARK SMILES IDX 8 1 7 2 6 3 5 4 4 5 11 6 9 7 10 8 2 9 1 10 3 11
REMARK H PARENT
REMARK Flexibility Score: inf
ROOT
ATOM      1  C   UNL     1      21.883 -26.587 -17.004  1.00  0.00     0.048 C 
ATOM      2  C   UNL     1      21.502 -26.441 -15.556  1.00  0.00    -0.012 C 
ATOM      3  C   UNL     1      21.866 -27.385 -14.671  1.00  0.00    -0.019 C 
ATOM      4  C   UNL     1      21.496 -27.298 -13.213  1.00  0.00     0.036 C 
ATOM      5  C   UNL     1      21.440 -25.831 -12.743  1.00  0.00     0.025 C 
ATOM      6  C   UNL     1      20.484 -25.020 -13.637  1.00  0.00     0.089 C 
ATOM      7  C   UNL     1      20.837 -25.200 -15.088  1.00  0.00     0.158 C 
ATOM      8  O   UNL     1      20.527 -24.297 -15.912  1.00  0.00    -0.295 OA
ENDROOT
BRANCH   5   9
ATOM      9  C   UNL     1      21.057 -25.728 -11.272  1.00  0.00    -0.077 C 
ATOM     10  C   UNL     1      21.887 -26.148 -10.302  1.00  0.00     0.008 C 
ATOM     11  C   UNL     1      19.724 -25.146 -10.877  1.00  0.00     0.039 C 
ENDBRANCH   5   9
TORSDOF 1
ENDMDL
MODEL 9
REMARK VINA RESULT:    -4.361      9.982     12.017
REMARK INTER + INTRA:          -4.709
REMARK INTER:                  -4.614
REMARK INTRA:                  -0.096
REMARK UNBOUND:                -0.093
REMARK SMILES C=C(C)[C@H]1CC=C(C)C(=O)C1
REMARK SMILES IDX 8 1 7 2 6 3 5 4 4 5 11 6 9 7 10 8 2 9 1 10 3 11
REMARK H PARENT
REMARK Flexibility Score: inf
ROOT
ATOM      1  C   UNL     1      19.640 -25.352 -10.494  1.00  0.00     0.048 C 
ATOM      2  C   UNL     1      19.969 -24.899 -11.891  1.00  0.00    -0.012 C 
ATOM      3  C   UNL     1      21.135 -25.257 -12.453  1.00  0.00    -0.019 C 
ATOM      4  C   UNL     1      21.522 -24.816 -13.840  1.00  0.00     0.036 C 
ATOM      5  C   UNL     1      20.281 -24.683 -14.744  1.00  0.00     0.025 C 
ATOM      6  C   UNL     1      19.249 -23.739 -14.099  1.00  0.00     0.089 C 
ATOM      7  C   UNL     1      18.953 -24.167 -12.687  1.00  0.00     0.158 C 
ATOM      8  O   UNL     1      17.843 -23.861 -12.173  1.00  0.00    -0.295 OA
ENDROOT
BRANCH   5   9
ATOM      9  C   UNL     1      20.656 -24.228 -16.150  1.00  0.00    -0.077 C 
ATOM     10  C   UNL     1      21.898 -24.402 -16.633  1.00  0.00     0.008 C 
ATOM     11  C   UNL     1      19.627 -23.567 -17.030  1.00  0.00     0.039 C 
ENDBRANCH   5   9
TORSDOF 1
ENDMDL
