MODEL 1
REMARK VINA RESULT:    -5.426      0.000      0.000
REMARK INTER + INTRA:          -6.193
REMARK INTER:                  -6.219
REMARK INTRA:                   0.026
REMARK UNBOUND:                 0.026
REMARK SMILES COc1cc(C(=O)[O-])ccc1O
REMARK SMILES IDX 5 1 9 2 4 3 10 4 3 5 11 6 6 7 7 8 8 9 2 10 1 11 12 12
REMARK H PARENT 12 13
REMARK Flexibility Score: inf
ROOT
ATOM      1  C   UNL     1       4.061  -2.994  -2.459  1.00  0.00     0.001 A 
ATOM      2  C   UNL     1       4.456  -1.860  -3.186  1.00  0.00     0.014 A 
ATOM      3  C   UNL     1       4.263  -4.270  -3.018  1.00  0.00     0.060 A 
ATOM      4  C   UNL     1       5.043  -1.996  -4.445  1.00  0.00     0.051 A 
ATOM      5  C   UNL     1       4.856  -4.411  -4.290  1.00  0.00     0.161 A 
ATOM      6  C   UNL     1       5.243  -3.267  -4.998  1.00  0.00     0.157 A 
ENDROOT
BRANCH   1   7
ATOM      7  C   UNL     1       3.439  -2.845  -1.124  1.00  0.00     0.072 C 
ATOM      8  O   UNL     1       2.981  -3.848  -0.513  1.00  0.00    -0.545 OA
ATOM      9  O   UNL     1       3.352  -1.593  -0.524  1.00  0.00    -0.545 OA
ENDBRANCH   1   7
BRANCH   5  10
ATOM     10  O   UNL     1       5.073  -5.667  -4.878  1.00  0.00    -0.493 OA
ATOM     11  C   UNL     1       6.339  -6.313  -4.959  1.00  0.00     0.278 C 
ENDBRANCH   5  10
BRANCH   6  12
ATOM     12  O   UNL     1       5.829  -3.400  -6.256  1.00  0.00    -0.504 OA
ATOM     13  H   UNL     1       6.748  -3.021  -6.456  1.00  0.00     0.293 HD
ENDBRANCH   6  12
TORSDOF 3
ENDMDL
MODEL 2
REMARK VINA RESULT:    -5.351      1.729      3.486
REMARK INTER + INTRA:          -6.107
REMARK INTER:                  -6.012
REMARK INTRA:                  -0.095
REMARK UNBOUND:                 0.026
REMARK SMILES COc1cc(C(=O)[O-])ccc1O
REMARK SMILES IDX 5 1 9 2 4 3 10 4 3 5 11 6 6 7 7 8 8 9 2 10 1 11 12 12
REMARK H PARENT 12 13
REMARK Flexibility Score: inf
ROOT
ATOM      1  C   UNL     1       4.666  -1.965  -4.278  1.00  0.00     0.001 A 
ATOM      2  C   UNL     1       4.139  -1.937  -2.977  1.00  0.00     0.014 A 
ATOM      3  C   UNL     1       4.945  -3.207  -4.877  1.00  0.00     0.060 A 
ATOM      4  C   UNL     1       3.895  -3.126  -2.287  1.00  0.00     0.051 A 
ATOM      5  C   UNL     1       4.700  -4.410  -4.184  1.00  0.00     0.161 A 
ATOM      6  C   UNL     1       4.174  -4.361  -2.886  1.00  0.00     0.157 A 
ENDROOT
BRANCH   1   7
ATOM      7  C   UNL     1       4.922  -0.701  -5.005  1.00  0.00     0.072 C 
ATOM      8  O   UNL     1       5.250   0.343  -4.381  1.00  0.00    -0.545 OA
ATOM      9  O   UNL     1       4.804  -0.649  -6.390  1.00  0.00    -0.545 OA
ENDBRANCH   1   7
BRANCH   5  10
ATOM     10  O   UNL     1       4.966  -5.667  -4.749  1.00  0.00    -0.493 OA
ATOM     11  C   UNL     1       6.246  -6.092  -5.207  1.00  0.00     0.278 C 
ENDBRANCH   5  10
BRANCH   6  12
ATOM     12  O   UNL     1       3.930  -5.547  -2.196  1.00  0.00    -0.504 OA
ATOM     13  H   UNL     1       3.658  -5.546  -1.219  1.00  0.00     0.293 HD
ENDBRANCH   6  12
TORSDOF 3
ENDMDL
MODEL 3
REMARK VINA RESULT:    -5.072      1.047      2.696
REMARK INTER + INTRA:          -5.787
REMARK INTER:                  -5.683
REMARK INTRA:                  -0.104
REMARK UNBOUND:                 0.026
REMARK SMILES COc1cc(C(=O)[O-])ccc1O
REMARK SMILES IDX 5 1 9 2 4 3 10 4 3 5 11 6 6 7 7 8 8 9 2 10 1 11 12 12
REMARK H PARENT 12 13
REMARK Flexibility Score: inf
ROOT
ATOM      1  C   UNL     1       4.009  -3.030  -2.476  1.00  0.00     0.001 A 
ATOM      2  C   UNL     1       4.232  -4.317  -2.989  1.00  0.00     0.014 A 
ATOM      3  C   UNL     1       4.446  -1.914  -3.216  1.00  0.00     0.060 A 
ATOM      4  C   UNL     1       4.878  -4.489  -4.215  1.00  0.00     0.051 A 
ATOM      5  C   UNL     1       5.097  -2.084  -4.454  1.00  0.00     0.161 A 
ATOM      6  C   UNL     1       5.310  -3.378  -4.948  1.00  0.00     0.157 A 
ENDROOT
BRANCH   1   7
ATOM      7  C   UNL     1       3.325  -2.853  -1.176  1.00  0.00     0.072 C 
ATOM      8  O   UNL     1       2.961  -3.853  -0.501  1.00  0.00    -0.545 OA
ATOM      9  O   UNL     1       3.072  -1.578  -0.681  1.00  0.00    -0.545 OA
ENDBRANCH   1   7
BRANCH   5  10
ATOM     10  O   UNL     1       5.546  -0.995  -5.219  1.00  0.00    -0.493 OA
ATOM     11  C   UNL     1       4.713  -0.191  -6.046  1.00  0.00     0.278 C 
ENDBRANCH   5  10
BRANCH   6  12
ATOM     12  O   UNL     1       5.954  -3.551  -6.172  1.00  0.00    -0.504 OA
ATOM     13  H   UNL     1       6.395  -4.430  -6.419  1.00  0.00     0.293 HD
ENDBRANCH   6  12
TORSDOF 3
ENDMDL
MODEL 4
REMARK VINA RESULT:    -4.884      1.573      4.530
REMARK INTER + INTRA:          -5.572
REMARK INTER:                  -5.490
REMARK INTRA:                  -0.082
REMARK UNBOUND:                 0.026
REMARK SMILES COc1cc(C(=O)[O-])ccc1O
REMARK SMILES IDX 5 1 9 2 4 3 10 4 3 5 11 6 6 7 7 8 8 9 2 10 1 11 12 12
REMARK H PARENT 12 13
REMARK Flexibility Score: inf
ROOT
ATOM      1  C   UNL     1       4.967  -2.252  -4.627  1.00  0.00     0.001 A 
ATOM      2  C   UNL     1       5.252  -3.579  -4.987  1.00  0.00     0.014 A 
ATOM      3  C   UNL     1       4.298  -2.001  -3.414  1.00  0.00     0.060 A 
ATOM      4  C   UNL     1       4.877  -4.634  -4.154  1.00  0.00     0.051 A 
ATOM      5  C   UNL     1       3.918  -3.065  -2.570  1.00  0.00     0.161 A 
ATOM      6  C   UNL     1       4.212  -4.381  -2.949  1.00  0.00     0.157 A 
ENDROOT
BRANCH   1   7
ATOM      7  C   UNL     1       5.367  -1.137  -5.514  1.00  0.00     0.072 C 
ATOM      8  O   UNL     1       4.531  -0.257  -5.855  1.00  0.00    -0.545 OA
ATOM      9  O   UNL     1       6.672  -1.044  -5.984  1.00  0.00    -0.545 OA
ENDBRANCH   1   7
BRANCH   5  10
ATOM     10  O   UNL     1       3.250  -2.853  -1.354  1.00  0.00    -0.493 OA
ATOM     11  C   UNL     1       3.471  -1.740  -0.494  1.00  0.00     0.278 C 
ENDBRANCH   5  10
BRANCH   6  12
ATOM     12  O   UNL     1       3.839  -5.437  -2.118  1.00  0.00    -0.504 OA
ATOM     13  H   UNL     1       3.161  -6.130  -2.413  1.00  0.00     0.293 HD
ENDBRANCH   6  12
TORSDOF 3
ENDMDL
MODEL 5
REMARK VINA RESULT:    -4.851     11.640     12.522
REMARK INTER + INTRA:          -5.534
REMARK INTER:                  -5.451
REMARK INTRA:                  -0.083
REMARK UNBOUND:                 0.026
REMARK SMILES COc1cc(C(=O)[O-])ccc1O
REMARK SMILES IDX 5 1 9 2 4 3 10 4 3 5 11 6 6 7 7 8 8 9 2 10 1 11 12 12
REMARK H PARENT 12 13
REMARK Flexibility Score: inf
ROOT
ATOM      1  C   UNL     1       6.048   7.170   1.211  1.00  0.00     0.001 A 
ATOM      2  C   UNL     1       5.385   6.741   2.372  1.00  0.00     0.014 A 
ATOM      3  C   UNL     1       5.309   7.815   0.201  1.00  0.00     0.060 A 
ATOM      4  C   UNL     1       4.013   6.952   2.523  1.00  0.00     0.051 A 
ATOM      5  C   UNL     1       3.924   8.030   0.350  1.00  0.00     0.161 A 
ATOM      6  C   UNL     1       3.282   7.593   1.516  1.00  0.00     0.157 A 
ENDROOT
BRANCH   1   7
ATOM      7  C   UNL     1       7.502   6.945   1.057  1.00  0.00     0.072 C 
ATOM      8  O   UNL     1       8.332   7.656   1.684  1.00  0.00    -0.545 OA
ATOM      9  O   UNL     1       7.974   5.944   0.214  1.00  0.00    -0.545 OA
ENDBRANCH   1   7
BRANCH   5  10
ATOM     10  O   UNL     1       3.156   8.668  -0.636  1.00  0.00    -0.493 OA
ATOM     11  C   UNL     1       3.233   8.385  -2.029  1.00  0.00     0.278 C 
ENDBRANCH   5  10
BRANCH   6  12
ATOM     12  O   UNL     1       1.912   7.803   1.669  1.00  0.00    -0.504 OA
ATOM     13  H   UNL     1       1.495   7.938   2.583  1.00  0.00     0.293 HD
ENDBRANCH   6  12
TORSDOF 3
ENDMDL
MODEL 6
REMARK VINA RESULT:    -4.827     11.648     13.537
REMARK INTER + INTRA:          -5.506
REMARK INTER:                  -5.424
REMARK INTRA:                  -0.083
REMARK UNBOUND:                 0.026
REMARK SMILES COc1cc(C(=O)[O-])ccc1O
REMARK SMILES IDX 5 1 9 2 4 3 10 4 3 5 11 6 6 7 7 8 8 9 2 10 1 11 12 12
REMARK H PARENT 12 13
REMARK Flexibility Score: inf
ROOT
ATOM      1  C   UNL     1       3.839   8.881   2.527  1.00  0.00     0.001 A 
ATOM      2  C   UNL     1       3.466   7.561   2.823  1.00  0.00     0.014 A 
ATOM      3  C   UNL     1       5.119   9.128   1.996  1.00  0.00     0.060 A 
ATOM      4  C   UNL     1       4.353   6.507   2.594  1.00  0.00     0.051 A 
ATOM      5  C   UNL     1       6.017   8.066   1.763  1.00  0.00     0.161 A 
ATOM      6  C   UNL     1       5.625   6.756   2.066  1.00  0.00     0.157 A 
ENDROOT
BRANCH   1   7
ATOM      7  C   UNL     1       2.895   9.995   2.771  1.00  0.00     0.072 C 
ATOM      8  O   UNL     1       2.748  10.468   3.930  1.00  0.00    -0.545 OA
ATOM      9  O   UNL     1       2.157  10.535   1.724  1.00  0.00    -0.545 OA
ENDBRANCH   1   7
BRANCH   5  10
ATOM     10  O   UNL     1       7.301   8.275   1.235  1.00  0.00    -0.493 OA
ATOM     11  C   UNL     1       8.186   9.310   1.649  1.00  0.00     0.278 C 
ENDBRANCH   5  10
BRANCH   6  12
ATOM     12  O   UNL     1       6.509   5.702   1.837  1.00  0.00    -0.504 OA
ATOM     13  H   UNL     1       6.703   5.366   0.901  1.00  0.00     0.293 HD
ENDBRANCH   6  12
TORSDOF 3
ENDMDL
MODEL 7
REMARK VINA RESULT:    -4.595     10.840     12.614
REMARK INTER + INTRA:          -5.240
REMARK INTER:                  -5.149
REMARK INTRA:                  -0.091
REMARK UNBOUND:                 0.026
REMARK SMILES COc1cc(C(=O)[O-])ccc1O
REMARK SMILES IDX 5 1 9 2 4 3 10 4 3 5 11 6 6 7 7 8 8 9 2 10 1 11 12 12
REMARK H PARENT 12 13
REMARK Flexibility Score: inf
ROOT
ATOM      1  C   UNL     1       4.890   8.248   2.106  1.00  0.00     0.001 A 
ATOM      2  C   UNL     1       5.707   9.384   2.217  1.00  0.00     0.014 A 
ATOM      3  C   UNL     1       5.472   7.020   1.736  1.00  0.00     0.060 A 
ATOM      4  C   UNL     1       7.078   9.297   1.965  1.00  0.00     0.051 A 
ATOM      5  C   UNL     1       6.856   6.929   1.481  1.00  0.00     0.161 A 
ATOM      6  C   UNL     1       7.653   8.075   1.597  1.00  0.00     0.157 A 
ENDROOT
BRANCH   1   7
ATOM      7  C   UNL     1       3.438   8.344   2.375  1.00  0.00     0.072 C 
ATOM      8  O   UNL     1       2.979   9.272   3.093  1.00  0.00    -0.545 OA
ATOM      9  O   UNL     1       2.559   7.411   1.837  1.00  0.00    -0.545 OA
ENDBRANCH   1   7
BRANCH   5  10
ATOM     10  O   UNL     1       7.470   5.722   1.110  1.00  0.00    -0.493 OA
ATOM     11  C   UNL     1       7.553   5.235  -0.225  1.00  0.00     0.278 C 
ENDBRANCH   5  10
BRANCH   6  12
ATOM     12  O   UNL     1       9.021   7.990   1.346  1.00  0.00    -0.504 OA
ATOM     13  H   UNL     1       9.448   8.472   0.562  1.00  0.00     0.293 HD
ENDBRANCH   6  12
TORSDOF 3
ENDMDL
MODEL 8
REMARK VINA RESULT:    -4.499     11.162     12.498
REMARK INTER + INTRA:          -5.130
REMARK INTER:                  -5.038
REMARK INTRA:                  -0.093
REMARK UNBOUND:                 0.026
REMARK SMILES COc1cc(C(=O)[O-])ccc1O
REMARK SMILES IDX 5 1 9 2 4 3 10 4 3 5 11 6 6 7 7 8 8 9 2 10 1 11 12 12
REMARK H PARENT 12 13
REMARK Flexibility Score: inf
ROOT
ATOM      1  C   UNL     1       3.871   8.269   1.793  1.00  0.00     0.001 A 
ATOM      2  C   UNL     1       4.102   7.271   2.752  1.00  0.00     0.014 A 
ATOM      3  C   UNL     1       4.737   8.368   0.687  1.00  0.00     0.060 A 
ATOM      4  C   UNL     1       5.175   6.388   2.612  1.00  0.00     0.051 A 
ATOM      5  C   UNL     1       5.822   7.478   0.542  1.00  0.00     0.161 A 
ATOM      6  C   UNL     1       6.034   6.489   1.511  1.00  0.00     0.157 A 
ENDROOT
BRANCH   1   7
ATOM      7  C   UNL     1       2.733   9.202   1.946  1.00  0.00     0.072 C 
ATOM      8  O   UNL     1       1.854   9.294   1.048  1.00  0.00    -0.545 OA
ATOM      9  O   UNL     1       2.618   9.991   3.085  1.00  0.00    -0.545 OA
ENDBRANCH   1   7
BRANCH   5  10
ATOM     10  O   UNL     1       6.705   7.547  -0.547  1.00  0.00    -0.493 OA
ATOM     11  C   UNL     1       6.324   7.383  -1.908  1.00  0.00     0.278 C 
ENDBRANCH   5  10
BRANCH   6  12
ATOM     12  O   UNL     1       7.104   5.607   1.373  1.00  0.00    -0.504 OA
ATOM     13  H   UNL     1       8.063   5.936   1.356  1.00  0.00     0.293 HD
ENDBRANCH   6  12
TORSDOF 3
ENDMDL
MODEL 9
REMARK VINA RESULT:    -4.390      1.507      1.707
REMARK INTER + INTRA:          -5.005
REMARK INTER:                  -4.923
REMARK INTRA:                  -0.083
REMARK UNBOUND:                 0.026
REMARK SMILES COc1cc(C(=O)[O-])ccc1O
REMARK SMILES IDX 5 1 9 2 4 3 10 4 3 5 11 6 6 7 7 8 8 9 2 10 1 11 12 12
REMARK H PARENT 12 13
REMARK Flexibility Score: inf
ROOT
ATOM      1  C   UNL     1       4.227  -3.521  -3.827  1.00  0.00     0.001 A 
ATOM      2  C   UNL     1       3.905  -2.327  -4.491  1.00  0.00     0.014 A 
ATOM      3  C   UNL     1       5.233  -4.350  -4.358  1.00  0.00     0.060 A 
ATOM      4  C   UNL     1       4.574  -1.966  -5.662  1.00  0.00     0.051 A 
ATOM      5  C   UNL     1       5.911  -3.989  -5.541  1.00  0.00     0.161 A 
ATOM      6  C   UNL     1       5.575  -2.793  -6.188  1.00  0.00     0.157 A 
ENDROOT
BRANCH   1   7
ATOM      7  C   UNL     1       3.515  -3.899  -2.586  1.00  0.00     0.072 C 
ATOM      8  O   UNL     1       3.698  -5.030  -2.060  1.00  0.00    -0.545 OA
ATOM      9  O   UNL     1       2.633  -3.010  -1.982  1.00  0.00    -0.545 OA
ENDBRANCH   1   7
BRANCH   5  10
ATOM     10  O   UNL     1       6.919  -4.790  -6.099  1.00  0.00    -0.493 OA
ATOM     11  C   UNL     1       7.123  -6.164  -5.789  1.00  0.00     0.278 C 
ENDBRANCH   5  10
BRANCH   6  12
ATOM     12  O   UNL     1       6.242  -2.431  -7.357  1.00  0.00    -0.504 OA
ATOM     13  H   UNL     1       5.852  -2.627  -8.272  1.00  0.00     0.293 HD
ENDBRANCH   6  12
TORSDOF 3
ENDMDL
