MODEL 1
REMARK VINA RESULT:    -5.233      0.000      0.000
REMARK INTER + INTRA:          -5.539
REMARK INTER:                  -5.539
REMARK INTRA:                   0.000
REMARK UNBOUND:                 0.000
REMARK SMILES O=c1ccc2cc(O)c(O)cc2o1
REMARK SMILES IDX 4 1 3 2 2 3 1 4 13 5 12 6 11 7 9 8 7 9 6 10 5 11 8 12 10 14
REMARK H PARENT 8 13 10 15
REMARK Flexibility Score: inf
ROOT
ATOM      1  C   UNL     1      10.226  -7.625  -9.741  1.00  0.00     0.019 A 
ATOM      2  C   UNL     1       9.440  -8.308 -10.670  1.00  0.00     0.094 A 
ATOM      3  C   UNL     1       8.050  -8.310 -10.511  1.00  0.00     0.336 A 
ATOM      4  O   UNL     1       7.325  -8.919 -11.338  1.00  0.00    -0.246 OA
ATOM      5  O   UNL     1       7.488  -7.669  -9.489  1.00  0.00    -0.423 OA
ATOM      6  C   UNL     1       8.201  -7.005  -8.582  1.00  0.00     0.142 A 
ATOM      7  C   UNL     1       7.555  -6.350  -7.528  1.00  0.00     0.098 A 
ATOM      8  C   UNL     1       8.301  -5.650  -6.569  1.00  0.00     0.161 A 
ATOM      9  C   UNL     1       9.700  -5.605  -6.663  1.00  0.00     0.158 A 
ATOM     10  C   UNL     1      10.353  -6.261  -7.718  1.00  0.00     0.062 A 
ATOM     11  C   UNL     1       9.608  -6.960  -8.677  1.00  0.00     0.022 A 
ENDROOT
BRANCH   9  12
ATOM     12  O   UNL     1      10.434  -4.907  -5.707  1.00  0.00    -0.504 OA
ATOM     13  H   UNL     1      11.251  -5.312  -5.265  1.00  0.00     0.293 HD
ENDBRANCH   9  12
BRANCH   8  14
ATOM     14  O   UNL     1       7.660  -4.996  -5.518  1.00  0.00    -0.504 OA
ATOM     15  H   UNL     1       6.823  -4.445  -5.669  1.00  0.00     0.293 HD
ENDBRANCH   8  14
TORSDOF 2
ENDMDL
MODEL 2
REMARK VINA RESULT:    -5.231      1.675      2.250
REMARK INTER + INTRA:          -5.537
REMARK INTER:                  -5.537
REMARK INTRA:                   0.000
REMARK UNBOUND:                 0.000
REMARK SMILES O=c1ccc2cc(O)c(O)cc2o1
REMARK SMILES IDX 4 1 3 2 2 3 1 4 13 5 12 6 11 7 9 8 7 9 6 10 5 11 8 12 10 14
REMARK H PARENT 8 13 10 15
REMARK Flexibility Score: inf
ROOT
ATOM      1  C   UNL     1       7.922  -9.103  -8.112  1.00  0.00     0.019 A 
ATOM      2  C   UNL     1       7.958  -8.910  -9.492  1.00  0.00     0.094 A 
ATOM      3  C   UNL     1       7.968  -7.604  -9.995  1.00  0.00     0.336 A 
ATOM      4  O   UNL     1       8.000  -7.409 -11.237  1.00  0.00    -0.246 OA
ATOM      5  O   UNL     1       7.944  -6.564  -9.165  1.00  0.00    -0.423 OA
ATOM      6  C   UNL     1       7.910  -6.704  -7.842  1.00  0.00     0.142 A 
ATOM      7  C   UNL     1       7.886  -5.573  -7.020  1.00  0.00     0.098 A 
ATOM      8  C   UNL     1       7.849  -5.715  -5.624  1.00  0.00     0.161 A 
ATOM      9  C   UNL     1       7.837  -6.995  -5.050  1.00  0.00     0.158 A 
ATOM     10  C   UNL     1       7.861  -8.132  -5.870  1.00  0.00     0.062 A 
ATOM     11  C   UNL     1       7.897  -7.991  -7.263  1.00  0.00     0.022 A 
ENDROOT
BRANCH   9  12
ATOM     12  O   UNL     1       7.801  -7.127  -3.663  1.00  0.00    -0.504 OA
ATOM     13  H   UNL     1       8.141  -7.963  -3.201  1.00  0.00     0.293 HD
ENDBRANCH   9  12
BRANCH   8  14
ATOM     14  O   UNL     1       7.825  -4.590  -4.802  1.00  0.00    -0.504 OA
ATOM     15  H   UNL     1       7.451  -4.629  -3.861  1.00  0.00     0.293 HD
ENDBRANCH   8  14
TORSDOF 2
ENDMDL
MODEL 3
REMARK VINA RESULT:    -5.217      1.960      2.504
REMARK INTER + INTRA:          -5.522
REMARK INTER:                  -5.522
REMARK INTRA:                   0.000
REMARK UNBOUND:                 0.000
REMARK SMILES O=c1ccc2cc(O)c(O)cc2o1
REMARK SMILES IDX 4 1 3 2 2 3 1 4 13 5 12 6 11 7 9 8 7 9 6 10 5 11 8 12 10 14
REMARK H PARENT 8 13 10 15
REMARK Flexibility Score: inf
ROOT
ATOM      1  C   UNL     1      11.071  -6.815  -8.361  1.00  0.00     0.019 A 
ATOM      2  C   UNL     1      11.576  -7.085  -9.633  1.00  0.00     0.094 A 
ATOM      3  C   UNL     1      10.795  -6.777 -10.753  1.00  0.00     0.336 A 
ATOM      4  O   UNL     1      11.233  -7.013 -11.908  1.00  0.00    -0.246 OA
ATOM      5  O   UNL     1       9.589  -6.233 -10.603  1.00  0.00    -0.423 OA
ATOM      6  C   UNL     1       9.071  -5.959  -9.409  1.00  0.00     0.142 A 
ATOM      7  C   UNL     1       7.798  -5.387  -9.315  1.00  0.00     0.098 A 
ATOM      8  C   UNL     1       7.246  -5.096  -8.058  1.00  0.00     0.161 A 
ATOM      9  C   UNL     1       7.971  -5.379  -6.890  1.00  0.00     0.158 A 
ATOM     10  C   UNL     1       9.248  -5.952  -6.980  1.00  0.00     0.062 A 
ATOM     11  C   UNL     1       9.800  -6.243  -8.235  1.00  0.00     0.022 A 
ENDROOT
BRANCH   9  12
ATOM     12  O   UNL     1       7.416  -5.086  -5.646  1.00  0.00    -0.504 OA
ATOM     13  H   UNL     1       7.039  -4.170  -5.436  1.00  0.00     0.293 HD
ENDBRANCH   9  12
BRANCH   8  14
ATOM     14  O   UNL     1       5.978  -4.526  -7.960  1.00  0.00    -0.504 OA
ATOM     15  H   UNL     1       5.386  -4.409  -8.774  1.00  0.00     0.293 HD
ENDBRANCH   8  14
TORSDOF 2
ENDMDL
MODEL 4
REMARK VINA RESULT:    -5.153      1.665      2.191
REMARK INTER + INTRA:          -5.455
REMARK INTER:                  -5.455
REMARK INTRA:                   0.000
REMARK UNBOUND:                 0.000
REMARK SMILES O=c1ccc2cc(O)c(O)cc2o1
REMARK SMILES IDX 4 1 3 2 2 3 1 4 13 5 12 6 11 7 9 8 7 9 6 10 5 11 8 12 10 14
REMARK H PARENT 8 13 10 15
REMARK Flexibility Score: inf
ROOT
ATOM      1  C   UNL     1       8.596  -5.694  -8.790  1.00  0.00     0.019 A 
ATOM      2  C   UNL     1       8.535  -6.560  -9.881  1.00  0.00     0.094 A 
ATOM      3  C   UNL     1       8.189  -7.899  -9.666  1.00  0.00     0.336 A 
ATOM      4  O   UNL     1       8.129  -8.695 -10.638  1.00  0.00    -0.246 OA
ATOM      5  O   UNL     1       7.922  -8.336  -8.438  1.00  0.00    -0.423 OA
ATOM      6  C   UNL     1       7.969  -7.543  -7.370  1.00  0.00     0.142 A 
ATOM      7  C   UNL     1       7.678  -8.060  -6.103  1.00  0.00     0.098 A 
ATOM      8  C   UNL     1       7.726  -7.228  -4.974  1.00  0.00     0.161 A 
ATOM      9  C   UNL     1       8.065  -5.874  -5.113  1.00  0.00     0.158 A 
ATOM     10  C   UNL     1       8.358  -5.352  -6.382  1.00  0.00     0.062 A 
ATOM     11  C   UNL     1       8.310  -6.181  -7.510  1.00  0.00     0.022 A 
ENDROOT
BRANCH   9  12
ATOM     12  O   UNL     1       8.110  -5.055  -3.987  1.00  0.00    -0.504 OA
ATOM     13  H   UNL     1       7.536  -5.241  -3.173  1.00  0.00     0.293 HD
ENDBRANCH   9  12
BRANCH   8  14
ATOM     14  O   UNL     1       7.436  -7.740  -3.710  1.00  0.00    -0.504 OA
ATOM     15  H   UNL     1       6.543  -8.173  -3.506  1.00  0.00     0.293 HD
ENDBRANCH   8  14
TORSDOF 2
ENDMDL
MODEL 5
REMARK VINA RESULT:    -5.142      1.259      2.298
REMARK INTER + INTRA:          -5.443
REMARK INTER:                  -5.443
REMARK INTRA:                   0.000
REMARK UNBOUND:                 0.000
REMARK SMILES O=c1ccc2cc(O)c(O)cc2o1
REMARK SMILES IDX 4 1 3 2 2 3 1 4 13 5 12 6 11 7 9 8 7 9 6 10 5 11 8 12 10 14
REMARK H PARENT 8 13 10 15
REMARK Flexibility Score: inf
ROOT
ATOM      1  C   UNL     1       7.668  -7.846  -9.656  1.00  0.00     0.019 A 
ATOM      2  C   UNL     1       8.410  -8.467 -10.660  1.00  0.00     0.094 A 
ATOM      3  C   UNL     1       9.804  -8.336 -10.655  1.00  0.00     0.336 A 
ATOM      4  O   UNL     1      10.490  -8.888 -11.552  1.00  0.00    -0.246 OA
ATOM      5  O   UNL     1      10.409  -7.629  -9.704  1.00  0.00    -0.423 OA
ATOM      6  C   UNL     1       9.739  -7.021  -8.727  1.00  0.00     0.142 A 
ATOM      7  C   UNL     1      10.430  -6.292  -7.755  1.00  0.00     0.098 A 
ATOM      8  C   UNL     1       9.729  -5.649  -6.724  1.00  0.00     0.161 A 
ATOM      9  C   UNL     1       8.330  -5.736  -6.666  1.00  0.00     0.158 A 
ATOM     10  C   UNL     1       7.632  -6.467  -7.639  1.00  0.00     0.062 A 
ATOM     11  C   UNL     1       8.332  -7.109  -8.669  1.00  0.00     0.022 A 
ENDROOT
BRANCH   9  12
ATOM     12  O   UNL     1       7.641  -5.095  -5.638  1.00  0.00    -0.504 OA
ATOM     13  H   UNL     1       8.120  -4.516  -4.958  1.00  0.00     0.293 HD
ENDBRANCH   9  12
BRANCH   8  14
ATOM     14  O   UNL     1      10.415  -4.921  -5.752  1.00  0.00    -0.504 OA
ATOM     15  H   UNL     1      10.837  -5.375  -4.951  1.00  0.00     0.293 HD
ENDBRANCH   8  14
TORSDOF 2
ENDMDL
MODEL 6
REMARK VINA RESULT:    -5.060     16.210     17.052
REMARK INTER + INTRA:          -5.355
REMARK INTER:                  -5.355
REMARK INTRA:                   0.000
REMARK UNBOUND:                 0.000
REMARK SMILES O=c1ccc2cc(O)c(O)cc2o1
REMARK SMILES IDX 4 1 3 2 2 3 1 4 13 5 12 6 11 7 9 8 7 9 6 10 5 11 8 12 10 14
REMARK H PARENT 8 13 10 15
REMARK Flexibility Score: inf
ROOT
ATOM      1  C   UNL     1      11.588   7.221 -19.798  1.00  0.00     0.019 A 
ATOM      2  C   UNL     1      12.205   8.082 -18.890  1.00  0.00     0.094 A 
ATOM      3  C   UNL     1      12.859   7.540 -17.778  1.00  0.00     0.336 A 
ATOM      4  O   UNL     1      13.420   8.299 -16.948  1.00  0.00    -0.246 OA
ATOM      5  O   UNL     1      12.890   6.222 -17.592  1.00  0.00    -0.423 OA
ATOM      6  C   UNL     1      12.315   5.367 -18.433  1.00  0.00     0.142 A 
ATOM      7  C   UNL     1      12.381   3.992 -18.185  1.00  0.00     0.098 A 
ATOM      8  C   UNL     1      11.776   3.085 -19.069  1.00  0.00     0.161 A 
ATOM      9  C   UNL     1      11.103   3.557 -20.206  1.00  0.00     0.158 A 
ATOM     10  C   UNL     1      11.034   4.935 -20.459  1.00  0.00     0.062 A 
ATOM     11  C   UNL     1      11.637   5.841 -19.577  1.00  0.00     0.022 A 
ENDROOT
BRANCH   9  12
ATOM     12  O   UNL     1      10.505   2.650 -21.079  1.00  0.00    -0.504 OA
ATOM     13  H   UNL     1       9.777   2.935 -21.723  1.00  0.00     0.293 HD
ENDBRANCH   9  12
BRANCH   8  14
ATOM     14  O   UNL     1      11.840   1.714 -18.825  1.00  0.00    -0.504 OA
ATOM     15  H   UNL     1      12.429   1.334 -18.094  1.00  0.00     0.293 HD
ENDBRANCH   8  14
TORSDOF 2
ENDMDL
MODEL 7
REMARK VINA RESULT:    -4.966     16.499     17.192
REMARK INTER + INTRA:          -5.257
REMARK INTER:                  -5.257
REMARK INTRA:                   0.000
REMARK UNBOUND:                 0.000
REMARK SMILES O=c1ccc2cc(O)c(O)cc2o1
REMARK SMILES IDX 4 1 3 2 2 3 1 4 13 5 12 6 11 7 9 8 7 9 6 10 5 11 8 12 10 14
REMARK H PARENT 8 13 10 15
REMARK Flexibility Score: inf
ROOT
ATOM      1  C   UNL     1      13.271   6.322 -17.577  1.00  0.00     0.019 A 
ATOM      2  C   UNL     1      13.216   7.689 -17.845  1.00  0.00     0.094 A 
ATOM      3  C   UNL     1      12.467   8.137 -18.939  1.00  0.00     0.336 A 
ATOM      4  O   UNL     1      12.405   9.366 -19.197  1.00  0.00    -0.246 OA
ATOM      5  O   UNL     1      11.817   7.269 -19.710  1.00  0.00    -0.423 OA
ATOM      6  C   UNL     1      11.842   5.956 -19.489  1.00  0.00     0.142 A 
ATOM      7  C   UNL     1      11.139   5.092 -20.334  1.00  0.00     0.098 A 
ATOM      8  C   UNL     1      11.163   3.708 -20.106  1.00  0.00     0.161 A 
ATOM      9  C   UNL     1      11.894   3.187 -19.028  1.00  0.00     0.158 A 
ATOM     10  C   UNL     1      12.601   4.050 -18.178  1.00  0.00     0.062 A 
ATOM     11  C   UNL     1      12.578   5.432 -18.405  1.00  0.00     0.022 A 
ENDROOT
BRANCH   9  12
ATOM     12  O   UNL     1      11.912   1.811 -18.809  1.00  0.00    -0.504 OA
ATOM     13  H   UNL     1      11.417   1.391 -18.030  1.00  0.00     0.293 HD
ENDBRANCH   9  12
BRANCH   8  14
ATOM     14  O   UNL     1      10.463   2.843 -20.947  1.00  0.00    -0.504 OA
ATOM     15  H   UNL     1      10.927   2.084 -21.430  1.00  0.00     0.293 HD
ENDBRANCH   8  14
TORSDOF 2
ENDMDL
MODEL 8
REMARK VINA RESULT:    -4.845      2.418      3.115
REMARK INTER + INTRA:          -5.128
REMARK INTER:                  -5.128
REMARK INTRA:                   0.000
REMARK UNBOUND:                 0.000
REMARK SMILES O=c1ccc2cc(O)c(O)cc2o1
REMARK SMILES IDX 4 1 3 2 2 3 1 4 13 5 12 6 11 7 9 8 7 9 6 10 5 11 8 12 10 14
REMARK H PARENT 8 13 10 15
REMARK Flexibility Score: inf
ROOT
ATOM      1  C   UNL     1       9.316  -5.869 -11.257  1.00  0.00     0.019 A 
ATOM      2  C   UNL     1      10.572  -6.429 -11.492  1.00  0.00     0.094 A 
ATOM      3  C   UNL     1      11.361  -6.808 -10.399  1.00  0.00     0.336 A 
ATOM      4  O   UNL     1      12.496  -7.314 -10.590  1.00  0.00    -0.246 OA
ATOM      5  O   UNL     1      10.916  -6.636  -9.157  1.00  0.00    -0.423 OA
ATOM      6  C   UNL     1       9.724  -6.107  -8.889  1.00  0.00     0.142 A 
ATOM      7  C   UNL     1       9.311  -5.951  -7.563  1.00  0.00     0.098 A 
ATOM      8  C   UNL     1       8.056  -5.393  -7.275  1.00  0.00     0.161 A 
ATOM      9  C   UNL     1       7.212  -4.989  -8.320  1.00  0.00     0.158 A 
ATOM     10  C   UNL     1       7.622  -5.144  -9.652  1.00  0.00     0.062 A 
ATOM     11  C   UNL     1       8.875  -5.701  -9.941  1.00  0.00     0.022 A 
ENDROOT
BRANCH   9  12
ATOM     12  O   UNL     1       5.967  -4.437  -8.026  1.00  0.00    -0.504 OA
ATOM     13  H   UNL     1       5.554  -3.718  -8.609  1.00  0.00     0.293 HD
ENDBRANCH   9  12
BRANCH   8  14
ATOM     14  O   UNL     1       7.641  -5.236  -5.954  1.00  0.00    -0.504 OA
ATOM     15  H   UNL     1       6.674  -5.373  -5.683  1.00  0.00     0.293 HD
ENDBRANCH   8  14
TORSDOF 2
ENDMDL
MODEL 9
REMARK VINA RESULT:    -4.739     11.515     13.606
REMARK INTER + INTRA:          -5.016
REMARK INTER:                  -5.016
REMARK INTRA:                   0.000
REMARK UNBOUND:                 0.000
REMARK SMILES O=c1ccc2cc(O)c(O)cc2o1
REMARK SMILES IDX 4 1 3 2 2 3 1 4 13 5 12 6 11 7 9 8 7 9 6 10 5 11 8 12 10 14
REMARK H PARENT 8 13 10 15
REMARK Flexibility Score: inf
ROOT
ATOM      1  C   UNL     1      23.051  -2.737  -7.992  1.00  0.00     0.019 A 
ATOM      2  C   UNL     1      24.014  -3.150  -7.071  1.00  0.00     0.094 A 
ATOM      3  C   UNL     1      23.603  -3.570  -5.801  1.00  0.00     0.336 A 
ATOM      4  O   UNL     1      24.457  -3.946  -4.957  1.00  0.00    -0.246 OA
ATOM      5  O   UNL     1      22.312  -3.574  -5.479  1.00  0.00    -0.423 OA
ATOM      6  C   UNL     1      21.361  -3.189  -6.327  1.00  0.00     0.142 A 
ATOM      7  C   UNL     1      20.020  -3.215  -5.932  1.00  0.00     0.098 A 
ATOM      8  C   UNL     1      19.014  -2.809  -6.822  1.00  0.00     0.161 A 
ATOM      9  C   UNL     1      19.352  -2.375  -8.112  1.00  0.00     0.158 A 
ATOM     10  C   UNL     1      20.695  -2.348  -8.513  1.00  0.00     0.062 A 
ATOM     11  C   UNL     1      21.701  -2.753  -7.626  1.00  0.00     0.022 A 
ENDROOT
BRANCH   9  12
ATOM     12  O   UNL     1      18.346  -1.975  -8.990  1.00  0.00    -0.504 OA
ATOM     13  H   UNL     1      18.471  -1.187  -9.616  1.00  0.00     0.293 HD
ENDBRANCH   9  12
BRANCH   8  14
ATOM     14  O   UNL     1      17.676  -2.834  -6.431  1.00  0.00    -0.504 OA
ATOM     15  H   UNL     1      16.925  -2.757  -7.107  1.00  0.00     0.293 HD
ENDBRANCH   8  14
TORSDOF 2
ENDMDL
