MODEL 1
REMARK VINA RESULT:    -4.124      0.000      0.000
REMARK INTER + INTRA:          -6.922
REMARK INTER:                  -5.932
REMARK INTRA:                  -0.990
REMARK UNBOUND:                -0.990
REMARK SMILES O=C(CO)[C@H](O)[C@@H](O)[C@H](O)CO
REMARK SMILES IDX 7 1 9 2 11 3 12 4 10 6 5 8 2 9 1 10 3 11 4 12 6 14 8 16
REMARK H PARENT 12 5 10 7 4 13 6 15 8 17
REMARK Flexibility Score: inf
ROOT
ATOM      1  C   UNL     1       0.950  -2.896  -7.065  1.00  0.00     0.181 C 
ENDROOT
BRANCH   1   2
ATOM      2  C   UNL     1       2.032  -3.235  -6.008  1.00  0.00     0.171 C 
BRANCH   2   3
ATOM      3  C   UNL     1       2.228  -4.754  -5.854  1.00  0.00     0.190 C 
BRANCH   3   4
ATOM      4  O   UNL     1       2.944  -5.283  -6.938  1.00  0.00    -0.394 OA
ATOM      5  H   UNL     1       3.502  -4.546  -7.297  1.00  0.00     0.210 HD
ENDBRANCH   3   4
ENDBRANCH   2   3
BRANCH   2   6
ATOM      6  O   UNL     1       3.251  -2.641  -6.375  1.00  0.00    -0.388 OA
ATOM      7  H   UNL     1       3.372  -1.846  -5.792  1.00  0.00     0.211 HD
ENDBRANCH   2   6
ENDBRANCH   1   2
BRANCH   1   8
ATOM      8  C   UNL     1       0.682  -1.371  -7.153  1.00  0.00     0.214 C 
BRANCH   8   9
ATOM      9  C   UNL     1       1.220  -0.751  -8.428  1.00  0.00     0.189 C 
ATOM     10  O   UNL     1       2.404  -0.883  -8.699  1.00  0.00    -0.294 OA
BRANCH   9  11
ATOM     11  C   UNL     1       0.339   0.015  -9.381  1.00  0.00     0.234 C 
BRANCH  11  12
ATOM     12  O   UNL     1       0.885   1.283  -9.628  1.00  0.00    -0.388 OA
ATOM     13  H   UNL     1       1.393   1.539  -8.814  1.00  0.00     0.211 HD
ENDBRANCH  11  12
ENDBRANCH   9  11
ENDBRANCH   8   9
BRANCH   8  14
ATOM     14  O   UNL     1       1.198  -0.696  -6.031  1.00  0.00    -0.382 OA
ATOM     15  H   UNL     1       1.940  -1.240  -5.659  1.00  0.00     0.211 HD
ENDBRANCH   8  14
ENDBRANCH   1   8
BRANCH   1  16
ATOM     16  O   UNL     1       1.366  -3.350  -8.331  1.00  0.00    -0.387 OA
ATOM     17  H   UNL     1       2.086  -4.017  -8.184  1.00  0.00     0.211 HD
ENDBRANCH   1  16
TORSDOF 10
ENDMDL
MODEL 2
REMARK VINA RESULT:    -3.903      1.613      4.315
REMARK INTER + INTRA:          -6.605
REMARK INTER:                  -5.197
REMARK INTRA:                  -1.408
REMARK UNBOUND:                -0.990
REMARK SMILES O=C(CO)[C@H](O)[C@@H](O)[C@H](O)CO
REMARK SMILES IDX 7 1 9 2 11 3 12 4 10 6 5 8 2 9 1 10 3 11 4 12 6 14 8 16
REMARK H PARENT 12 5 10 7 4 13 6 15 8 17
REMARK Flexibility Score: inf
ROOT
ATOM      1  C   UNL     1       1.422  -2.335  -8.635  1.00  0.00     0.181 C 
ENDROOT
BRANCH   1   2
ATOM      2  C   UNL     1       0.939  -0.959  -8.109  1.00  0.00     0.171 C 
BRANCH   2   3
ATOM      3  C   UNL     1      -0.087  -0.311  -9.055  1.00  0.00     0.190 C 
BRANCH   3   4
ATOM      4  O   UNL     1      -1.314  -0.990  -9.011  1.00  0.00    -0.394 OA
ATOM      5  H   UNL     1      -1.412  -1.341  -8.088  1.00  0.00     0.210 HD
ENDBRANCH   3   4
ENDBRANCH   2   3
BRANCH   2   6
ATOM      6  O   UNL     1       0.367  -1.117  -6.836  1.00  0.00    -0.388 OA
ATOM      7  H   UNL     1       1.022  -1.621  -6.285  1.00  0.00     0.211 HD
ENDBRANCH   2   6
ENDBRANCH   1   2
BRANCH   1   8
ATOM      8  C   UNL     1       2.641  -2.866  -7.836  1.00  0.00     0.214 C 
BRANCH   8   9
ATOM      9  C   UNL     1       2.394  -4.232  -7.224  1.00  0.00     0.189 C 
ATOM     10  O   UNL     1       2.596  -5.230  -7.899  1.00  0.00    -0.294 OA
BRANCH   9  11
ATOM     11  C   UNL     1       1.920  -4.400  -5.804  1.00  0.00     0.234 C 
BRANCH  11  12
ATOM     12  O   UNL     1       0.814  -3.572  -5.565  1.00  0.00    -0.388 OA
ATOM     13  H   UNL     1       1.073  -2.952  -4.833  1.00  0.00     0.211 HD
ENDBRANCH  11  12
ENDBRANCH   9  11
ENDBRANCH   8   9
BRANCH   8  14
ATOM     14  O   UNL     1       3.037  -1.954  -6.841  1.00  0.00    -0.382 OA
ATOM     15  H   UNL     1       3.707  -2.401  -6.263  1.00  0.00     0.211 HD
ENDBRANCH   8  14
ENDBRANCH   1   8
BRANCH   1  16
ATOM     16  O   UNL     1       0.378  -3.274  -8.533  1.00  0.00    -0.387 OA
ATOM     17  H   UNL     1       0.618  -4.046  -9.109  1.00  0.00     0.211 HD
ENDBRANCH   1  16
TORSDOF 10
ENDMDL
MODEL 3
REMARK VINA RESULT:    -3.900      2.263      4.567
REMARK INTER + INTRA:          -6.600
REMARK INTER:                  -5.692
REMARK INTRA:                  -0.909
REMARK UNBOUND:                -0.990
REMARK SMILES O=C(CO)[C@H](O)[C@@H](O)[C@H](O)CO
REMARK SMILES IDX 7 1 9 2 11 3 12 4 10 6 5 8 2 9 1 10 3 11 4 12 6 14 8 16
REMARK H PARENT 12 5 10 7 4 13 6 15 8 17
REMARK Flexibility Score: inf
ROOT
ATOM      1  C   UNL     1       1.263  -3.439  -7.273  1.00  0.00     0.181 C 
ENDROOT
BRANCH   1   2
ATOM      2  C   UNL     1       2.181  -2.233  -6.953  1.00  0.00     0.171 C 
BRANCH   2   3
ATOM      3  C   UNL     1       1.436  -1.135  -6.171  1.00  0.00     0.190 C 
BRANCH   3   4
ATOM      4  O   UNL     1       0.188  -0.862  -6.751  1.00  0.00    -0.394 OA
ATOM      5  H   UNL     1      -0.057  -1.659  -7.288  1.00  0.00     0.210 HD
ENDBRANCH   3   4
ENDBRANCH   2   3
BRANCH   2   6
ATOM      6  O   UNL     1       3.288  -2.669  -6.206  1.00  0.00    -0.388 OA
ATOM      7  H   UNL     1       4.006  -1.996  -6.336  1.00  0.00     0.211 HD
ENDBRANCH   2   6
ENDBRANCH   1   2
BRANCH   1   8
ATOM      8  C   UNL     1       2.046  -4.607  -7.928  1.00  0.00     0.214 C 
BRANCH   8   9
ATOM      9  C   UNL     1       1.148  -5.570  -8.680  1.00  0.00     0.189 C 
ATOM     10  O   UNL     1      -0.017  -5.691  -8.331  1.00  0.00    -0.294 OA
BRANCH   9  11
ATOM     11  C   UNL     1       1.641  -6.377  -9.853  1.00  0.00     0.234 C 
BRANCH  11  12
ATOM     12  O   UNL     1       2.995  -6.699  -9.680  1.00  0.00    -0.388 OA
ATOM     13  H   UNL     1       3.513  -6.079 -10.258  1.00  0.00     0.211 HD
ENDBRANCH  11  12
ENDBRANCH   9  11
ENDBRANCH   8   9
BRANCH   8  14
ATOM     14  O   UNL     1       2.816  -5.302  -6.978  1.00  0.00    -0.382 OA
ATOM     15  H   UNL     1       2.195  -5.746  -6.344  1.00  0.00     0.211 HD
ENDBRANCH   8  14
ENDBRANCH   1   8
BRANCH   1  16
ATOM     16  O   UNL     1       0.668  -3.911  -6.087  1.00  0.00    -0.387 OA
ATOM     17  H   UNL     1       0.557  -4.892  -6.183  1.00  0.00     0.211 HD
ENDBRANCH   1  16
TORSDOF 10
ENDMDL
MODEL 4
REMARK VINA RESULT:    -3.651      1.794      2.339
REMARK INTER + INTRA:          -6.243
REMARK INTER:                  -5.825
REMARK INTRA:                  -0.417
REMARK UNBOUND:                -0.990
REMARK SMILES O=C(CO)[C@H](O)[C@@H](O)[C@H](O)CO
REMARK SMILES IDX 7 1 9 2 11 3 12 4 10 6 5 8 2 9 1 10 3 11 4 12 6 14 8 16
REMARK H PARENT 12 5 10 7 4 13 6 15 8 17
REMARK Flexibility Score: inf
ROOT
ATOM      1  C   UNL     1       2.373  -3.103  -7.445  1.00  0.00     0.181 C 
ENDROOT
BRANCH   1   2
ATOM      2  C   UNL     1       2.413  -4.643  -7.621  1.00  0.00     0.171 C 
BRANCH   2   3
ATOM      3  C   UNL     1       3.349  -5.065  -8.768  1.00  0.00     0.190 C 
BRANCH   3   4
ATOM      4  O   UNL     1       2.939  -6.282  -9.331  1.00  0.00    -0.394 OA
ATOM      5  H   UNL     1       3.391  -6.355 -10.212  1.00  0.00     0.210 HD
ENDBRANCH   3   4
ENDBRANCH   2   3
BRANCH   2   6
ATOM      6  O   UNL     1       2.840  -5.242  -6.425  1.00  0.00    -0.388 OA
ATOM      7  H   UNL     1       3.110  -6.171  -6.647  1.00  0.00     0.211 HD
ENDBRANCH   2   6
ENDBRANCH   1   2
BRANCH   1   8
ATOM      8  C   UNL     1       0.967  -2.605  -7.018  1.00  0.00     0.214 C 
BRANCH   8   9
ATOM      9  C   UNL     1       0.800  -1.106  -7.178  1.00  0.00     0.189 C 
ATOM     10  O   UNL     1       1.127  -0.371  -6.259  1.00  0.00    -0.294 OA
BRANCH   9  11
ATOM     11  C   UNL     1       0.254  -0.490  -8.440  1.00  0.00     0.234 C 
BRANCH  11  12
ATOM     12  O   UNL     1      -1.107  -0.797  -8.576  1.00  0.00    -0.388 OA
ATOM     13  H   UNL     1      -1.313  -1.491  -7.895  1.00  0.00     0.211 HD
ENDBRANCH  11  12
ENDBRANCH   9  11
ENDBRANCH   8   9
BRANCH   8  14
ATOM     14  O   UNL     1       0.669  -2.988  -5.698  1.00  0.00    -0.382 OA
ATOM     15  H   UNL     1      -0.311  -2.899  -5.565  1.00  0.00     0.211 HD
ENDBRANCH   8  14
ENDBRANCH   1   8
BRANCH   1  16
ATOM     16  O   UNL     1       3.302  -2.714  -6.462  1.00  0.00    -0.387 OA
ATOM     17  H   UNL     1       2.915  -1.937  -5.981  1.00  0.00     0.211 HD
ENDBRANCH   1  16
TORSDOF 10
ENDMDL
MODEL 5
REMARK VINA RESULT:    -3.629      2.076      4.200
REMARK INTER + INTRA:          -6.210
REMARK INTER:                  -4.910
REMARK INTRA:                  -1.300
REMARK UNBOUND:                -0.990
REMARK SMILES O=C(CO)[C@H](O)[C@@H](O)[C@H](O)CO
REMARK SMILES IDX 7 1 9 2 11 3 12 4 10 6 5 8 2 9 1 10 3 11 4 12 6 14 8 16
REMARK H PARENT 12 5 10 7 4 13 6 15 8 17
REMARK Flexibility Score: inf
ROOT
ATOM      1  C   UNL     1       2.400  -1.728  -7.831  1.00  0.00     0.181 C 
ENDROOT
BRANCH   1   2
ATOM      2  C   UNL     1       2.972  -1.890  -9.262  1.00  0.00     0.171 C 
BRANCH   2   3
ATOM      3  C   UNL     1       4.137  -0.919  -9.528  1.00  0.00     0.190 C 
BRANCH   3   4
ATOM      4  O   UNL     1       5.265  -1.265  -8.770  1.00  0.00    -0.394 OA
ATOM      5  H   UNL     1       5.858  -0.470  -8.762  1.00  0.00     0.210 HD
ENDBRANCH   3   4
ENDBRANCH   2   3
BRANCH   2   6
ATOM      6  O   UNL     1       3.413  -3.211  -9.445  1.00  0.00    -0.388 OA
ATOM      7  H   UNL     1       2.728  -3.803  -9.038  1.00  0.00     0.211 HD
ENDBRANCH   2   6
ENDBRANCH   1   2
BRANCH   1   8
ATOM      8  C   UNL     1       0.972  -2.320  -7.707  1.00  0.00     0.214 C 
BRANCH   8   9
ATOM      9  C   UNL     1       0.935  -3.602  -6.897  1.00  0.00     0.189 C 
ATOM     10  O   UNL     1       0.778  -3.536  -5.687  1.00  0.00    -0.294 OA
BRANCH   9  11
ATOM     11  C   UNL     1       1.073  -4.959  -7.538  1.00  0.00     0.234 C 
BRANCH  11  12
ATOM     12  O   UNL     1       2.428  -5.293  -7.669  1.00  0.00    -0.388 OA
ATOM     13  H   UNL     1       2.480  -6.017  -8.348  1.00  0.00     0.211 HD
ENDBRANCH  11  12
ENDBRANCH   9  11
ENDBRANCH   8   9
BRANCH   8  14
ATOM     14  O   UNL     1       0.393  -2.529  -8.972  1.00  0.00    -0.382 OA
ATOM     15  H   UNL     1       0.958  -3.180  -9.465  1.00  0.00     0.211 HD
ENDBRANCH   8  14
ENDBRANCH   1   8
BRANCH   1  16
ATOM     16  O   UNL     1       3.237  -2.383  -6.908  1.00  0.00    -0.387 OA
ATOM     17  H   UNL     1       2.712  -2.517  -6.077  1.00  0.00     0.211 HD
ENDBRANCH   1  16
TORSDOF 10
ENDMDL
MODEL 6
REMARK VINA RESULT:    -3.615      1.418      2.458
REMARK INTER + INTRA:          -6.190
REMARK INTER:                  -5.423
REMARK INTRA:                  -0.767
REMARK UNBOUND:                -0.990
REMARK SMILES O=C(CO)[C@H](O)[C@@H](O)[C@H](O)CO
REMARK SMILES IDX 7 1 9 2 11 3 12 4 10 6 5 8 2 9 1 10 3 11 4 12 6 14 8 16
REMARK H PARENT 12 5 10 7 4 13 6 15 8 17
REMARK Flexibility Score: inf
ROOT
ATOM      1  C   UNL     1       2.921  -3.173  -7.874  1.00  0.00     0.181 C 
ENDROOT
BRANCH   1   2
ATOM      2  C   UNL     1       2.686  -4.593  -7.298  1.00  0.00     0.171 C 
BRANCH   2   3
ATOM      3  C   UNL     1       2.081  -4.546  -5.883  1.00  0.00     0.190 C 
BRANCH   3   4
ATOM      4  O   UNL     1       0.805  -3.965  -5.900  1.00  0.00    -0.394 OA
ATOM      5  H   UNL     1       0.171  -4.661  -5.586  1.00  0.00     0.210 HD
ENDBRANCH   3   4
ENDBRANCH   2   3
BRANCH   2   6
ATOM      6  O   UNL     1       1.829  -5.310  -8.150  1.00  0.00    -0.388 OA
ATOM      7  H   UNL     1       1.483  -6.081  -7.629  1.00  0.00     0.211 HD
ENDBRANCH   2   6
ENDBRANCH   1   2
BRANCH   1   8
ATOM      8  C   UNL     1       1.762  -2.725  -8.803  1.00  0.00     0.214 C 
BRANCH   8   9
ATOM      9  C   UNL     1       1.482  -1.237  -8.720  1.00  0.00     0.189 C 
ATOM     10  O   UNL     1       2.262  -0.456  -9.245  1.00  0.00    -0.294 OA
BRANCH   9  11
ATOM     11  C   UNL     1       0.266  -0.687  -8.019  1.00  0.00     0.234 C 
BRANCH  11  12
ATOM     12  O   UNL     1       0.274  -1.070  -6.671  1.00  0.00    -0.388 OA
ATOM     13  H   UNL     1       0.970  -1.773  -6.577  1.00  0.00     0.211 HD
ENDBRANCH  11  12
ENDBRANCH   9  11
ENDBRANCH   8   9
BRANCH   8  14
ATOM     14  O   UNL     1       0.587  -3.454  -8.542  1.00  0.00    -0.382 OA
ATOM     15  H   UNL     1       0.239  -3.797  -9.406  1.00  0.00     0.211 HD
ENDBRANCH   8  14
ENDBRANCH   1   8
BRANCH   1  16
ATOM     16  O   UNL     1       3.032  -2.246  -6.820  1.00  0.00    -0.387 OA
ATOM     17  H   UNL     1       2.592  -1.408  -7.117  1.00  0.00     0.211 HD
ENDBRANCH   1  16
TORSDOF 10
ENDMDL
MODEL 7
REMARK VINA RESULT:    -3.580      2.134      3.233
REMARK INTER + INTRA:          -6.141
REMARK INTER:                  -4.918
REMARK INTRA:                  -1.222
REMARK UNBOUND:                -0.990
REMARK SMILES O=C(CO)[C@H](O)[C@@H](O)[C@H](O)CO
REMARK SMILES IDX 7 1 9 2 11 3 12 4 10 6 5 8 2 9 1 10 3 11 4 12 6 14 8 16
REMARK H PARENT 12 5 10 7 4 13 6 15 8 17
REMARK Flexibility Score: inf
ROOT
ATOM      1  C   UNL     1       2.174  -3.647  -9.195  1.00  0.00     0.181 C 
ENDROOT
BRANCH   1   2
ATOM      2  C   UNL     1       2.504  -5.106  -8.787  1.00  0.00     0.171 C 
BRANCH   2   3
ATOM      3  C   UNL     1       3.497  -5.765  -9.762  1.00  0.00     0.190 C 
BRANCH   3   4
ATOM      4  O   UNL     1       4.544  -6.390  -9.070  1.00  0.00    -0.394 OA
ATOM      5  H   UNL     1       5.388  -6.062  -9.474  1.00  0.00     0.210 HD
ENDBRANCH   3   4
ENDBRANCH   2   3
BRANCH   2   6
ATOM      6  O   UNL     1       3.043  -5.121  -7.490  1.00  0.00    -0.388 OA
ATOM      7  H   UNL     1       2.277  -5.149  -6.859  1.00  0.00     0.211 HD
ENDBRANCH   2   6
ENDBRANCH   1   2
BRANCH   1   8
ATOM      8  C   UNL     1       1.073  -3.028  -8.295  1.00  0.00     0.214 C 
BRANCH   8   9
ATOM      9  C   UNL     1       1.526  -1.758  -7.600  1.00  0.00     0.189 C 
ATOM     10  O   UNL     1       1.481  -0.700  -8.209  1.00  0.00    -0.294 OA
BRANCH   9  11
ATOM     11  C   UNL     1       2.021  -1.756  -6.176  1.00  0.00     0.234 C 
BRANCH  11  12
ATOM     12  O   UNL     1       3.131  -2.603  -6.051  1.00  0.00    -0.388 OA
ATOM     13  H   UNL     1       2.836  -3.506  -6.341  1.00  0.00     0.211 HD
ENDBRANCH  11  12
ENDBRANCH   9  11
ENDBRANCH   8   9
BRANCH   8  14
ATOM     14  O   UNL     1       0.605  -3.957  -7.348  1.00  0.00    -0.382 OA
ATOM     15  H   UNL     1      -0.250  -4.333  -7.683  1.00  0.00     0.211 HD
ENDBRANCH   8  14
ENDBRANCH   1   8
BRANCH   1  16
ATOM     16  O   UNL     1       3.332  -2.854  -9.094  1.00  0.00    -0.387 OA
ATOM     17  H   UNL     1       3.038  -1.907  -9.040  1.00  0.00     0.211 HD
ENDBRANCH   1  16
TORSDOF 10
ENDMDL
MODEL 8
REMARK VINA RESULT:    -3.538      2.094      3.250
REMARK INTER + INTRA:          -6.080
REMARK INTER:                  -4.909
REMARK INTRA:                  -1.170
REMARK UNBOUND:                -0.990
REMARK SMILES O=C(CO)[C@H](O)[C@@H](O)[C@H](O)CO
REMARK SMILES IDX 7 1 9 2 11 3 12 4 10 6 5 8 2 9 1 10 3 11 4 12 6 14 8 16
REMARK H PARENT 12 5 10 7 4 13 6 15 8 17
REMARK Flexibility Score: inf
ROOT
ATOM      1  C   UNL     1       0.812  -4.323  -7.461  1.00  0.00     0.181 C 
ENDROOT
BRANCH   1   2
ATOM      2  C   UNL     1       1.578  -5.361  -8.320  1.00  0.00     0.171 C 
BRANCH   2   3
ATOM      3  C   UNL     1       0.655  -6.056  -9.338  1.00  0.00     0.190 C 
BRANCH   3   4
ATOM      4  O   UNL     1      -0.672  -6.074  -8.886  1.00  0.00    -0.394 OA
ATOM      5  H   UNL     1      -0.920  -5.133  -8.691  1.00  0.00     0.210 HD
ENDBRANCH   3   4
ENDBRANCH   2   3
BRANCH   2   6
ATOM      6  O   UNL     1       2.629  -4.724  -9.001  1.00  0.00    -0.388 OA
ATOM      7  H   UNL     1       2.504  -4.914  -9.967  1.00  0.00     0.211 HD
ENDBRANCH   2   6
ENDBRANCH   1   2
BRANCH   1   8
ATOM      8  C   UNL     1       1.667  -3.811  -6.272  1.00  0.00     0.214 C 
BRANCH   8   9
ATOM      9  C   UNL     1       2.272  -2.443  -6.528  1.00  0.00     0.189 C 
ATOM     10  O   UNL     1       3.163  -2.334  -7.356  1.00  0.00    -0.294 OA
BRANCH   9  11
ATOM     11  C   UNL     1       1.801  -1.210  -5.801  1.00  0.00     0.234 C 
BRANCH  11  12
ATOM     12  O   UNL     1       0.729  -0.626  -6.490  1.00  0.00    -0.388 OA
ATOM     13  H   UNL     1      -0.077  -1.166  -6.278  1.00  0.00     0.211 HD
ENDBRANCH  11  12
ENDBRANCH   9  11
ENDBRANCH   8   9
BRANCH   8  14
ATOM     14  O   UNL     1       2.676  -4.731  -5.934  1.00  0.00    -0.382 OA
ATOM     15  H   UNL     1       3.134  -5.007  -6.770  1.00  0.00     0.211 HD
ENDBRANCH   8  14
ENDBRANCH   1   8
BRANCH   1  16
ATOM     16  O   UNL     1       0.451  -3.221  -8.258  1.00  0.00    -0.387 OA
ATOM     17  H   UNL     1       0.221  -3.570  -9.158  1.00  0.00     0.211 HD
ENDBRANCH   1  16
TORSDOF 10
ENDMDL
MODEL 9
REMARK VINA RESULT:    -3.521      1.310      4.629
REMARK INTER + INTRA:          -6.056
REMARK INTER:                  -5.068
REMARK INTRA:                  -0.988
REMARK UNBOUND:                -0.990
REMARK SMILES O=C(CO)[C@H](O)[C@@H](O)[C@H](O)CO
REMARK SMILES IDX 7 1 9 2 11 3 12 4 10 6 5 8 2 9 1 10 3 11 4 12 6 14 8 16
REMARK H PARENT 12 5 10 7 4 13 6 15 8 17
REMARK Flexibility Score: inf
ROOT
ATOM      1  C   UNL     1       0.525  -1.640  -7.593  1.00  0.00     0.181 C 
ENDROOT
BRANCH   1   2
ATOM      2  C   UNL     1       0.200  -1.269  -9.063  1.00  0.00     0.171 C 
BRANCH   2   3
ATOM      3  C   UNL     1       0.655   0.160  -9.408  1.00  0.00     0.190 C 
BRANCH   3   4
ATOM      4  O   UNL     1       2.052   0.234  -9.513  1.00  0.00    -0.394 OA
ATOM      5  H   UNL     1       2.253   1.000 -10.110  1.00  0.00     0.210 HD
ENDBRANCH   3   4
ENDBRANCH   2   3
BRANCH   2   6
ATOM      6  O   UNL     1       0.827  -2.181  -9.927  1.00  0.00    -0.388 OA
ATOM      7  H   UNL     1       1.509  -2.665  -9.392  1.00  0.00     0.211 HD
ENDBRANCH   2   6
ENDBRANCH   1   2
BRANCH   1   8
ATOM      8  C   UNL     1       1.688  -2.662  -7.496  1.00  0.00     0.214 C 
BRANCH   8   9
ATOM      9  C   UNL     1       1.540  -3.611  -6.323  1.00  0.00     0.189 C 
ATOM     10  O   UNL     1       0.614  -3.452  -5.543  1.00  0.00    -0.294 OA
BRANCH   9  11
ATOM     11  C   UNL     1       2.495  -4.755  -6.092  1.00  0.00     0.234 C 
BRANCH  11  12
ATOM     12  O   UNL     1       3.022  -5.195  -7.314  1.00  0.00    -0.388 OA
ATOM     13  H   UNL     1       3.688  -5.900  -7.101  1.00  0.00     0.211 HD
ENDBRANCH  11  12
ENDBRANCH   9  11
ENDBRANCH   8   9
BRANCH   8  14
ATOM     14  O   UNL     1       2.934  -2.013  -7.441  1.00  0.00    -0.382 OA
ATOM     15  H   UNL     1       3.635  -2.672  -7.683  1.00  0.00     0.211 HD
ENDBRANCH   8  14
ENDBRANCH   1   8
BRANCH   1  16
ATOM     16  O   UNL     1       0.888  -0.481  -6.881  1.00  0.00    -0.387 OA
ATOM     17  H   UNL     1       1.224   0.178  -7.541  1.00  0.00     0.211 HD
ENDBRANCH   1  16
TORSDOF 10
ENDMDL
