MODEL 1
REMARK VINA RESULT:    -0.936      0.000      0.000
REMARK INTER + INTRA:          -0.878
REMARK INTER:                  -1.018
REMARK INTRA:                   0.140
REMARK UNBOUND:                 0.140
REMARK SMILES C[C@@H]1[C@H]2C3=CC[C@H]4[C@]5(C)CC[C@@H](O)C(C)(C)[C@H]5CC[C@@]4(C)[C@]3(C)CC[C@@]2(C(=O)[O-])CC[C@@H]1C
REMARK SMILES IDX 26 1 30 2 25 3 3 4 31 5 24 6 4 7 2 8 32 9 22 10 5 11 1 12
REMARK SMILES IDX 33 13 23 14 20 15 6 16 7 17 19 18 21 19 8 20 18 21 17 22
REMARK SMILES IDX 10 23 9 24 14 25 11 26 12 27 15 28 16 29 27 30 28 31 29 32
REMARK SMILES IDX 13 33
REMARK H PARENT 13 34
REMARK Flexibility Score: inf
ROOT
ATOM      1  C   UNL     1      -0.284   5.288   6.331  1.00  0.00     0.017 C 
ATOM      2  C   UNL     1       1.000   6.143   6.559  1.00  0.00     0.014 C 
ATOM      3  C   UNL     1      -1.333   6.122   5.528  1.00  0.00     0.014 C 
ATOM      4  C   UNL     1      -0.964   4.771   7.656  1.00  0.00     0.030 C 
ATOM      5  C   UNL     1       1.919   5.631   7.679  1.00  0.00     0.004 C 
ATOM      6  C   UNL     1      -1.995   7.293   6.292  1.00  0.00     0.013 C 
ATOM      7  C   UNL     1      -2.259   5.531   8.047  1.00  0.00    -0.063 C 
ATOM      8  C   UNL     1      -0.024   4.463   8.878  1.00  0.00    -0.003 C 
ATOM      9  C   UNL     1       1.174   5.447   9.006  1.00  0.00    -0.011 C 
ATOM     10  C   UNL     1      -2.414   7.040   7.800  1.00  0.00    -0.006 C 
ATOM     11  C   UNL     1      -3.325   4.762   8.314  1.00  0.00    -0.027 C 
ATOM     12  C   UNL     1       0.428   2.982   8.871  1.00  0.00     0.008 C 
ATOM     13  C   UNL     1       2.158   5.060  10.125  1.00  0.00     0.008 C 
ATOM     14  C   UNL     1      -1.416   7.794   8.733  1.00  0.00     0.017 C 
ATOM     15  C   UNL     1      -3.904   7.621   8.128  1.00  0.00    -0.020 C 
ATOM     16  C   UNL     1      -4.737   5.220   8.283  1.00  0.00     0.032 C 
ATOM     17  C   UNL     1      -5.023   6.611   7.625  1.00  0.00     0.006 C 
ATOM     18  C   UNL     1      -4.160   7.803   9.680  1.00  0.00     0.008 C 
ATOM     19  C   UNL     1      -3.986   9.048   7.451  1.00  0.00     0.012 C 
ATOM     20  C   UNL     1      -6.568   7.065   7.886  1.00  0.00    -0.025 C 
ATOM     21  C   UNL     1      -5.654   7.926  10.125  1.00  0.00     0.005 C 
ATOM     22  C   UNL     1      -6.619   8.217   8.949  1.00  0.00     0.003 C 
ATOM     23  C   UNL     1      -7.218   7.617   6.581  1.00  0.00     0.010 C 
ATOM     24  C   UNL     1      -7.446   5.837   8.317  1.00  0.00     0.012 C 
ATOM     25  C   UNL     1      -8.039   8.829   9.280  1.00  0.00    -0.006 C 
ATOM     26  C   UNL     1      -8.634   8.208   6.798  1.00  0.00     0.033 C 
ATOM     27  C   UNL     1      -8.704   9.263   7.922  1.00  0.00     0.120 C 
ATOM     28  C   UNL     1      -7.861  10.125  10.124  1.00  0.00     0.014 C 
ATOM     29  C   UNL     1      -8.959   7.883  10.104  1.00  0.00     0.014 C 
ENDROOT
BRANCH   1  30
ATOM     30  C   UNL     1       0.107   4.082   5.454  1.00  0.00     0.048 C 
ATOM     31  O   UNL     1       0.506   4.251   4.268  1.00  0.00    -0.550 OA
ATOM     32  O   UNL     1      -0.021   2.779   5.919  1.00  0.00    -0.550 OA
ENDBRANCH   1  30
BRANCH  27  33
ATOM     33  O   UNL     1     -10.053   9.613   8.125  1.00  0.00    -0.393 OA
ATOM     34  H   UNL     1     -10.268   9.450   9.080  1.00  0.00     0.210 HD
ENDBRANCH  27  33
TORSDOF 2
ENDMDL
MODEL 2
REMARK VINA RESULT:    -0.148      1.656      8.137
REMARK INTER + INTRA:          -0.021
REMARK INTER:                  -0.190
REMARK INTRA:                   0.169
REMARK UNBOUND:                 0.140
REMARK SMILES C[C@@H]1[C@H]2C3=CC[C@H]4[C@]5(C)CC[C@@H](O)C(C)(C)[C@H]5CC[C@@]4(C)[C@]3(C)CC[C@@]2(C(=O)[O-])CC[C@@H]1C
REMARK SMILES IDX 26 1 30 2 25 3 3 4 31 5 24 6 4 7 2 8 32 9 22 10 5 11 1 12
REMARK SMILES IDX 33 13 23 14 20 15 6 16 7 17 19 18 21 19 8 20 18 21 17 22
REMARK SMILES IDX 10 23 9 24 14 25 11 26 12 27 15 28 16 29 27 30 28 31 29 32
REMARK SMILES IDX 13 33
REMARK H PARENT 13 34
REMARK Flexibility Score: inf
ROOT
ATOM      1  C   UNL     1      -6.927   8.209   6.401  1.00  0.00     0.017 C 
ATOM      2  C   UNL     1      -8.158   7.255   6.474  1.00  0.00     0.014 C 
ATOM      3  C   UNL     1      -5.804   7.550   5.537  1.00  0.00     0.014 C 
ATOM      4  C   UNL     1      -6.318   8.594   7.804  1.00  0.00     0.030 C 
ATOM      5  C   UNL     1      -9.139   7.562   7.616  1.00  0.00     0.004 C 
ATOM      6  C   UNL     1      -5.088   6.334   6.171  1.00  0.00     0.013 C 
ATOM      7  C   UNL     1      -4.988   7.871   8.142  1.00  0.00    -0.063 C 
ATOM      8  C   UNL     1      -7.309   8.685   9.020  1.00  0.00    -0.003 C 
ATOM      9  C   UNL     1      -8.444   7.622   8.981  1.00  0.00    -0.011 C 
ATOM     10  C   UNL     1      -4.728   6.418   7.713  1.00  0.00    -0.006 C 
ATOM     11  C   UNL     1      -3.982   8.664   8.540  1.00  0.00    -0.027 C 
ATOM     12  C   UNL     1      -7.857  10.125   9.183  1.00  0.00     0.008 C 
ATOM     13  C   UNL     1      -9.481   7.801  10.104  1.00  0.00     0.008 C 
ATOM     14  C   UNL     1      -5.700   5.492   8.508  1.00  0.00     0.017 C 
ATOM     15  C   UNL     1      -3.213   5.893   8.018  1.00  0.00    -0.020 C 
ATOM     16  C   UNL     1      -2.543   8.301   8.502  1.00  0.00     0.032 C 
ATOM     17  C   UNL     1      -2.148   7.025   7.686  1.00  0.00     0.006 C 
ATOM     18  C   UNL     1      -2.988   5.531   9.543  1.00  0.00     0.008 C 
ATOM     19  C   UNL     1      -3.019   4.572   7.171  1.00  0.00     0.012 C 
ATOM     20  C   UNL     1      -0.585   6.638   7.943  1.00  0.00    -0.025 C 
ATOM     21  C   UNL     1      -1.502   5.444  10.022  1.00  0.00     0.005 C 
ATOM     22  C   UNL     1      -0.488   5.365   8.854  1.00  0.00     0.003 C 
ATOM     23  C   UNL     1       0.136   6.297   6.603  1.00  0.00     0.010 C 
ATOM     24  C   UNL     1       0.199   7.852   8.555  1.00  0.00     0.012 C 
ATOM     25  C   UNL     1       0.959   4.805   9.156  1.00  0.00    -0.006 C 
ATOM     26  C   UNL     1       1.580   5.771   6.795  1.00  0.00     0.033 C 
ATOM     27  C   UNL     1       1.689   4.588   7.779  1.00  0.00     0.120 C 
ATOM     28  C   UNL     1       0.843   3.403   9.825  1.00  0.00     0.014 C 
ATOM     29  C   UNL     1       1.792   5.693  10.124  1.00  0.00     0.014 C 
ENDROOT
BRANCH   1  30
ATOM     30  C   UNL     1      -7.371   9.491   5.668  1.00  0.00     0.048 C 
ATOM     31  O   UNL     1      -8.402  10.119   6.038  1.00  0.00    -0.550 OA
ATOM     32  O   UNL     1      -6.688   9.958   4.553  1.00  0.00    -0.550 OA
ENDBRANCH   1  30
BRANCH  27  33
ATOM     33  O   UNL     1       3.051   4.299   7.984  1.00  0.00    -0.393 OA
ATOM     34  H   UNL     1       3.559   5.147   7.892  1.00  0.00     0.210 HD
ENDBRANCH  27  33
TORSDOF 2
ENDMDL
MODEL 3
REMARK VINA RESULT:     1.251      1.813      3.462
REMARK INTER + INTRA:           1.501
REMARK INTER:                   1.715
REMARK INTRA:                  -0.215
REMARK UNBOUND:                 0.140
REMARK SMILES C[C@@H]1[C@H]2C3=CC[C@H]4[C@]5(C)CC[C@@H](O)C(C)(C)[C@H]5CC[C@@]4(C)[C@]3(C)CC[C@@]2(C(=O)[O-])CC[C@@H]1C
REMARK SMILES IDX 26 1 30 2 25 3 3 4 31 5 24 6 4 7 2 8 32 9 22 10 5 11 1 12
REMARK SMILES IDX 33 13 23 14 20 15 6 16 7 17 19 18 21 19 8 20 18 21 17 22
REMARK SMILES IDX 10 23 9 24 14 25 11 26 12 27 15 28 16 29 27 30 28 31 29 32
REMARK SMILES IDX 13 33
REMARK H PARENT 13 34
REMARK Flexibility Score: inf
ROOT
ATOM      1  C   UNL     1      -0.175   5.681   8.982  1.00  0.00     0.017 C 
ATOM      2  C   UNL     1       0.046   4.161   9.253  1.00  0.00     0.014 C 
ATOM      3  C   UNL     1      -1.078   6.286  10.103  1.00  0.00     0.014 C 
ATOM      4  C   UNL     1      -0.828   6.005   7.584  1.00  0.00     0.030 C 
ATOM      5  C   UNL     1       0.534   3.359   8.036  1.00  0.00     0.004 C 
ATOM      6  C   UNL     1      -2.564   5.853  10.084  1.00  0.00     0.013 C 
ATOM      7  C   UNL     1      -2.324   6.407   7.657  1.00  0.00    -0.063 C 
ATOM      8  C   UNL     1      -0.496   5.036   6.391  1.00  0.00    -0.003 C 
ATOM      9  C   UNL     1      -0.374   3.545   6.814  1.00  0.00    -0.011 C 
ATOM     10  C   UNL     1      -3.283   5.768   8.674  1.00  0.00    -0.006 C 
ATOM     11  C   UNL     1      -2.652   7.539   7.017  1.00  0.00    -0.027 C 
ATOM     12  C   UNL     1       0.744   5.529   5.604  1.00  0.00     0.008 C 
ATOM     13  C   UNL     1       0.078   2.624   5.666  1.00  0.00     0.008 C 
ATOM     14  C   UNL     1      -3.469   4.266   8.294  1.00  0.00     0.017 C 
ATOM     15  C   UNL     1      -4.771   6.439   8.703  1.00  0.00    -0.020 C 
ATOM     16  C   UNL     1      -3.867   8.350   7.283  1.00  0.00     0.032 C 
ATOM     17  C   UNL     1      -4.675   8.021   8.583  1.00  0.00     0.006 C 
ATOM     18  C   UNL     1      -5.674   5.973   7.490  1.00  0.00     0.008 C 
ATOM     19  C   UNL     1      -5.457   5.945  10.039  1.00  0.00     0.012 C 
ATOM     20  C   UNL     1      -6.091   8.829   8.600  1.00  0.00    -0.025 C 
ATOM     21  C   UNL     1      -6.922   6.863   7.174  1.00  0.00     0.005 C 
ATOM     22  C   UNL     1      -7.278   7.843   8.320  1.00  0.00     0.003 C 
ATOM     23  C   UNL     1      -6.352   9.474   9.996  1.00  0.00     0.010 C 
ATOM     24  C   UNL     1      -6.070  10.018   7.575  1.00  0.00     0.012 C 
ATOM     25  C   UNL     1      -8.739   8.443   8.363  1.00  0.00    -0.006 C 
ATOM     26  C   UNL     1      -7.752  10.124  10.124  1.00  0.00     0.033 C 
ATOM     27  C   UNL     1      -8.914   9.184   9.740  1.00  0.00     0.120 C 
ATOM     28  C   UNL     1      -9.778   7.283   8.346  1.00  0.00     0.014 C 
ATOM     29  C   UNL     1      -9.080   9.366   7.158  1.00  0.00     0.014 C 
ENDROOT
BRANCH   1  30
ATOM     30  C   UNL     1       1.198   6.378   9.078  1.00  0.00     0.048 C 
ATOM     31  O   UNL     1       2.109   5.905   9.812  1.00  0.00    -0.550 OA
ATOM     32  O   UNL     1       1.451   7.567   8.407  1.00  0.00    -0.550 OA
ENDBRANCH   1  30
BRANCH  27  33
ATOM     33  O   UNL     1     -10.112   9.924   9.752  1.00  0.00    -0.393 OA
ATOM     34  H   UNL     1     -10.848   9.307  10.005  1.00  0.00     0.210 HD
ENDBRANCH  27  33
TORSDOF 2
ENDMDL
MODEL 4
REMARK VINA RESULT:     1.514     16.033     17.937
REMARK INTER + INTRA:           1.787
REMARK INTER:                   1.706
REMARK INTRA:                   0.081
REMARK UNBOUND:                 0.140
REMARK SMILES C[C@@H]1[C@H]2C3=CC[C@H]4[C@]5(C)CC[C@@H](O)C(C)(C)[C@H]5CC[C@@]4(C)[C@]3(C)CC[C@@]2(C(=O)[O-])CC[C@@H]1C
REMARK SMILES IDX 26 1 30 2 25 3 3 4 31 5 24 6 4 7 2 8 32 9 22 10 5 11 1 12
REMARK SMILES IDX 33 13 23 14 20 15 6 16 7 17 19 18 21 19 8 20 18 21 17 22
REMARK SMILES IDX 10 23 9 24 14 25 11 26 12 27 15 28 16 29 27 30 28 31 29 32
REMARK SMILES IDX 13 33
REMARK H PARENT 13 34
REMARK Flexibility Score: inf
ROOT
ATOM      1  C   UNL     1      -7.638  -4.700  -9.369  1.00  0.00     0.017 C 
ATOM      2  C   UNL     1      -6.294  -4.944 -10.122  1.00  0.00     0.014 C 
ATOM      3  C   UNL     1      -8.174  -3.272  -9.706  1.00  0.00     0.014 C 
ATOM      4  C   UNL     1      -7.541  -4.842  -7.802  1.00  0.00     0.030 C 
ATOM      5  C   UNL     1      -5.448  -6.099  -9.561  1.00  0.00     0.004 C 
ATOM      6  C   UNL     1      -7.379  -2.090  -9.102  1.00  0.00     0.013 C 
ATOM      7  C   UNL     1      -7.554  -3.491  -7.038  1.00  0.00    -0.063 C 
ATOM      8  C   UNL     1      -6.501  -5.873  -7.233  1.00  0.00    -0.003 C 
ATOM      9  C   UNL     1      -5.184  -5.951  -8.058  1.00  0.00    -0.011 C 
ATOM     10  C   UNL     1      -6.874  -2.236  -7.606  1.00  0.00    -0.006 C 
ATOM     11  C   UNL     1      -8.438  -3.402  -6.033  1.00  0.00    -0.027 C 
ATOM     12  C   UNL     1      -7.152  -7.264  -7.032  1.00  0.00     0.008 C 
ATOM     13  C   UNL     1      -4.228  -7.055  -7.571  1.00  0.00     0.008 C 
ATOM     14  C   UNL     1      -5.332  -2.477  -7.617  1.00  0.00     0.017 C 
ATOM     15  C   UNL     1      -7.138  -0.880  -6.735  1.00  0.00    -0.020 C 
ATOM     16  C   UNL     1      -8.945  -2.134  -5.452  1.00  0.00     0.032 C 
ATOM     17  C   UNL     1      -8.647  -0.816  -6.242  1.00  0.00     0.006 C 
ATOM     18  C   UNL     1      -6.257  -0.818  -5.422  1.00  0.00     0.008 C 
ATOM     19  C   UNL     1      -6.720   0.333  -7.660  1.00  0.00     0.012 C 
ATOM     20  C   UNL     1      -9.057   0.491  -5.357  1.00  0.00    -0.025 C 
ATOM     21  C   UNL     1      -6.731   0.183  -4.317  1.00  0.00     0.005 C 
ATOM     22  C   UNL     1      -7.768   1.212  -4.831  1.00  0.00     0.003 C 
ATOM     23  C   UNL     1      -9.842   1.528  -6.218  1.00  0.00     0.010 C 
ATOM     24  C   UNL     1     -10.020   0.093  -4.183  1.00  0.00     0.012 C 
ATOM     25  C   UNL     1      -7.974   2.544  -4.004  1.00  0.00    -0.006 C 
ATOM     26  C   UNL     1     -10.125   2.859  -5.478  1.00  0.00     0.033 C 
ATOM     27  C   UNL     1      -8.868   3.511  -4.864  1.00  0.00     0.120 C 
ATOM     28  C   UNL     1      -6.601   3.255  -3.816  1.00  0.00     0.014 C 
ATOM     29  C   UNL     1      -8.559   2.320  -2.580  1.00  0.00     0.014 C 
ENDROOT
BRANCH   1  30
ATOM     30  C   UNL     1      -8.667  -5.712  -9.910  1.00  0.00     0.048 C 
ATOM     31  O   UNL     1      -9.861  -5.363 -10.125  1.00  0.00    -0.550 OA
ATOM     32  O   UNL     1      -8.328  -7.042 -10.123  1.00  0.00    -0.550 OA
ENDBRANCH   1  30
BRANCH  27  33
ATOM     33  O   UNL     1      -9.269   4.622  -4.097  1.00  0.00    -0.393 OA
ATOM     34  H   UNL     1     -10.261   4.662  -4.116  1.00  0.00     0.210 HD
ENDBRANCH  27  33
TORSDOF 2
ENDMDL
