MODEL 1
REMARK VINA RESULT:    -8.152      0.000      0.000
REMARK INTER + INTRA:         -12.373
REMARK INTER:                 -11.250
REMARK INTRA:                  -1.123
REMARK UNBOUND:                -1.123
REMARK SMILES CC[C@@H](CC[C@H](C)[C@H]1CC[C@@H]2[C@@H]3CC=C4C[C@@H](O)CC[C@]4(C)[C@H]3CC[C@@]21C)C(C)C
REMARK SMILES IDX 5 1 4 2 3 3 2 4 1 5 28 6 29 7 30 8 6 9 7 10 8 11 9 12 26 13
REMARK SMILES IDX 10 14 11 15 25 16 27 17 12 18 24 19 23 20 13 21 21 22 14 23
REMARK SMILES IDX 15 24 20 25 22 26 16 27 19 28 17 29 18 30
REMARK H PARENT 18 31
REMARK Flexibility Score: inf
ROOT
ATOM      1  C   UNL     1     118.638 130.876 130.625  1.00  0.00     0.004 C 
ENDROOT
BRANCH   1   2
ATOM      2  C   UNL     1     119.516 131.802 129.760  1.00  0.00     0.004 C 
BRANCH   2   3
ATOM      3  C   UNL     1     119.956 133.114 130.477  1.00  0.00    -0.009 C 
BRANCH   3   4
ATOM      4  C   UNL     1     119.406 134.382 129.763  1.00  0.00     0.000 C 
ATOM      5  C   UNL     1     118.357 134.080 128.683  1.00  0.00     0.004 C 
ENDBRANCH   3   4
BRANCH   3   6
ATOM      6  C   UNL     1     121.509 133.207 130.694  1.00  0.00    -0.014 C 
ATOM      7  C   UNL     1     122.292 132.685 129.471  1.00  0.00     0.007 C 
ATOM      8  C   UNL     1     121.973 134.651 131.000  1.00  0.00     0.007 C 
ENDBRANCH   3   6
ENDBRANCH   2   3
ENDBRANCH   1   2
BRANCH   1   9
ATOM      9  C   UNL     1     119.234 129.447 130.772  1.00  0.00    -0.011 C 
ATOM     10  C   UNL     1     120.745 129.434 130.485  1.00  0.00     0.008 C 
BRANCH   9  11
ATOM     11  C   UNL     1     118.449 128.301 130.036  1.00  0.00    -0.002 C 
ATOM     12  C   UNL     1     119.369 127.578 129.029  1.00  0.00     0.005 C 
ATOM     13  C   UNL     1     117.696 127.159 130.827  1.00  0.00    -0.026 C 
ATOM     14  C   UNL     1     119.146 126.082 129.192  1.00  0.00     0.005 C 
ATOM     15  C   UNL     1     118.571 125.900 130.598  1.00  0.00    -0.001 C 
ATOM     16  C   UNL     1     116.296 126.960 130.166  1.00  0.00     0.007 C 
ATOM     17  C   UNL     1     117.495 127.421 132.340  1.00  0.00     0.012 C 
ATOM     18  C   UNL     1     117.854 124.532 130.857  1.00  0.00     0.000 C 
ATOM     19  C   UNL     1     115.596 125.663 130.570  1.00  0.00     0.005 C 
ATOM     20  C   UNL     1     116.450 124.423 130.209  1.00  0.00     0.003 C 
ATOM     21  C   UNL     1     118.738 123.351 130.410  1.00  0.00     0.031 C 
ATOM     22  C   UNL     1     115.744 123.052 130.567  1.00  0.00    -0.008 C 
ATOM     23  C   UNL     1     118.051 122.021 130.492  1.00  0.00    -0.027 C 
ATOM     24  C   UNL     1     116.714 121.872 130.386  1.00  0.00    -0.065 C 
ATOM     25  C   UNL     1     114.523 122.854 129.611  1.00  0.00     0.014 C 
ATOM     26  C   UNL     1     115.245 123.028 132.039  1.00  0.00     0.016 C 
ATOM     27  C   UNL     1     116.156 120.464 130.307  1.00  0.00     0.063 C 
ATOM     28  C   UNL     1     113.932 121.438 129.638  1.00  0.00     0.033 C 
ATOM     29  C   UNL     1     115.000 120.391 129.302  1.00  0.00     0.118 C 
BRANCH  29  30
ATOM     30  O   UNL     1     114.420 119.112 129.333  1.00  0.00    -0.393 OA
ATOM     31  H   UNL     1     115.123 118.486 129.658  1.00  0.00     0.210 HD
ENDBRANCH  29  30
ENDBRANCH   9  11
ENDBRANCH   1   9
TORSDOF 7
ENDMDL
MODEL 2
REMARK VINA RESULT:    -7.784      3.333      9.178
REMARK INTER + INTRA:         -11.865
REMARK INTER:                 -10.229
REMARK INTRA:                  -1.636
REMARK UNBOUND:                -1.123
REMARK SMILES CC[C@@H](CC[C@H](C)[C@H]1CC[C@@H]2[C@@H]3CC=C4C[C@@H](O)CC[C@]4(C)[C@H]3CC[C@@]21C)C(C)C
REMARK SMILES IDX 5 1 4 2 3 3 2 4 1 5 28 6 29 7 30 8 6 9 7 10 8 11 9 12 26 13
REMARK SMILES IDX 10 14 11 15 25 16 27 17 12 18 24 19 23 20 13 21 21 22 14 23
REMARK SMILES IDX 15 24 20 25 22 26 16 27 19 28 17 29 18 30
REMARK H PARENT 18 31
REMARK Flexibility Score: inf
ROOT
ATOM      1  C   UNL     1     114.178 120.311 129.460  1.00  0.00     0.004 C 
ENDROOT
BRANCH   1   2
ATOM      2  C   UNL     1     114.784 120.162 130.869  1.00  0.00     0.004 C 
BRANCH   2   3
ATOM      3  C   UNL     1     113.968 120.870 131.992  1.00  0.00    -0.009 C 
BRANCH   3   4
ATOM      4  C   UNL     1     113.011 121.956 131.421  1.00  0.00     0.000 C 
ATOM      5  C   UNL     1     113.229 123.353 132.020  1.00  0.00     0.004 C 
ENDBRANCH   3   4
BRANCH   3   6
ATOM      6  C   UNL     1     114.871 121.448 133.141  1.00  0.00    -0.014 C 
ATOM      7  C   UNL     1     114.522 120.829 134.511  1.00  0.00     0.007 C 
ATOM      8  C   UNL     1     116.377 121.231 132.867  1.00  0.00     0.007 C 
ENDBRANCH   3   6
ENDBRANCH   2   3
ENDBRANCH   1   2
BRANCH   1   9
ATOM      9  C   UNL     1     115.254 120.573 128.367  1.00  0.00    -0.011 C 
ATOM     10  C   UNL     1     116.465 119.641 128.535  1.00  0.00     0.008 C 
BRANCH   9  11
ATOM     11  C   UNL     1     115.648 122.077 128.144  1.00  0.00    -0.002 C 
ATOM     12  C   UNL     1     114.403 122.983 128.257  1.00  0.00     0.005 C 
ATOM     13  C   UNL     1     116.773 122.785 129.000  1.00  0.00    -0.026 C 
ATOM     14  C   UNL     1     114.781 124.185 129.108  1.00  0.00     0.005 C 
ATOM     15  C   UNL     1     115.990 123.743 129.935  1.00  0.00    -0.001 C 
ATOM     16  C   UNL     1     117.669 123.611 128.026  1.00  0.00     0.007 C 
ATOM     17  C   UNL     1     117.679 121.835 129.820  1.00  0.00     0.012 C 
ATOM     18  C   UNL     1     116.835 124.903 130.563  1.00  0.00     0.000 C 
ATOM     19  C   UNL     1     118.567 124.634 128.722  1.00  0.00     0.005 C 
ATOM     20  C   UNL     1     117.735 125.648 129.545  1.00  0.00     0.003 C 
ATOM     21  C   UNL     1     115.931 125.905 131.306  1.00  0.00     0.031 C 
ATOM     22  C   UNL     1     118.619 126.757 130.247  1.00  0.00    -0.008 C 
ATOM     23  C   UNL     1     116.659 127.119 131.801  1.00  0.00    -0.027 C 
ATOM     24  C   UNL     1     117.774 127.602 131.214  1.00  0.00    -0.065 C 
ATOM     25  C   UNL     1     119.216 127.693 129.146  1.00  0.00     0.014 C 
ATOM     26  C   UNL     1     119.784 126.132 131.067  1.00  0.00     0.016 C 
ATOM     27  C   UNL     1     118.316 128.934 131.698  1.00  0.00     0.063 C 
ATOM     28  C   UNL     1     119.840 128.984 129.694  1.00  0.00     0.033 C 
ATOM     29  C   UNL     1     118.822 129.777 130.521  1.00  0.00     0.118 C 
BRANCH  29  30
ATOM     30  O   UNL     1     119.429 130.949 131.001  1.00  0.00    -0.393 OA
ATOM     31  H   UNL     1     119.902 131.365 130.230  1.00  0.00     0.210 HD
ENDBRANCH  29  30
ENDBRANCH   9  11
ENDBRANCH   1   9
TORSDOF 7
ENDMDL
MODEL 3
REMARK VINA RESULT:    -7.282      6.552      9.503
REMARK INTER + INTRA:         -11.171
REMARK INTER:                  -9.257
REMARK INTRA:                  -1.915
REMARK UNBOUND:                -1.123
REMARK SMILES CC[C@@H](CC[C@H](C)[C@H]1CC[C@@H]2[C@@H]3CC=C4C[C@@H](O)CC[C@]4(C)[C@H]3CC[C@@]21C)C(C)C
REMARK SMILES IDX 5 1 4 2 3 3 2 4 1 5 28 6 29 7 30 8 6 9 7 10 8 11 9 12 26 13
REMARK SMILES IDX 10 14 11 15 25 16 27 17 12 18 24 19 23 20 13 21 21 22 14 23
REMARK SMILES IDX 15 24 20 25 22 26 16 27 19 28 17 29 18 30
REMARK H PARENT 18 31
REMARK Flexibility Score: inf
ROOT
ATOM      1  C   UNL     1     113.358 122.227 131.474  1.00  0.00     0.004 C 
ENDROOT
BRANCH   1   2
ATOM      2  C   UNL     1     114.100 123.255 130.598  1.00  0.00     0.004 C 
BRANCH   2   3
ATOM      3  C   UNL     1     114.690 122.662 129.283  1.00  0.00    -0.009 C 
BRANCH   3   4
ATOM      4  C   UNL     1     115.379 123.751 128.410  1.00  0.00     0.000 C 
ATOM      5  C   UNL     1     116.909 123.637 128.370  1.00  0.00     0.004 C 
ENDBRANCH   3   4
BRANCH   3   6
ATOM      6  C   UNL     1     113.640 121.840 128.451  1.00  0.00    -0.014 C 
ATOM      7  C   UNL     1     113.307 122.528 127.110  1.00  0.00     0.007 C 
ATOM      8  C   UNL     1     114.121 120.399 128.163  1.00  0.00     0.007 C 
ENDBRANCH   3   6
ENDBRANCH   2   3
ENDBRANCH   1   2
BRANCH   1   9
ATOM      9  C   UNL     1     114.291 121.101 132.004  1.00  0.00    -0.011 C 
ATOM     10  C   UNL     1     113.502 120.034 132.780  1.00  0.00     0.008 C 
BRANCH   9  11
ATOM     11  C   UNL     1     115.589 121.584 132.747  1.00  0.00    -0.002 C 
ATOM     12  C   UNL     1     115.489 121.277 134.257  1.00  0.00     0.005 C 
ATOM     13  C   UNL     1     117.032 121.114 132.307  1.00  0.00    -0.026 C 
ATOM     14  C   UNL     1     116.821 120.687 134.697  1.00  0.00     0.005 C 
ATOM     15  C   UNL     1     117.468 120.133 133.425  1.00  0.00    -0.001 C 
ATOM     16  C   UNL     1     117.964 122.366 132.307  1.00  0.00     0.007 C 
ATOM     17  C   UNL     1     117.114 120.437 130.918  1.00  0.00     0.012 C 
ATOM     18  C   UNL     1     119.009 119.868 133.518  1.00  0.00     0.000 C 
ATOM     19  C   UNL     1     119.455 122.032 132.261  1.00  0.00     0.005 C 
ATOM     20  C   UNL     1     119.874 121.152 133.465  1.00  0.00     0.003 C 
ATOM     21  C   UNL     1     119.354 119.047 134.776  1.00  0.00     0.031 C 
ATOM     22  C   UNL     1     121.421 120.819 133.486  1.00  0.00    -0.008 C 
ATOM     23  C   UNL     1     120.827 118.886 135.003  1.00  0.00    -0.027 C 
ATOM     24  C   UNL     1     121.743 119.778 134.572  1.00  0.00    -0.065 C 
ATOM     25  C   UNL     1     122.212 122.132 133.793  1.00  0.00     0.014 C 
ATOM     26  C   UNL     1     121.905 120.241 132.125  1.00  0.00     0.016 C 
ATOM     27  C   UNL     1     123.182 119.597 135.017  1.00  0.00     0.063 C 
ATOM     28  C   UNL     1     123.689 121.904 134.144  1.00  0.00     0.033 C 
ATOM     29  C   UNL     1     123.829 120.950 135.335  1.00  0.00     0.118 C 
BRANCH  29  30
ATOM     30  O   UNL     1     125.191 120.770 135.626  1.00  0.00    -0.393 OA
ATOM     31  H   UNL     1     125.299 120.923 136.604  1.00  0.00     0.210 HD
ENDBRANCH  29  30
ENDBRANCH   9  11
ENDBRANCH   1   9
TORSDOF 7
ENDMDL
MODEL 4
REMARK VINA RESULT:    -7.279      3.417      9.584
REMARK INTER + INTRA:         -11.168
REMARK INTER:                  -9.939
REMARK INTRA:                  -1.229
REMARK UNBOUND:                -1.123
REMARK SMILES CC[C@@H](CC[C@H](C)[C@H]1CC[C@@H]2[C@@H]3CC=C4C[C@@H](O)CC[C@]4(C)[C@H]3CC[C@@]21C)C(C)C
REMARK SMILES IDX 5 1 4 2 3 3 2 4 1 5 28 6 29 7 30 8 6 9 7 10 8 11 9 12 26 13
REMARK SMILES IDX 10 14 11 15 25 16 27 17 12 18 24 19 23 20 13 21 21 22 14 23
REMARK SMILES IDX 15 24 20 25 22 26 16 27 19 28 17 29 18 30
REMARK H PARENT 18 31
REMARK Flexibility Score: inf
ROOT
ATOM      1  C   UNL     1     114.305 120.089 130.027  1.00  0.00     0.004 C 
ENDROOT
BRANCH   1   2
ATOM      2  C   UNL     1     115.026 118.911 129.345  1.00  0.00     0.004 C 
BRANCH   2   3
ATOM      3  C   UNL     1     116.032 119.336 128.233  1.00  0.00    -0.009 C 
BRANCH   3   4
ATOM      4  C   UNL     1     116.280 118.197 127.203  1.00  0.00     0.000 C 
ATOM      5  C   UNL     1     115.944 116.796 127.734  1.00  0.00     0.004 C 
ENDBRANCH   3   4
BRANCH   3   6
ATOM      6  C   UNL     1     117.384 119.896 128.806  1.00  0.00    -0.014 C 
ATOM      7  C   UNL     1     118.154 118.825 129.607  1.00  0.00     0.007 C 
ATOM      8  C   UNL     1     118.309 120.443 127.694  1.00  0.00     0.007 C 
ENDBRANCH   3   6
ENDBRANCH   2   3
ENDBRANCH   1   2
BRANCH   1   9
ATOM      9  C   UNL     1     114.693 120.246 131.525  1.00  0.00    -0.011 C 
ATOM     10  C   UNL     1     113.486 120.002 132.447  1.00  0.00     0.008 C 
BRANCH   9  11
ATOM     11  C   UNL     1     115.506 121.541 131.888  1.00  0.00    -0.002 C 
ATOM     12  C   UNL     1     116.988 121.192 132.141  1.00  0.00     0.005 C 
ATOM     13  C   UNL     1     115.517 122.814 130.951  1.00  0.00    -0.026 C 
ATOM     14  C   UNL     1     117.836 122.229 131.419  1.00  0.00     0.005 C 
ATOM     15  C   UNL     1     116.936 122.812 130.327  1.00  0.00    -0.001 C 
ATOM     16  C   UNL     1     115.337 124.075 131.854  1.00  0.00     0.007 C 
ATOM     17  C   UNL     1     114.430 122.836 129.849  1.00  0.00     0.012 C 
ATOM     18  C   UNL     1     117.406 124.181 129.730  1.00  0.00     0.000 C 
ATOM     19  C   UNL     1     115.687 125.391 131.160  1.00  0.00     0.005 C 
ATOM     20  C   UNL     1     117.154 125.394 130.661  1.00  0.00     0.003 C 
ATOM     21  C   UNL     1     118.890 124.126 129.321  1.00  0.00     0.031 C 
ATOM     22  C   UNL     1     117.578 126.757 129.977  1.00  0.00    -0.008 C 
ATOM     23  C   UNL     1     119.443 125.449 128.882  1.00  0.00    -0.027 C 
ATOM     24  C   UNL     1     118.961 126.632 129.317  1.00  0.00    -0.065 C 
ATOM     25  C   UNL     1     117.640 127.869 131.074  1.00  0.00     0.014 C 
ATOM     26  C   UNL     1     116.569 127.187 128.875  1.00  0.00     0.016 C 
ATOM     27  C   UNL     1     119.716 127.892 128.940  1.00  0.00     0.063 C 
ATOM     28  C   UNL     1     118.327 129.162 130.614  1.00  0.00     0.033 C 
ATOM     29  C   UNL     1     119.748 128.880 130.113  1.00  0.00     0.118 C 
BRANCH  29  30
ATOM     30  O   UNL     1     120.343 130.085 129.706  1.00  0.00    -0.393 OA
ATOM     31  H   UNL     1     119.604 130.733 129.550  1.00  0.00     0.210 HD
ENDBRANCH  29  30
ENDBRANCH   9  11
ENDBRANCH   1   9
TORSDOF 7
ENDMDL
MODEL 5
REMARK VINA RESULT:    -7.256      5.773      8.963
REMARK INTER + INTRA:         -11.136
REMARK INTER:                  -9.015
REMARK INTRA:                  -2.122
REMARK UNBOUND:                -1.123
REMARK SMILES CC[C@@H](CC[C@H](C)[C@H]1CC[C@@H]2[C@@H]3CC=C4C[C@@H](O)CC[C@]4(C)[C@H]3CC[C@@]21C)C(C)C
REMARK SMILES IDX 5 1 4 2 3 3 2 4 1 5 28 6 29 7 30 8 6 9 7 10 8 11 9 12 26 13
REMARK SMILES IDX 10 14 11 15 25 16 27 17 12 18 24 19 23 20 13 21 21 22 14 23
REMARK SMILES IDX 15 24 20 25 22 26 16 27 19 28 17 29 18 30
REMARK H PARENT 18 31
REMARK Flexibility Score: inf
ROOT
ATOM      1  C   UNL     1     113.379 121.879 131.023  1.00  0.00     0.004 C 
ENDROOT
BRANCH   1   2
ATOM      2  C   UNL     1     114.026 123.261 130.808  1.00  0.00     0.004 C 
BRANCH   2   3
ATOM      3  C   UNL     1     114.180 123.667 129.311  1.00  0.00    -0.009 C 
BRANCH   3   4
ATOM      4  C   UNL     1     114.141 122.433 128.365  1.00  0.00     0.000 C 
ATOM      5  C   UNL     1     113.196 122.599 127.167  1.00  0.00     0.004 C 
ENDBRANCH   3   4
BRANCH   3   6
ATOM      6  C   UNL     1     115.447 124.557 129.041  1.00  0.00    -0.014 C 
ATOM      7  C   UNL     1     115.921 125.282 130.318  1.00  0.00     0.007 C 
ATOM      8  C   UNL     1     116.626 123.738 128.468  1.00  0.00     0.007 C 
ENDBRANCH   3   6
ENDBRANCH   2   3
ENDBRANCH   1   2
BRANCH   1   9
ATOM      9  C   UNL     1     114.289 120.907 131.827  1.00  0.00    -0.011 C 
ATOM     10  C   UNL     1     113.464 120.011 132.767  1.00  0.00     0.008 C 
BRANCH   9  11
ATOM     11  C   UNL     1     115.539 121.559 132.521  1.00  0.00    -0.002 C 
ATOM     12  C   UNL     1     115.573 121.194 134.020  1.00  0.00     0.005 C 
ATOM     13  C   UNL     1     117.009 121.329 131.989  1.00  0.00    -0.026 C 
ATOM     14  C   UNL     1     117.001 120.801 134.367  1.00  0.00     0.005 C 
ATOM     15  C   UNL     1     117.651 120.392 133.043  1.00  0.00    -0.001 C 
ATOM     16  C   UNL     1     117.741 122.707 131.989  1.00  0.00     0.007 C 
ATOM     17  C   UNL     1     117.112 120.714 130.571  1.00  0.00     0.012 C 
ATOM     18  C   UNL     1     119.217 120.362 133.046  1.00  0.00     0.000 C 
ATOM     19  C   UNL     1     119.260 122.606 131.853  1.00  0.00     0.005 C 
ATOM     20  C   UNL     1     119.875 121.764 132.998  1.00  0.00     0.003 C 
ATOM     21  C   UNL     1     119.753 119.565 134.251  1.00  0.00     0.031 C 
ATOM     22  C   UNL     1     121.453 121.670 132.927  1.00  0.00    -0.008 C 
ATOM     23  C   UNL     1     121.244 119.624 134.396  1.00  0.00    -0.027 C 
ATOM     24  C   UNL     1     121.989 120.658 133.953  1.00  0.00    -0.065 C 
ATOM     25  C   UNL     1     122.053 123.079 133.243  1.00  0.00     0.014 C 
ATOM     26  C   UNL     1     121.940 121.215 131.521  1.00  0.00     0.016 C 
ATOM     27  C   UNL     1     123.461 120.685 134.316  1.00  0.00     0.063 C 
ATOM     28  C   UNL     1     123.565 123.068 133.508  1.00  0.00     0.033 C 
ATOM     29  C   UNL     1     123.915 122.111 134.652  1.00  0.00     0.118 C 
BRANCH  29  30
ATOM     30  O   UNL     1     125.303 122.132 134.866  1.00  0.00    -0.393 OA
ATOM     31  H   UNL     1     125.713 121.571 134.153  1.00  0.00     0.210 HD
ENDBRANCH  29  30
ENDBRANCH   9  11
ENDBRANCH   1   9
TORSDOF 7
ENDMDL
MODEL 6
REMARK VINA RESULT:    -7.231      1.326      2.198
REMARK INTER + INTRA:         -11.101
REMARK INTER:                  -9.967
REMARK INTRA:                  -1.135
REMARK UNBOUND:                -1.123
REMARK SMILES CC[C@@H](CC[C@H](C)[C@H]1CC[C@@H]2[C@@H]3CC=C4C[C@@H](O)CC[C@]4(C)[C@H]3CC[C@@]21C)C(C)C
REMARK SMILES IDX 5 1 4 2 3 3 2 4 1 5 28 6 29 7 30 8 6 9 7 10 8 11 9 12 26 13
REMARK SMILES IDX 10 14 11 15 25 16 27 17 12 18 24 19 23 20 13 21 21 22 14 23
REMARK SMILES IDX 15 24 20 25 22 26 16 27 19 28 17 29 18 30
REMARK H PARENT 18 31
REMARK Flexibility Score: inf
ROOT
ATOM      1  C   UNL     1     119.685 129.760 129.955  1.00  0.00     0.004 C 
ENDROOT
BRANCH   1   2
ATOM      2  C   UNL     1     120.194 130.643 131.111  1.00  0.00     0.004 C 
BRANCH   2   3
ATOM      3  C   UNL     1     120.178 132.171 130.801  1.00  0.00    -0.009 C 
BRANCH   3   4
ATOM      4  C   UNL     1     119.411 132.491 129.485  1.00  0.00     0.000 C 
ATOM      5  C   UNL     1     118.279 133.512 129.660  1.00  0.00     0.004 C 
ENDBRANCH   3   4
BRANCH   3   6
ATOM      6  C   UNL     1     121.611 132.816 130.801  1.00  0.00    -0.014 C 
ATOM      7  C   UNL     1     122.332 132.610 129.452  1.00  0.00     0.007 C 
ATOM      8  C   UNL     1     121.572 134.329 131.117  1.00  0.00     0.007 C 
ENDBRANCH   3   6
ENDBRANCH   2   3
ENDBRANCH   1   2
BRANCH   1   9
ATOM      9  C   UNL     1     118.391 128.977 130.321  1.00  0.00    -0.011 C 
ATOM     10  C   UNL     1     117.845 129.403 131.694  1.00  0.00     0.008 C 
BRANCH   9  11
ATOM     11  C   UNL     1     118.461 127.419 130.132  1.00  0.00    -0.002 C 
ATOM     12  C   UNL     1     118.866 126.733 131.454  1.00  0.00     0.005 C 
ATOM     13  C   UNL     1     117.240 126.586 129.573  1.00  0.00    -0.026 C 
ATOM     14  C   UNL     1     117.952 125.533 131.651  1.00  0.00     0.005 C 
ATOM     15  C   UNL     1     116.707 125.819 130.809  1.00  0.00    -0.001 C 
ATOM     16  C   UNL     1     117.790 125.575 128.518  1.00  0.00     0.007 C 
ATOM     17  C   UNL     1     116.114 127.421 128.915  1.00  0.00     0.012 C 
ATOM     18  C   UNL     1     115.812 124.573 130.489  1.00  0.00     0.000 C 
ATOM     19  C   UNL     1     116.810 124.460 128.154  1.00  0.00     0.005 C 
ATOM     20  C   UNL     1     116.400 123.639 129.402  1.00  0.00     0.003 C 
ATOM     21  C   UNL     1     115.504 123.771 131.769  1.00  0.00     0.031 C 
ATOM     22  C   UNL     1     115.421 122.441 129.067  1.00  0.00    -0.008 C 
ATOM     23  C   UNL     1     114.778 122.485 131.511  1.00  0.00    -0.027 C 
ATOM     24  C   UNL     1     114.882 121.797 130.354  1.00  0.00    -0.065 C 
ATOM     25  C   UNL     1     116.209 121.364 128.253  1.00  0.00     0.014 C 
ATOM     26  C   UNL     1     114.197 122.914 128.231  1.00  0.00     0.016 C 
ATOM     27  C   UNL     1     114.242 120.424 130.281  1.00  0.00     0.063 C 
ATOM     28  C   UNL     1     115.477 120.021 128.123  1.00  0.00     0.033 C 
ATOM     29  C   UNL     1     115.133 119.448 129.502  1.00  0.00     0.118 C 
BRANCH  29  30
ATOM     30  O   UNL     1     114.470 118.220 129.342  1.00  0.00    -0.393 OA
ATOM     31  H   UNL     1     113.799 118.157 130.075  1.00  0.00     0.210 HD
ENDBRANCH  29  30
ENDBRANCH   9  11
ENDBRANCH   1   9
TORSDOF 7
ENDMDL
MODEL 7
REMARK VINA RESULT:    -7.106      4.713      7.722
REMARK INTER + INTRA:         -10.929
REMARK INTER:                  -9.480
REMARK INTRA:                  -1.449
REMARK UNBOUND:                -1.123
REMARK SMILES CC[C@@H](CC[C@H](C)[C@H]1CC[C@@H]2[C@@H]3CC=C4C[C@@H](O)CC[C@]4(C)[C@H]3CC[C@@]21C)C(C)C
REMARK SMILES IDX 5 1 4 2 3 3 2 4 1 5 28 6 29 7 30 8 6 9 7 10 8 11 9 12 26 13
REMARK SMILES IDX 10 14 11 15 25 16 27 17 12 18 24 19 23 20 13 21 21 22 14 23
REMARK SMILES IDX 15 24 20 25 22 26 16 27 19 28 17 29 18 30
REMARK H PARENT 18 31
REMARK Flexibility Score: inf
ROOT
ATOM      1  C   UNL     1     114.353 123.868 129.378  1.00  0.00     0.004 C 
ENDROOT
BRANCH   1   2
ATOM      2  C   UNL     1     115.260 123.370 128.236  1.00  0.00     0.004 C 
BRANCH   2   3
ATOM      3  C   UNL     1     116.598 124.158 128.095  1.00  0.00    -0.009 C 
BRANCH   3   4
ATOM      4  C   UNL     1     117.838 123.226 128.211  1.00  0.00     0.000 C 
ATOM      5  C   UNL     1     118.882 123.441 127.106  1.00  0.00     0.004 C 
ENDBRANCH   3   4
BRANCH   3   6
ATOM      6  C   UNL     1     116.702 125.378 129.080  1.00  0.00    -0.014 C 
ATOM      7  C   UNL     1     117.857 125.202 130.089  1.00  0.00     0.007 C 
ATOM      8  C   UNL     1     116.895 126.718 128.333  1.00  0.00     0.007 C 
ENDBRANCH   3   6
ENDBRANCH   2   3
ENDBRANCH   1   2
BRANCH   1   9
ATOM      9  C   UNL     1     113.379 122.771 129.894  1.00  0.00    -0.011 C 
ATOM     10  C   UNL     1     112.173 123.386 130.624  1.00  0.00     0.008 C 
BRANCH   9  11
ATOM     11  C   UNL     1     114.043 121.581 130.677  1.00  0.00    -0.002 C 
ATOM     12  C   UNL     1     114.439 120.450 129.703  1.00  0.00     0.005 C 
ATOM     13  C   UNL     1     115.294 121.793 131.621  1.00  0.00    -0.026 C 
ATOM     14  C   UNL     1     115.841 119.990 130.075  1.00  0.00     0.005 C 
ATOM     15  C   UNL     1     116.471 121.158 130.837  1.00  0.00    -0.001 C 
ATOM     16  C   UNL     1     115.041 120.994 132.937  1.00  0.00     0.007 C 
ATOM     17  C   UNL     1     115.606 123.264 131.987  1.00  0.00     0.012 C 
ATOM     18  C   UNL     1     117.729 120.797 131.697  1.00  0.00     0.000 C 
ATOM     19  C   UNL     1     116.291 120.795 133.794  1.00  0.00     0.005 C 
ATOM     20  C   UNL     1     117.399 120.046 133.012  1.00  0.00     0.003 C 
ATOM     21  C   UNL     1     118.752 119.995 130.870  1.00  0.00     0.031 C 
ATOM     22  C   UNL     1     118.698 119.774 133.874  1.00  0.00    -0.008 C 
ATOM     23  C   UNL     1     119.911 119.489 131.675  1.00  0.00    -0.027 C 
ATOM     24  C   UNL     1     119.834 119.224 132.996  1.00  0.00    -0.065 C 
ATOM     25  C   UNL     1     118.355 118.721 134.978  1.00  0.00     0.014 C 
ATOM     26  C   UNL     1     119.219 121.072 134.556  1.00  0.00     0.016 C 
ATOM     27  C   UNL     1     121.019 118.550 133.660  1.00  0.00     0.063 C 
ATOM     28  C   UNL     1     119.584 118.139 135.688  1.00  0.00     0.033 C 
ATOM     29  C   UNL     1     120.552 117.506 134.682  1.00  0.00     0.118 C 
BRANCH  29  30
ATOM     30  O   UNL     1     121.659 116.983 135.370  1.00  0.00    -0.393 OA
ATOM     31  H   UNL     1     121.300 116.457 136.136  1.00  0.00     0.210 HD
ENDBRANCH  29  30
ENDBRANCH   9  11
ENDBRANCH   1   9
TORSDOF 7
ENDMDL
MODEL 8
REMARK VINA RESULT:    -7.089      4.170      6.660
REMARK INTER + INTRA:         -10.906
REMARK INTER:                  -8.776
REMARK INTRA:                  -2.130
REMARK UNBOUND:                -1.123
REMARK SMILES CC[C@@H](CC[C@H](C)[C@H]1CC[C@@H]2[C@@H]3CC=C4C[C@@H](O)CC[C@]4(C)[C@H]3CC[C@@]21C)C(C)C
REMARK SMILES IDX 5 1 4 2 3 3 2 4 1 5 28 6 29 7 30 8 6 9 7 10 8 11 9 12 26 13
REMARK SMILES IDX 10 14 11 15 25 16 27 17 12 18 24 19 23 20 13 21 21 22 14 23
REMARK SMILES IDX 15 24 20 25 22 26 16 27 19 28 17 29 18 30
REMARK H PARENT 18 31
REMARK Flexibility Score: inf
ROOT
ATOM      1  C   UNL     1     115.254 125.148 129.342  1.00  0.00     0.004 C 
ENDROOT
BRANCH   1   2
ATOM      2  C   UNL     1     116.344 125.820 128.484  1.00  0.00     0.004 C 
BRANCH   2   3
ATOM      3  C   UNL     1     117.537 126.394 129.306  1.00  0.00    -0.009 C 
BRANCH   3   4
ATOM      4  C   UNL     1     118.869 125.650 128.999  1.00  0.00     0.000 C 
ATOM      5  C   UNL     1     119.243 125.636 127.510  1.00  0.00     0.004 C 
ENDBRANCH   3   4
BRANCH   3   6
ATOM      6  C   UNL     1     117.254 126.450 130.850  1.00  0.00    -0.014 C 
ATOM      7  C   UNL     1     118.481 126.006 131.674  1.00  0.00     0.007 C 
ATOM      8  C   UNL     1     116.827 127.861 131.317  1.00  0.00     0.007 C 
ENDBRANCH   3   6
ENDBRANCH   2   3
ENDBRANCH   1   2
BRANCH   1   9
ATOM      9  C   UNL     1     114.851 123.742 128.812  1.00  0.00    -0.011 C 
ATOM     10  C   UNL     1     113.328 123.539 128.856  1.00  0.00     0.008 C 
BRANCH   9  11
ATOM     11  C   UNL     1     115.661 122.532 129.403  1.00  0.00    -0.002 C 
ATOM     12  C   UNL     1     116.983 122.341 128.630  1.00  0.00     0.005 C 
ATOM     13  C   UNL     1     116.042 122.446 130.935  1.00  0.00    -0.026 C 
ATOM     14  C   UNL     1     118.087 122.116 129.653  1.00  0.00     0.005 C 
ATOM     15  C   UNL     1     117.568 122.717 130.961  1.00  0.00    -0.001 C 
ATOM     16  C   UNL     1     115.753 120.991 131.420  1.00  0.00     0.007 C 
ATOM     17  C   UNL     1     115.291 123.434 131.861  1.00  0.00     0.012 C 
ATOM     18  C   UNL     1     118.308 122.243 132.257  1.00  0.00     0.000 C 
ATOM     19  C   UNL     1     116.399 120.642 132.760  1.00  0.00     0.005 C 
ATOM     20  C   UNL     1     117.938 120.806 132.706  1.00  0.00     0.003 C 
ATOM     21  C   UNL     1     119.836 122.373 132.100  1.00  0.00     0.031 C 
ATOM     22  C   UNL     1     118.657 120.410 134.058  1.00  0.00    -0.008 C 
ATOM     23  C   UNL     1     120.609 121.796 133.247  1.00  0.00    -0.027 C 
ATOM     24  C   UNL     1     120.146 120.791 134.020  1.00  0.00    -0.065 C 
ATOM     25  C   UNL     1     118.534 118.864 134.257  1.00  0.00     0.014 C 
ATOM     26  C   UNL     1     118.021 121.130 135.281  1.00  0.00     0.016 C 
ATOM     27  C   UNL     1     121.092 120.175 135.034  1.00  0.00     0.063 C 
ATOM     28  C   UNL     1     119.440 118.302 135.360  1.00  0.00     0.033 C 
ATOM     29  C   UNL     1     120.909 118.654 135.098  1.00  0.00     0.118 C 
BRANCH  29  30
ATOM     30  O   UNL     1     121.704 118.121 136.125  1.00  0.00    -0.393 OA
ATOM     31  H   UNL     1     121.082 117.755 136.811  1.00  0.00     0.210 HD
ENDBRANCH  29  30
ENDBRANCH   9  11
ENDBRANCH   1   9
TORSDOF 7
ENDMDL
MODEL 9
REMARK VINA RESULT:    -7.004      5.183      8.804
REMARK INTER + INTRA:         -10.788
REMARK INTER:                  -8.927
REMARK INTRA:                  -1.861
REMARK UNBOUND:                -1.123
REMARK SMILES CC[C@@H](CC[C@H](C)[C@H]1CC[C@@H]2[C@@H]3CC=C4C[C@@H](O)CC[C@]4(C)[C@H]3CC[C@@]21C)C(C)C
REMARK SMILES IDX 5 1 4 2 3 3 2 4 1 5 28 6 29 7 30 8 6 9 7 10 8 11 9 12 26 13
REMARK SMILES IDX 10 14 11 15 25 16 27 17 12 18 24 19 23 20 13 21 21 22 14 23
REMARK SMILES IDX 15 24 20 25 22 26 16 27 19 28 17 29 18 30
REMARK H PARENT 18 31
REMARK Flexibility Score: inf
ROOT
ATOM      1  C   UNL     1     114.750 123.878 130.589  1.00  0.00     0.004 C 
ENDROOT
BRANCH   1   2
ATOM      2  C   UNL     1     113.919 123.001 131.546  1.00  0.00     0.004 C 
BRANCH   2   3
ATOM      3  C   UNL     1     113.666 121.554 131.026  1.00  0.00    -0.009 C 
BRANCH   3   4
ATOM      4  C   UNL     1     113.849 120.490 132.147  1.00  0.00     0.000 C 
ATOM      5  C   UNL     1     114.729 120.963 133.313  1.00  0.00     0.004 C 
ENDBRANCH   3   4
BRANCH   3   6
ATOM      6  C   UNL     1     114.516 121.198 129.754  1.00  0.00    -0.014 C 
ATOM      7  C   UNL     1     114.870 119.696 129.702  1.00  0.00     0.007 C 
ATOM      8  C   UNL     1     113.795 121.582 128.441  1.00  0.00     0.007 C 
ENDBRANCH   3   6
ENDBRANCH   2   3
ENDBRANCH   1   2
BRANCH   1   9
ATOM      9  C   UNL     1     116.008 124.488 131.271  1.00  0.00    -0.011 C 
ATOM     10  C   UNL     1     115.984 126.025 131.226  1.00  0.00     0.008 C 
BRANCH   9  11
ATOM     11  C   UNL     1     117.386 123.871 130.836  1.00  0.00    -0.002 C 
ATOM     12  C   UNL     1     117.649 122.553 131.595  1.00  0.00     0.005 C 
ATOM     13  C   UNL     1     117.731 123.572 129.323  1.00  0.00    -0.026 C 
ATOM     14  C   UNL     1     118.159 121.534 130.587  1.00  0.00     0.005 C 
ATOM     15  C   UNL     1     117.677 122.026 129.221  1.00  0.00    -0.001 C 
ATOM     16  C   UNL     1     119.185 124.071 129.054  1.00  0.00     0.007 C 
ATOM     17  C   UNL     1     116.785 124.225 128.286  1.00  0.00     0.012 C 
ATOM     18  C   UNL     1     118.419 121.412 127.986  1.00  0.00     0.000 C 
ATOM     19  C   UNL     1     119.798 123.535 127.761  1.00  0.00     0.005 C 
ATOM     20  C   UNL     1     119.839 121.987 127.754  1.00  0.00     0.003 C 
ATOM     21  C   UNL     1     118.479 119.875 128.086  1.00  0.00     0.031 C 
ATOM     22  C   UNL     1     120.510 121.386 126.452  1.00  0.00    -0.008 C 
ATOM     23  C   UNL     1     119.306 119.235 127.012  1.00  0.00    -0.027 C 
ATOM     24  C   UNL     1     120.335 119.859 126.400  1.00  0.00    -0.065 C 
ATOM     25  C   UNL     1     122.037 121.719 126.477  1.00  0.00     0.014 C 
ATOM     26  C   UNL     1     119.883 121.974 125.157  1.00  0.00     0.016 C 
ATOM     27  C   UNL     1     121.205 119.048 125.460  1.00  0.00     0.063 C 
ATOM     28  C   UNL     1     122.862 120.944 125.441  1.00  0.00     0.033 C 
ATOM     29  C   UNL     1     122.682 119.432 125.615  1.00  0.00     0.118 C 
BRANCH  29  30
ATOM     30  O   UNL     1     123.453 118.759 124.654  1.00  0.00    -0.393 OA
ATOM     31  H   UNL     1     124.136 118.231 125.150  1.00  0.00     0.210 HD
ENDBRANCH  29  30
ENDBRANCH   9  11
ENDBRANCH   1   9
TORSDOF 7
ENDMDL
