MODEL 1
REMARK VINA RESULT:     0.914      0.000      0.000
REMARK INTER + INTRA:           1.044
REMARK INTER:                   2.089
REMARK INTRA:                  -1.045
REMARK UNBOUND:                -1.045
REMARK SMILES CCCCCCCCCCCCCCCCCCCCCCCC(=O)[O-]
REMARK SMILES IDX 13 1 14 2 15 3 16 4 17 5 18 6 19 7 20 8 21 9 22 10 23 11
REMARK SMILES IDX 24 12 25 13 26 14 12 15 11 16 10 17 9 18 8 19 7 20 6 21 5 22
REMARK SMILES IDX 4 23 3 24 2 25 1 26
REMARK H PARENT
REMARK Flexibility Score: inf
ROOT
ATOM      1  C   UNL     1     -30.523 -21.142 -32.945  1.00  0.00     0.000 C 
ENDROOT
BRANCH   1   2
ATOM      2  C   UNL     1     -32.020 -20.797 -33.110  1.00  0.00     0.000 C 
BRANCH   2   3
ATOM      3  C   UNL     1     -32.305 -19.294 -33.293  1.00  0.00     0.000 C 
BRANCH   3   4
ATOM      4  C   UNL     1     -33.384 -18.985 -34.353  1.00  0.00     0.000 C 
BRANCH   4   5
ATOM      5  C   UNL     1     -33.980 -20.249 -34.995  1.00  0.00     0.000 C 
BRANCH   5   6
ATOM      6  C   UNL     1     -33.646 -20.347 -36.492  1.00  0.00     0.000 C 
BRANCH   6   7
ATOM      7  C   UNL     1     -33.712 -21.803 -36.978  1.00  0.00     0.000 C 
BRANCH   7   8
ATOM      8  C   UNL     1     -32.382 -22.296 -37.578  1.00  0.00     0.000 C 
BRANCH   8   9
ATOM      9  C   UNL     1     -31.833 -23.595 -36.963  1.00  0.00     0.000 C 
BRANCH   9  10
ATOM     10  C   UNL     1     -31.795 -24.763 -37.964  1.00  0.00     0.006 C 
BRANCH  10  11
ATOM     11  C   UNL     1     -33.130 -25.515 -38.027  1.00  0.00     0.053 C 
BRANCH  11  12
ATOM     12  C   UNL     1     -32.928 -26.979 -38.276  1.00  0.00     0.041 C 
ATOM     13  O   UNL     1     -33.910 -27.766 -38.267  1.00  0.00    -0.550 OA
ATOM     14  O   UNL     1     -31.647 -27.480 -38.476  1.00  0.00    -0.550 OA
ENDBRANCH  11  12
ENDBRANCH  10  11
ENDBRANCH   9  10
ENDBRANCH   8   9
ENDBRANCH   7   8
ENDBRANCH   6   7
ENDBRANCH   5   6
ENDBRANCH   4   5
ENDBRANCH   3   4
ENDBRANCH   2   3
ENDBRANCH   1   2
BRANCH   1  15
ATOM     15  C   UNL     1     -29.751 -21.351 -34.265  1.00  0.00     0.000 C 
BRANCH  15  16
ATOM     16  C   UNL     1     -29.565 -20.090 -35.138  1.00  0.00     0.000 C 
BRANCH  16  17
ATOM     17  C   UNL     1     -28.933 -18.884 -34.421  1.00  0.00     0.000 C 
BRANCH  17  18
ATOM     18  C   UNL     1     -28.246 -19.271 -33.100  1.00  0.00    -0.000 C 
BRANCH  18  19
ATOM     19  C   UNL     1     -29.085 -18.875 -31.868  1.00  0.00    -0.000 C 
BRANCH  19  20
ATOM     20  C   UNL     1     -28.389 -19.166 -30.527  1.00  0.00    -0.000 C 
BRANCH  20  21
ATOM     21  C   UNL     1     -29.357 -19.120 -29.332  1.00  0.00    -0.000 C 
BRANCH  21  22
ATOM     22  C   UNL     1     -30.830 -19.057 -29.767  1.00  0.00    -0.000 C 
BRANCH  22  23
ATOM     23  C   UNL     1     -31.640 -20.277 -29.294  1.00  0.00    -0.000 C 
BRANCH  23  24
ATOM     24  C   UNL     1     -30.793 -21.559 -29.212  1.00  0.00    -0.000 C 
BRANCH  24  25
ATOM     25  C   UNL     1     -30.896 -22.483 -30.438  1.00  0.00    -0.003 C 
ATOM     26  C   UNL     1     -31.161 -23.942 -30.066  1.00  0.00     0.004 C 
ENDBRANCH  24  25
ENDBRANCH  23  24
ENDBRANCH  22  23
ENDBRANCH  21  22
ENDBRANCH  20  21
ENDBRANCH  19  20
ENDBRANCH  18  19
ENDBRANCH  17  18
ENDBRANCH  16  17
ENDBRANCH  15  16
ENDBRANCH   1  15
TORSDOF 22
ENDMDL
MODEL 2
REMARK VINA RESULT:     1.528      1.650      2.830
REMARK INTER + INTRA:           2.448
REMARK INTER:                   3.653
REMARK INTRA:                  -1.205
REMARK UNBOUND:                -1.045
REMARK SMILES CCCCCCCCCCCCCCCCCCCCCCCC(=O)[O-]
REMARK SMILES IDX 13 1 14 2 15 3 16 4 17 5 18 6 19 7 20 8 21 9 22 10 23 11
REMARK SMILES IDX 24 12 25 13 26 14 12 15 11 16 10 17 9 18 8 19 7 20 6 21 5 22
REMARK SMILES IDX 4 23 3 24 2 25 1 26
REMARK H PARENT
REMARK Flexibility Score: inf
ROOT
ATOM      1  C   UNL     1     -31.928 -19.463 -32.799  1.00  0.00     0.000 C 
ENDROOT
BRANCH   1   2
ATOM      2  C   UNL     1     -31.392 -20.870 -33.145  1.00  0.00     0.000 C 
BRANCH   2   3
ATOM      3  C   UNL     1     -30.889 -21.015 -34.594  1.00  0.00     0.000 C 
BRANCH   3   4
ATOM      4  C   UNL     1     -31.184 -22.393 -35.225  1.00  0.00     0.000 C 
BRANCH   4   5
ATOM      5  C   UNL     1     -32.654 -22.823 -35.079  1.00  0.00     0.000 C 
BRANCH   5   6
ATOM      6  C   UNL     1     -33.621 -21.769 -35.640  1.00  0.00     0.000 C 
BRANCH   6   7
ATOM      7  C   UNL     1     -32.908 -20.842 -36.637  1.00  0.00     0.000 C 
BRANCH   7   8
ATOM      8  C   UNL     1     -33.810 -20.419 -37.812  1.00  0.00     0.000 C 
BRANCH   8   9
ATOM      9  C   UNL     1     -33.568 -21.184 -39.125  1.00  0.00     0.000 C 
BRANCH   9  10
ATOM     10  C   UNL     1     -32.436 -22.220 -39.014  1.00  0.00     0.006 C 
BRANCH  10  11
ATOM     11  C   UNL     1     -32.972 -23.646 -38.840  1.00  0.00     0.053 C 
BRANCH  11  12
ATOM     12  C   UNL     1     -31.891 -24.596 -38.422  1.00  0.00     0.041 C 
ATOM     13  O   UNL     1     -32.120 -25.833 -38.362  1.00  0.00    -0.550 OA
ATOM     14  O   UNL     1     -30.642 -24.110 -38.056  1.00  0.00    -0.550 OA
ENDBRANCH  11  12
ENDBRANCH  10  11
ENDBRANCH   9  10
ENDBRANCH   8   9
ENDBRANCH   7   8
ENDBRANCH   6   7
ENDBRANCH   5   6
ENDBRANCH   4   5
ENDBRANCH   3   4
ENDBRANCH   2   3
ENDBRANCH   1   2
BRANCH   1  15
ATOM     15  C   UNL     1     -32.071 -19.169 -31.291  1.00  0.00     0.000 C 
BRANCH  15  16
ATOM     16  C   UNL     1     -30.755 -18.876 -30.538  1.00  0.00     0.000 C 
BRANCH  16  17
ATOM     17  C   UNL     1     -29.474 -19.017 -31.379  1.00  0.00     0.000 C 
BRANCH  17  18
ATOM     18  C   UNL     1     -28.195 -18.963 -30.525  1.00  0.00    -0.000 C 
BRANCH  18  19
ATOM     19  C   UNL     1     -28.459 -19.345 -29.054  1.00  0.00    -0.000 C 
BRANCH  19  20
ATOM     20  C   UNL     1     -27.632 -20.550 -28.570  1.00  0.00    -0.000 C 
BRANCH  20  21
ATOM     21  C   UNL     1     -28.210 -21.197 -27.300  1.00  0.00    -0.000 C 
BRANCH  21  22
ATOM     22  C   UNL     1     -29.316 -22.219 -27.608  1.00  0.00    -0.000 C 
BRANCH  22  23
ATOM     23  C   UNL     1     -30.469 -21.616 -28.430  1.00  0.00    -0.000 C 
BRANCH  23  24
ATOM     24  C   UNL     1     -30.630 -22.280 -29.809  1.00  0.00    -0.000 C 
BRANCH  24  25
ATOM     25  C   UNL     1     -30.461 -23.810 -29.815  1.00  0.00    -0.003 C 
ATOM     26  C   UNL     1     -31.727 -24.548 -30.249  1.00  0.00     0.004 C 
ENDBRANCH  24  25
ENDBRANCH  23  24
ENDBRANCH  22  23
ENDBRANCH  21  22
ENDBRANCH  20  21
ENDBRANCH  19  20
ENDBRANCH  18  19
ENDBRANCH  17  18
ENDBRANCH  16  17
ENDBRANCH  15  16
ENDBRANCH   1  15
TORSDOF 22
ENDMDL
MODEL 3
REMARK VINA RESULT:     1.636      1.270      3.438
REMARK INTER + INTRA:           2.695
REMARK INTER:                   1.386
REMARK INTRA:                   1.310
REMARK UNBOUND:                -1.045
REMARK SMILES CCCCCCCCCCCCCCCCCCCCCCCC(=O)[O-]
REMARK SMILES IDX 13 1 14 2 15 3 16 4 17 5 18 6 19 7 20 8 21 9 22 10 23 11
REMARK SMILES IDX 24 12 25 13 26 14 12 15 11 16 10 17 9 18 8 19 7 20 6 21 5 22
REMARK SMILES IDX 4 23 3 24 2 25 1 26
REMARK H PARENT
REMARK Flexibility Score: inf
ROOT
ATOM      1  C   UNL     1     -31.538 -21.845 -32.460  1.00  0.00     0.000 C 
ENDROOT
BRANCH   1   2
ATOM      2  C   UNL     1     -31.581 -22.218 -33.959  1.00  0.00     0.000 C 
BRANCH   2   3
ATOM      3  C   UNL     1     -32.135 -21.106 -34.870  1.00  0.00     0.000 C 
BRANCH   3   4
ATOM      4  C   UNL     1     -33.591 -21.336 -35.327  1.00  0.00     0.000 C 
BRANCH   4   5
ATOM      5  C   UNL     1     -33.821 -20.995 -36.810  1.00  0.00     0.000 C 
BRANCH   5   6
ATOM      6  C   UNL     1     -32.707 -21.554 -37.709  1.00  0.00     0.000 C 
BRANCH   6   7
ATOM      7  C   UNL     1     -33.280 -22.084 -39.032  1.00  0.00     0.000 C 
BRANCH   7   8
ATOM      8  C   UNL     1     -33.252 -23.622 -39.124  1.00  0.00     0.000 C 
BRANCH   8   9
ATOM      9  C   UNL     1     -32.254 -24.311 -38.177  1.00  0.00     0.000 C 
BRANCH   9  10
ATOM     10  C   UNL     1     -32.041 -25.798 -38.510  1.00  0.00     0.006 C 
BRANCH  10  11
ATOM     11  C   UNL     1     -33.308 -26.630 -38.277  1.00  0.00     0.053 C 
BRANCH  11  12
ATOM     12  C   UNL     1     -33.109 -28.063 -38.668  1.00  0.00     0.041 C 
ATOM     13  O   UNL     1     -34.098 -28.833 -38.786  1.00  0.00    -0.550 OA
ATOM     14  O   UNL     1     -31.825 -28.558 -38.861  1.00  0.00    -0.550 OA
ENDBRANCH  11  12
ENDBRANCH  10  11
ENDBRANCH   9  10
ENDBRANCH   8   9
ENDBRANCH   7   8
ENDBRANCH   6   7
ENDBRANCH   5   6
ENDBRANCH   4   5
ENDBRANCH   3   4
ENDBRANCH   2   3
ENDBRANCH   1   2
BRANCH   1  15
ATOM     15  C   UNL     1     -30.540 -22.659 -31.612  1.00  0.00     0.000 C 
BRANCH  15  16
ATOM     16  C   UNL     1     -31.127 -23.335 -30.353  1.00  0.00     0.000 C 
BRANCH  16  17
ATOM     17  C   UNL     1     -30.723 -22.692 -29.015  1.00  0.00     0.000 C 
BRANCH  17  18
ATOM     18  C   UNL     1     -30.350 -21.206 -29.159  1.00  0.00    -0.000 C 
BRANCH  18  19
ATOM     19  C   UNL     1     -31.565 -20.277 -28.955  1.00  0.00    -0.000 C 
BRANCH  19  20
ATOM     20  C   UNL     1     -31.601 -19.084 -29.926  1.00  0.00    -0.000 C 
BRANCH  20  21
ATOM     21  C   UNL     1     -32.783 -19.151 -30.908  1.00  0.00    -0.000 C 
BRANCH  21  22
ATOM     22  C   UNL     1     -32.336 -19.080 -32.377  1.00  0.00    -0.000 C 
BRANCH  22  23
ATOM     23  C   UNL     1     -30.818 -18.876 -32.524  1.00  0.00    -0.000 C 
BRANCH  23  24
ATOM     24  C   UNL     1     -30.214 -19.702 -33.675  1.00  0.00    -0.000 C 
BRANCH  24  25
ATOM     25  C   UNL     1     -28.677 -19.694 -33.740  1.00  0.00    -0.003 C 
ATOM     26  C   UNL     1     -28.025 -19.269 -32.424  1.00  0.00     0.004 C 
ENDBRANCH  24  25
ENDBRANCH  23  24
ENDBRANCH  22  23
ENDBRANCH  21  22
ENDBRANCH  20  21
ENDBRANCH  19  20
ENDBRANCH  18  19
ENDBRANCH  17  18
ENDBRANCH  16  17
ENDBRANCH  15  16
ENDBRANCH   1  15
TORSDOF 22
ENDMDL
MODEL 4
REMARK VINA RESULT:     1.800      3.760      8.198
REMARK INTER + INTRA:           3.070
REMARK INTER:                   3.626
REMARK INTRA:                  -0.556
REMARK UNBOUND:                -1.045
REMARK SMILES CCCCCCCCCCCCCCCCCCCCCCCC(=O)[O-]
REMARK SMILES IDX 13 1 14 2 15 3 16 4 17 5 18 6 19 7 20 8 21 9 22 10 23 11
REMARK SMILES IDX 24 12 25 13 26 14 12 15 11 16 10 17 9 18 8 19 7 20 6 21 5 22
REMARK SMILES IDX 4 23 3 24 2 25 1 26
REMARK H PARENT
REMARK Flexibility Score: inf
ROOT
ATOM      1  C   UNL     1     -28.713 -18.965 -31.173  1.00  0.00     0.000 C 
ENDROOT
BRANCH   1   2
ATOM      2  C   UNL     1     -27.508 -18.943 -30.205  1.00  0.00     0.000 C 
BRANCH   2   3
ATOM      3  C   UNL     1     -27.397 -20.190 -29.308  1.00  0.00     0.000 C 
BRANCH   3   4
ATOM      4  C   UNL     1     -28.057 -20.026 -27.922  1.00  0.00     0.000 C 
BRANCH   4   5
ATOM      5  C   UNL     1     -28.240 -21.361 -27.178  1.00  0.00     0.000 C 
BRANCH   5   6
ATOM      6  C   UNL     1     -29.231 -22.289 -27.897  1.00  0.00     0.000 C 
BRANCH   6   7
ATOM      7  C   UNL     1     -30.338 -21.482 -28.592  1.00  0.00     0.000 C 
BRANCH   7   8
ATOM      8  C   UNL     1     -30.457 -21.797 -30.095  1.00  0.00     0.000 C 
BRANCH   8   9
ATOM      9  C   UNL     1     -31.760 -21.318 -30.759  1.00  0.00     0.000 C 
BRANCH   9  10
ATOM     10  C   UNL     1     -31.568 -20.048 -31.606  1.00  0.00     0.006 C 
BRANCH  10  11
ATOM     11  C   UNL     1     -32.410 -18.875 -31.088  1.00  0.00     0.053 C 
BRANCH  11  12
ATOM     12  C   UNL     1     -32.827 -19.081 -29.664  1.00  0.00     0.041 C 
ATOM     13  O   UNL     1     -31.994 -18.933 -28.730  1.00  0.00    -0.550 OA
ATOM     14  O   UNL     1     -34.125 -19.479 -29.369  1.00  0.00    -0.550 OA
ENDBRANCH  11  12
ENDBRANCH  10  11
ENDBRANCH   9  10
ENDBRANCH   8   9
ENDBRANCH   7   8
ENDBRANCH   6   7
ENDBRANCH   5   6
ENDBRANCH   4   5
ENDBRANCH   3   4
ENDBRANCH   2   3
ENDBRANCH   1   2
BRANCH   1  15
ATOM     15  C   UNL     1     -28.350 -18.898 -32.671  1.00  0.00     0.000 C 
BRANCH  15  16
ATOM     16  C   UNL     1     -29.413 -19.455 -33.643  1.00  0.00     0.000 C 
BRANCH  16  17
ATOM     17  C   UNL     1     -29.324 -20.967 -33.914  1.00  0.00     0.000 C 
BRANCH  17  18
ATOM     18  C   UNL     1     -30.347 -21.443 -34.960  1.00  0.00    -0.000 C 
BRANCH  18  19
ATOM     19  C   UNL     1     -31.769 -21.561 -34.374  1.00  0.00    -0.000 C 
BRANCH  19  20
ATOM     20  C   UNL     1     -32.785 -22.196 -35.340  1.00  0.00    -0.000 C 
BRANCH  20  21
ATOM     21  C   UNL     1     -32.719 -21.594 -36.754  1.00  0.00    -0.000 C 
BRANCH  21  22
ATOM     22  C   UNL     1     -32.355 -22.638 -37.824  1.00  0.00    -0.000 C 
BRANCH  22  23
ATOM     23  C   UNL     1     -32.562 -24.082 -37.336  1.00  0.00    -0.000 C 
BRANCH  23  24
ATOM     24  C   UNL     1     -31.666 -25.094 -38.073  1.00  0.00    -0.000 C 
BRANCH  24  25
ATOM     25  C   UNL     1     -32.415 -26.073 -38.994  1.00  0.00    -0.003 C 
ATOM     26  C   UNL     1     -33.160 -27.165 -38.225  1.00  0.00     0.004 C 
ENDBRANCH  24  25
ENDBRANCH  23  24
ENDBRANCH  22  23
ENDBRANCH  21  22
ENDBRANCH  20  21
ENDBRANCH  19  20
ENDBRANCH  18  19
ENDBRANCH  17  18
ENDBRANCH  16  17
ENDBRANCH  15  16
ENDBRANCH   1  15
TORSDOF 22
ENDMDL
MODEL 5
REMARK VINA RESULT:     1.835      2.140      3.430
REMARK INTER + INTRA:           3.149
REMARK INTER:                   4.877
REMARK INTRA:                  -1.728
REMARK UNBOUND:                -1.045
REMARK SMILES CCCCCCCCCCCCCCCCCCCCCCCC(=O)[O-]
REMARK SMILES IDX 13 1 14 2 15 3 16 4 17 5 18 6 19 7 20 8 21 9 22 10 23 11
REMARK SMILES IDX 24 12 25 13 26 14 12 15 11 16 10 17 9 18 8 19 7 20 6 21 5 22
REMARK SMILES IDX 4 23 3 24 2 25 1 26
REMARK H PARENT
REMARK Flexibility Score: inf
ROOT
ATOM      1  C   UNL     1     -29.641 -20.465 -33.386  1.00  0.00     0.000 C 
ENDROOT
BRANCH   1   2
ATOM      2  C   UNL     1     -31.150 -20.798 -33.388  1.00  0.00     0.000 C 
BRANCH   2   3
ATOM      3  C   UNL     1     -32.066 -19.573 -33.575  1.00  0.00     0.000 C 
BRANCH   3   4
ATOM      4  C   UNL     1     -33.438 -19.905 -34.199  1.00  0.00     0.000 C 
BRANCH   4   5
ATOM      5  C   UNL     1     -33.338 -20.392 -35.655  1.00  0.00     0.000 C 
BRANCH   5   6
ATOM      6  C   UNL     1     -33.924 -21.801 -35.833  1.00  0.00     0.000 C 
BRANCH   6   7
ATOM      7  C   UNL     1     -32.830 -22.873 -35.710  1.00  0.00     0.000 C 
BRANCH   7   8
ATOM      8  C   UNL     1     -31.585 -22.561 -36.563  1.00  0.00     0.000 C 
BRANCH   8   9
ATOM      9  C   UNL     1     -31.875 -22.229 -38.037  1.00  0.00     0.000 C 
BRANCH   9  10
ATOM     10  C   UNL     1     -32.390 -23.441 -38.833  1.00  0.00     0.006 C 
BRANCH  10  11
ATOM     11  C   UNL     1     -31.564 -24.704 -38.562  1.00  0.00     0.053 C 
BRANCH  11  12
ATOM     12  C   UNL     1     -32.441 -25.893 -38.311  1.00  0.00     0.041 C 
ATOM     13  O   UNL     1     -32.192 -26.995 -38.869  1.00  0.00    -0.550 OA
ATOM     14  O   UNL     1     -33.558 -25.774 -37.495  1.00  0.00    -0.550 OA
ENDBRANCH  11  12
ENDBRANCH  10  11
ENDBRANCH   9  10
ENDBRANCH   8   9
ENDBRANCH   7   8
ENDBRANCH   6   7
ENDBRANCH   5   6
ENDBRANCH   4   5
ENDBRANCH   3   4
ENDBRANCH   2   3
ENDBRANCH   1   2
BRANCH   1  15
ATOM     15  C   UNL     1     -29.258 -19.166 -32.647  1.00  0.00     0.000 C 
BRANCH  15  16
ATOM     16  C   UNL     1     -28.674 -19.351 -31.229  1.00  0.00     0.000 C 
BRANCH  16  17
ATOM     17  C   UNL     1     -29.580 -18.875 -30.080  1.00  0.00     0.000 C 
BRANCH  17  18
ATOM     18  C   UNL     1     -30.997 -19.469 -30.157  1.00  0.00    -0.000 C 
BRANCH  18  19
ATOM     19  C   UNL     1     -30.991 -21.008 -30.061  1.00  0.00    -0.000 C 
BRANCH  19  20
ATOM     20  C   UNL     1     -29.732 -21.580 -29.384  1.00  0.00    -0.000 C 
BRANCH  20  21
ATOM     21  C   UNL     1     -30.039 -22.280 -28.049  1.00  0.00    -0.000 C 
BRANCH  21  22
ATOM     22  C   UNL     1     -28.996 -21.966 -26.965  1.00  0.00    -0.000 C 
BRANCH  22  23
ATOM     23  C   UNL     1     -27.657 -21.485 -27.552  1.00  0.00    -0.000 C 
BRANCH  23  24
ATOM     24  C   UNL     1     -27.037 -20.325 -26.751  1.00  0.00    -0.000 C 
BRANCH  24  25
ATOM     25  C   UNL     1     -27.286 -20.381 -25.233  1.00  0.00    -0.003 C 
ATOM     26  C   UNL     1     -26.029 -20.092 -24.412  1.00  0.00     0.004 C 
ENDBRANCH  24  25
ENDBRANCH  23  24
ENDBRANCH  22  23
ENDBRANCH  21  22
ENDBRANCH  20  21
ENDBRANCH  19  20
ENDBRANCH  18  19
ENDBRANCH  17  18
ENDBRANCH  16  17
ENDBRANCH  15  16
ENDBRANCH   1  15
TORSDOF 22
ENDMDL
MODEL 6
REMARK VINA RESULT:     2.027      4.307      8.791
REMARK INTER + INTRA:           3.589
REMARK INTER:                   4.548
REMARK INTRA:                  -0.959
REMARK UNBOUND:                -1.045
REMARK SMILES CCCCCCCCCCCCCCCCCCCCCCCC(=O)[O-]
REMARK SMILES IDX 13 1 14 2 15 3 16 4 17 5 18 6 19 7 20 8 21 9 22 10 23 11
REMARK SMILES IDX 24 12 25 13 26 14 12 15 11 16 10 17 9 18 8 19 7 20 6 21 5 22
REMARK SMILES IDX 4 23 3 24 2 25 1 26
REMARK H PARENT
REMARK Flexibility Score: inf
ROOT
ATOM      1  C   UNL     1     -30.025 -20.303 -32.554  1.00  0.00     0.000 C 
ENDROOT
BRANCH   1   2
ATOM      2  C   UNL     1     -30.658 -18.896 -32.643  1.00  0.00     0.000 C 
BRANCH   2   3
ATOM      3  C   UNL     1     -32.189 -18.903 -32.811  1.00  0.00     0.000 C 
BRANCH   3   4
ATOM      4  C   UNL     1     -32.964 -19.109 -31.491  1.00  0.00     0.000 C 
BRANCH   4   5
ATOM      5  C   UNL     1     -32.099 -18.875 -30.240  1.00  0.00     0.000 C 
BRANCH   5   6
ATOM      6  C   UNL     1     -32.073 -20.105 -29.319  1.00  0.00     0.000 C 
BRANCH   6   7
ATOM      7  C   UNL     1     -31.779 -21.385 -30.116  1.00  0.00     0.000 C 
BRANCH   7   8
ATOM      8  C   UNL     1     -30.620 -22.208 -29.522  1.00  0.00     0.000 C 
BRANCH   8   9
ATOM      9  C   UNL     1     -30.065 -21.679 -28.188  1.00  0.00     0.000 C 
BRANCH   9  10
ATOM     10  C   UNL     1     -29.037 -22.629 -27.548  1.00  0.00     0.006 C 
BRANCH  10  11
ATOM     11  C   UNL     1     -28.395 -22.025 -26.293  1.00  0.00     0.053 C 
BRANCH  11  12
ATOM     12  C   UNL     1     -27.584 -20.807 -26.618  1.00  0.00     0.041 C 
ATOM     13  O   UNL     1     -27.281 -19.986 -25.714  1.00  0.00    -0.550 OA
ATOM     14  O   UNL     1     -27.201 -20.557 -27.930  1.00  0.00    -0.550 OA
ENDBRANCH  11  12
ENDBRANCH  10  11
ENDBRANCH   9  10
ENDBRANCH   8   9
ENDBRANCH   7   8
ENDBRANCH   6   7
ENDBRANCH   5   6
ENDBRANCH   4   5
ENDBRANCH   3   4
ENDBRANCH   2   3
ENDBRANCH   1   2
BRANCH   1  15
ATOM     15  C   UNL     1     -29.660 -20.943 -33.910  1.00  0.00     0.000 C 
BRANCH  15  16
ATOM     16  C   UNL     1     -30.790 -20.970 -34.963  1.00  0.00     0.000 C 
BRANCH  16  17
ATOM     17  C   UNL     1     -31.947 -21.936 -34.657  1.00  0.00     0.000 C 
BRANCH  17  18
ATOM     18  C   UNL     1     -33.245 -21.559 -35.392  1.00  0.00    -0.000 C 
BRANCH  18  19
ATOM     19  C   UNL     1     -33.610 -22.577 -36.492  1.00  0.00    -0.000 C 
BRANCH  19  20
ATOM     20  C   UNL     1     -33.037 -22.222 -37.877  1.00  0.00    -0.000 C 
BRANCH  20  21
ATOM     21  C   UNL     1     -31.499 -22.231 -37.905  1.00  0.00    -0.000 C 
BRANCH  21  22
ATOM     22  C   UNL     1     -30.921 -23.634 -38.154  1.00  0.00    -0.000 C 
BRANCH  22  23
ATOM     23  C   UNL     1     -31.892 -24.546 -38.924  1.00  0.00    -0.000 C 
BRANCH  23  24
ATOM     24  C   UNL     1     -32.396 -25.730 -38.079  1.00  0.00    -0.000 C 
BRANCH  24  25
ATOM     25  C   UNL     1     -33.278 -26.738 -38.837  1.00  0.00    -0.003 C 
ATOM     26  C   UNL     1     -32.942 -28.192 -38.506  1.00  0.00     0.004 C 
ENDBRANCH  24  25
ENDBRANCH  23  24
ENDBRANCH  22  23
ENDBRANCH  21  22
ENDBRANCH  20  21
ENDBRANCH  19  20
ENDBRANCH  18  19
ENDBRANCH  17  18
ENDBRANCH  16  17
ENDBRANCH  15  16
ENDBRANCH   1  15
TORSDOF 22
ENDMDL
