MODEL 1
REMARK VINA RESULT:    -5.129      0.000      0.000
REMARK INTER + INTRA:          -8.529
REMARK INTER:                  -7.828
REMARK INTRA:                  -0.701
REMARK UNBOUND:                -0.701
REMARK SMILES CCCCCCCCCC=CC(=O)[O-]
REMARK SMILES IDX 7 1 8 2 9 3 10 4 11 5 12 6 13 7 14 8 6 9 5 10 4 11 3 12 2 13
REMARK SMILES IDX 1 14
REMARK H PARENT
REMARK Flexibility Score: inf
ROOT
ATOM      1  C   UNL     1     -13.418 -67.862 -35.551  1.00  0.00     0.000 C 
ENDROOT
BRANCH   1   2
ATOM      2  C   UNL     1     -12.067 -67.235 -35.171  1.00  0.00     0.004 C 
BRANCH   2   3
ATOM      3  C   UNL     1     -12.010 -66.799 -33.699  1.00  0.00     0.027 C 
BRANCH   3   4
ATOM      4  C   UNL     1     -10.619 -66.385 -33.310  1.00  0.00    -0.025 C 
ATOM      5  C   UNL     1     -10.081 -65.242 -33.753  1.00  0.00     0.020 C 
BRANCH   5   6
ATOM      6  C   UNL     1      -8.717 -64.823 -33.397  1.00  0.00     0.064 C 
ATOM      7  O   UNL     1      -8.115 -65.331 -32.413  1.00  0.00    -0.545 OA
ATOM      8  O   UNL     1      -8.080 -63.853 -34.158  1.00  0.00    -0.545 OA
ENDBRANCH   5   6
ENDBRANCH   3   4
ENDBRANCH   2   3
ENDBRANCH   1   2
BRANCH   1   9
ATOM      9  C   UNL     1     -14.606 -67.164 -34.867  1.00  0.00     0.000 C 
BRANCH   9  10
ATOM     10  C   UNL     1     -15.912 -67.975 -34.958  1.00  0.00     0.000 C 
BRANCH  10  11
ATOM     11  C   UNL     1     -17.063 -67.274 -35.703  1.00  0.00    -0.000 C 
BRANCH  11  12
ATOM     12  C   UNL     1     -16.580 -66.125 -36.606  1.00  0.00    -0.000 C 
BRANCH  12  13
ATOM     13  C   UNL     1     -16.601 -66.498 -38.096  1.00  0.00    -0.003 C 
ATOM     14  C   UNL     1     -15.207 -66.798 -38.648  1.00  0.00     0.004 C 
ENDBRANCH  12  13
ENDBRANCH  11  12
ENDBRANCH  10  11
ENDBRANCH   9  10
ENDBRANCH   1   9
TORSDOF 9
ENDMDL
MODEL 2
REMARK VINA RESULT:    -5.104      3.870      7.219
REMARK INTER + INTRA:          -8.490
REMARK INTER:                  -8.080
REMARK INTRA:                  -0.410
REMARK UNBOUND:                -0.701
REMARK SMILES CCCCCCCCCC=CC(=O)[O-]
REMARK SMILES IDX 7 1 8 2 9 3 10 4 11 5 12 6 13 7 14 8 6 9 5 10 4 11 3 12 2 13
REMARK SMILES IDX 1 14
REMARK H PARENT
REMARK Flexibility Score: inf
ROOT
ATOM      1  C   UNL     1     -10.649 -66.442 -32.943  1.00  0.00     0.000 C 
ENDROOT
BRANCH   1   2
ATOM      2  C   UNL     1     -12.009 -66.813 -33.558  1.00  0.00     0.004 C 
BRANCH   2   3
ATOM      3  C   UNL     1     -11.885 -67.338 -34.996  1.00  0.00     0.027 C 
BRANCH   3   4
ATOM      4  C   UNL     1     -13.237 -67.563 -35.609  1.00  0.00    -0.025 C 
ATOM      5  C   UNL     1     -14.362 -67.268 -34.948  1.00  0.00     0.020 C 
BRANCH   5   6
ATOM      6  C   UNL     1     -15.697 -67.494 -35.523  1.00  0.00     0.064 C 
ATOM      7  O   UNL     1     -16.039 -66.953 -36.608  1.00  0.00    -0.545 OA
ATOM      8  O   UNL     1     -16.596 -68.318 -34.860  1.00  0.00    -0.545 OA
ENDBRANCH   5   6
ENDBRANCH   3   4
ENDBRANCH   2   3
ENDBRANCH   1   2
BRANCH   1   9
ATOM      9  C   UNL     1      -9.973 -65.268 -33.672  1.00  0.00     0.000 C 
BRANCH   9  10
ATOM     10  C   UNL     1      -8.598 -64.906 -33.078  1.00  0.00     0.000 C 
BRANCH  10  11
ATOM     11  C   UNL     1      -7.649 -64.168 -34.040  1.00  0.00    -0.000 C 
BRANCH  11  12
ATOM     12  C   UNL     1      -8.383 -63.520 -35.226  1.00  0.00    -0.000 C 
BRANCH  12  13
ATOM     13  C   UNL     1      -7.423 -63.059 -36.333  1.00  0.00    -0.003 C 
ATOM     14  C   UNL     1      -8.061 -63.103 -37.722  1.00  0.00     0.004 C 
ENDBRANCH  12  13
ENDBRANCH  11  12
ENDBRANCH  10  11
ENDBRANCH   9  10
ENDBRANCH   1   9
TORSDOF 9
ENDMDL
MODEL 3
REMARK VINA RESULT:    -5.080      1.770      2.465
REMARK INTER + INTRA:          -8.454
REMARK INTER:                  -7.718
REMARK INTRA:                  -0.737
REMARK UNBOUND:                -0.701
REMARK SMILES CCCCCCCCCC=CC(=O)[O-]
REMARK SMILES IDX 7 1 8 2 9 3 10 4 11 5 12 6 13 7 14 8 6 9 5 10 4 11 3 12 2 13
REMARK SMILES IDX 1 14
REMARK H PARENT
REMARK Flexibility Score: inf
ROOT
ATOM      1  C   UNL     1     -14.561 -66.050 -32.148  1.00  0.00     0.000 C 
ENDROOT
BRANCH   1   2
ATOM      2  C   UNL     1     -13.100 -65.580 -32.235  1.00  0.00     0.004 C 
BRANCH   2   3
ATOM      3  C   UNL     1     -12.234 -66.498 -33.110  1.00  0.00     0.027 C 
BRANCH   3   4
ATOM      4  C   UNL     1     -10.780 -66.373 -32.753  1.00  0.00    -0.025 C 
ATOM      5  C   UNL     1     -10.243 -67.081 -31.754  1.00  0.00     0.020 C 
BRANCH   5   6
ATOM      6  C   UNL     1      -8.825 -66.964 -31.377  1.00  0.00     0.064 C 
ATOM      7  O   UNL     1      -8.280 -67.812 -30.621  1.00  0.00    -0.545 OA
ATOM      8  O   UNL     1      -8.074 -65.903 -31.864  1.00  0.00    -0.545 OA
ENDBRANCH   5   6
ENDBRANCH   3   4
ENDBRANCH   2   3
ENDBRANCH   1   2
BRANCH   1   9
ATOM      9  C   UNL     1     -15.289 -65.971 -33.500  1.00  0.00     0.000 C 
BRANCH   9  10
ATOM     10  C   UNL     1     -16.157 -67.210 -33.788  1.00  0.00     0.000 C 
BRANCH  10  11
ATOM     11  C   UNL     1     -15.777 -67.990 -35.061  1.00  0.00    -0.000 C 
BRANCH  11  12
ATOM     12  C   UNL     1     -14.628 -67.332 -35.844  1.00  0.00    -0.000 C 
BRANCH  12  13
ATOM     13  C   UNL     1     -15.007 -67.026 -37.301  1.00  0.00    -0.003 C 
ATOM     14  C   UNL     1     -16.376 -66.356 -37.425  1.00  0.00     0.004 C 
ENDBRANCH  12  13
ENDBRANCH  11  12
ENDBRANCH  10  11
ENDBRANCH   9  10
ENDBRANCH   1   9
TORSDOF 9
ENDMDL
MODEL 4
REMARK VINA RESULT:    -5.069      1.841      3.008
REMARK INTER + INTRA:          -8.437
REMARK INTER:                  -7.685
REMARK INTRA:                  -0.753
REMARK UNBOUND:                -0.701
REMARK SMILES CCCCCCCCCC=CC(=O)[O-]
REMARK SMILES IDX 7 1 8 2 9 3 10 4 11 5 12 6 13 7 14 8 6 9 5 10 4 11 3 12 2 13
REMARK SMILES IDX 1 14
REMARK H PARENT
REMARK Flexibility Score: inf
ROOT
ATOM      1  C   UNL     1     -11.885 -66.479 -34.048  1.00  0.00     0.000 C 
ENDROOT
BRANCH   1   2
ATOM      2  C   UNL     1     -10.897 -66.827 -32.923  1.00  0.00     0.004 C 
BRANCH   2   3
ATOM      3  C   UNL     1      -9.824 -65.746 -32.722  1.00  0.00     0.027 C 
BRANCH   3   4
ATOM      4  C   UNL     1      -9.634 -64.933 -33.971  1.00  0.00    -0.025 C 
ATOM      5  C   UNL     1      -8.498 -64.266 -34.204  1.00  0.00     0.020 C 
BRANCH   5   6
ATOM      6  C   UNL     1      -8.295 -63.452 -35.413  1.00  0.00     0.064 C 
ATOM      7  O   UNL     1      -9.127 -63.472 -36.359  1.00  0.00    -0.545 OA
ATOM      8  O   UNL     1      -7.168 -62.647 -35.513  1.00  0.00    -0.545 OA
ENDBRANCH   5   6
ENDBRANCH   3   4
ENDBRANCH   2   3
ENDBRANCH   1   2
BRANCH   1   9
ATOM      9  C   UNL     1     -11.980 -67.585 -35.113  1.00  0.00     0.000 C 
BRANCH   9  10
ATOM     10  C   UNL     1     -13.196 -67.419 -36.043  1.00  0.00     0.000 C 
BRANCH  10  11
ATOM     11  C   UNL     1     -14.537 -67.893 -35.453  1.00  0.00    -0.000 C 
BRANCH  11  12
ATOM     12  C   UNL     1     -15.676 -66.881 -35.667  1.00  0.00    -0.000 C 
BRANCH  12  13
ATOM     13  C   UNL     1     -15.770 -65.851 -34.531  1.00  0.00    -0.003 C 
ATOM     14  C   UNL     1     -15.478 -66.459 -33.159  1.00  0.00     0.004 C 
ENDBRANCH  12  13
ENDBRANCH  11  12
ENDBRANCH  10  11
ENDBRANCH   9  10
ENDBRANCH   1   9
TORSDOF 9
ENDMDL
MODEL 5
REMARK VINA RESULT:    -5.055      1.951      3.245
REMARK INTER + INTRA:          -8.416
REMARK INTER:                  -7.507
REMARK INTRA:                  -0.909
REMARK UNBOUND:                -0.701
REMARK SMILES CCCCCCCCCC=CC(=O)[O-]
REMARK SMILES IDX 7 1 8 2 9 3 10 4 11 5 12 6 13 7 14 8 6 9 5 10 4 11 3 12 2 13
REMARK SMILES IDX 1 14
REMARK H PARENT
REMARK Flexibility Score: inf
ROOT
ATOM      1  C   UNL     1     -14.058 -67.244 -38.347  1.00  0.00     0.000 C 
ENDROOT
BRANCH   1   2
ATOM      2  C   UNL     1     -13.917 -67.610 -36.860  1.00  0.00     0.004 C 
BRANCH   2   3
ATOM      3  C   UNL     1     -12.460 -67.568 -36.376  1.00  0.00     0.027 C 
BRANCH   3   4
ATOM      4  C   UNL     1     -12.388 -67.441 -34.881  1.00  0.00    -0.025 C 
ATOM      5  C   UNL     1     -11.345 -66.860 -34.279  1.00  0.00     0.020 C 
BRANCH   5   6
ATOM      6  C   UNL     1     -11.247 -66.737 -32.816  1.00  0.00     0.064 C 
ATOM      7  O   UNL     1     -10.229 -67.143 -32.195  1.00  0.00    -0.545 OA
ATOM      8  O   UNL     1     -12.294 -66.163 -32.107  1.00  0.00    -0.545 OA
ENDBRANCH   5   6
ENDBRANCH   3   4
ENDBRANCH   2   3
ENDBRANCH   1   2
BRANCH   1   9
ATOM      9  C   UNL     1     -15.502 -66.880 -38.730  1.00  0.00     0.000 C 
BRANCH   9  10
ATOM     10  C   UNL     1     -16.240 -66.104 -37.623  1.00  0.00     0.000 C 
BRANCH  10  11
ATOM     11  C   UNL     1     -17.392 -66.871 -36.948  1.00  0.00    -0.000 C 
BRANCH  11  12
ATOM     12  C   UNL     1     -17.204 -67.020 -35.429  1.00  0.00    -0.000 C 
BRANCH  12  13
ATOM     13  C   UNL     1     -16.350 -65.893 -34.827  1.00  0.00    -0.003 C 
ATOM     14  C   UNL     1     -15.546 -66.350 -33.609  1.00  0.00     0.004 C 
ENDBRANCH  12  13
ENDBRANCH  11  12
ENDBRANCH  10  11
ENDBRANCH   9  10
ENDBRANCH   1   9
TORSDOF 9
ENDMDL
MODEL 6
REMARK VINA RESULT:    -5.046      4.417      7.715
REMARK INTER + INTRA:          -8.401
REMARK INTER:                  -7.947
REMARK INTRA:                  -0.454
REMARK UNBOUND:                -0.701
REMARK SMILES CCCCCCCCCC=CC(=O)[O-]
REMARK SMILES IDX 7 1 8 2 9 3 10 4 11 5 12 6 13 7 14 8 6 9 5 10 4 11 3 12 2 13
REMARK SMILES IDX 1 14
REMARK H PARENT
REMARK Flexibility Score: inf
ROOT
ATOM      1  C   UNL     1     -12.339 -66.573 -33.636  1.00  0.00     0.000 C 
ENDROOT
BRANCH   1   2
ATOM      2  C   UNL     1     -11.771 -67.368 -34.822  1.00  0.00     0.004 C 
BRANCH   2   3
ATOM      3  C   UNL     1     -12.822 -67.642 -35.908  1.00  0.00     0.027 C 
BRANCH   3   4
ATOM      4  C   UNL     1     -14.213 -67.593 -35.342  1.00  0.00    -0.025 C 
ATOM      5  C   UNL     1     -15.241 -67.120 -36.054  1.00  0.00     0.020 C 
BRANCH   5   6
ATOM      6  C   UNL     1     -16.608 -67.049 -35.515  1.00  0.00     0.064 C 
ATOM      7  O   UNL     1     -16.840 -67.266 -34.295  1.00  0.00    -0.545 OA
ATOM      8  O   UNL     1     -17.662 -66.737 -36.363  1.00  0.00    -0.545 OA
ENDBRANCH   5   6
ENDBRANCH   3   4
ENDBRANCH   2   3
ENDBRANCH   1   2
BRANCH   1   9
ATOM      9  C   UNL     1     -11.248 -66.122 -32.650  1.00  0.00     0.000 C 
BRANCH   9  10
ATOM     10  C   UNL     1     -10.685 -67.282 -31.807  1.00  0.00     0.000 C 
BRANCH  10  11
ATOM     11  C   UNL     1      -9.215 -67.121 -31.379  1.00  0.00    -0.000 C 
BRANCH  11  12
ATOM     12  C   UNL     1      -8.918 -67.751 -30.007  1.00  0.00    -0.000 C 
BRANCH  12  13
ATOM     13  C   UNL     1     -10.155 -68.417 -29.384  1.00  0.00    -0.003 C 
ATOM     14  C   UNL     1      -9.810 -69.288 -28.176  1.00  0.00     0.004 C 
ENDBRANCH  12  13
ENDBRANCH  11  12
ENDBRANCH  10  11
ENDBRANCH   9  10
ENDBRANCH   1   9
TORSDOF 9
ENDMDL
MODEL 7
REMARK VINA RESULT:    -5.038      5.537      7.384
REMARK INTER + INTRA:          -8.390
REMARK INTER:                  -8.004
REMARK INTRA:                  -0.386
REMARK UNBOUND:                -0.701
REMARK SMILES CCCCCCCCCC=CC(=O)[O-]
REMARK SMILES IDX 7 1 8 2 9 3 10 4 11 5 12 6 13 7 14 8 6 9 5 10 4 11 3 12 2 13
REMARK SMILES IDX 1 14
REMARK H PARENT
REMARK Flexibility Score: inf
ROOT
ATOM      1  C   UNL     1      -8.866 -68.161 -29.629  1.00  0.00     0.000 C 
ENDROOT
BRANCH   1   2
ATOM      2  C   UNL     1     -10.240 -68.674 -29.169  1.00  0.00     0.004 C 
BRANCH   2   3
ATOM      3  C   UNL     1     -10.224 -69.192 -27.723  1.00  0.00     0.027 C 
BRANCH   3   4
ATOM      4  C   UNL     1     -10.042 -68.066 -26.746  1.00  0.00    -0.025 C 
ATOM      5  C   UNL     1     -10.816 -67.951 -25.661  1.00  0.00     0.020 C 
BRANCH   5   6
ATOM      6  C   UNL     1     -10.666 -66.849 -24.698  1.00  0.00     0.064 C 
ATOM      7  O   UNL     1      -9.621 -66.146 -24.670  1.00  0.00    -0.545 OA
ATOM      8  O   UNL     1     -11.694 -66.577 -23.805  1.00  0.00    -0.545 OA
ENDBRANCH   5   6
ENDBRANCH   3   4
ENDBRANCH   2   3
ENDBRANCH   1   2
BRANCH   1   9
ATOM      9  C   UNL     1      -8.965 -67.212 -30.836  1.00  0.00     0.000 C 
BRANCH   9  10
ATOM     10  C   UNL     1     -10.273 -67.386 -31.630  1.00  0.00     0.000 C 
BRANCH  10  11
ATOM     11  C   UNL     1     -10.525 -66.317 -32.710  1.00  0.00    -0.000 C 
BRANCH  11  12
ATOM     12  C   UNL     1     -11.857 -66.519 -33.452  1.00  0.00    -0.000 C 
BRANCH  12  13
ATOM     13  C   UNL     1     -11.681 -67.255 -34.790  1.00  0.00    -0.003 C 
ATOM     14  C   UNL     1     -13.015 -67.597 -35.454  1.00  0.00     0.004 C 
ENDBRANCH  12  13
ENDBRANCH  11  12
ENDBRANCH  10  11
ENDBRANCH   9  10
ENDBRANCH   1   9
TORSDOF 9
ENDMDL
MODEL 8
REMARK VINA RESULT:    -5.032      6.402      8.620
REMARK INTER + INTRA:          -8.380
REMARK INTER:                  -7.838
REMARK INTRA:                  -0.542
REMARK UNBOUND:                -0.701
REMARK SMILES CCCCCCCCCC=CC(=O)[O-]
REMARK SMILES IDX 7 1 8 2 9 3 10 4 11 5 12 6 13 7 14 8 6 9 5 10 4 11 3 12 2 13
REMARK SMILES IDX 1 14
REMARK H PARENT
REMARK Flexibility Score: inf
ROOT
ATOM      1  C   UNL     1     -10.033 -68.863 -27.857  1.00  0.00     0.000 C 
ENDROOT
BRANCH   1   2
ATOM      2  C   UNL     1      -9.131 -67.840 -27.147  1.00  0.00     0.004 C 
BRANCH   2   3
ATOM      3  C   UNL     1      -9.251 -67.907 -25.617  1.00  0.00     0.027 C 
BRANCH   3   4
ATOM      4  C   UNL     1     -10.564 -67.344 -25.152  1.00  0.00    -0.025 C 
ATOM      5  C   UNL     1     -10.778 -66.024 -25.098  1.00  0.00     0.020 C 
BRANCH   5   6
ATOM      6  C   UNL     1     -12.050 -65.450 -24.632  1.00  0.00     0.064 C 
ATOM      7  O   UNL     1     -13.124 -65.648 -25.261  1.00  0.00    -0.545 OA
ATOM      8  O   UNL     1     -12.069 -64.678 -23.479  1.00  0.00    -0.545 OA
ENDBRANCH   5   6
ENDBRANCH   3   4
ENDBRANCH   2   3
ENDBRANCH   1   2
BRANCH   1   9
ATOM      9  C   UNL     1     -10.147 -68.600 -29.368  1.00  0.00     0.000 C 
BRANCH   9  10
ATOM     10  C   UNL     1      -9.069 -67.634 -29.892  1.00  0.00     0.000 C 
BRANCH  10  11
ATOM     11  C   UNL     1      -9.256 -67.180 -31.352  1.00  0.00    -0.000 C 
BRANCH  11  12
ATOM     12  C   UNL     1     -10.729 -67.175 -31.793  1.00  0.00    -0.000 C 
BRANCH  12  13
ATOM     13  C   UNL     1     -11.002 -66.173 -32.925  1.00  0.00    -0.003 C 
ATOM     14  C   UNL     1      -9.792 -65.290 -33.234  1.00  0.00     0.004 C 
ENDBRANCH  12  13
ENDBRANCH  11  12
ENDBRANCH  10  11
ENDBRANCH   9  10
ENDBRANCH   1   9
TORSDOF 9
ENDMDL
MODEL 9
REMARK VINA RESULT:    -4.994      5.302      8.442
REMARK INTER + INTRA:          -8.323
REMARK INTER:                  -7.979
REMARK INTRA:                  -0.344
REMARK UNBOUND:                -0.701
REMARK SMILES CCCCCCCCCC=CC(=O)[O-]
REMARK SMILES IDX 7 1 8 2 9 3 10 4 11 5 12 6 13 7 14 8 6 9 5 10 4 11 3 12 2 13
REMARK SMILES IDX 1 14
REMARK H PARENT
REMARK Flexibility Score: inf
ROOT
ATOM      1  C   UNL     1     -10.629 -67.621 -31.010  1.00  0.00     0.000 C 
ENDROOT
BRANCH   1   2
ATOM      2  C   UNL     1      -9.865 -66.939 -32.157  1.00  0.00     0.004 C 
BRANCH   2   3
ATOM      3  C   UNL     1     -10.701 -65.865 -32.868  1.00  0.00     0.027 C 
BRANCH   3   4
ATOM      4  C   UNL     1     -12.142 -66.277 -32.968  1.00  0.00    -0.025 C 
ATOM      5  C   UNL     1     -13.103 -65.623 -32.307  1.00  0.00     0.020 C 
BRANCH   5   6
ATOM      6  C   UNL     1     -14.519 -66.018 -32.379  1.00  0.00     0.064 C 
ATOM      7  O   UNL     1     -15.259 -65.979 -31.360  1.00  0.00    -0.545 OA
ATOM      8  O   UNL     1     -15.050 -66.440 -33.590  1.00  0.00    -0.545 OA
ENDBRANCH   5   6
ENDBRANCH   3   4
ENDBRANCH   2   3
ENDBRANCH   1   2
BRANCH   1   9
ATOM      9  C   UNL     1      -9.713 -67.999 -29.833  1.00  0.00     0.000 C 
BRANCH   9  10
ATOM     10  C   UNL     1     -10.316 -69.093 -28.932  1.00  0.00     0.000 C 
BRANCH  10  11
ATOM     11  C   UNL     1      -9.436 -69.509 -27.738  1.00  0.00    -0.000 C 
BRANCH  11  12
ATOM     12  C   UNL     1     -10.154 -69.359 -26.385  1.00  0.00    -0.000 C 
BRANCH  12  13
ATOM     13  C   UNL     1     -10.059 -67.932 -25.824  1.00  0.00    -0.003 C 
ATOM     14  C   UNL     1     -11.364 -67.466 -25.176  1.00  0.00     0.004 C 
ENDBRANCH  12  13
ENDBRANCH  11  12
ENDBRANCH  10  11
ENDBRANCH   9  10
ENDBRANCH   1   9
TORSDOF 9
ENDMDL
