MODEL 1
REMARK VINA RESULT:    -4.509      0.000      0.000
REMARK INTER + INTRA:          -5.419
REMARK INTER:                  -5.168
REMARK INTRA:                  -0.251
REMARK UNBOUND:                -0.251
REMARK SMILES COc1ccc(C(C)=O)c(O)c1
REMARK SMILES IDX 6 1 10 2 12 3 3 4 4 5 5 6 7 7 8 8 9 9 11 10 2 12 1 13
REMARK H PARENT 11 11
REMARK Flexibility Score: inf
ROOT
ATOM      1  C   UNL     1       7.502   3.288  18.480  1.00  0.00     0.059 A 
ATOM      2  C   UNL     1       8.785   3.740  18.082  1.00  0.00     0.130 A 
ATOM      3  C   UNL     1       9.019   5.110  17.907  1.00  0.00     0.093 A 
ATOM      4  C   UNL     1       8.002   6.050  18.154  1.00  0.00     0.122 A 
ATOM      5  C   UNL     1       6.748   5.602  18.575  1.00  0.00     0.047 A 
ATOM      6  C   UNL     1       6.498   4.238  18.737  1.00  0.00     0.019 A 
ENDROOT
BRANCH   1   7
ATOM      7  C   UNL     1       7.177   1.848  18.597  1.00  0.00     0.163 C 
ATOM      8  C   UNL     1       5.818   1.392  19.032  1.00  0.00     0.093 C 
ATOM      9  O   UNL     1       8.025   0.981  18.251  1.00  0.00    -0.294 OA
ENDBRANCH   1   7
BRANCH   2  10
ATOM     10  O   UNL     1       9.856   2.865  17.881  1.00  0.00    -0.507 OA
ATOM     11  H   UNL     1      10.819   3.114  18.062  1.00  0.00     0.293 HD
ENDBRANCH   2  10
BRANCH   4  12
ATOM     12  O   UNL     1       8.199   7.430  17.997  1.00  0.00    -0.497 OA
ATOM     13  C   UNL     1       7.151   8.384  17.878  1.00  0.00     0.278 C 
ENDBRANCH   4  12
TORSDOF 3
ENDMDL
MODEL 2
REMARK VINA RESULT:    -2.917      0.954      4.506
REMARK INTER + INTRA:          -3.594
REMARK INTER:                  -3.335
REMARK INTRA:                  -0.260
REMARK UNBOUND:                -0.251
REMARK SMILES COc1ccc(C(C)=O)c(O)c1
REMARK SMILES IDX 6 1 10 2 12 3 3 4 4 5 5 6 7 7 8 8 9 9 11 10 2 12 1 13
REMARK H PARENT 11 11
REMARK Flexibility Score: inf
ROOT
ATOM      1  C   UNL     1       7.955   5.662  18.160  1.00  0.00     0.059 A 
ATOM      2  C   UNL     1       8.982   4.687  18.169  1.00  0.00     0.130 A 
ATOM      3  C   UNL     1       8.672   3.350  18.447  1.00  0.00     0.093 A 
ATOM      4  C   UNL     1       7.343   2.955  18.687  1.00  0.00     0.122 A 
ATOM      5  C   UNL     1       6.330   3.915  18.648  1.00  0.00     0.047 A 
ATOM      6  C   UNL     1       6.630   5.254  18.388  1.00  0.00     0.019 A 
ENDROOT
BRANCH   1   7
ATOM      7  C   UNL     1       8.240   7.102  17.955  1.00  0.00     0.163 C 
ATOM      8  C   UNL     1       7.134   8.109  17.888  1.00  0.00     0.093 C 
ATOM      9  O   UNL     1       9.433   7.508  17.915  1.00  0.00    -0.294 OA
ENDBRANCH   1   7
BRANCH   2  10
ATOM     10  O   UNL     1      10.312   4.999  17.875  1.00  0.00    -0.507 OA
ATOM     11  H   UNL     1      11.101   4.540  18.311  1.00  0.00     0.293 HD
ENDBRANCH   2  10
BRANCH   4  12
ATOM     12  O   UNL     1       6.991   1.625  18.964  1.00  0.00    -0.497 OA
ATOM     13  C   UNL     1       5.663   1.179  19.210  1.00  0.00     0.278 C 
ENDBRANCH   4  12
TORSDOF 3
ENDMDL
MODEL 3
REMARK VINA RESULT:    -2.046      1.171      4.948
REMARK INTER + INTRA:          -2.596
REMARK INTER:                  -3.113
REMARK INTRA:                   0.517
REMARK UNBOUND:                -0.251
REMARK SMILES COc1ccc(C(C)=O)c(O)c1
REMARK SMILES IDX 6 1 10 2 12 3 3 4 4 5 5 6 7 7 8 8 9 9 11 10 2 12 1 13
REMARK H PARENT 11 11
REMARK Flexibility Score: inf
ROOT
ATOM      1  C   UNL     1       8.256   5.698  18.162  1.00  0.00     0.059 A 
ATOM      2  C   UNL     1       7.077   5.035  18.582  1.00  0.00     0.130 A 
ATOM      3  C   UNL     1       7.054   3.637  18.660  1.00  0.00     0.093 A 
ATOM      4  C   UNL     1       8.201   2.881  18.356  1.00  0.00     0.122 A 
ATOM      5  C   UNL     1       9.369   3.541  17.972  1.00  0.00     0.047 A 
ATOM      6  C   UNL     1       9.400   4.933  17.876  1.00  0.00     0.019 A 
ENDROOT
BRANCH   1   7
ATOM      7  C   UNL     1       8.310   7.168  17.982  1.00  0.00     0.163 C 
ATOM      8  C   UNL     1       7.059   7.990  17.944  1.00  0.00     0.093 C 
ATOM      9  O   UNL     1       9.424   7.757  17.941  1.00  0.00    -0.294 OA
ENDBRANCH   1   7
BRANCH   2  10
ATOM     10  O   UNL     1       5.924   5.728  18.959  1.00  0.00    -0.507 OA
ATOM     11  H   UNL     1       5.832   6.733  18.896  1.00  0.00     0.293 HD
ENDBRANCH   2  10
BRANCH   4  12
ATOM     12  O   UNL     1       8.219   1.480  18.428  1.00  0.00    -0.497 OA
ATOM     13  C   UNL     1       7.139   0.640  18.036  1.00  0.00     0.278 C 
ENDBRANCH   4  12
TORSDOF 3
ENDMDL
