MODEL 1
REMARK VINA RESULT:    -6.465      0.000      0.000
REMARK INTER + INTRA:          -8.685
REMARK INTER:                  -8.165
REMARK INTRA:                  -0.519
REMARK UNBOUND:                -0.519
REMARK SMILES Oc1cc(O)cc(CCc2ccccc2O)c1
REMARK SMILES IDX 9 1 10 2 12 3 13 4 11 5 14 6 15 7 16 8 8 10 7 11 6 12 17 13
REMARK SMILES IDX 4 14 2 15 3 16 5 17 1 19
REMARK H PARENT 16 9 5 18 1 20
REMARK Flexibility Score: inf
ROOT
ATOM      1  C   UNL     1      50.368  17.822  61.161  1.00  0.00     0.044 C 
ENDROOT
BRANCH   1   2
ATOM      2  C   UNL     1      51.663  17.715  60.369  1.00  0.00    -0.006 A 
ATOM      3  C   UNL     1      54.102  17.702  60.229  1.00  0.00     0.001 A 
ATOM      4  C   UNL     1      54.032  17.508  58.851  1.00  0.00     0.004 A 
ATOM      5  C   UNL     1      52.933  17.805  60.985  1.00  0.00     0.007 A 
ATOM      6  C   UNL     1      52.791  17.416  58.223  1.00  0.00     0.046 A 
ATOM      7  C   UNL     1      51.607  17.518  58.965  1.00  0.00     0.118 A 
BRANCH   7   8
ATOM      8  O   UNL     1      50.397  17.417  58.275  1.00  0.00    -0.508 OA
ATOM      9  H   UNL     1      49.940  18.204  57.832  1.00  0.00     0.293 HD
ENDBRANCH   7   8
ENDBRANCH   1   2
BRANCH   1  10
ATOM     10  C   UNL     1      50.519  17.885  62.690  1.00  0.00     0.040 C 
BRANCH  10  11
ATOM     11  C   UNL     1      50.023  19.208  63.214  1.00  0.00    -0.040 A 
ATOM     12  C   UNL     1      48.665  19.381  63.525  1.00  0.00     0.050 A 
ATOM     13  C   UNL     1      50.903  20.295  63.338  1.00  0.00     0.050 A 
ATOM     14  C   UNL     1      48.195  20.618  63.980  1.00  0.00     0.119 A 
ATOM     15  C   UNL     1      50.434  21.536  63.793  1.00  0.00     0.119 A 
ATOM     16  C   UNL     1      49.083  21.693  64.116  1.00  0.00     0.092 A 
BRANCH  14  17
ATOM     17  O   UNL     1      46.845  20.768  64.292  1.00  0.00    -0.508 OA
ATOM     18  H   UNL     1      46.133  20.194  63.855  1.00  0.00     0.293 HD
ENDBRANCH  14  17
BRANCH  15  19
ATOM     19  O   UNL     1      51.303  22.617  63.927  1.00  0.00    -0.508 OA
ATOM     20  H   UNL     1      51.174  23.469  63.394  1.00  0.00     0.293 HD
ENDBRANCH  15  19
ENDBRANCH  10  11
ENDBRANCH   1  10
TORSDOF 6
ENDMDL
MODEL 2
REMARK VINA RESULT:    -6.460      1.192      2.434
REMARK INTER + INTRA:          -8.679
REMARK INTER:                  -8.077
REMARK INTRA:                  -0.602
REMARK UNBOUND:                -0.519
REMARK SMILES Oc1cc(O)cc(CCc2ccccc2O)c1
REMARK SMILES IDX 9 1 10 2 12 3 13 4 11 5 14 6 15 7 16 8 8 10 7 11 6 12 17 13
REMARK SMILES IDX 4 14 2 15 3 16 5 17 1 19
REMARK H PARENT 16 9 5 18 1 20
REMARK Flexibility Score: inf
ROOT
ATOM      1  C   UNL     1      50.339  17.754  61.084  1.00  0.00     0.044 C 
ENDROOT
BRANCH   1   2
ATOM      2  C   UNL     1      51.507  18.156  60.195  1.00  0.00    -0.006 A 
ATOM      3  C   UNL     1      52.732  19.803  58.870  1.00  0.00     0.001 A 
ATOM      4  C   UNL     1      53.694  18.846  58.552  1.00  0.00     0.004 A 
ATOM      5  C   UNL     1      51.647  19.467  59.682  1.00  0.00     0.007 A 
ATOM      6  C   UNL     1      53.575  17.548  59.047  1.00  0.00     0.046 A 
ATOM      7  C   UNL     1      52.494  17.192  59.863  1.00  0.00     0.118 A 
BRANCH   7   8
ATOM      8  O   UNL     1      52.434  15.875  60.325  1.00  0.00    -0.508 OA
ATOM      9  H   UNL     1      52.918  15.106  59.881  1.00  0.00     0.293 HD
ENDBRANCH   7   8
ENDBRANCH   1   2
BRANCH   1  10
ATOM     10  C   UNL     1      50.571  17.883  62.598  1.00  0.00     0.040 C 
BRANCH  10  11
ATOM     11  C   UNL     1      50.043  19.201  63.102  1.00  0.00    -0.040 A 
ATOM     12  C   UNL     1      50.911  20.292  63.270  1.00  0.00     0.050 A 
ATOM     13  C   UNL     1      48.693  19.331  63.463  1.00  0.00     0.050 A 
ATOM     14  C   UNL     1      50.430  21.508  63.769  1.00  0.00     0.119 A 
ATOM     15  C   UNL     1      48.209  20.548  63.964  1.00  0.00     0.119 A 
ATOM     16  C   UNL     1      49.078  21.634  64.113  1.00  0.00     0.092 A 
BRANCH  14  17
ATOM     17  O   UNL     1      51.304  22.582  63.922  1.00  0.00    -0.508 OA
ATOM     18  H   UNL     1      51.109  23.336  64.570  1.00  0.00     0.293 HD
ENDBRANCH  14  17
BRANCH  15  19
ATOM     19  O   UNL     1      46.868  20.688  64.317  1.00  0.00    -0.508 OA
ATOM     20  H   UNL     1      46.168  20.025  64.007  1.00  0.00     0.293 HD
ENDBRANCH  15  19
ENDBRANCH  10  11
ENDBRANCH   1  10
TORSDOF 6
ENDMDL
MODEL 3
REMARK VINA RESULT:    -6.353      3.546      6.379
REMARK INTER + INTRA:          -8.543
REMARK INTER:                  -7.965
REMARK INTRA:                  -0.578
REMARK UNBOUND:                -0.519
REMARK SMILES Oc1cc(O)cc(CCc2ccccc2O)c1
REMARK SMILES IDX 9 1 10 2 12 3 13 4 11 5 14 6 15 7 16 8 8 10 7 11 6 12 17 13
REMARK SMILES IDX 4 14 2 15 3 16 5 17 1 19
REMARK H PARENT 16 9 5 18 1 20
REMARK Flexibility Score: inf
ROOT
ATOM      1  C   UNL     1      53.078  18.755  59.302  1.00  0.00     0.044 C 
ENDROOT
BRANCH   1   2
ATOM      2  C   UNL     1      52.209  18.943  60.537  1.00  0.00    -0.006 A 
ATOM      3  C   UNL     1      51.356  20.303  62.379  1.00  0.00     0.001 A 
ATOM      4  C   UNL     1      50.579  19.235  62.821  1.00  0.00     0.004 A 
ATOM      5  C   UNL     1      52.166  20.164  61.249  1.00  0.00     0.007 A 
ATOM      6  C   UNL     1      50.606  18.022  62.133  1.00  0.00     0.046 A 
ATOM      7  C   UNL     1      51.411  17.864  60.999  1.00  0.00     0.118 A 
BRANCH   7   8
ATOM      8  O   UNL     1      51.393  16.623  60.357  1.00  0.00    -0.508 OA
ATOM      9  H   UNL     1      51.603  15.751  60.823  1.00  0.00     0.293 HD
ENDBRANCH   7   8
ENDBRANCH   1   2
BRANCH   1  10
ATOM     10  C   UNL     1      53.829  20.004  58.813  1.00  0.00     0.040 C 
BRANCH  10  11
ATOM     11  C   UNL     1      53.088  20.650  57.670  1.00  0.00    -0.040 A 
ATOM     12  C   UNL     1      53.139  20.086  56.386  1.00  0.00     0.050 A 
ATOM     13  C   UNL     1      52.391  21.852  57.869  1.00  0.00     0.050 A 
ATOM     14  C   UNL     1      52.480  20.702  55.316  1.00  0.00     0.119 A 
ATOM     15  C   UNL     1      51.730  22.472  56.799  1.00  0.00     0.119 A 
ATOM     16  C   UNL     1      51.773  21.894  55.526  1.00  0.00     0.092 A 
BRANCH  14  17
ATOM     17  O   UNL     1      52.535  20.124  54.050  1.00  0.00    -0.508 OA
ATOM     18  H   UNL     1      52.694  19.130  53.927  1.00  0.00     0.293 HD
ENDBRANCH  14  17
BRANCH  15  19
ATOM     19  O   UNL     1      51.029  23.661  56.990  1.00  0.00    -0.508 OA
ATOM     20  H   UNL     1      51.504  24.555  57.028  1.00  0.00     0.293 HD
ENDBRANCH  15  19
ENDBRANCH  10  11
ENDBRANCH   1  10
TORSDOF 6
ENDMDL
MODEL 4
REMARK VINA RESULT:    -6.348      2.586      3.599
REMARK INTER + INTRA:          -8.537
REMARK INTER:                  -8.044
REMARK INTRA:                  -0.492
REMARK UNBOUND:                -0.519
REMARK SMILES Oc1cc(O)cc(CCc2ccccc2O)c1
REMARK SMILES IDX 9 1 10 2 12 3 13 4 11 5 14 6 15 7 16 8 8 10 7 11 6 12 17 13
REMARK SMILES IDX 4 14 2 15 3 16 5 17 1 19
REMARK H PARENT 16 9 5 18 1 20
REMARK Flexibility Score: inf
ROOT
ATOM      1  C   UNL     1      52.487  20.463  60.601  1.00  0.00     0.044 C 
ENDROOT
BRANCH   1   2
ATOM      2  C   UNL     1      52.919  20.170  59.171  1.00  0.00    -0.006 A 
ATOM      3  C   UNL     1      53.926  18.715  57.486  1.00  0.00     0.001 A 
ATOM      4  C   UNL     1      53.699  19.678  56.505  1.00  0.00     0.004 A 
ATOM      5  C   UNL     1      53.542  18.953  58.808  1.00  0.00     0.007 A 
ATOM      6  C   UNL     1      53.087  20.884  56.842  1.00  0.00     0.046 A 
ATOM      7  C   UNL     1      52.695  21.141  58.162  1.00  0.00     0.118 A 
BRANCH   7   8
ATOM      8  O   UNL     1      52.087  22.369  58.432  1.00  0.00    -0.508 OA
ATOM      9  H   UNL     1      52.523  23.262  58.241  1.00  0.00     0.293 HD
ENDBRANCH   7   8
ENDBRANCH   1   2
BRANCH   1  10
ATOM     10  C   UNL     1      52.539  19.276  61.576  1.00  0.00     0.040 C 
BRANCH  10  11
ATOM     11  C   UNL     1      51.155  18.933  62.063  1.00  0.00    -0.040 A 
ATOM     12  C   UNL     1      50.598  19.620  63.153  1.00  0.00     0.050 A 
ATOM     13  C   UNL     1      50.435  17.885  61.468  1.00  0.00     0.050 A 
ATOM     14  C   UNL     1      49.327  19.281  63.628  1.00  0.00     0.119 A 
ATOM     15  C   UNL     1      49.160  17.543  61.943  1.00  0.00     0.119 A 
ATOM     16  C   UNL     1      48.608  18.244  63.019  1.00  0.00     0.092 A 
BRANCH  14  17
ATOM     17  O   UNL     1      48.787  19.980  64.707  1.00  0.00    -0.508 OA
ATOM     18  H   UNL     1      48.863  19.631  65.655  1.00  0.00     0.293 HD
ENDBRANCH  14  17
BRANCH  15  19
ATOM     19  O   UNL     1      48.436  16.509  61.352  1.00  0.00    -0.508 OA
ATOM     20  H   UNL     1      47.634  16.695  60.762  1.00  0.00     0.293 HD
ENDBRANCH  15  19
ENDBRANCH  10  11
ENDBRANCH   1  10
TORSDOF 6
ENDMDL
MODEL 5
REMARK VINA RESULT:    -6.330      2.589      3.450
REMARK INTER + INTRA:          -8.515
REMARK INTER:                  -8.012
REMARK INTRA:                  -0.503
REMARK UNBOUND:                -0.519
REMARK SMILES Oc1cc(O)cc(CCc2ccccc2O)c1
REMARK SMILES IDX 9 1 10 2 12 3 13 4 11 5 14 6 15 7 16 8 8 10 7 11 6 12 17 13
REMARK SMILES IDX 4 14 2 15 3 16 5 17 1 19
REMARK H PARENT 16 9 5 18 1 20
REMARK Flexibility Score: inf
ROOT
ATOM      1  C   UNL     1      52.464  20.449  60.613  1.00  0.00     0.044 C 
ENDROOT
BRANCH   1   2
ATOM      2  C   UNL     1      52.923  20.163  59.191  1.00  0.00    -0.006 A 
ATOM      3  C   UNL     1      53.908  18.693  57.505  1.00  0.00     0.001 A 
ATOM      4  C   UNL     1      53.756  19.684  56.538  1.00  0.00     0.004 A 
ATOM      5  C   UNL     1      53.498  18.924  58.820  1.00  0.00     0.007 A 
ATOM      6  C   UNL     1      53.192  20.912  56.882  1.00  0.00     0.046 A 
ATOM      7  C   UNL     1      52.775  21.163  58.195  1.00  0.00     0.118 A 
BRANCH   7   8
ATOM      8  O   UNL     1      52.218  22.413  58.473  1.00  0.00    -0.508 OA
ATOM      9  H   UNL     1      52.063  23.124  57.770  1.00  0.00     0.293 HD
ENDBRANCH   7   8
ENDBRANCH   1   2
BRANCH   1  10
ATOM     10  C   UNL     1      52.565  19.276  61.602  1.00  0.00     0.040 C 
BRANCH  10  11
ATOM     11  C   UNL     1      51.198  18.893  62.106  1.00  0.00    -0.040 A 
ATOM     12  C   UNL     1      50.482  17.856  61.489  1.00  0.00     0.050 A 
ATOM     13  C   UNL     1      50.607  19.609  63.159  1.00  0.00     0.050 A 
ATOM     14  C   UNL     1      49.198  17.520  61.933  1.00  0.00     0.119 A 
ATOM     15  C   UNL     1      49.320  19.274  63.606  1.00  0.00     0.119 A 
ATOM     16  C   UNL     1      48.621  18.229  62.995  1.00  0.00     0.092 A 
BRANCH  14  17
ATOM     17  O   UNL     1      48.505  16.483  61.313  1.00  0.00    -0.508 OA
ATOM     18  H   UNL     1      48.799  16.109  60.418  1.00  0.00     0.293 HD
ENDBRANCH  14  17
BRANCH  15  19
ATOM     19  O   UNL     1      48.729  19.975  64.657  1.00  0.00    -0.508 OA
ATOM     20  H   UNL     1      49.287  20.415  65.379  1.00  0.00     0.293 HD
ENDBRANCH  15  19
ENDBRANCH  10  11
ENDBRANCH   1  10
TORSDOF 6
ENDMDL
MODEL 6
REMARK VINA RESULT:    -6.322      1.806      3.109
REMARK INTER + INTRA:          -8.505
REMARK INTER:                  -8.031
REMARK INTRA:                  -0.474
REMARK UNBOUND:                -0.519
REMARK SMILES Oc1cc(O)cc(CCc2ccccc2O)c1
REMARK SMILES IDX 9 1 10 2 12 3 13 4 11 5 14 6 15 7 16 8 8 10 7 11 6 12 17 13
REMARK SMILES IDX 4 14 2 15 3 16 5 17 1 19
REMARK H PARENT 16 9 5 18 1 20
REMARK Flexibility Score: inf
ROOT
ATOM      1  C   UNL     1      53.310  18.406  61.005  1.00  0.00     0.044 C 
ENDROOT
BRANCH   1   2
ATOM      2  C   UNL     1      53.343  18.123  59.509  1.00  0.00    -0.006 A 
ATOM      3  C   UNL     1      53.747  18.811  57.200  1.00  0.00     0.001 A 
ATOM      4  C   UNL     1      53.387  17.543  56.749  1.00  0.00     0.004 A 
ATOM      5  C   UNL     1      53.726  19.104  58.566  1.00  0.00     0.007 A 
ATOM      6  C   UNL     1      53.006  16.561  57.663  1.00  0.00     0.046 A 
ATOM      7  C   UNL     1      52.979  16.836  59.035  1.00  0.00     0.118 A 
BRANCH   7   8
ATOM      8  O   UNL     1      52.588  15.808  59.897  1.00  0.00    -0.508 OA
ATOM      9  H   UNL     1      52.370  15.952  60.874  1.00  0.00     0.293 HD
ENDBRANCH   7   8
ENDBRANCH   1   2
BRANCH   1  10
ATOM     10  C   UNL     1      52.478  19.624  61.439  1.00  0.00     0.040 C 
BRANCH  10  11
ATOM     11  C   UNL     1      51.167  19.181  62.034  1.00  0.00    -0.040 A 
ATOM     12  C   UNL     1      50.702  19.754  63.228  1.00  0.00     0.050 A 
ATOM     13  C   UNL     1      50.428  18.151  61.430  1.00  0.00     0.050 A 
ATOM     14  C   UNL     1      49.501  19.321  63.801  1.00  0.00     0.119 A 
ATOM     15  C   UNL     1      49.224  17.715  62.001  1.00  0.00     0.119 A 
ATOM     16  C   UNL     1      48.762  18.303  63.183  1.00  0.00     0.092 A 
BRANCH  14  17
ATOM     17  O   UNL     1      49.052  19.906  64.982  1.00  0.00    -0.508 OA
ATOM     18  H   UNL     1      48.256  19.535  65.489  1.00  0.00     0.293 HD
ENDBRANCH  14  17
BRANCH  15  19
ATOM     19  O   UNL     1      48.481  16.699  61.403  1.00  0.00    -0.508 OA
ATOM     20  H   UNL     1      47.561  16.873  61.017  1.00  0.00     0.293 HD
ENDBRANCH  15  19
ENDBRANCH  10  11
ENDBRANCH   1  10
TORSDOF 6
ENDMDL
MODEL 7
REMARK VINA RESULT:    -6.320      3.605      6.313
REMARK INTER + INTRA:          -8.501
REMARK INTER:                  -7.912
REMARK INTRA:                  -0.590
REMARK UNBOUND:                -0.519
REMARK SMILES Oc1cc(O)cc(CCc2ccccc2O)c1
REMARK SMILES IDX 9 1 10 2 12 3 13 4 11 5 14 6 15 7 16 8 8 10 7 11 6 12 17 13
REMARK SMILES IDX 4 14 2 15 3 16 5 17 1 19
REMARK H PARENT 16 9 5 18 1 20
REMARK Flexibility Score: inf
ROOT
ATOM      1  C   UNL     1      53.437  18.955  59.209  1.00  0.00     0.044 C 
ENDROOT
BRANCH   1   2
ATOM      2  C   UNL     1      52.453  18.922  60.370  1.00  0.00    -0.006 A 
ATOM      3  C   UNL     1      51.382  19.952  62.309  1.00  0.00     0.001 A 
ATOM      4  C   UNL     1      50.614  18.807  62.506  1.00  0.00     0.004 A 
ATOM      5  C   UNL     1      52.295  20.015  61.254  1.00  0.00     0.007 A 
ATOM      6  C   UNL     1      50.754  17.719  61.646  1.00  0.00     0.046 A 
ATOM      7  C   UNL     1      51.663  17.762  60.582  1.00  0.00     0.118 A 
BRANCH   7   8
ATOM      8  O   UNL     1      51.755  16.638  59.758  1.00  0.00    -0.508 OA
ATOM      9  H   UNL     1      50.994  16.307  59.180  1.00  0.00     0.293 HD
ENDBRANCH   7   8
ENDBRANCH   1   2
BRANCH   1  10
ATOM     10  C   UNL     1      53.984  20.341  58.830  1.00  0.00     0.040 C 
BRANCH  10  11
ATOM     11  C   UNL     1      53.203  20.918  57.678  1.00  0.00    -0.040 A 
ATOM     12  C   UNL     1      52.433  22.078  57.856  1.00  0.00     0.050 A 
ATOM     13  C   UNL     1      53.194  20.268  56.434  1.00  0.00     0.050 A 
ATOM     14  C   UNL     1      51.681  22.598  56.797  1.00  0.00     0.119 A 
ATOM     15  C   UNL     1      52.440  20.786  55.371  1.00  0.00     0.119 A 
ATOM     16  C   UNL     1      51.689  21.951  55.554  1.00  0.00     0.092 A 
BRANCH  14  17
ATOM     17  O   UNL     1      50.928  23.754  56.990  1.00  0.00    -0.508 OA
ATOM     18  H   UNL     1      50.034  23.731  57.466  1.00  0.00     0.293 HD
ENDBRANCH  14  17
BRANCH  15  19
ATOM     19  O   UNL     1      52.431  20.151  54.130  1.00  0.00    -0.508 OA
ATOM     20  H   UNL     1      53.164  19.505  53.862  1.00  0.00     0.293 HD
ENDBRANCH  15  19
ENDBRANCH  10  11
ENDBRANCH   1  10
TORSDOF 6
ENDMDL
MODEL 8
REMARK VINA RESULT:    -6.299      3.115      6.130
REMARK INTER + INTRA:          -8.475
REMARK INTER:                  -7.901
REMARK INTRA:                  -0.574
REMARK UNBOUND:                -0.519
REMARK SMILES Oc1cc(O)cc(CCc2ccccc2O)c1
REMARK SMILES IDX 9 1 10 2 12 3 13 4 11 5 14 6 15 7 16 8 8 10 7 11 6 12 17 13
REMARK SMILES IDX 4 14 2 15 3 16 5 17 1 19
REMARK H PARENT 16 9 5 18 1 20
REMARK Flexibility Score: inf
ROOT
ATOM      1  C   UNL     1      52.022  18.218  60.101  1.00  0.00     0.044 C 
ENDROOT
BRANCH   1   2
ATOM      2  C   UNL     1      51.296  18.725  61.339  1.00  0.00    -0.006 A 
ATOM      3  C   UNL     1      50.989  20.353  63.135  1.00  0.00     0.001 A 
ATOM      4  C   UNL     1      49.914  19.619  63.630  1.00  0.00     0.004 A 
ATOM      5  C   UNL     1      51.678  19.915  62.001  1.00  0.00     0.007 A 
ATOM      6  C   UNL     1      49.521  18.443  62.992  1.00  0.00     0.046 A 
ATOM      7  C   UNL     1      50.199  17.988  61.855  1.00  0.00     0.118 A 
BRANCH   7   8
ATOM      8  O   UNL     1      49.754  16.803  61.264  1.00  0.00    -0.508 OA
ATOM      9  H   UNL     1      50.036  15.883  61.578  1.00  0.00     0.293 HD
ENDBRANCH   7   8
ENDBRANCH   1   2
BRANCH   1  10
ATOM     10  C   UNL     1      53.347  18.922  59.763  1.00  0.00     0.040 C 
BRANCH  10  11
ATOM     11  C   UNL     1      53.135  19.954  58.687  1.00  0.00    -0.040 A 
ATOM     12  C   UNL     1      53.681  21.240  58.823  1.00  0.00     0.050 A 
ATOM     13  C   UNL     1      52.341  19.657  57.568  1.00  0.00     0.050 A 
ATOM     14  C   UNL     1      53.459  22.211  57.841  1.00  0.00     0.119 A 
ATOM     15  C   UNL     1      52.116  20.629  56.582  1.00  0.00     0.119 A 
ATOM     16  C   UNL     1      52.678  21.902  56.720  1.00  0.00     0.092 A 
BRANCH  14  17
ATOM     17  O   UNL     1      54.015  23.480  57.990  1.00  0.00    -0.508 OA
ATOM     18  H   UNL     1      54.179  23.883  58.905  1.00  0.00     0.293 HD
ENDBRANCH  14  17
BRANCH  15  19
ATOM     19  O   UNL     1      51.336  20.339  55.464  1.00  0.00    -0.508 OA
ATOM     20  H   UNL     1      51.091  21.054  54.790  1.00  0.00     0.293 HD
ENDBRANCH  15  19
ENDBRANCH  10  11
ENDBRANCH   1  10
TORSDOF 6
ENDMDL
MODEL 9
REMARK VINA RESULT:    -6.290      1.797      2.931
REMARK INTER + INTRA:          -8.464
REMARK INTER:                  -7.974
REMARK INTRA:                  -0.490
REMARK UNBOUND:                -0.519
REMARK SMILES Oc1cc(O)cc(CCc2ccccc2O)c1
REMARK SMILES IDX 9 1 10 2 12 3 13 4 11 5 14 6 15 7 16 8 8 10 7 11 6 12 17 13
REMARK SMILES IDX 4 14 2 15 3 16 5 17 1 19
REMARK H PARENT 16 9 5 18 1 20
REMARK Flexibility Score: inf
ROOT
ATOM      1  C   UNL     1      53.271  18.462  60.865  1.00  0.00     0.044 C 
ENDROOT
BRANCH   1   2
ATOM      2  C   UNL     1      53.303  18.169  59.371  1.00  0.00    -0.006 A 
ATOM      3  C   UNL     1      53.701  18.844  57.057  1.00  0.00     0.001 A 
ATOM      4  C   UNL     1      53.345  17.572  56.615  1.00  0.00     0.004 A 
ATOM      5  C   UNL     1      53.682  19.146  58.421  1.00  0.00     0.007 A 
ATOM      6  C   UNL     1      52.968  16.595  57.535  1.00  0.00     0.046 A 
ATOM      7  C   UNL     1      52.943  16.878  58.906  1.00  0.00     0.118 A 
BRANCH   7   8
ATOM      8  O   UNL     1      52.556  15.855  59.774  1.00  0.00    -0.508 OA
ATOM      9  H   UNL     1      51.691  15.340  59.679  1.00  0.00     0.293 HD
ENDBRANCH   7   8
ENDBRANCH   1   2
BRANCH   1  10
ATOM     10  C   UNL     1      52.382  19.638  61.301  1.00  0.00     0.040 C 
BRANCH  10  11
ATOM     11  C   UNL     1      51.143  19.133  61.992  1.00  0.00    -0.040 A 
ATOM     12  C   UNL     1      50.399  18.082  61.433  1.00  0.00     0.050 A 
ATOM     13  C   UNL     1      50.688  19.748  63.169  1.00  0.00     0.050 A 
ATOM     14  C   UNL     1      49.229  17.633  62.054  1.00  0.00     0.119 A 
ATOM     15  C   UNL     1      49.516  19.301  63.794  1.00  0.00     0.119 A 
ATOM     16  C   UNL     1      48.791  18.243  63.237  1.00  0.00     0.092 A 
BRANCH  14  17
ATOM     17  O   UNL     1      48.509  16.583  61.489  1.00  0.00    -0.508 OA
ATOM     18  H   UNL     1      48.365  15.711  61.985  1.00  0.00     0.293 HD
ENDBRANCH  14  17
BRANCH  15  19
ATOM     19  O   UNL     1      49.063  19.902  64.968  1.00  0.00    -0.508 OA
ATOM     20  H   UNL     1      49.587  19.835  65.832  1.00  0.00     0.293 HD
ENDBRANCH  15  19
ENDBRANCH  10  11
ENDBRANCH   1  10
TORSDOF 6
ENDMDL
