MODEL 1
REMARK VINA RESULT:    -3.995      0.000      0.000
REMARK INTER + INTRA:          -4.728
REMARK INTER:                  -4.696
REMARK INTRA:                  -0.032
REMARK UNBOUND:                -0.032
REMARK SMILES O=C([O-])CCC(=O)[O-]
REMARK SMILES IDX 4 1 2 2 1 3 3 4 5 5 6 6 7 7 8 8
REMARK H PARENT
REMARK Flexibility Score: inf
ROOT
ATOM      1  C   UNL     1      17.485  12.981  12.917  1.00  0.00     0.059 C 
ENDROOT
BRANCH   1   2
ATOM      2  C   UNL     1      16.223  12.584  13.618  1.00  0.00     0.042 C 
ATOM      3  O   UNL     1      15.147  12.476  12.974  1.00  0.00    -0.550 OA
ATOM      4  O   UNL     1      16.243  12.292  14.977  1.00  0.00    -0.550 OA
ENDBRANCH   1   2
BRANCH   1   5
ATOM      5  C   UNL     1      18.601  11.953  13.134  1.00  0.00     0.059 C 
BRANCH   5   6
ATOM      6  C   UNL     1      19.776  12.220  12.243  1.00  0.00     0.042 C 
ATOM      7  O   UNL     1      19.598  12.560  11.044  1.00  0.00    -0.550 OA
ATOM      8  O   UNL     1      21.067  12.056  12.729  1.00  0.00    -0.550 OA
ENDBRANCH   5   6
ENDBRANCH   1   5
TORSDOF 3
ENDMDL
MODEL 2
REMARK VINA RESULT:    -3.966      0.140      4.300
REMARK INTER + INTRA:          -4.694
REMARK INTER:                  -4.659
REMARK INTRA:                  -0.035
REMARK UNBOUND:                -0.032
REMARK SMILES O=C([O-])CCC(=O)[O-]
REMARK SMILES IDX 4 1 2 2 1 3 3 4 5 5 6 6 7 7 8 8
REMARK H PARENT
REMARK Flexibility Score: inf
ROOT
ATOM      1  C   UNL     1      18.686  11.994  13.167  1.00  0.00     0.059 C 
ENDROOT
BRANCH   1   2
ATOM      2  C   UNL     1      19.808  12.150  12.186  1.00  0.00     0.042 C 
ATOM      3  O   UNL     1      19.577  12.562  11.020  1.00  0.00    -0.550 OA
ATOM      4  O   UNL     1      21.114  11.880  12.574  1.00  0.00    -0.550 OA
ENDBRANCH   1   2
BRANCH   1   5
ATOM      5  C   UNL     1      17.537  12.964  12.871  1.00  0.00     0.059 C 
BRANCH   5   6
ATOM      6  C   UNL     1      16.283  12.566  13.588  1.00  0.00     0.042 C 
ATOM      7  O   UNL     1      16.289  12.411  14.837  1.00  0.00    -0.550 OA
ATOM      8  O   UNL     1      15.117  12.328  12.870  1.00  0.00    -0.550 OA
ENDBRANCH   5   6
ENDBRANCH   1   5
TORSDOF 3
ENDMDL
MODEL 3
REMARK VINA RESULT:    -3.857     18.635     19.657
REMARK INTER + INTRA:          -4.565
REMARK INTER:                  -4.459
REMARK INTRA:                  -0.106
REMARK UNBOUND:                -0.032
REMARK SMILES O=C([O-])CCC(=O)[O-]
REMARK SMILES IDX 4 1 2 2 1 3 3 4 5 5 6 6 7 7 8 8
REMARK H PARENT
REMARK Flexibility Score: inf
ROOT
ATOM      1  C   UNL     1      12.163  -4.836  21.733  1.00  0.00     0.059 C 
ENDROOT
BRANCH   1   2
ATOM      2  C   UNL     1      11.800  -3.861  20.656  1.00  0.00     0.042 C 
ATOM      3  O   UNL     1      10.612  -3.460  20.538  1.00  0.00    -0.550 OA
ATOM      4  O   UNL     1      12.781  -3.361  19.809  1.00  0.00    -0.550 OA
ENDBRANCH   1   2
BRANCH   1   5
ATOM      5  C   UNL     1      12.081  -4.200  23.124  1.00  0.00     0.059 C 
BRANCH   5   6
ATOM      6  C   UNL     1      13.440  -3.841  23.646  1.00  0.00     0.042 C 
ATOM      7  O   UNL     1      14.469  -4.121  22.978  1.00  0.00    -0.550 OA
ATOM      8  O   UNL     1      13.569  -3.233  24.888  1.00  0.00    -0.550 OA
ENDBRANCH   5   6
ENDBRANCH   1   5
TORSDOF 3
ENDMDL
MODEL 4
REMARK VINA RESULT:    -3.854     18.655     19.718
REMARK INTER + INTRA:          -4.561
REMARK INTER:                  -4.461
REMARK INTRA:                  -0.100
REMARK UNBOUND:                -0.032
REMARK SMILES O=C([O-])CCC(=O)[O-]
REMARK SMILES IDX 4 1 2 2 1 3 3 4 5 5 6 6 7 7 8 8
REMARK H PARENT
REMARK Flexibility Score: inf
ROOT
ATOM      1  C   UNL     1      12.105  -4.223  23.201  1.00  0.00     0.059 C 
ENDROOT
BRANCH   1   2
ATOM      2  C   UNL     1      13.443  -3.832  23.747  1.00  0.00     0.042 C 
ATOM      3  O   UNL     1      14.491  -4.075  23.093  1.00  0.00    -0.550 OA
ATOM      4  O   UNL     1      13.531  -3.160  24.960  1.00  0.00    -0.550 OA
ENDBRANCH   1   2
BRANCH   1   5
ATOM      5  C   UNL     1      12.223  -4.836  21.801  1.00  0.00     0.059 C 
BRANCH   5   6
ATOM      6  C   UNL     1      11.843  -3.853  20.736  1.00  0.00     0.042 C 
ATOM      7  O   UNL     1      10.648  -3.474  20.619  1.00  0.00    -0.550 OA
ATOM      8  O   UNL     1      12.804  -3.385  19.848  1.00  0.00    -0.550 OA
ENDBRANCH   5   6
ENDBRANCH   1   5
TORSDOF 3
ENDMDL
MODEL 5
REMARK VINA RESULT:    -3.693     18.735     19.700
REMARK INTER + INTRA:          -4.373
REMARK INTER:                  -4.331
REMARK INTRA:                  -0.041
REMARK UNBOUND:                -0.032
REMARK SMILES O=C([O-])CCC(=O)[O-]
REMARK SMILES IDX 4 1 2 2 1 3 3 4 5 5 6 6 7 7 8 8
REMARK H PARENT
REMARK Flexibility Score: inf
ROOT
ATOM      1  C   UNL     1      12.110  -3.964  22.105  1.00  0.00     0.059 C 
ENDROOT
BRANCH   1   2
ATOM      2  C   UNL     1      11.636  -4.107  20.691  1.00  0.00     0.042 C 
ATOM      3  O   UNL     1      11.820  -3.177  19.864  1.00  0.00    -0.550 OA
ATOM      4  O   UNL     1      11.029  -5.286  20.276  1.00  0.00    -0.550 OA
ENDBRANCH   1   2
BRANCH   1   5
ATOM      5  C   UNL     1      13.569  -3.499  22.168  1.00  0.00     0.059 C 
BRANCH   5   6
ATOM      6  C   UNL     1      14.348  -4.271  23.189  1.00  0.00     0.042 C 
ATOM      7  O   UNL     1      14.790  -3.695  24.218  1.00  0.00    -0.550 OA
ATOM      8  O   UNL     1      14.619  -5.618  22.984  1.00  0.00    -0.550 OA
ENDBRANCH   5   6
ENDBRANCH   1   5
TORSDOF 3
ENDMDL
MODEL 6
REMARK VINA RESULT:    -3.557     17.825     18.995
REMARK INTER + INTRA:          -4.212
REMARK INTER:                  -4.176
REMARK INTRA:                  -0.036
REMARK UNBOUND:                -0.032
REMARK SMILES O=C([O-])CCC(=O)[O-]
REMARK SMILES IDX 4 1 2 2 1 3 3 4 5 5 6 6 7 7 8 8
REMARK H PARENT
REMARK Flexibility Score: inf
ROOT
ATOM      1  C   UNL     1      12.477  -3.568  20.422  1.00  0.00     0.059 C 
ENDROOT
BRANCH   1   2
ATOM      2  C   UNL     1      13.188  -2.819  19.337  1.00  0.00     0.042 C 
ATOM      3  O   UNL     1      14.442  -2.867  19.250  1.00  0.00    -0.550 OA
ATOM      4  O   UNL     1      12.460  -2.101  18.395  1.00  0.00    -0.550 OA
ENDBRANCH   1   2
BRANCH   1   5
ATOM      5  C   UNL     1      13.065  -3.257  21.802  1.00  0.00     0.059 C 
BRANCH   5   6
ATOM      6  C   UNL     1      12.605  -4.244  22.832  1.00  0.00     0.042 C 
ATOM      7  O   UNL     1      12.609  -3.935  24.052  1.00  0.00    -0.550 OA
ATOM      8  O   UNL     1      12.207  -5.518  22.444  1.00  0.00    -0.550 OA
ENDBRANCH   5   6
ENDBRANCH   1   5
TORSDOF 3
ENDMDL
MODEL 7
REMARK VINA RESULT:    -3.516      1.950      2.242
REMARK INTER + INTRA:          -4.164
REMARK INTER:                  -4.070
REMARK INTRA:                  -0.094
REMARK UNBOUND:                -0.032
REMARK SMILES O=C([O-])CCC(=O)[O-]
REMARK SMILES IDX 4 1 2 2 1 3 3 4 5 5 6 6 7 7 8 8
REMARK H PARENT
REMARK Flexibility Score: inf
ROOT
ATOM      1  C   UNL     1      19.271  13.210  11.863  1.00  0.00     0.059 C 
ENDROOT
BRANCH   1   2
ATOM      2  C   UNL     1      18.063  13.155  12.746  1.00  0.00     0.042 C 
ATOM      3  O   UNL     1      17.262  14.125  12.785  1.00  0.00    -0.550 OA
ATOM      4  O   UNL     1      17.800  12.016  13.496  1.00  0.00    -0.550 OA
ENDBRANCH   1   2
BRANCH   1   5
ATOM      5  C   UNL     1      20.114  11.936  11.977  1.00  0.00     0.059 C 
BRANCH   5   6
ATOM      6  C   UNL     1      21.380  12.180  12.741  1.00  0.00     0.042 C 
ATOM      7  O   UNL     1      21.403  13.020  13.678  1.00  0.00    -0.550 OA
ATOM      8  O   UNL     1      22.544  11.506  12.392  1.00  0.00    -0.550 OA
ENDBRANCH   5   6
ENDBRANCH   1   5
TORSDOF 3
ENDMDL
MODEL 8
REMARK VINA RESULT:    -3.217      1.539      4.397
REMARK INTER + INTRA:          -3.813
REMARK INTER:                  -3.741
REMARK INTRA:                  -0.072
REMARK UNBOUND:                -0.032
REMARK SMILES O=C([O-])CCC(=O)[O-]
REMARK SMILES IDX 4 1 2 2 1 3 3 4 5 5 6 6 7 7 8 8
REMARK H PARENT
REMARK Flexibility Score: inf
ROOT
ATOM      1  C   UNL     1      19.334  12.087  11.393  1.00  0.00     0.059 C 
ENDROOT
BRANCH   1   2
ATOM      2  C   UNL     1      20.728  11.580  11.597  1.00  0.00     0.042 C 
ATOM      3  O   UNL     1      21.357  11.862  12.651  1.00  0.00    -0.550 OA
ATOM      4  O   UNL     1      21.318  10.762  10.642  1.00  0.00    -0.550 OA
ENDBRANCH   1   2
BRANCH   1   5
ATOM      5  C   UNL     1      18.407  11.671  12.540  1.00  0.00     0.059 C 
BRANCH   5   6
ATOM      6  C   UNL     1      17.597  12.828  13.041  1.00  0.00     0.042 C 
ATOM      7  O   UNL     1      16.594  12.630  13.776  1.00  0.00    -0.550 OA
ATOM      8  O   UNL     1      17.930  14.124  12.665  1.00  0.00    -0.550 OA
ENDBRANCH   5   6
ENDBRANCH   1   5
TORSDOF 3
ENDMDL
MODEL 9
REMARK VINA RESULT:    -1.870      1.866      4.497
REMARK INTER + INTRA:          -2.230
REMARK INTER:                  -2.173
REMARK INTRA:                  -0.057
REMARK UNBOUND:                -0.032
REMARK SMILES O=C([O-])CCC(=O)[O-]
REMARK SMILES IDX 4 1 2 2 1 3 3 4 5 5 6 6 7 7 8 8
REMARK H PARENT
REMARK Flexibility Score: inf
ROOT
ATOM      1  C   UNL     1      20.066  12.084  12.745  1.00  0.00     0.059 C 
ENDROOT
BRANCH   1   2
ATOM      2  C   UNL     1      21.443  12.537  13.119  1.00  0.00     0.042 C 
ATOM      3  O   UNL     1      22.450  11.884  12.740  1.00  0.00    -0.550 OA
ATOM      4  O   UNL     1      21.618  13.704  13.853  1.00  0.00    -0.550 OA
ENDBRANCH   1   2
BRANCH   1   5
ATOM      5  C   UNL     1      19.157  13.267  12.397  1.00  0.00     0.059 C 
BRANCH   5   6
ATOM      6  C   UNL     1      17.786  13.097  12.978  1.00  0.00     0.042 C 
ATOM      7  O   UNL     1      17.460  12.011  13.526  1.00  0.00    -0.550 OA
ATOM      8  O   UNL     1      16.856  14.125  12.879  1.00  0.00    -0.550 OA
ENDBRANCH   5   6
ENDBRANCH   1   5
TORSDOF 3
ENDMDL
