MODEL 1
REMARK VINA RESULT:    83.890      0.000      0.000
REMARK INTER + INTRA:         109.583
REMARK INTER:                 110.863
REMARK INTRA:                  -1.280
REMARK UNBOUND:                -1.280
REMARK SMILES CC[C@H](C=C[C@H](C)[C@H]1CC[C@H]2[C@@H]3CC=C4C[C@@H](O)CC[C@]4(C)[C@H]3CC[C@@]12C)C(C)C
REMARK SMILES IDX 6 1 7 2 5 3 4 4 3 5 2 6 1 7 28 8 29 9 30 10 8 11 9 12 26 13
REMARK SMILES IDX 10 14 11 15 25 16 27 17 12 18 24 19 23 20 13 21 21 22 14 23
REMARK SMILES IDX 15 24 20 25 22 26 16 27 19 28 17 29 18 30
REMARK H PARENT 18 31
REMARK Flexibility Score: inf
ROOT
ATOM      1  C   UNL     1      19.200  23.574  13.703  1.00  0.00     0.012 C 
ATOM      2  C   UNL     1      19.562  22.706  14.921  1.00  0.00     0.012 C 
ENDROOT
BRANCH   1   3
ATOM      3  C   UNL     1      19.696  22.859  12.469  1.00  0.00    -0.028 C 
ATOM      4  C   UNL     1      18.927  21.982  11.803  1.00  0.00    -0.027 C 
BRANCH   4   5
ATOM      5  C   UNL     1      19.342  21.325  10.499  1.00  0.00     0.014 C 
BRANCH   5   6
ATOM      6  C   UNL     1      20.258  20.098  10.773  1.00  0.00     0.004 C 
ATOM      7  C   UNL     1      21.709  20.304  10.340  1.00  0.00     0.004 C 
ENDBRANCH   5   6
BRANCH   5   8
ATOM      8  C   UNL     1      18.098  21.076   9.576  1.00  0.00    -0.011 C 
ATOM      9  C   UNL     1      18.437  20.767   8.107  1.00  0.00     0.008 C 
ATOM     10  C   UNL     1      17.081  22.227   9.653  1.00  0.00     0.008 C 
ENDBRANCH   5   8
ENDBRANCH   4   5
ENDBRANCH   1   3
BRANCH   1  11
ATOM     11  C   UNL     1      17.658  23.830  13.630  1.00  0.00     0.002 C 
ATOM     12  C   UNL     1      16.888  23.192  14.793  1.00  0.00     0.005 C 
ATOM     13  C   UNL     1      17.154  25.310  13.599  1.00  0.00    -0.026 C 
ATOM     14  C   UNL     1      15.610  24.010  14.972  1.00  0.00     0.005 C 
ATOM     15  C   UNL     1      15.648  25.125  13.917  1.00  0.00    -0.001 C 
ATOM     16  C   UNL     1      17.875  26.202  14.682  1.00  0.00     0.007 C 
ATOM     17  C   UNL     1      17.320  25.912  12.176  1.00  0.00     0.012 C 
ATOM     18  C   UNL     1      14.856  26.408  14.353  1.00  0.00     0.000 C 
ATOM     19  C   UNL     1      16.964  27.143  15.496  1.00  0.00     0.005 C 
ATOM     20  C   UNL     1      15.759  27.620  14.675  1.00  0.00     0.003 C 
ATOM     21  C   UNL     1      13.829  26.833  13.295  1.00  0.00     0.031 C 
ATOM     22  C   UNL     1      14.934  28.799  15.316  1.00  0.00    -0.008 C 
ATOM     23  C   UNL     1      13.121  28.106  13.674  1.00  0.00    -0.027 C 
ATOM     24  C   UNL     1      13.645  29.040  14.506  1.00  0.00    -0.065 C 
ATOM     25  C   UNL     1      15.795  30.104  15.276  1.00  0.00     0.014 C 
ATOM     26  C   UNL     1      14.549  28.490  16.788  1.00  0.00     0.016 C 
ATOM     27  C   UNL     1      12.876  30.326  14.735  1.00  0.00     0.063 C 
ATOM     28  C   UNL     1      15.002  31.384  15.580  1.00  0.00     0.033 C 
ATOM     29  C   UNL     1      13.812  31.536  14.627  1.00  0.00     0.118 C 
BRANCH  29  30
ATOM     30  O   UNL     1      13.112  32.709  14.951  1.00  0.00    -0.393 OA
ATOM     31  H   UNL     1      13.135  32.793  15.941  1.00  0.00     0.210 HD
ENDBRANCH  29  30
ENDBRANCH   1  11
TORSDOF 6
ENDMDL
MODEL 2
REMARK VINA RESULT:    85.057      4.715      8.419
REMARK INTER + INTRA:         111.126
REMARK INTER:                 110.148
REMARK INTRA:                   0.978
REMARK UNBOUND:                -1.280
REMARK SMILES CC[C@H](C=C[C@H](C)[C@H]1CC[C@H]2[C@@H]3CC=C4C[C@@H](O)CC[C@]4(C)[C@H]3CC[C@@]12C)C(C)C
REMARK SMILES IDX 6 1 7 2 5 3 4 4 3 5 2 6 1 7 28 8 29 9 30 10 8 11 9 12 26 13
REMARK SMILES IDX 10 14 11 15 25 16 27 17 12 18 24 19 23 20 13 21 21 22 14 23
REMARK SMILES IDX 15 24 20 25 22 26 16 27 19 28 17 29 18 30
REMARK H PARENT 18 31
REMARK Flexibility Score: inf
ROOT
ATOM      1  C   UNL     1      22.250  16.913   8.744  1.00  0.00     0.012 C 
ATOM      2  C   UNL     1      23.493  16.029   8.939  1.00  0.00     0.012 C 
ENDROOT
BRANCH   1   3
ATOM      3  C   UNL     1      21.082  16.209   9.393  1.00  0.00    -0.028 C 
ATOM      4  C   UNL     1      20.349  15.298   8.732  1.00  0.00    -0.027 C 
BRANCH   4   5
ATOM      5  C   UNL     1      19.238  14.488   9.376  1.00  0.00     0.014 C 
BRANCH   5   6
ATOM      6  C   UNL     1      19.591  14.155  10.853  1.00  0.00     0.004 C 
ATOM      7  C   UNL     1      21.076  13.876  11.084  1.00  0.00     0.004 C 
ENDBRANCH   5   6
BRANCH   5   8
ATOM      8  C   UNL     1      17.840  15.154   9.122  1.00  0.00    -0.011 C 
ATOM      9  C   UNL     1      17.886  16.672   8.875  1.00  0.00     0.008 C 
ATOM     10  C   UNL     1      16.833  14.830  10.238  1.00  0.00     0.008 C 
ENDBRANCH   5   8
ENDBRANCH   4   5
ENDBRANCH   1   3
BRANCH   1  11
ATOM     11  C   UNL     1      22.466  18.335   9.357  1.00  0.00     0.002 C 
ATOM     12  C   UNL     1      22.587  19.435   8.293  1.00  0.00     0.005 C 
ATOM     13  C   UNL     1      21.395  18.882  10.358  1.00  0.00    -0.026 C 
ATOM     14  C   UNL     1      22.146  20.738   8.960  1.00  0.00     0.005 C 
ATOM     15  C   UNL     1      21.764  20.387  10.405  1.00  0.00    -0.001 C 
ATOM     16  C   UNL     1      19.926  18.656   9.830  1.00  0.00     0.007 C 
ATOM     17  C   UNL     1      21.590  18.249  11.763  1.00  0.00     0.012 C 
ATOM     18  C   UNL     1      20.687  21.358  11.006  1.00  0.00     0.000 C 
ATOM     19  C   UNL     1      18.965  19.854   9.973  1.00  0.00     0.005 C 
ATOM     20  C   UNL     1      19.299  20.707  11.204  1.00  0.00     0.003 C 
ATOM     21  C   UNL     1      21.141  21.957  12.344  1.00  0.00     0.031 C 
ATOM     22  C   UNL     1      18.211  21.777  11.596  1.00  0.00    -0.008 C 
ATOM     23  C   UNL     1      20.080  22.829  12.962  1.00  0.00    -0.027 C 
ATOM     24  C   UNL     1      18.755  22.697  12.705  1.00  0.00    -0.065 C 
ATOM     25  C   UNL     1      16.944  21.039  12.140  1.00  0.00     0.014 C 
ATOM     26  C   UNL     1      17.807  22.648  10.376  1.00  0.00     0.016 C 
ATOM     27  C   UNL     1      17.776  23.573  13.464  1.00  0.00     0.063 C 
ATOM     28  C   UNL     1      15.938  21.964  12.842  1.00  0.00     0.033 C 
ATOM     29  C   UNL     1      16.603  22.735  13.987  1.00  0.00     0.118 C 
BRANCH  29  30
ATOM     30  O   UNL     1      15.651  23.574  14.588  1.00  0.00    -0.393 OA
ATOM     31  H   UNL     1      15.777  23.495  15.571  1.00  0.00     0.210 HD
ENDBRANCH  29  30
ENDBRANCH   1  11
TORSDOF 6
ENDMDL
MODEL 3
REMARK VINA RESULT:    85.291      1.302      2.676
REMARK INTER + INTRA:         111.434
REMARK INTER:                 109.633
REMARK INTRA:                   1.801
REMARK UNBOUND:                -1.280
REMARK SMILES CC[C@H](C=C[C@H](C)[C@H]1CC[C@H]2[C@@H]3CC=C4C[C@@H](O)CC[C@]4(C)[C@H]3CC[C@@]12C)C(C)C
REMARK SMILES IDX 6 1 7 2 5 3 4 4 3 5 2 6 1 7 28 8 29 9 30 10 8 11 9 12 26 13
REMARK SMILES IDX 10 14 11 15 25 16 27 17 12 18 24 19 23 20 13 21 21 22 14 23
REMARK SMILES IDX 15 24 20 25 22 26 16 27 19 28 17 29 18 30
REMARK H PARENT 18 31
REMARK Flexibility Score: inf
ROOT
ATOM      1  C   UNL     1      16.138  21.649  13.048  1.00  0.00     0.012 C 
ATOM      2  C   UNL     1      14.663  22.000  12.791  1.00  0.00     0.012 C 
ENDROOT
BRANCH   1   3
ATOM      3  C   UNL     1      16.790  21.404  11.707  1.00  0.00    -0.028 C 
ATOM      4  C   UNL     1      18.077  21.713  11.480  1.00  0.00    -0.027 C 
BRANCH   4   5
ATOM      5  C   UNL     1      18.802  21.385  10.187  1.00  0.00     0.014 C 
BRANCH   5   6
ATOM      6  C   UNL     1      19.709  20.135  10.371  1.00  0.00     0.004 C 
ATOM      7  C   UNL     1      21.172  20.472  10.657  1.00  0.00     0.004 C 
ENDBRANCH   5   6
BRANCH   5   8
ATOM      8  C   UNL     1      17.804  21.353   8.977  1.00  0.00    -0.011 C 
ATOM      9  C   UNL     1      18.197  20.391   7.842  1.00  0.00     0.008 C 
ATOM     10  C   UNL     1      17.535  22.757   8.410  1.00  0.00     0.008 C 
ENDBRANCH   5   8
ENDBRANCH   4   5
ENDBRANCH   1   3
BRANCH   1  11
ATOM     11  C   UNL     1      16.864  22.792  13.831  1.00  0.00     0.002 C 
ATOM     12  C   UNL     1      18.003  23.437  13.031  1.00  0.00     0.005 C 
ATOM     13  C   UNL     1      16.011  24.002  14.334  1.00  0.00    -0.026 C 
ATOM     14  C   UNL     1      18.168  24.857  13.572  1.00  0.00     0.005 C 
ATOM     15  C   UNL     1      17.118  25.031  14.679  1.00  0.00    -0.001 C 
ATOM     16  C   UNL     1      15.038  24.543  13.215  1.00  0.00     0.007 C 
ATOM     17  C   UNL     1      15.229  23.620  15.620  1.00  0.00     0.012 C 
ATOM     18  C   UNL     1      16.663  26.522  14.862  1.00  0.00     0.000 C 
ATOM     19  C   UNL     1      14.979  26.076  13.057  1.00  0.00     0.005 C 
ATOM     20  C   UNL     1      15.216  26.796  14.390  1.00  0.00     0.003 C 
ATOM     21  C   UNL     1      16.799  26.987  16.317  1.00  0.00     0.031 C 
ATOM     22  C   UNL     1      14.893  28.338  14.389  1.00  0.00    -0.008 C 
ATOM     23  C   UNL     1      16.291  28.392  16.512  1.00  0.00    -0.027 C 
ATOM     24  C   UNL     1      15.368  28.976  15.708  1.00  0.00    -0.065 C 
ATOM     25  C   UNL     1      13.346  28.534  14.272  1.00  0.00     0.014 C 
ATOM     26  C   UNL     1      15.588  29.063  13.205  1.00  0.00     0.016 C 
ATOM     27  C   UNL     1      14.866  30.362  16.065  1.00  0.00     0.063 C 
ATOM     28  C   UNL     1      12.875  29.965  14.571  1.00  0.00     0.033 C 
ATOM     29  C   UNL     1      13.337  30.421  15.959  1.00  0.00     0.118 C 
BRANCH  29  30
ATOM     30  O   UNL     1      12.896  31.735  16.181  1.00  0.00    -0.393 OA
ATOM     31  H   UNL     1      13.452  32.326  15.606  1.00  0.00     0.210 HD
ENDBRANCH  29  30
ENDBRANCH   1  11
TORSDOF 6
ENDMDL
