MODEL 1
REMARK VINA RESULT:    -6.195      0.000      0.000
REMARK INTER + INTRA:          -6.863
REMARK INTER:                  -6.738
REMARK INTRA:                  -0.125
REMARK UNBOUND:                -0.125
REMARK SMILES CC(=O)[C@@H]1CC[C@@H]2[C@@H]3CC=C4C[C@@H](O)CC[C@]4(C)[C@H]3CC[C@@]21C
REMARK SMILES IDX 4 1 5 2 6 3 7 4 22 5 21 6 20 7 19 8 8 9 9 10 10 11 11 12
REMARK SMILES IDX 17 13 16 14 15 15 13 16 12 17 18 18 23 19 2 20 1 21 3 22
REMARK SMILES IDX 14 23
REMARK H PARENT 14 24
REMARK Flexibility Score: inf
ROOT
ATOM      1  C   UNL     1      12.237 -26.977  14.269  1.00  0.00     0.062 C 
ATOM      2  C   UNL     1      11.545 -25.660  13.892  1.00  0.00     0.012 C 
ATOM      3  C   UNL     1      12.451 -24.989  12.854  1.00  0.00     0.005 C 
ATOM      4  C   UNL     1      13.707 -25.871  12.732  1.00  0.00    -0.001 C 
ATOM      5  C   UNL     1      13.234 -27.286  13.124  1.00  0.00    -0.020 C 
ATOM      6  C   UNL     1      12.529 -27.973  11.919  1.00  0.00     0.008 C 
ATOM      7  C   UNL     1      13.384 -27.971  10.650  1.00  0.00     0.005 C 
ATOM      8  C   UNL     1      13.751 -26.530  10.214  1.00  0.00     0.003 C 
ATOM      9  C   UNL     1      14.469 -25.792  11.370  1.00  0.00     0.000 C 
ATOM     10  C   UNL     1      14.748 -24.331  10.983  1.00  0.00     0.031 C 
ATOM     11  C   UNL     1      15.358 -24.190   9.622  1.00  0.00    -0.027 C 
ATOM     12  C   UNL     1      15.156 -25.074   8.622  1.00  0.00    -0.065 C 
ATOM     13  C   UNL     1      14.586 -26.480   8.870  1.00  0.00    -0.008 C 
ATOM     14  C   UNL     1      13.643 -26.851   7.681  1.00  0.00     0.014 C 
ATOM     15  C   UNL     1      14.256 -26.590   6.296  1.00  0.00     0.033 C 
ATOM     16  C   UNL     1      14.682 -25.121   6.156  1.00  0.00     0.118 C 
ATOM     17  C   UNL     1      15.693 -24.732   7.243  1.00  0.00     0.063 C 
ATOM     18  C   UNL     1      15.780 -27.477   8.907  1.00  0.00     0.016 C 
ATOM     19  C   UNL     1      14.404 -28.152  13.649  1.00  0.00     0.012 C 
ENDROOT
BRANCH   1  20
ATOM     20  C   UNL     1      11.317 -28.123  14.676  1.00  0.00     0.133 C 
ATOM     21  C   UNL     1       9.887 -28.260  14.228  1.00  0.00     0.088 C 
ATOM     22  O   UNL     1      11.774 -29.004  15.390  1.00  0.00    -0.300 OA
ENDBRANCH   1  20
BRANCH  16  23
ATOM     23  O   UNL     1      15.211 -24.877   4.877  1.00  0.00    -0.393 OA
ATOM     24  H   UNL     1      15.088 -23.912   4.677  1.00  0.00     0.210 HD
ENDBRANCH  16  23
TORSDOF 2
ENDMDL
MODEL 2
REMARK VINA RESULT:    -5.781      1.343      1.703
REMARK INTER + INTRA:          -6.414
REMARK INTER:                  -6.543
REMARK INTRA:                   0.130
REMARK UNBOUND:                -0.125
REMARK SMILES CC(=O)[C@@H]1CC[C@@H]2[C@@H]3CC=C4C[C@@H](O)CC[C@]4(C)[C@H]3CC[C@@]21C
REMARK SMILES IDX 4 1 5 2 6 3 7 4 22 5 21 6 20 7 19 8 8 9 9 10 10 11 11 12
REMARK SMILES IDX 17 13 16 14 15 15 13 16 12 17 18 18 23 19 2 20 1 21 3 22
REMARK SMILES IDX 14 23
REMARK H PARENT 14 24
REMARK Flexibility Score: inf
ROOT
ATOM      1  C   UNL     1      10.821 -27.178  15.149  1.00  0.00     0.062 C 
ATOM      2  C   UNL     1       9.921 -26.134  14.473  1.00  0.00     0.012 C 
ATOM      3  C   UNL     1      10.822 -25.366  13.501  1.00  0.00     0.005 C 
ATOM      4  C   UNL     1      12.251 -25.898  13.712  1.00  0.00    -0.001 C 
ATOM      5  C   UNL     1      12.061 -27.337  14.234  1.00  0.00    -0.020 C 
ATOM      6  C   UNL     1      11.782 -28.309  13.050  1.00  0.00     0.008 C 
ATOM      7  C   UNL     1      12.836 -28.219  11.946  1.00  0.00     0.005 C 
ATOM      8  C   UNL     1      12.927 -26.788  11.360  1.00  0.00     0.003 C 
ATOM      9  C   UNL     1      13.217 -25.769  12.490  1.00  0.00     0.000 C 
ATOM     10  C   UNL     1      13.209 -24.335  11.935  1.00  0.00     0.031 C 
ATOM     11  C   UNL     1      14.016 -24.187  10.681  1.00  0.00    -0.027 C 
ATOM     12  C   UNL     1      14.223 -25.194   9.807  1.00  0.00    -0.065 C 
ATOM     13  C   UNL     1      13.966 -26.665  10.172  1.00  0.00    -0.008 C 
ATOM     14  C   UNL     1      13.381 -27.394   8.919  1.00  0.00     0.014 C 
ATOM     15  C   UNL     1      14.166 -27.131   7.625  1.00  0.00     0.033 C 
ATOM     16  C   UNL     1      14.250 -25.626   7.333  1.00  0.00     0.118 C 
ATOM     17  C   UNL     1      14.915 -24.874   8.494  1.00  0.00     0.063 C 
ATOM     18  C   UNL     1      15.333 -27.307  10.546  1.00  0.00     0.016 C 
ATOM     19  C   UNL     1      13.283 -27.808  15.061  1.00  0.00     0.012 C 
ENDROOT
BRANCH   1  20
ATOM     20  C   UNL     1      10.140 -28.474  15.574  1.00  0.00     0.133 C 
ATOM     21  C   UNL     1      10.163 -29.021  16.976  1.00  0.00     0.088 C 
ATOM     22  O   UNL     1       9.509 -29.097  14.733  1.00  0.00    -0.300 OA
ENDBRANCH   1  20
BRANCH  16  23
ATOM     23  O   UNL     1      14.939 -25.391   6.131  1.00  0.00    -0.393 OA
ATOM     24  H   UNL     1      15.296 -24.465   6.162  1.00  0.00     0.210 HD
ENDBRANCH  16  23
TORSDOF 2
ENDMDL
MODEL 3
REMARK VINA RESULT:    -5.592      1.588      7.241
REMARK INTER + INTRA:          -6.208
REMARK INTER:                  -6.107
REMARK INTRA:                  -0.101
REMARK UNBOUND:                -0.125
REMARK SMILES CC(=O)[C@@H]1CC[C@@H]2[C@@H]3CC=C4C[C@@H](O)CC[C@]4(C)[C@H]3CC[C@@]21C
REMARK SMILES IDX 4 1 5 2 6 3 7 4 22 5 21 6 20 7 19 8 8 9 9 10 10 11 11 12
REMARK SMILES IDX 17 13 16 14 15 15 13 16 12 17 18 18 23 19 2 20 1 21 3 22
REMARK SMILES IDX 14 23
REMARK H PARENT 14 24
REMARK Flexibility Score: inf
ROOT
ATOM      1  C   UNL     1      16.049 -26.351   5.790  1.00  0.00     0.062 C 
ATOM      2  C   UNL     1      14.566 -26.439   5.402  1.00  0.00     0.012 C 
ATOM      3  C   UNL     1      13.851 -27.062   6.606  1.00  0.00     0.005 C 
ATOM      4  C   UNL     1      14.945 -27.431   7.624  1.00  0.00    -0.001 C 
ATOM      5  C   UNL     1      16.099 -26.448   7.335  1.00  0.00    -0.020 C 
ATOM      6  C   UNL     1      15.818 -25.073   8.007  1.00  0.00     0.008 C 
ATOM      7  C   UNL     1      15.508 -25.191   9.500  1.00  0.00     0.005 C 
ATOM      8  C   UNL     1      14.275 -26.094   9.755  1.00  0.00     0.003 C 
ATOM      9  C   UNL     1      14.497 -27.488   9.120  1.00  0.00     0.000 C 
ATOM     10  C   UNL     1      13.239 -28.357   9.281  1.00  0.00     0.031 C 
ATOM     11  C   UNL     1      12.687 -28.340  10.674  1.00  0.00    -0.027 C 
ATOM     12  C   UNL     1      12.841 -27.301  11.522  1.00  0.00    -0.065 C 
ATOM     13  C   UNL     1      13.885 -26.196  11.286  1.00  0.00    -0.008 C 
ATOM     14  C   UNL     1      13.273 -24.831  11.738  1.00  0.00     0.014 C 
ATOM     15  C   UNL     1      12.615 -24.874  13.126  1.00  0.00     0.033 C 
ATOM     16  C   UNL     1      11.522 -25.952  13.179  1.00  0.00     0.118 C 
ATOM     17  C   UNL     1      12.095 -27.336  12.843  1.00  0.00     0.063 C 
ATOM     18  C   UNL     1      15.125 -26.518  12.168  1.00  0.00     0.016 C 
ATOM     19  C   UNL     1      17.462 -27.021   7.794  1.00  0.00     0.012 C 
ENDROOT
BRANCH   1  20
ATOM     20  C   UNL     1      16.835 -25.202   5.171  1.00  0.00     0.133 C 
ATOM     21  C   UNL     1      16.258 -23.844   4.875  1.00  0.00     0.088 C 
ATOM     22  O   UNL     1      18.019 -25.381   4.922  1.00  0.00    -0.300 OA
ENDBRANCH   1  20
BRANCH  16  23
ATOM     23  O   UNL     1      10.899 -25.965  14.439  1.00  0.00    -0.393 OA
ATOM     24  H   UNL     1      10.601 -26.895  14.619  1.00  0.00     0.210 HD
ENDBRANCH  16  23
TORSDOF 2
ENDMDL
MODEL 4
REMARK VINA RESULT:    -5.531      2.165      3.553
REMARK INTER + INTRA:          -6.141
REMARK INTER:                  -6.318
REMARK INTRA:                   0.177
REMARK UNBOUND:                -0.125
REMARK SMILES CC(=O)[C@@H]1CC[C@@H]2[C@@H]3CC=C4C[C@@H](O)CC[C@]4(C)[C@H]3CC[C@@]21C
REMARK SMILES IDX 4 1 5 2 6 3 7 4 22 5 21 6 20 7 19 8 8 9 9 10 10 11 11 12
REMARK SMILES IDX 17 13 16 14 15 15 13 16 12 17 18 18 23 19 2 20 1 21 3 22
REMARK SMILES IDX 14 23
REMARK H PARENT 14 24
REMARK Flexibility Score: inf
ROOT
ATOM      1  C   UNL     1       9.411 -26.794  16.271  1.00  0.00     0.062 C 
ATOM      2  C   UNL     1       8.778 -25.705  15.394  1.00  0.00     0.012 C 
ATOM      3  C   UNL     1       9.838 -25.333  14.352  1.00  0.00     0.005 C 
ATOM      4  C   UNL     1      11.106 -26.128  14.712  1.00  0.00    -0.001 C 
ATOM      5  C   UNL     1      10.589 -27.379  15.452  1.00  0.00    -0.020 C 
ATOM      6  C   UNL     1      10.105 -28.449  14.431  1.00  0.00     0.008 C 
ATOM      7  C   UNL     1      11.160 -28.786  13.376  1.00  0.00     0.005 C 
ATOM      8  C   UNL     1      11.579 -27.531  12.570  1.00  0.00     0.003 C 
ATOM      9  C   UNL     1      12.085 -26.427  13.531  1.00  0.00     0.000 C 
ATOM     10  C   UNL     1      12.409 -25.143  12.750  1.00  0.00     0.031 C 
ATOM     11  C   UNL     1      13.238 -25.392  11.527  1.00  0.00    -0.027 C 
ATOM     12  C   UNL     1      13.216 -26.553  10.839  1.00  0.00    -0.065 C 
ATOM     13  C   UNL     1      12.628 -27.847  11.427  1.00  0.00    -0.008 C 
ATOM     14  C   UNL     1      11.902 -28.627  10.284  1.00  0.00     0.014 C 
ATOM     15  C   UNL     1      12.736 -28.769   9.002  1.00  0.00     0.033 C 
ATOM     16  C   UNL     1      13.163 -27.392   8.472  1.00  0.00     0.118 C 
ATOM     17  C   UNL     1      13.973 -26.623   9.525  1.00  0.00     0.063 C 
ATOM     18  C   UNL     1      13.809 -28.705  11.962  1.00  0.00     0.016 C 
ATOM     19  C   UNL     1      11.665 -27.964  16.400  1.00  0.00     0.012 C 
ENDROOT
BRANCH   1  20
ATOM     20  C   UNL     1       8.449 -27.813  16.870  1.00  0.00     0.133 C 
ATOM     21  C   UNL     1       8.878 -29.096  17.530  1.00  0.00     0.088 C 
ATOM     22  O   UNL     1       7.252 -27.564  16.840  1.00  0.00    -0.300 OA
ENDBRANCH   1  20
BRANCH  16  23
ATOM     23  O   UNL     1      13.896 -27.524   7.281  1.00  0.00    -0.393 OA
ATOM     24  H   UNL     1      14.267 -28.444   7.254  1.00  0.00     0.210 HD
ENDBRANCH  16  23
TORSDOF 2
ENDMDL
MODEL 5
REMARK VINA RESULT:    -5.411      1.427      2.800
REMARK INTER + INTRA:          -6.010
REMARK INTER:                  -5.898
REMARK INTRA:                  -0.113
REMARK UNBOUND:                -0.125
REMARK SMILES CC(=O)[C@@H]1CC[C@@H]2[C@@H]3CC=C4C[C@@H](O)CC[C@]4(C)[C@H]3CC[C@@]21C
REMARK SMILES IDX 4 1 5 2 6 3 7 4 22 5 21 6 20 7 19 8 8 9 9 10 10 11 11 12
REMARK SMILES IDX 17 13 16 14 15 15 13 16 12 17 18 18 23 19 2 20 1 21 3 22
REMARK SMILES IDX 14 23
REMARK H PARENT 14 24
REMARK Flexibility Score: inf
ROOT
ATOM      1  C   UNL     1      13.212 -28.233  13.807  1.00  0.00     0.062 C 
ATOM      2  C   UNL     1      14.707 -28.181  14.155  1.00  0.00     0.012 C 
ATOM      3  C   UNL     1      15.455 -28.381  12.833  1.00  0.00     0.005 C 
ATOM      4  C   UNL     1      14.386 -28.661  11.760  1.00  0.00    -0.001 C 
ATOM      5  C   UNL     1      13.112 -27.965  12.284  1.00  0.00    -0.020 C 
ATOM      6  C   UNL     1      13.158 -26.443  11.965  1.00  0.00     0.008 C 
ATOM      7  C   UNL     1      13.418 -26.153  10.486  1.00  0.00     0.005 C 
ATOM      8  C   UNL     1      14.760 -26.767  10.013  1.00  0.00     0.003 C 
ATOM      9  C   UNL     1      14.774 -28.290  10.293  1.00  0.00     0.000 C 
ATOM     10  C   UNL     1      16.139 -28.891   9.920  1.00  0.00     0.031 C 
ATOM     11  C   UNL     1      16.623 -28.457   8.570  1.00  0.00    -0.027 C 
ATOM     12  C   UNL     1      16.281 -27.282   8.000  1.00  0.00    -0.065 C 
ATOM     13  C   UNL     1      15.096 -26.440   8.501  1.00  0.00    -0.008 C 
ATOM     14  C   UNL     1      15.479 -24.928   8.390  1.00  0.00     0.014 C 
ATOM     15  C   UNL     1      16.077 -24.537   7.030  1.00  0.00     0.033 C 
ATOM     16  C   UNL     1      17.314 -25.390   6.712  1.00  0.00     0.118 C 
ATOM     17  C   UNL     1      16.968 -26.885   6.706  1.00  0.00     0.063 C 
ATOM     18  C   UNL     1      13.882 -26.730   7.574  1.00  0.00     0.016 C 
ATOM     19  C   UNL     1      11.831 -28.615  11.707  1.00  0.00     0.012 C 
ENDROOT
BRANCH   1  20
ATOM     20  C   UNL     1      12.291 -27.400  14.690  1.00  0.00     0.133 C 
ATOM     21  C   UNL     1      10.809 -27.628  14.819  1.00  0.00     0.088 C 
ATOM     22  O   UNL     1      12.787 -26.506  15.360  1.00  0.00    -0.300 OA
ENDBRANCH   1  20
BRANCH  16  23
ATOM     23  O   UNL     1      17.879 -25.006   5.483  1.00  0.00    -0.393 OA
ATOM     24  H   UNL     1      17.910 -24.014   5.461  1.00  0.00     0.210 HD
ENDBRANCH  16  23
TORSDOF 2
ENDMDL
MODEL 6
REMARK VINA RESULT:    -5.378      1.614      6.979
REMARK INTER + INTRA:          -5.975
REMARK INTER:                  -5.861
REMARK INTRA:                  -0.114
REMARK UNBOUND:                -0.125
REMARK SMILES CC(=O)[C@@H]1CC[C@@H]2[C@@H]3CC=C4C[C@@H](O)CC[C@]4(C)[C@H]3CC[C@@]21C
REMARK SMILES IDX 4 1 5 2 6 3 7 4 22 5 21 6 20 7 19 8 8 9 9 10 10 11 11 12
REMARK SMILES IDX 17 13 16 14 15 15 13 16 12 17 18 18 23 19 2 20 1 21 3 22
REMARK SMILES IDX 14 23
REMARK H PARENT 14 24
REMARK Flexibility Score: inf
ROOT
ATOM      1  C   UNL     1      14.857 -25.720   8.456  1.00  0.00     0.062 C 
ATOM      2  C   UNL     1      15.483 -24.628   9.335  1.00  0.00     0.012 C 
ATOM      3  C   UNL     1      14.655 -24.599  10.625  1.00  0.00     0.005 C 
ATOM      4  C   UNL     1      13.495 -25.591  10.426  1.00  0.00    -0.001 C 
ATOM      5  C   UNL     1      14.029 -26.620   9.408  1.00  0.00    -0.020 C 
ATOM      6  C   UNL     1      14.923 -27.675  10.123  1.00  0.00     0.008 C 
ATOM      7  C   UNL     1      14.227 -28.335  11.314  1.00  0.00     0.005 C 
ATOM      8  C   UNL     1      13.802 -27.290  12.376  1.00  0.00     0.003 C 
ATOM      9  C   UNL     1      12.896 -26.213  11.728  1.00  0.00     0.000 C 
ATOM     10  C   UNL     1      12.551 -25.117  12.749  1.00  0.00     0.031 C 
ATOM     11  C   UNL     1      12.096 -25.665  14.068  1.00  0.00    -0.027 C 
ATOM     12  C   UNL     1      12.483 -26.865  14.547  1.00  0.00    -0.065 C 
ATOM     13  C   UNL     1      13.129 -27.938  13.654  1.00  0.00    -0.008 C 
ATOM     14  C   UNL     1      14.232 -28.674  14.480  1.00  0.00     0.014 C 
ATOM     15  C   UNL     1      13.768 -29.125  15.873  1.00  0.00     0.033 C 
ATOM     16  C   UNL     1      13.248 -27.932  16.688  1.00  0.00     0.118 C 
ATOM     17  C   UNL     1      12.088 -27.233  15.966  1.00  0.00     0.063 C 
ATOM     18  C   UNL     1      12.022 -28.955  13.258  1.00  0.00     0.016 C 
ATOM     19  C   UNL     1      12.876 -27.305   8.633  1.00  0.00     0.012 C 
ENDROOT
BRANCH   1  20
ATOM     20  C   UNL     1      15.809 -26.448   7.514  1.00  0.00     0.133 C 
ATOM     21  C   UNL     1      15.384 -27.128   6.241  1.00  0.00     0.088 C 
ATOM     22  O   UNL     1      16.999 -26.459   7.793  1.00  0.00    -0.300 OA
ENDBRANCH   1  20
BRANCH  16  23
ATOM     23  O   UNL     1      12.856 -28.342  17.974  1.00  0.00    -0.393 OA
ATOM     24  H   UNL     1      12.844 -27.539  18.558  1.00  0.00     0.210 HD
ENDBRANCH  16  23
TORSDOF 2
ENDMDL
MODEL 7
REMARK VINA RESULT:    -5.342      2.635      4.272
REMARK INTER + INTRA:          -5.936
REMARK INTER:                  -6.095
REMARK INTRA:                   0.159
REMARK UNBOUND:                -0.125
REMARK SMILES CC(=O)[C@@H]1CC[C@@H]2[C@@H]3CC=C4C[C@@H](O)CC[C@]4(C)[C@H]3CC[C@@]21C
REMARK SMILES IDX 4 1 5 2 6 3 7 4 22 5 21 6 20 7 19 8 8 9 9 10 10 11 11 12
REMARK SMILES IDX 17 13 16 14 15 15 13 16 12 17 18 18 23 19 2 20 1 21 3 22
REMARK SMILES IDX 14 23
REMARK H PARENT 14 24
REMARK Flexibility Score: inf
ROOT
ATOM      1  C   UNL     1      10.175 -27.980  17.005  1.00  0.00     0.062 C 
ATOM      2  C   UNL     1      11.309 -27.256  17.744  1.00  0.00     0.012 C 
ATOM      3  C   UNL     1      12.501 -27.245  16.781  1.00  0.00     0.005 C 
ATOM      4  C   UNL     1      12.077 -28.062  15.547  1.00  0.00    -0.001 C 
ATOM      5  C   UNL     1      10.540 -27.934  15.500  1.00  0.00    -0.020 C 
ATOM      6  C   UNL     1      10.130 -26.580  14.851  1.00  0.00     0.008 C 
ATOM      7  C   UNL     1      10.779 -26.354  13.485  1.00  0.00     0.005 C 
ATOM      8  C   UNL     1      12.326 -26.374  13.579  1.00  0.00     0.003 C 
ATOM      9  C   UNL     1      12.801 -27.707  14.208  1.00  0.00     0.000 C 
ATOM     10  C   UNL     1      14.327 -27.696  14.399  1.00  0.00     0.031 C 
ATOM     11  C   UNL     1      15.068 -27.232  13.182  1.00  0.00    -0.027 C 
ATOM     12  C   UNL     1      14.545 -26.382  12.273  1.00  0.00    -0.065 C 
ATOM     13  C   UNL     1      13.038 -26.085  12.196  1.00  0.00    -0.008 C 
ATOM     14  C   UNL     1      12.846 -24.576  11.840  1.00  0.00     0.014 C 
ATOM     15  C   UNL     1      13.704 -24.102  10.657  1.00  0.00     0.033 C 
ATOM     16  C   UNL     1      15.194 -24.367  10.922  1.00  0.00     0.118 C 
ATOM     17  C   UNL     1      15.453 -25.858  11.176  1.00  0.00     0.063 C 
ATOM     18  C   UNL     1      12.441 -26.960  11.057  1.00  0.00     0.016 C 
ATOM     19  C   UNL     1       9.892 -29.125  14.752  1.00  0.00     0.012 C 
ENDROOT
BRANCH   1  20
ATOM     20  C   UNL     1       8.759 -27.542  17.359  1.00  0.00     0.133 C 
ATOM     21  C   UNL     1       8.252 -26.131  17.227  1.00  0.00     0.088 C 
ATOM     22  O   UNL     1       7.973 -28.392  17.750  1.00  0.00    -0.300 OA
ENDBRANCH   1  20
BRANCH  16  23
ATOM     23  O   UNL     1      15.979 -23.901   9.853  1.00  0.00    -0.393 OA
ATOM     24  H   UNL     1      16.894 -24.268   9.967  1.00  0.00     0.210 HD
ENDBRANCH  16  23
TORSDOF 2
ENDMDL
MODEL 8
REMARK VINA RESULT:    -5.132      1.599      7.037
REMARK INTER + INTRA:          -5.707
REMARK INTER:                  -5.600
REMARK INTRA:                  -0.108
REMARK UNBOUND:                -0.125
REMARK SMILES CC(=O)[C@@H]1CC[C@@H]2[C@@H]3CC=C4C[C@@H](O)CC[C@]4(C)[C@H]3CC[C@@]21C
REMARK SMILES IDX 4 1 5 2 6 3 7 4 22 5 21 6 20 7 19 8 8 9 9 10 10 11 11 12
REMARK SMILES IDX 17 13 16 14 15 15 13 16 12 17 18 18 23 19 2 20 1 21 3 22
REMARK SMILES IDX 14 23
REMARK H PARENT 14 24
REMARK Flexibility Score: inf
ROOT
ATOM      1  C   UNL     1      15.656 -27.028   7.299  1.00  0.00     0.062 C 
ATOM      2  C   UNL     1      14.301 -26.594   6.722  1.00  0.00     0.012 C 
ATOM      3  C   UNL     1      13.236 -27.258   7.601  1.00  0.00     0.005 C 
ATOM      4  C   UNL     1      13.988 -28.158   8.599  1.00  0.00    -0.001 C 
ATOM      5  C   UNL     1      15.378 -27.505   8.746  1.00  0.00    -0.020 C 
ATOM      6  C   UNL     1      15.311 -26.311   9.742  1.00  0.00     0.008 C 
ATOM      7  C   UNL     1      14.696 -26.693  11.089  1.00  0.00     0.005 C 
ATOM      8  C   UNL     1      13.256 -27.241  10.923  1.00  0.00     0.003 C 
ATOM      9  C   UNL     1      13.255 -28.444   9.949  1.00  0.00     0.000 C 
ATOM     10  C   UNL     1      11.818 -28.931   9.699  1.00  0.00     0.031 C 
ATOM     11  C   UNL     1      11.025 -29.094  10.960  1.00  0.00    -0.027 C 
ATOM     12  C   UNL     1      11.257 -28.378  12.081  1.00  0.00    -0.065 C 
ATOM     13  C   UNL     1      12.561 -27.593  12.301  1.00  0.00    -0.008 C 
ATOM     14  C   UNL     1      12.220 -26.262  13.044  1.00  0.00     0.014 C 
ATOM     15  C   UNL     1      11.312 -26.449  14.270  1.00  0.00     0.033 C 
ATOM     16  C   UNL     1      10.004 -27.151  13.878  1.00  0.00     0.118 C 
ATOM     17  C   UNL     1      10.280 -28.516  13.235  1.00  0.00     0.063 C 
ATOM     18  C   UNL     1      13.489 -28.458  13.200  1.00  0.00     0.016 C 
ATOM     19  C   UNL     1      16.446 -28.536   9.188  1.00  0.00     0.012 C 
ENDROOT
BRANCH   1  20
ATOM     20  C   UNL     1      16.802 -26.037   7.135  1.00  0.00     0.133 C 
ATOM     21  C   UNL     1      16.632 -24.542   7.126  1.00  0.00     0.088 C 
ATOM     22  O   UNL     1      17.937 -26.479   7.031  1.00  0.00    -0.300 OA
ENDBRANCH   1  20
BRANCH  16  23
ATOM     23  O   UNL     1       9.161 -27.289  14.995  1.00  0.00    -0.393 OA
ATOM     24  H   UNL     1       8.785 -28.208  14.978  1.00  0.00     0.210 HD
ENDBRANCH  16  23
TORSDOF 2
ENDMDL
MODEL 9
REMARK VINA RESULT:    -5.035      1.939      7.344
REMARK INTER + INTRA:          -5.601
REMARK INTER:                  -5.998
REMARK INTRA:                   0.397
REMARK UNBOUND:                -0.125
REMARK SMILES CC(=O)[C@@H]1CC[C@@H]2[C@@H]3CC=C4C[C@@H](O)CC[C@]4(C)[C@H]3CC[C@@]21C
REMARK SMILES IDX 4 1 5 2 6 3 7 4 22 5 21 6 20 7 19 8 8 9 9 10 10 11 11 12
REMARK SMILES IDX 17 13 16 14 15 15 13 16 12 17 18 18 23 19 2 20 1 21 3 22
REMARK SMILES IDX 14 23
REMARK H PARENT 14 24
REMARK Flexibility Score: inf
ROOT
ATOM      1  C   UNL     1      14.272 -26.821   9.294  1.00  0.00     0.062 C 
ATOM      2  C   UNL     1      12.974 -27.331   8.651  1.00  0.00     0.012 C 
ATOM      3  C   UNL     1      12.170 -27.981   9.783  1.00  0.00     0.005 C 
ATOM      4  C   UNL     1      13.063 -27.941  11.036  1.00  0.00    -0.001 C 
ATOM      5  C   UNL     1      13.995 -26.732  10.816  1.00  0.00    -0.020 C 
ATOM      6  C   UNL     1      13.263 -25.410  11.190  1.00  0.00     0.008 C 
ATOM      7  C   UNL     1      12.663 -25.439  12.596  1.00  0.00     0.005 C 
ATOM      8  C   UNL     1      11.645 -26.596  12.756  1.00  0.00     0.003 C 
ATOM      9  C   UNL     1      12.317 -27.947  12.409  1.00  0.00     0.000 C 
ATOM     10  C   UNL     1      11.288 -29.089  12.467  1.00  0.00     0.031 C 
ATOM     11  C   UNL     1      10.450 -29.061  13.709  1.00  0.00    -0.027 C 
ATOM     12  C   UNL     1      10.168 -27.931  14.390  1.00  0.00    -0.065 C 
ATOM     13  C   UNL     1      10.956 -26.626  14.181  1.00  0.00    -0.008 C 
ATOM     14  C   UNL     1       9.962 -25.424  14.282  1.00  0.00     0.014 C 
ATOM     15  C   UNL     1       9.038 -25.483  15.508  1.00  0.00     0.033 C 
ATOM     16  C   UNL     1       8.238 -26.794  15.527  1.00  0.00     0.118 C 
ATOM     17  C   UNL     1       9.173 -28.011  15.534  1.00  0.00     0.063 C 
ATOM     18  C   UNL     1      12.007 -26.519  15.322  1.00  0.00     0.016 C 
ATOM     19  C   UNL     1      15.315 -26.879  11.611  1.00  0.00     0.012 C 
ENDROOT
BRANCH   1  20
ATOM     20  C   UNL     1      14.892 -25.583   8.657  1.00  0.00     0.133 C 
ATOM     21  C   UNL     1      14.737 -25.210   7.207  1.00  0.00     0.088 C 
ATOM     22  O   UNL     1      15.533 -24.827   9.372  1.00  0.00    -0.300 OA
ENDBRANCH   1  20
BRANCH  16  23
ATOM     23  O   UNL     1       7.369 -26.830  16.631  1.00  0.00    -0.393 OA
ATOM     24  H   UNL     1       7.924 -26.800  17.454  1.00  0.00     0.210 HD
ENDBRANCH  16  23
TORSDOF 2
ENDMDL
