MODEL 1
REMARK VINA RESULT:    -5.196      0.000      0.000
REMARK INTER + INTRA:          -5.196
REMARK INTER:                  -5.196
REMARK INTRA:                   0.000
REMARK UNBOUND:                 0.000
REMARK SMILES CC(C)=C1CC[C@H](C)CC1=O
REMARK SMILES IDX 8 1 7 2 6 3 5 4 4 5 2 6 1 7 3 8 10 9 11 10 9 11
REMARK H PARENT
REMARK Flexibility Score: inf
ROOT
ATOM      1  C   UNL     1       1.026 147.646  -5.752  1.00  0.00     0.008 C 
ATOM      2  C   UNL     1       2.091 146.583  -6.045  1.00  0.00    -0.006 C 
ATOM      3  C   UNL     1       1.611 145.626  -7.148  1.00  0.00     0.008 C 
ATOM      4  C   UNL     1       2.620 144.495  -7.383  1.00  0.00     0.039 C 
ATOM      5  C   UNL     1       4.031 145.013  -7.632  1.00  0.00    -0.006 C 
ATOM      6  C   UNL     1       4.898 144.345  -8.448  1.00  0.00    -0.070 C 
ATOM      7  C   UNL     1       6.281 144.879  -8.747  1.00  0.00     0.039 C 
ATOM      8  C   UNL     1       4.500 143.054  -9.125  1.00  0.00     0.039 C 
ATOM      9  C   UNL     1       4.436 146.216  -6.844  1.00  0.00     0.159 C 
ATOM     10  O   UNL     1       5.629 146.388  -6.480  1.00  0.00    -0.295 OA
ATOM     11  C   UNL     1       3.412 147.246  -6.463  1.00  0.00     0.084 C 
ENDROOT
TORSDOF 0
ENDMDL
MODEL 2
REMARK VINA RESULT:    -5.193      1.630      2.386
REMARK INTER + INTRA:          -5.193
REMARK INTER:                  -5.193
REMARK INTRA:                   0.000
REMARK UNBOUND:                 0.000
REMARK SMILES CC(C)=C1CC[C@H](C)CC1=O
REMARK SMILES IDX 8 1 7 2 6 3 5 4 4 5 2 6 1 7 3 8 10 9 11 10 9 11
REMARK H PARENT
REMARK Flexibility Score: inf
ROOT
ATOM      1  C   UNL     1       0.735 147.822  -5.639  1.00  0.00     0.008 C 
ATOM      2  C   UNL     1       1.879 147.187  -6.439  1.00  0.00    -0.006 C 
ATOM      3  C   UNL     1       3.020 146.757  -5.503  1.00  0.00     0.008 C 
ATOM      4  C   UNL     1       4.216 146.213  -6.294  1.00  0.00     0.039 C 
ATOM      5  C   UNL     1       3.818 145.116  -7.274  1.00  0.00    -0.006 C 
ATOM      6  C   UNL     1       4.674 144.099  -7.585  1.00  0.00    -0.070 C 
ATOM      7  C   UNL     1       4.270 142.975  -8.512  1.00  0.00     0.039 C 
ATOM      8  C   UNL     1       6.058 144.027  -6.983  1.00  0.00     0.039 C 
ATOM      9  C   UNL     1       2.498 145.290  -7.951  1.00  0.00     0.159 C 
ATOM     10  O   UNL     1       2.305 144.874  -9.124  1.00  0.00    -0.295 OA
ATOM     11  C   UNL     1       1.371 145.978  -7.237  1.00  0.00     0.084 C 
ENDROOT
TORSDOF 0
ENDMDL
MODEL 3
REMARK VINA RESULT:    -4.732      0.948      4.015
REMARK INTER + INTRA:          -4.732
REMARK INTER:                  -4.732
REMARK INTRA:                   0.000
REMARK UNBOUND:                 0.000
REMARK SMILES CC(C)=C1CC[C@H](C)CC1=O
REMARK SMILES IDX 8 1 7 2 6 3 5 4 4 5 2 6 1 7 3 8 10 9 11 10 9 11
REMARK H PARENT
REMARK Flexibility Score: inf
ROOT
ATOM      1  C   UNL     1       4.576 142.622  -9.122  1.00  0.00     0.008 C 
ATOM      2  C   UNL     1       4.186 144.028  -8.651  1.00  0.00    -0.006 C 
ATOM      3  C   UNL     1       2.681 144.098  -8.345  1.00  0.00     0.008 C 
ATOM      4  C   UNL     1       2.254 145.523  -7.970  1.00  0.00     0.039 C 
ATOM      5  C   UNL     1       3.106 146.113  -6.854  1.00  0.00    -0.006 C 
ATOM      6  C   UNL     1       2.583 147.000  -5.956  1.00  0.00    -0.070 C 
ATOM      7  C   UNL     1       3.402 147.549  -4.811  1.00  0.00     0.039 C 
ATOM      8  C   UNL     1       1.141 147.446  -6.044  1.00  0.00     0.039 C 
ATOM      9  C   UNL     1       4.555 145.756  -6.877  1.00  0.00     0.159 C 
ATOM     10  O   UNL     1       5.434 146.560  -6.465  1.00  0.00    -0.295 OA
ATOM     11  C   UNL     1       4.994 144.421  -7.405  1.00  0.00     0.084 C 
ENDROOT
TORSDOF 0
ENDMDL
MODEL 4
REMARK VINA RESULT:    -4.349      1.016      1.178
REMARK INTER + INTRA:          -4.349
REMARK INTER:                  -4.349
REMARK INTRA:                   0.000
REMARK UNBOUND:                 0.000
REMARK SMILES CC(C)=C1CC[C@H](C)CC1=O
REMARK SMILES IDX 8 1 7 2 6 3 5 4 4 5 2 6 1 7 3 8 10 9 11 10 9 11
REMARK H PARENT
REMARK Flexibility Score: inf
ROOT
ATOM      1  C   UNL     1       0.091 148.000  -5.239  1.00  0.00     0.008 C 
ATOM      2  C   UNL     1       1.229 147.057  -5.646  1.00  0.00    -0.006 C 
ATOM      3  C   UNL     1       0.849 146.260  -6.904  1.00  0.00     0.008 C 
ATOM      4  C   UNL     1       1.934 145.238  -7.266  1.00  0.00     0.039 C 
ATOM      5  C   UNL     1       3.317 145.867  -7.369  1.00  0.00    -0.006 C 
ATOM      6  C   UNL     1       4.253 145.385  -8.239  1.00  0.00    -0.070 C 
ATOM      7  C   UNL     1       5.608 146.035  -8.390  1.00  0.00     0.039 C 
ATOM      8  C   UNL     1       3.959 144.196  -9.125  1.00  0.00     0.039 C 
ATOM      9  C   UNL     1       3.618 146.952  -6.387  1.00  0.00     0.159 C 
ATOM     10  O   UNL     1       4.785 147.131  -5.948  1.00  0.00    -0.295 OA
ATOM     11  C   UNL     1       2.520 147.850  -5.898  1.00  0.00     0.084 C 
ENDROOT
TORSDOF 0
ENDMDL
MODEL 5
REMARK VINA RESULT:    -4.241      1.570      4.600
REMARK INTER + INTRA:          -4.241
REMARK INTER:                  -4.241
REMARK INTRA:                   0.000
REMARK UNBOUND:                 0.000
REMARK SMILES CC(C)=C1CC[C@H](C)CC1=O
REMARK SMILES IDX 8 1 7 2 6 3 5 4 4 5 2 6 1 7 3 8 10 9 11 10 9 11
REMARK H PARENT
REMARK Flexibility Score: inf
ROOT
ATOM      1  C   UNL     1       6.475 144.908  -9.030  1.00  0.00     0.008 C 
ATOM      2  C   UNL     1       5.430 145.234  -7.957  1.00  0.00    -0.006 C 
ATOM      3  C   UNL     1       5.237 146.754  -7.832  1.00  0.00     0.008 C 
ATOM      4  C   UNL     1       4.271 147.102  -6.692  1.00  0.00     0.039 C 
ATOM      5  C   UNL     1       2.949 146.352  -6.798  1.00  0.00    -0.006 C 
ATOM      6  C   UNL     1       1.782 146.908  -6.358  1.00  0.00    -0.070 C 
ATOM      7  C   UNL     1       0.457 146.196  -6.509  1.00  0.00     0.039 C 
ATOM      8  C   UNL     1       1.755 148.283  -5.732  1.00  0.00     0.039 C 
ATOM      9  C   UNL     1       3.031 144.947  -7.297  1.00  0.00     0.159 C 
ATOM     10  O   UNL     1       2.228 144.063  -6.897  1.00  0.00    -0.295 OA
ATOM     11  C   UNL     1       4.090 144.561  -8.289  1.00  0.00     0.084 C 
ENDROOT
TORSDOF 0
ENDMDL
MODEL 6
REMARK VINA RESULT:    -4.166      1.388      1.987
REMARK INTER + INTRA:          -4.166
REMARK INTER:                  -4.166
REMARK INTRA:                   0.000
REMARK UNBOUND:                 0.000
REMARK SMILES CC(C)=C1CC[C@H](C)CC1=O
REMARK SMILES IDX 8 1 7 2 6 3 5 4 4 5 2 6 1 7 3 8 10 9 11 10 9 11
REMARK H PARENT
REMARK Flexibility Score: inf
ROOT
ATOM      1  C   UNL     1       3.913 148.255  -5.663  1.00  0.00     0.008 C 
ATOM      2  C   UNL     1       3.994 146.745  -5.914  1.00  0.00    -0.006 C 
ATOM      3  C   UNL     1       2.628 146.195  -6.355  1.00  0.00     0.008 C 
ATOM      4  C   UNL     1       2.664 144.669  -6.512  1.00  0.00     0.039 C 
ATOM      5  C   UNL     1       3.801 144.202  -7.412  1.00  0.00    -0.006 C 
ATOM      6  C   UNL     1       3.679 143.084  -8.186  1.00  0.00    -0.070 C 
ATOM      7  C   UNL     1       4.778 142.642  -9.125  1.00  0.00     0.039 C 
ATOM      8  C   UNL     1       2.416 142.253  -8.169  1.00  0.00     0.039 C 
ATOM      9  C   UNL     1       5.079 144.967  -7.304  1.00  0.00     0.159 C 
ATOM     10  O   UNL     1       6.194 144.406  -7.474  1.00  0.00    -0.295 OA
ATOM     11  C   UNL     1       5.054 146.433  -6.980  1.00  0.00     0.084 C 
ENDROOT
TORSDOF 0
ENDMDL
MODEL 7
REMARK VINA RESULT:    -3.988      1.799      2.804
REMARK INTER + INTRA:          -3.988
REMARK INTER:                  -3.988
REMARK INTRA:                   0.000
REMARK UNBOUND:                 0.000
REMARK SMILES CC(C)=C1CC[C@H](C)CC1=O
REMARK SMILES IDX 8 1 7 2 6 3 5 4 4 5 2 6 1 7 3 8 10 9 11 10 9 11
REMARK H PARENT
REMARK Flexibility Score: inf
ROOT
ATOM      1  C   UNL     1       4.529 148.407  -5.214  1.00  0.00     0.008 C 
ATOM      2  C   UNL     1       4.131 147.361  -6.262  1.00  0.00    -0.006 C 
ATOM      3  C   UNL     1       5.371 146.615  -6.781  1.00  0.00     0.008 C 
ATOM      4  C   UNL     1       5.004 145.637  -7.905  1.00  0.00     0.039 C 
ATOM      5  C   UNL     1       3.875 144.692  -7.510  1.00  0.00    -0.006 C 
ATOM      6  C   UNL     1       3.810 143.421  -8.005  1.00  0.00    -0.070 C 
ATOM      7  C   UNL     1       2.727 142.456  -7.577  1.00  0.00     0.039 C 
ATOM      8  C   UNL     1       4.845 142.904  -8.977  1.00  0.00     0.039 C 
ATOM      9  C   UNL     1       2.799 145.277  -6.655  1.00  0.00     0.159 C 
ATOM     10  O   UNL     1       1.606 144.884  -6.745  1.00  0.00    -0.295 OA
ATOM     11  C   UNL     1       3.127 146.361  -5.670  1.00  0.00     0.084 C 
ENDROOT
TORSDOF 0
ENDMDL
MODEL 8
REMARK VINA RESULT:    -2.482      1.466      4.251
REMARK INTER + INTRA:          -2.482
REMARK INTER:                  -2.482
REMARK INTRA:                   0.000
REMARK UNBOUND:                 0.000
REMARK SMILES CC(C)=C1CC[C@H](C)CC1=O
REMARK SMILES IDX 8 1 7 2 6 3 5 4 4 5 2 6 1 7 3 8 10 9 11 10 9 11
REMARK H PARENT
REMARK Flexibility Score: inf
ROOT
ATOM      1  C   UNL     1       5.896 145.153  -8.063  1.00  0.00     0.008 C 
ATOM      2  C   UNL     1       4.555 145.881  -7.916  1.00  0.00    -0.006 C 
ATOM      3  C   UNL     1       3.385 144.894  -8.052  1.00  0.00     0.008 C 
ATOM      4  C   UNL     1       2.034 145.620  -8.009  1.00  0.00     0.039 C 
ATOM      5  C   UNL     1       1.896 146.525  -6.792  1.00  0.00    -0.006 C 
ATOM      6  C   UNL     1       0.683 146.744  -6.205  1.00  0.00    -0.070 C 
ATOM      7  C   UNL     1       0.542 147.595  -4.964  1.00  0.00     0.039 C 
ATOM      8  C   UNL     1      -0.577 146.110  -6.749  1.00  0.00     0.039 C 
ATOM      9  C   UNL     1       3.136 147.240  -6.363  1.00  0.00     0.159 C 
ATOM     10  O   UNL     1       3.083 148.383  -5.838  1.00  0.00    -0.295 OA
ATOM     11  C   UNL     1       4.480 146.601  -6.561  1.00  0.00     0.084 C 
ENDROOT
TORSDOF 0
ENDMDL
