MODEL 1
REMARK VINA RESULT:    -6.866      0.000      0.000
REMARK INTER + INTRA:          -7.520
REMARK INTER:                  -7.469
REMARK INTRA:                  -0.051
REMARK UNBOUND:                -0.051
REMARK SMILES COc1cc2ccc(=O)oc2cc1O
REMARK SMILES IDX 3 1 13 2 12 3 11 4 5 5 4 6 6 7 7 8 8 9 9 10 10 11 2 12 1 13
REMARK SMILES IDX 14 14
REMARK H PARENT 14 15
REMARK Flexibility Score: inf
ROOT
ATOM      1  C   UNL     1       9.815 -46.012  37.028  1.00  0.00     0.161 A 
ATOM      2  C   UNL     1       9.788 -46.406  38.380  1.00  0.00     0.161 A 
ATOM      3  C   UNL     1      10.980 -46.695  39.054  1.00  0.00     0.098 A 
ATOM      4  C   UNL     1      12.207 -46.597  38.395  1.00  0.00     0.142 A 
ATOM      5  C   UNL     1      12.245 -46.203  37.041  1.00  0.00     0.022 A 
ATOM      6  C   UNL     1      11.055 -45.912  36.363  1.00  0.00     0.062 A 
ATOM      7  C   UNL     1      13.489 -46.114  36.409  1.00  0.00     0.019 A 
ATOM      8  C   UNL     1      14.646 -46.413  37.127  1.00  0.00     0.094 A 
ATOM      9  C   UNL     1      14.532 -46.798  38.467  1.00  0.00     0.336 A 
ATOM     10  O   UNL     1      15.564 -47.073  39.133  1.00  0.00    -0.246 OA
ATOM     11  O   UNL     1      13.335 -46.875  39.045  1.00  0.00    -0.423 OA
ENDROOT
BRANCH   1  12
ATOM     12  O   UNL     1       8.601 -45.728  36.382  1.00  0.00    -0.493 OA
ATOM     13  C   UNL     1       8.224 -46.242  35.108  1.00  0.00     0.278 C 
ENDBRANCH   1  12
BRANCH   2  14
ATOM     14  O   UNL     1       8.582 -46.516  39.073  1.00  0.00    -0.504 OA
ATOM     15  H   UNL     1       7.696 -46.248  38.661  1.00  0.00     0.293 HD
ENDBRANCH   2  14
TORSDOF 2
ENDMDL
MODEL 2
REMARK VINA RESULT:    -6.817      1.472      4.921
REMARK INTER + INTRA:          -7.466
REMARK INTER:                  -7.409
REMARK INTRA:                  -0.057
REMARK UNBOUND:                -0.051
REMARK SMILES COc1cc2ccc(=O)oc2cc1O
REMARK SMILES IDX 3 1 13 2 12 3 11 4 5 5 4 6 6 7 7 8 8 9 9 10 10 11 2 12 1 13
REMARK SMILES IDX 14 14
REMARK H PARENT 14 15
REMARK Flexibility Score: inf
ROOT
ATOM      1  C   UNL     1      13.106 -46.611  38.138  1.00  0.00     0.161 A 
ATOM      2  C   UNL     1      12.732 -47.191  39.366  1.00  0.00     0.161 A 
ATOM      3  C   UNL     1      11.382 -47.273  39.724  1.00  0.00     0.098 A 
ATOM      4  C   UNL     1      10.393 -46.781  38.870  1.00  0.00     0.142 A 
ATOM      5  C   UNL     1      10.756 -46.199  37.638  1.00  0.00     0.022 A 
ATOM      6  C   UNL     1      12.107 -46.115  37.275  1.00  0.00     0.062 A 
ATOM      7  C   UNL     1       9.743 -45.716  36.804  1.00  0.00     0.019 A 
ATOM      8  C   UNL     1       8.413 -45.823  37.210  1.00  0.00     0.094 A 
ATOM      9  C   UNL     1       8.127 -46.412  38.446  1.00  0.00     0.336 A 
ATOM     10  O   UNL     1       6.933 -46.518  38.831  1.00  0.00    -0.246 OA
ATOM     11  O   UNL     1       9.111 -46.864  39.220  1.00  0.00    -0.423 OA
ENDROOT
BRANCH   1  12
ATOM     12  O   UNL     1      14.470 -46.545  37.809  1.00  0.00    -0.493 OA
ATOM     13  C   UNL     1      15.173 -47.540  37.070  1.00  0.00     0.278 C 
ENDBRANCH   1  12
BRANCH   2  14
ATOM     14  O   UNL     1      13.692 -47.692  40.246  1.00  0.00    -0.504 OA
ATOM     15  H   UNL     1      13.747 -48.675  40.482  1.00  0.00     0.293 HD
ENDBRANCH   2  14
TORSDOF 2
ENDMDL
MODEL 3
REMARK VINA RESULT:    -6.754      1.432      1.750
REMARK INTER + INTRA:          -7.398
REMARK INTER:                  -7.333
REMARK INTRA:                  -0.065
REMARK UNBOUND:                -0.051
REMARK SMILES COc1cc2ccc(=O)oc2cc1O
REMARK SMILES IDX 3 1 13 2 12 3 11 4 5 5 4 6 6 7 7 8 8 9 9 10 10 11 2 12 1 13
REMARK SMILES IDX 14 14
REMARK H PARENT 14 15
REMARK Flexibility Score: inf
ROOT
ATOM      1  C   UNL     1       8.796 -46.491  36.353  1.00  0.00     0.161 A 
ATOM      2  C   UNL     1       8.357 -47.210  37.482  1.00  0.00     0.161 A 
ATOM      3  C   UNL     1       9.257 -47.541  38.501  1.00  0.00     0.098 A 
ATOM      4  C   UNL     1      10.598 -47.165  38.409  1.00  0.00     0.142 A 
ATOM      5  C   UNL     1      11.049 -46.445  37.283  1.00  0.00     0.022 A 
ATOM      6  C   UNL     1      10.151 -46.111  36.261  1.00  0.00     0.062 A 
ATOM      7  C   UNL     1      12.398 -46.082  37.220  1.00  0.00     0.019 A 
ATOM      8  C   UNL     1      13.252 -46.438  38.264  1.00  0.00     0.094 A 
ATOM      9  C   UNL     1      12.735 -47.152  39.350  1.00  0.00     0.336 A 
ATOM     10  O   UNL     1      13.490 -47.484  40.301  1.00  0.00    -0.246 OA
ATOM     11  O   UNL     1      11.447 -47.486  39.384  1.00  0.00    -0.423 OA
ENDROOT
BRANCH   1  12
ATOM     12  O   UNL     1       7.866 -46.174  35.349  1.00  0.00    -0.493 OA
ATOM     13  C   UNL     1       7.703 -46.906  34.138  1.00  0.00     0.278 C 
ENDBRANCH   1  12
BRANCH   2  14
ATOM     14  O   UNL     1       7.024 -47.604  37.609  1.00  0.00    -0.504 OA
ATOM     15  H   UNL     1       6.687 -48.117  38.414  1.00  0.00     0.293 HD
ENDBRANCH   2  14
TORSDOF 2
ENDMDL
MODEL 4
REMARK VINA RESULT:    -6.705      1.305      2.445
REMARK INTER + INTRA:          -7.345
REMARK INTER:                  -7.321
REMARK INTRA:                  -0.024
REMARK UNBOUND:                -0.051
REMARK SMILES COc1cc2ccc(=O)oc2cc1O
REMARK SMILES IDX 3 1 13 2 12 3 11 4 5 5 4 6 6 7 7 8 8 9 9 10 10 11 2 12 1 13
REMARK SMILES IDX 14 14
REMARK H PARENT 14 15
REMARK Flexibility Score: inf
ROOT
ATOM      1  C   UNL     1       9.640 -46.185  38.495  1.00  0.00     0.161 A 
ATOM      2  C   UNL     1       9.751 -45.727  37.168  1.00  0.00     0.161 A 
ATOM      3  C   UNL     1      10.985 -45.768  36.509  1.00  0.00     0.098 A 
ATOM      4  C   UNL     1      12.117 -46.263  37.159  1.00  0.00     0.142 A 
ATOM      5  C   UNL     1      12.017 -46.725  38.488  1.00  0.00     0.022 A 
ATOM      6  C   UNL     1      10.784 -46.686  39.151  1.00  0.00     0.062 A 
ATOM      7  C   UNL     1      13.169 -47.215  39.112  1.00  0.00     0.019 A 
ATOM      8  C   UNL     1      14.373 -47.234  38.409  1.00  0.00     0.094 A 
ATOM      9  C   UNL     1      14.398 -46.759  37.093  1.00  0.00     0.336 A 
ATOM     10  O   UNL     1      15.475 -46.767  36.442  1.00  0.00    -0.246 OA
ATOM     11  O   UNL     1      13.287 -46.298  36.523  1.00  0.00    -0.423 OA
ENDROOT
BRANCH   1  12
ATOM     12  O   UNL     1       8.386 -46.130  39.126  1.00  0.00    -0.493 OA
ATOM     13  C   UNL     1       7.371 -47.121  38.996  1.00  0.00     0.278 C 
ENDBRANCH   1  12
BRANCH   2  14
ATOM     14  O   UNL     1       8.642 -45.225  36.486  1.00  0.00    -0.504 OA
ATOM     15  H   UNL     1       8.733 -44.617  35.681  1.00  0.00     0.293 HD
ENDBRANCH   2  14
TORSDOF 2
ENDMDL
MODEL 5
REMARK VINA RESULT:    -6.687      4.134      8.371
REMARK INTER + INTRA:          -7.324
REMARK INTER:                  -7.268
REMARK INTRA:                  -0.057
REMARK UNBOUND:                -0.051
REMARK SMILES COc1cc2ccc(=O)oc2cc1O
REMARK SMILES IDX 3 1 13 2 12 3 11 4 5 5 4 6 6 7 7 8 8 9 9 10 10 11 2 12 1 13
REMARK SMILES IDX 14 14
REMARK H PARENT 14 15
REMARK Flexibility Score: inf
ROOT
ATOM      1  C   UNL     1       9.351 -45.352  33.552  1.00  0.00     0.161 A 
ATOM      2  C   UNL     1       9.185 -44.063  33.007  1.00  0.00     0.161 A 
ATOM      3  C   UNL     1       8.073 -43.773  32.209  1.00  0.00     0.098 A 
ATOM      4  C   UNL     1       7.117 -44.755  31.945  1.00  0.00     0.142 A 
ATOM      5  C   UNL     1       7.273 -46.049  32.486  1.00  0.00     0.022 A 
ATOM      6  C   UNL     1       8.384 -46.344  33.285  1.00  0.00     0.062 A 
ATOM      7  C   UNL     1       6.298 -47.011  32.203  1.00  0.00     0.019 A 
ATOM      8  C   UNL     1       5.209 -46.668  31.402  1.00  0.00     0.094 A 
ATOM      9  C   UNL     1       5.121 -45.366  30.899  1.00  0.00     0.336 A 
ATOM     10  O   UNL     1       4.146 -45.037  30.174  1.00  0.00    -0.246 OA
ATOM     11  O   UNL     1       6.062 -44.469  31.184  1.00  0.00    -0.423 OA
ENDROOT
BRANCH   1  12
ATOM     12  O   UNL     1      10.478 -45.609  34.349  1.00  0.00    -0.493 OA
ATOM     13  C   UNL     1      10.428 -46.055  35.701  1.00  0.00     0.278 C 
ENDBRANCH   1  12
BRANCH   2  14
ATOM     14  O   UNL     1      10.120 -43.056  33.248  1.00  0.00    -0.504 OA
ATOM     15  H   UNL     1      10.044 -42.137  32.830  1.00  0.00     0.293 HD
ENDBRANCH   2  14
TORSDOF 2
ENDMDL
MODEL 6
REMARK VINA RESULT:    -6.673      2.038      3.289
REMARK INTER + INTRA:          -7.309
REMARK INTER:                  -7.244
REMARK INTRA:                  -0.065
REMARK UNBOUND:                -0.051
REMARK SMILES COc1cc2ccc(=O)oc2cc1O
REMARK SMILES IDX 3 1 13 2 12 3 11 4 5 5 4 6 6 7 7 8 8 9 9 10 10 11 2 12 1 13
REMARK SMILES IDX 14 14
REMARK H PARENT 14 15
REMARK Flexibility Score: inf
ROOT
ATOM      1  C   UNL     1       8.915 -46.197  35.265  1.00  0.00     0.161 A 
ATOM      2  C   UNL     1      10.204 -45.746  34.918  1.00  0.00     0.161 A 
ATOM      3  C   UNL     1      11.255 -45.842  35.837  1.00  0.00     0.098 A 
ATOM      4  C   UNL     1      11.038 -46.383  37.105  1.00  0.00     0.142 A 
ATOM      5  C   UNL     1       9.752 -46.837  37.463  1.00  0.00     0.022 A 
ATOM      6  C   UNL     1       8.697 -46.744  36.546  1.00  0.00     0.062 A 
ATOM      7  C   UNL     1       9.566 -47.375  38.740  1.00  0.00     0.019 A 
ATOM      8  C   UNL     1      10.648 -47.446  39.617  1.00  0.00     0.094 A 
ATOM      9  C   UNL     1      11.896 -46.976  39.194  1.00  0.00     0.336 A 
ATOM     10  O   UNL     1      12.885 -47.031  39.971  1.00  0.00    -0.246 OA
ATOM     11  O   UNL     1      12.045 -46.469  37.973  1.00  0.00    -0.423 OA
ENDROOT
BRANCH   1  12
ATOM     12  O   UNL     1       7.883 -46.087  34.318  1.00  0.00    -0.493 OA
ATOM     13  C   UNL     1       7.442 -47.148  33.477  1.00  0.00     0.278 C 
ENDBRANCH   1  12
BRANCH   2  14
ATOM     14  O   UNL     1      10.459 -45.199  33.660  1.00  0.00    -0.504 OA
ATOM     15  H   UNL     1      10.010 -44.351  33.338  1.00  0.00     0.293 HD
ENDBRANCH   2  14
TORSDOF 2
ENDMDL
MODEL 7
REMARK VINA RESULT:    -6.563      3.189      5.537
REMARK INTER + INTRA:          -7.190
REMARK INTER:                  -7.132
REMARK INTRA:                  -0.058
REMARK UNBOUND:                -0.051
REMARK SMILES COc1cc2ccc(=O)oc2cc1O
REMARK SMILES IDX 3 1 13 2 12 3 11 4 5 5 4 6 6 7 7 8 8 9 9 10 10 11 2 12 1 13
REMARK SMILES IDX 14 14
REMARK H PARENT 14 15
REMARK Flexibility Score: inf
ROOT
ATOM      1  C   UNL     1       7.511 -46.346  32.282  1.00  0.00     0.161 A 
ATOM      2  C   UNL     1       8.601 -45.593  31.803  1.00  0.00     0.161 A 
ATOM      3  C   UNL     1       9.701 -45.340  32.630  1.00  0.00     0.098 A 
ATOM      4  C   UNL     1       9.730 -45.829  33.937  1.00  0.00     0.142 A 
ATOM      5  C   UNL     1       8.644 -46.584  34.427  1.00  0.00     0.022 A 
ATOM      6  C   UNL     1       7.541 -46.841  33.603  1.00  0.00     0.062 A 
ATOM      7  C   UNL     1       8.703 -47.060  35.741  1.00  0.00     0.019 A 
ATOM      8  C   UNL     1       9.823 -46.778  36.522  1.00  0.00     0.094 A 
ATOM      9  C   UNL     1      10.862 -46.022  35.970  1.00  0.00     0.336 A 
ATOM     10  O   UNL     1      11.881 -45.756  36.659  1.00  0.00    -0.246 OA
ATOM     11  O   UNL     1      10.781 -45.581  34.717  1.00  0.00    -0.423 OA
ENDROOT
BRANCH   1  12
ATOM     12  O   UNL     1       6.424 -46.583  31.425  1.00  0.00    -0.493 OA
ATOM     13  C   UNL     1       5.088 -46.158  31.677  1.00  0.00     0.278 C 
ENDBRANCH   1  12
BRANCH   2  14
ATOM     14  O   UNL     1       8.608 -45.087  30.502  1.00  0.00    -0.504 OA
ATOM     15  H   UNL     1       8.879 -45.649  29.705  1.00  0.00     0.293 HD
ENDBRANCH   2  14
TORSDOF 2
ENDMDL
MODEL 8
REMARK VINA RESULT:    -6.446      2.043      3.345
REMARK INTER + INTRA:          -7.062
REMARK INTER:                  -6.998
REMARK INTRA:                  -0.065
REMARK UNBOUND:                -0.051
REMARK SMILES COc1cc2ccc(=O)oc2cc1O
REMARK SMILES IDX 3 1 13 2 12 3 11 4 5 5 4 6 6 7 7 8 8 9 9 10 10 11 2 12 1 13
REMARK SMILES IDX 14 14
REMARK H PARENT 14 15
REMARK Flexibility Score: inf
ROOT
ATOM      1  C   UNL     1       9.272 -45.961  34.280  1.00  0.00     0.161 A 
ATOM      2  C   UNL     1       8.242 -46.629  34.970  1.00  0.00     0.161 A 
ATOM      3  C   UNL     1       8.431 -47.037  36.295  1.00  0.00     0.098 A 
ATOM      4  C   UNL     1       9.641 -46.787  36.946  1.00  0.00     0.142 A 
ATOM      5  C   UNL     1      10.679 -46.119  36.264  1.00  0.00     0.022 A 
ATOM      6  C   UNL     1      10.494 -45.709  34.937  1.00  0.00     0.062 A 
ATOM      7  C   UNL     1      11.879 -45.884  36.942  1.00  0.00     0.019 A 
ATOM      8  C   UNL     1      12.015 -46.312  38.262  1.00  0.00     0.094 A 
ATOM      9  C   UNL     1      10.943 -46.968  38.876  1.00  0.00     0.336 A 
ATOM     10  O   UNL     1      11.045 -47.363  40.067  1.00  0.00    -0.246 OA
ATOM     11  O   UNL     1       9.811 -47.180  38.207  1.00  0.00    -0.423 OA
ENDROOT
BRANCH   1  12
ATOM     12  O   UNL     1       9.049 -45.565  32.950  1.00  0.00    -0.493 OA
ATOM     13  C   UNL     1       8.648 -44.257  32.553  1.00  0.00     0.278 C 
ENDBRANCH   1  12
BRANCH   2  14
ATOM     14  O   UNL     1       7.019 -46.896  34.353  1.00  0.00    -0.504 OA
ATOM     15  H   UNL     1       6.679 -46.353  33.570  1.00  0.00     0.293 HD
ENDBRANCH   2  14
TORSDOF 2
ENDMDL
MODEL 9
REMARK VINA RESULT:    -6.367      1.745      5.029
REMARK INTER + INTRA:          -6.977
REMARK INTER:                  -6.933
REMARK INTRA:                  -0.044
REMARK UNBOUND:                -0.051
REMARK SMILES COc1cc2ccc(=O)oc2cc1O
REMARK SMILES IDX 3 1 13 2 12 3 11 4 5 5 4 6 6 7 7 8 8 9 9 10 10 11 2 12 1 13
REMARK SMILES IDX 14 14
REMARK H PARENT 14 15
REMARK Flexibility Score: inf
ROOT
ATOM      1  C   UNL     1      12.666 -46.889  39.191  1.00  0.00     0.161 A 
ATOM      2  C   UNL     1      13.608 -46.507  38.216  1.00  0.00     0.161 A 
ATOM      3  C   UNL     1      13.184 -46.125  36.938  1.00  0.00     0.098 A 
ATOM      4  C   UNL     1      11.826 -46.120  36.616  1.00  0.00     0.142 A 
ATOM      5  C   UNL     1      10.874 -46.500  37.584  1.00  0.00     0.022 A 
ATOM      6  C   UNL     1      11.293 -46.883  38.865  1.00  0.00     0.062 A 
ATOM      7  C   UNL     1       9.521 -46.484  37.232  1.00  0.00     0.019 A 
ATOM      8  C   UNL     1       9.153 -46.096  35.944  1.00  0.00     0.094 A 
ATOM      9  C   UNL     1      10.152 -45.731  35.035  1.00  0.00     0.336 A 
ATOM     10  O   UNL     1       9.841 -45.377  33.867  1.00  0.00    -0.246 OA
ATOM     11  O   UNL     1      11.433 -45.755  35.396  1.00  0.00    -0.423 OA
ENDROOT
BRANCH   1  12
ATOM     12  O   UNL     1      13.125 -47.266  40.464  1.00  0.00    -0.493 OA
ATOM     13  C   UNL     1      12.332 -47.250  41.646  1.00  0.00     0.278 C 
ENDBRANCH   1  12
BRANCH   2  14
ATOM     14  O   UNL     1      14.974 -46.500  38.500  1.00  0.00    -0.504 OA
ATOM     15  H   UNL     1      15.623 -45.892  38.017  1.00  0.00     0.293 HD
ENDBRANCH   2  14
TORSDOF 2
ENDMDL
