MODEL 1
REMARK VINA RESULT:    -3.867      0.000      0.000
REMARK INTER + INTRA:          -4.016
REMARK INTER:                  -4.771
REMARK INTRA:                   0.754
REMARK UNBOUND:                 0.754
REMARK SMILES CC1=CC=CC(C)(C)CC1=O
REMARK SMILES IDX 1 1 2 2 3 3 10 4 11 5 9 6 4 8 5 9 6 10 7 11 8 12
REMARK H PARENT
REMARK Flexibility Score: 80.00
ROOT
ATOM      1  C   UNL     1     -16.375 -36.681  -3.943  1.00  0.00     0.048 C 
ATOM      2  C   UNL     1     -17.050 -37.946  -4.418  1.00  0.00    -0.008 C 
ATOM      3  C   UNL     1     -18.384 -38.054  -4.228  1.00  0.00     0.007 C 
ENDROOT
BRANCH   2   4
ATOM      4  C   UNL     1     -16.203 -38.940  -5.126  1.00  0.00     0.159 C 
ATOM      5  O   UNL     1     -15.041 -38.604  -5.482  1.00  0.00    -0.295 OA
BRANCH   4   6
ATOM      6  C   UNL     1     -16.649 -40.336  -5.432  1.00  0.00     0.091 CG0
ATOM      7  G   UNL     1     -17.910 -40.391  -6.324  1.00  0.00     0.000 G0
ENDBRANCH   4   6
ENDBRANCH   2   4
BRANCH   3   8
ATOM      8  C   UNL     1     -19.313 -39.145  -4.603  1.00  0.00    -0.003 C 
ATOM      9  C   UNL     1     -19.142 -40.131  -5.494  1.00  0.00    -0.020 C 
BRANCH   9  10
ATOM     10  C   UNL     1     -17.908 -40.382  -6.328  1.00  0.00    -0.010 CG0
ATOM     11  C   UNL     1     -18.009 -41.804  -6.926  1.00  0.00     0.016 C 
ATOM     12  C   UNL     1     -17.849 -39.375  -7.499  1.00  0.00     0.016 C 
ATOM     13  G   UNL     1     -16.652 -40.326  -5.430  1.00  0.00     0.000 G0
ENDBRANCH   9  10
ENDBRANCH   3   8
TORSDOF 0
ENDMDL
MODEL 2
REMARK VINA RESULT:    -3.786      1.799      2.738
REMARK INTER + INTRA:          -3.917
REMARK INTER:                  -4.672
REMARK INTRA:                   0.754
REMARK UNBOUND:                 0.754
REMARK SMILES CC1=CC=CC(C)(C)CC1=O
REMARK SMILES IDX 1 1 2 2 3 3 10 4 11 5 9 6 4 8 5 9 6 10 7 11 8 12
REMARK H PARENT
REMARK Flexibility Score: 80.00
ROOT
ATOM      1  C   UNL     1     -18.271 -37.857  -3.356  1.00  0.00     0.048 C 
ATOM      2  C   UNL     1     -17.577 -38.338  -4.608  1.00  0.00    -0.008 C 
ATOM      3  C   UNL     1     -16.237 -38.184  -4.679  1.00  0.00     0.007 C 
ENDROOT
BRANCH   2   4
ATOM      4  C   UNL     1     -18.417 -39.012  -5.630  1.00  0.00     0.159 C 
ATOM      5  O   UNL     1     -19.605 -39.319  -5.335  1.00  0.00    -0.295 OA
BRANCH   4   6
ATOM      6  C   UNL     1     -17.935 -39.340  -7.009  1.00  0.00     0.091 CG0
ATOM      7  G   UNL     1     -16.698 -40.265  -7.019  1.00  0.00     0.000 G0
ENDBRANCH   4   6
ENDBRANCH   2   4
BRANCH   3   8
ATOM      8  C   UNL     1     -15.289 -38.575  -5.749  1.00  0.00    -0.003 C 
ATOM      9  C   UNL     1     -15.457 -39.457  -6.743  1.00  0.00    -0.020 C 
BRANCH   9  10
ATOM     10  C   UNL     1     -16.702 -40.264  -7.028  1.00  0.00    -0.010 CG0
ATOM     11  C   UNL     1     -16.579 -40.859  -8.449  1.00  0.00     0.016 C 
ATOM     12  C   UNL     1     -16.811 -41.437  -6.027  1.00  0.00     0.016 C 
ATOM     13  G   UNL     1     -17.939 -39.339  -6.999  1.00  0.00     0.000 G0
ENDBRANCH   9  10
ENDBRANCH   3   8
TORSDOF 0
ENDMDL
MODEL 3
REMARK VINA RESULT:    -3.630      2.057      3.294
REMARK INTER + INTRA:          -3.725
REMARK INTER:                  -4.484
REMARK INTRA:                   0.759
REMARK UNBOUND:                 0.754
REMARK SMILES CC1=CC=CC(C)(C)CC1=O
REMARK SMILES IDX 1 1 2 2 3 3 10 4 11 5 9 6 4 8 5 9 6 10 7 11 8 12
REMARK H PARENT
REMARK Flexibility Score: 80.00
ROOT
ATOM      1  C   UNL     1     -15.753 -38.784  -5.404  1.00  0.00     0.048 C 
ATOM      2  C   UNL     1     -16.619 -39.253  -6.549  1.00  0.00    -0.008 C 
ATOM      3  C   UNL     1     -16.000 -39.620  -7.692  1.00  0.00     0.007 C 
ENDROOT
BRANCH   2   4
ATOM      4  C   UNL     1     -18.080 -39.343  -6.299  1.00  0.00     0.159 C 
ATOM      5  O   UNL     1     -18.502 -39.229  -5.115  1.00  0.00    -0.295 OA
BRANCH   4   6
ATOM      6  C   UNL     1     -19.092 -39.552  -7.382  1.00  0.00     0.091 CG0
ATOM      7  G   UNL     1     -18.887 -40.870  -8.162  1.00  0.00     0.000 G0
ENDBRANCH   4   6
ENDBRANCH   2   4
BRANCH   3   8
ATOM      8  C   UNL     1     -16.570 -40.139  -8.958  1.00  0.00    -0.003 C 
ATOM      9  C   UNL     1     -17.774 -40.681  -9.182  1.00  0.00    -0.020 C 
BRANCH   9  10
ATOM     10  C   UNL     1     -18.877 -40.868  -8.167  1.00  0.00    -0.010 CG0
ATOM     11  C   UNL     1     -20.185 -41.191  -8.926  1.00  0.00     0.016 C 
ATOM     12  C   UNL     1     -18.550 -42.067  -7.248  1.00  0.00     0.016 C 
ATOM     13  G   UNL     1     -19.090 -39.555  -7.380  1.00  0.00     0.000 G0
ENDBRANCH   9  10
ENDBRANCH   3   8
TORSDOF 0
ENDMDL
MODEL 4
REMARK VINA RESULT:    -3.559      2.136      3.224
REMARK INTER + INTRA:          -3.637
REMARK INTER:                  -4.394
REMARK INTRA:                   0.758
REMARK UNBOUND:                 0.754
REMARK SMILES CC1=CC=CC(C)(C)CC1=O
REMARK SMILES IDX 1 1 2 2 3 3 10 4 11 5 9 6 4 8 5 9 6 10 7 11 8 12
REMARK H PARENT
REMARK Flexibility Score: 80.00
ROOT
ATOM      1  C   UNL     1     -16.037 -38.842  -5.180  1.00  0.00     0.048 C 
ATOM      2  C   UNL     1     -17.431 -38.941  -5.753  1.00  0.00    -0.008 C 
ATOM      3  C   UNL     1     -17.555 -39.392  -7.021  1.00  0.00     0.007 C 
ENDROOT
BRANCH   2   4
ATOM      4  C   UNL     1     -18.559 -38.606  -4.848  1.00  0.00     0.159 C 
ATOM      5  O   UNL     1     -18.326 -38.447  -3.619  1.00  0.00    -0.295 OA
BRANCH   4   6
ATOM      6  C   UNL     1     -19.970 -38.431  -5.318  1.00  0.00     0.091 CG0
ATOM      7  G   UNL     1     -20.540 -39.687  -6.016  1.00  0.00     0.000 G0
ENDBRANCH   4   6
ENDBRANCH   2   4
BRANCH   3   8
ATOM      8  C   UNL     1     -18.773 -39.620  -7.834  1.00  0.00    -0.003 C 
ATOM      9  C   UNL     1     -20.042 -39.762  -7.431  1.00  0.00    -0.020 C 
BRANCH   9  10
ATOM     10  C   UNL     1     -20.546 -39.694  -6.008  1.00  0.00    -0.010 CG0
ATOM     11  C   UNL     1     -22.085 -39.555  -6.046  1.00  0.00     0.016 C 
ATOM     12  C   UNL     1     -20.203 -41.005  -5.264  1.00  0.00     0.016 C 
ATOM     13  G   UNL     1     -19.967 -38.443  -5.310  1.00  0.00     0.000 G0
ENDBRANCH   9  10
ENDBRANCH   3   8
TORSDOF 0
ENDMDL
MODEL 5
REMARK VINA RESULT:    -3.547      1.695      2.349
REMARK INTER + INTRA:          -3.622
REMARK INTER:                  -4.374
REMARK INTRA:                   0.752
REMARK UNBOUND:                 0.754
REMARK SMILES CC1=CC=CC(C)(C)CC1=O
REMARK SMILES IDX 1 1 2 2 3 3 10 4 11 5 9 6 4 8 5 9 6 10 7 11 8 12
REMARK H PARENT
REMARK Flexibility Score: 80.00
ROOT
ATOM      1  C   UNL     1     -16.438 -38.590  -4.880  1.00  0.00     0.048 C 
ATOM      2  C   UNL     1     -17.206 -39.463  -5.844  1.00  0.00    -0.008 C 
ATOM      3  C   UNL     1     -18.345 -38.963  -6.371  1.00  0.00     0.007 C 
ENDROOT
BRANCH   2   4
ATOM      4  C   UNL     1     -16.605 -40.775  -6.193  1.00  0.00     0.159 C 
ATOM      5  O   UNL     1     -15.424 -41.022  -5.821  1.00  0.00    -0.295 OA
BRANCH   4   6
ATOM      6  C   UNL     1     -17.329 -41.839  -6.957  1.00  0.00     0.091 CG0
ATOM      7  G   UNL     1     -17.802 -41.372  -8.352  1.00  0.00     0.000 G0
ENDBRANCH   4   6
ENDBRANCH   2   4
BRANCH   3   8
ATOM      8  C   UNL     1     -19.284 -39.563  -7.348  1.00  0.00    -0.003 C 
ATOM      9  C   UNL     1     -19.081 -40.573  -8.204  1.00  0.00    -0.020 C 
BRANCH   9  10
ATOM     10  C   UNL     1     -17.813 -41.380  -8.355  1.00  0.00    -0.010 CG0
ATOM     11  C   UNL     1     -18.140 -42.646  -9.180  1.00  0.00     0.016 C 
ATOM     12  C   UNL     1     -16.758 -40.562  -9.134  1.00  0.00     0.016 C 
ATOM     13  G   UNL     1     -17.312 -41.829  -6.964  1.00  0.00     0.000 G0
ENDBRANCH   9  10
ENDBRANCH   3   8
TORSDOF 0
ENDMDL
MODEL 6
REMARK VINA RESULT:    -3.542      1.841      2.698
REMARK INTER + INTRA:          -3.616
REMARK INTER:                  -4.657
REMARK INTRA:                   1.042
REMARK UNBOUND:                 0.754
REMARK SMILES CC1=CC=CC(C)(C)CC1=O
REMARK SMILES IDX 1 1 2 2 3 3 10 4 11 5 9 6 4 8 5 9 6 10 7 11 8 12
REMARK H PARENT
REMARK Flexibility Score: 80.00
ROOT
ATOM      1  C   UNL     1     -17.549 -35.623  -3.877  1.00  0.00     0.048 C 
ATOM      2  C   UNL     1     -17.521 -37.083  -4.265  1.00  0.00    -0.008 C 
ATOM      3  C   UNL     1     -16.331 -37.613  -4.624  1.00  0.00     0.007 C 
ENDROOT
BRANCH   2   4
ATOM      4  C   UNL     1     -18.794 -37.838  -4.146  1.00  0.00     0.159 C 
ATOM      5  O   UNL     1     -19.873 -37.196  -4.018  1.00  0.00    -0.295 OA
BRANCH   4   6
ATOM      6  C   UNL     1     -18.874 -39.333  -4.183  1.00  0.00     0.091 CG0
ATOM      7  G   UNL     1     -18.297 -39.942  -5.480  1.00  0.00     0.000 G0
ENDBRANCH   4   6
ENDBRANCH   2   4
BRANCH   3   8
ATOM      8  C   UNL     1     -15.989 -38.998  -5.024  1.00  0.00    -0.003 C 
ATOM      9  C   UNL     1     -16.804 -40.001  -5.376  1.00  0.00    -0.020 C 
BRANCH   9  10
ATOM     10  C   UNL     1     -18.310 -39.941  -5.477  1.00  0.00    -0.010 CG0
ATOM     11  C   UNL     1     -18.679 -39.020  -6.663  1.00  0.00     0.016 C 
ATOM     12  C   UNL     1     -18.875 -41.349  -5.771  1.00  0.00     0.016 C 
ATOM     13  G   UNL     1     -18.894 -39.321  -4.187  1.00  0.00     0.000 G0
ENDBRANCH   9  10
ENDBRANCH   3   8
TORSDOF 0
ENDMDL
MODEL 7
REMARK VINA RESULT:    -3.471      1.969      2.361
REMARK INTER + INTRA:          -3.529
REMARK INTER:                  -4.282
REMARK INTRA:                   0.754
REMARK UNBOUND:                 0.754
REMARK SMILES CC1=CC=CC(C)(C)CC1=O
REMARK SMILES IDX 1 1 2 2 3 3 10 4 11 5 9 6 4 8 5 9 6 10 7 11 8 12
REMARK H PARENT
REMARK Flexibility Score: 80.00
ROOT
ATOM      1  C   UNL     1     -18.430 -36.430  -3.937  1.00  0.00     0.048 C 
ATOM      2  C   UNL     1     -19.236 -37.511  -4.617  1.00  0.00    -0.008 C 
ATOM      3  C   UNL     1     -20.429 -37.163  -5.147  1.00  0.00     0.007 C 
ENDROOT
BRANCH   2   4
ATOM      4  C   UNL     1     -18.615 -38.856  -4.714  1.00  0.00     0.159 C 
ATOM      5  O   UNL     1     -17.394 -38.986  -4.423  1.00  0.00    -0.295 OA
BRANCH   4   6
ATOM      6  C   UNL     1     -19.366 -40.084  -5.128  1.00  0.00     0.091 CG0
ATOM      7  G   UNL     1     -19.958 -39.985  -6.552  1.00  0.00     0.000 G0
ENDBRANCH   4   6
ENDBRANCH   2   4
BRANCH   3   8
ATOM      8  C   UNL     1     -21.417 -37.983  -5.887  1.00  0.00    -0.003 C 
ATOM      9  C   UNL     1     -21.246 -39.164  -6.495  1.00  0.00    -0.020 C 
BRANCH   9  10
ATOM     10  C   UNL     1     -19.971 -39.973  -6.545  1.00  0.00    -0.010 CG0
ATOM     11  C   UNL     1     -20.322 -41.401  -7.023  1.00  0.00     0.016 C 
ATOM     12  C   UNL     1     -18.993 -39.353  -7.568  1.00  0.00     0.016 C 
ATOM     13  G   UNL     1     -19.365 -40.077  -5.127  1.00  0.00     0.000 G0
ENDBRANCH   9  10
ENDBRANCH   3   8
TORSDOF 0
ENDMDL
MODEL 8
REMARK VINA RESULT:    -3.369      2.183      3.850
REMARK INTER + INTRA:          -3.402
REMARK INTER:                  -4.158
REMARK INTRA:                   0.756
REMARK UNBOUND:                 0.754
REMARK SMILES CC1=CC=CC(C)(C)CC1=O
REMARK SMILES IDX 1 1 2 2 3 3 10 4 11 5 9 6 4 8 5 9 6 10 7 11 8 12
REMARK H PARENT
REMARK Flexibility Score: 80.00
ROOT
ATOM      1  C   UNL     1     -19.606 -41.802  -8.749  1.00  0.00     0.048 C 
ATOM      2  C   UNL     1     -18.716 -40.845  -7.992  1.00  0.00    -0.008 C 
ATOM      3  C   UNL     1     -19.273 -40.133  -6.988  1.00  0.00     0.007 C 
ENDROOT
BRANCH   2   4
ATOM      4  C   UNL     1     -17.279 -40.820  -8.364  1.00  0.00     0.159 C 
ATOM      5  O   UNL     1     -16.834 -41.715  -9.134  1.00  0.00    -0.295 OA
BRANCH   4   6
ATOM      6  C   UNL     1     -16.319 -39.776  -7.883  1.00  0.00     0.091 CG0
ATOM      7  G   UNL     1     -16.192 -39.727  -6.344  1.00  0.00     0.000 G0
ENDBRANCH   4   6
ENDBRANCH   2   4
BRANCH   3   8
ATOM      8  C   UNL     1     -18.660 -39.151  -6.063  1.00  0.00    -0.003 C 
ATOM      9  C   UNL     1     -17.367 -38.965  -5.767  1.00  0.00    -0.020 C 
BRANCH   9  10
ATOM     10  C   UNL     1     -16.194 -39.720  -6.348  1.00  0.00    -0.010 CG0
ATOM     11  C   UNL     1     -14.902 -38.943  -6.008  1.00  0.00     0.016 C 
ATOM     12  C   UNL     1     -16.095 -41.119  -5.700  1.00  0.00     0.016 C 
ATOM     13  G   UNL     1     -16.327 -39.783  -7.886  1.00  0.00     0.000 G0
ENDBRANCH   9  10
ENDBRANCH   3   8
TORSDOF 0
ENDMDL
