MODEL 1
REMARK VINA RESULT:    -5.303      0.000      0.000
REMARK INTER + INTRA:         -10.038
REMARK INTER:                  -9.023
REMARK INTRA:                  -1.015
REMARK UNBOUND:                -1.015
REMARK SMILES CCCCCCCCCCCCCC(=O)[O-]
REMARK SMILES IDX 8 1 9 2 10 3 11 4 12 5 13 6 14 7 15 8 16 9 7 10 6 11 5 12
REMARK SMILES IDX 4 13 3 14 2 15 1 16
REMARK H PARENT
REMARK Flexibility Score: inf
ROOT
ATOM      1  C   UNL     1      25.093  12.384  35.905  1.00  0.00     0.000 C 
ENDROOT
BRANCH   1   2
ATOM      2  C   UNL     1      25.857  11.284  35.150  1.00  0.00     0.000 C 
BRANCH   2   3
ATOM      3  C   UNL     1      27.364  11.564  35.055  1.00  0.00     0.000 C 
BRANCH   3   4
ATOM      4  C   UNL     1      27.627  13.039  34.718  1.00  0.00     0.000 C 
BRANCH   4   5
ATOM      5  C   UNL     1      27.468  13.343  33.219  1.00  0.00     0.006 C 
BRANCH   5   6
ATOM      6  C   UNL     1      28.271  12.380  32.334  1.00  0.00     0.053 C 
BRANCH   6   7
ATOM      7  C   UNL     1      27.370  11.706  31.348  1.00  0.00     0.041 C 
ATOM      8  O   UNL     1      27.801  10.757  30.641  1.00  0.00    -0.550 OA
ATOM      9  O   UNL     1      26.040  12.094  31.243  1.00  0.00    -0.550 OA
ENDBRANCH   6   7
ENDBRANCH   5   6
ENDBRANCH   4   5
ENDBRANCH   3   4
ENDBRANCH   2   3
ENDBRANCH   1   2
BRANCH   1  10
ATOM     10  C   UNL     1      23.569  12.269  35.732  1.00  0.00     0.000 C 
BRANCH  10  11
ATOM     11  C   UNL     1      23.088  10.810  35.632  1.00  0.00    -0.000 C 
BRANCH  11  12
ATOM     12  C   UNL     1      21.729  10.615  34.928  1.00  0.00    -0.000 C 
BRANCH  12  13
ATOM     13  C   UNL     1      20.493  10.952  35.784  1.00  0.00    -0.000 C 
BRANCH  13  14
ATOM     14  C   UNL     1      19.617  12.093  35.239  1.00  0.00    -0.000 C 
BRANCH  14  15
ATOM     15  C   UNL     1      20.192  13.483  35.543  1.00  0.00    -0.003 C 
ATOM     16  C   UNL     1      20.708  14.155  34.273  1.00  0.00     0.004 C 
ENDBRANCH  14  15
ENDBRANCH  13  14
ENDBRANCH  12  13
ENDBRANCH  11  12
ENDBRANCH  10  11
ENDBRANCH   1  10
TORSDOF 12
ENDMDL
MODEL 2
REMARK VINA RESULT:    -5.207      1.056      1.495
REMARK INTER + INTRA:          -9.875
REMARK INTER:                  -9.046
REMARK INTRA:                  -0.830
REMARK UNBOUND:                -1.015
REMARK SMILES CCCCCCCCCCCCCC(=O)[O-]
REMARK SMILES IDX 8 1 9 2 10 3 11 4 12 5 13 6 14 7 15 8 16 9 7 10 6 11 5 12
REMARK SMILES IDX 4 13 3 14 2 15 1 16
REMARK H PARENT
REMARK Flexibility Score: inf
ROOT
ATOM      1  C   UNL     1      24.706  11.598  35.779  1.00  0.00     0.000 C 
ENDROOT
BRANCH   1   2
ATOM      2  C   UNL     1      25.330  12.989  35.981  1.00  0.00     0.000 C 
BRANCH   2   3
ATOM      3  C   UNL     1      26.684  13.143  35.271  1.00  0.00     0.000 C 
BRANCH   3   4
ATOM      4  C   UNL     1      27.332  11.773  35.024  1.00  0.00     0.000 C 
BRANCH   4   5
ATOM      5  C   UNL     1      28.209  11.751  33.762  1.00  0.00     0.006 C 
BRANCH   5   6
ATOM      6  C   UNL     1      27.592  12.541  32.600  1.00  0.00     0.053 C 
BRANCH   6   7
ATOM      7  C   UNL     1      28.198  12.116  31.301  1.00  0.00     0.041 C 
ATOM      8  O   UNL     1      29.033  12.858  30.718  1.00  0.00    -0.550 OA
ATOM      9  O   UNL     1      27.879  10.879  30.756  1.00  0.00    -0.550 OA
ENDBRANCH   6   7
ENDBRANCH   5   6
ENDBRANCH   4   5
ENDBRANCH   3   4
ENDBRANCH   2   3
ENDBRANCH   1   2
BRANCH   1  10
ATOM     10  C   UNL     1      23.427  11.643  34.926  1.00  0.00     0.000 C 
BRANCH  10  11
ATOM     11  C   UNL     1      22.274  10.825  35.535  1.00  0.00    -0.000 C 
BRANCH  11  12
ATOM     12  C   UNL     1      20.865  11.214  35.043  1.00  0.00    -0.000 C 
BRANCH  12  13
ATOM     13  C   UNL     1      20.088  12.169  35.969  1.00  0.00    -0.000 C 
BRANCH  13  14
ATOM     14  C   UNL     1      19.663  13.499  35.323  1.00  0.00    -0.000 C 
BRANCH  14  15
ATOM     15  C   UNL     1      20.735  14.075  34.387  1.00  0.00    -0.003 C 
ATOM     16  C   UNL     1      20.213  14.191  32.958  1.00  0.00     0.004 C 
ENDBRANCH  14  15
ENDBRANCH  13  14
ENDBRANCH  12  13
ENDBRANCH  11  12
ENDBRANCH  10  11
ENDBRANCH   1  10
TORSDOF 12
ENDMDL
MODEL 3
REMARK VINA RESULT:    -5.197      0.921      2.075
REMARK INTER + INTRA:          -9.858
REMARK INTER:                  -8.614
REMARK INTRA:                  -1.244
REMARK UNBOUND:                -1.015
REMARK SMILES CCCCCCCCCCCCCC(=O)[O-]
REMARK SMILES IDX 8 1 9 2 10 3 11 4 12 5 13 6 14 7 15 8 16 9 7 10 6 11 5 12
REMARK SMILES IDX 4 13 3 14 2 15 1 16
REMARK H PARENT
REMARK Flexibility Score: inf
ROOT
ATOM      1  C   UNL     1      23.260  11.424  34.961  1.00  0.00     0.000 C 
ENDROOT
BRANCH   1   2
ATOM      2  C   UNL     1      23.926  12.420  35.926  1.00  0.00     0.000 C 
BRANCH   2   3
ATOM      3  C   UNL     1      25.435  12.569  35.679  1.00  0.00     0.000 C 
BRANCH   3   4
ATOM      4  C   UNL     1      26.034  11.259  35.145  1.00  0.00     0.000 C 
BRANCH   4   5
ATOM      5  C   UNL     1      27.544  11.363  34.878  1.00  0.00     0.006 C 
BRANCH   5   6
ATOM      6  C   UNL     1      27.923  12.643  34.120  1.00  0.00     0.053 C 
BRANCH   6   7
ATOM      7  C   UNL     1      27.471  12.557  32.697  1.00  0.00     0.041 C 
ATOM      8  O   UNL     1      26.581  13.337  32.266  1.00  0.00    -0.550 OA
ATOM      9  O   UNL     1      28.066  11.647  31.831  1.00  0.00    -0.550 OA
ENDBRANCH   6   7
ENDBRANCH   5   6
ENDBRANCH   4   5
ENDBRANCH   3   4
ENDBRANCH   2   3
ENDBRANCH   1   2
BRANCH   1  10
ATOM     10  C   UNL     1      22.440  10.350  35.696  1.00  0.00     0.000 C 
BRANCH  10  11
ATOM     11  C   UNL     1      21.093  10.055  35.011  1.00  0.00    -0.000 C 
BRANCH  11  12
ATOM     12  C   UNL     1      19.844  10.427  35.837  1.00  0.00    -0.000 C 
BRANCH  12  13
ATOM     13  C   UNL     1      19.000  11.583  35.265  1.00  0.00    -0.000 C 
BRANCH  13  14
ATOM     14  C   UNL     1      19.153  12.925  36.000  1.00  0.00    -0.000 C 
BRANCH  14  15
ATOM     15  C   UNL     1      20.394  13.711  35.556  1.00  0.00    -0.003 C 
ATOM     16  C   UNL     1      20.464  13.814  34.035  1.00  0.00     0.004 C 
ENDBRANCH  14  15
ENDBRANCH  13  14
ENDBRANCH  12  13
ENDBRANCH  11  12
ENDBRANCH  10  11
ENDBRANCH   1  10
TORSDOF 12
ENDMDL
MODEL 4
REMARK VINA RESULT:    -5.084      1.255      2.203
REMARK INTER + INTRA:          -9.664
REMARK INTER:                  -8.516
REMARK INTRA:                  -1.148
REMARK UNBOUND:                -1.015
REMARK SMILES CCCCCCCCCCCCCC(=O)[O-]
REMARK SMILES IDX 8 1 9 2 10 3 11 4 12 5 13 6 14 7 15 8 16 9 7 10 6 11 5 12
REMARK SMILES IDX 4 13 3 14 2 15 1 16
REMARK H PARENT
REMARK Flexibility Score: inf
ROOT
ATOM      1  C   UNL     1      23.115  11.115  35.521  1.00  0.00     0.000 C 
ENDROOT
BRANCH   1   2
ATOM      2  C   UNL     1      24.581  10.875  35.921  1.00  0.00     0.000 C 
BRANCH   2   3
ATOM      3  C   UNL     1      25.468  12.109  35.699  1.00  0.00     0.000 C 
BRANCH   3   4
ATOM      4  C   UNL     1      26.837  11.705  35.133  1.00  0.00     0.000 C 
BRANCH   4   5
ATOM      5  C   UNL     1      26.849  11.640  33.597  1.00  0.00     0.006 C 
BRANCH   5   6
ATOM      6  C   UNL     1      28.006  12.437  32.982  1.00  0.00     0.053 C 
BRANCH   6   7
ATOM      7  C   UNL     1      28.199  12.054  31.549  1.00  0.00     0.041 C 
ATOM      8  O   UNL     1      27.692  10.990  31.103  1.00  0.00    -0.550 OA
ATOM      9  O   UNL     1      28.900  12.893  30.692  1.00  0.00    -0.550 OA
ENDBRANCH   6   7
ENDBRANCH   5   6
ENDBRANCH   4   5
ENDBRANCH   3   4
ENDBRANCH   2   3
ENDBRANCH   1   2
BRANCH   1  10
ATOM     10  C   UNL     1      22.905  12.477  34.838  1.00  0.00     0.000 C 
BRANCH  10  11
ATOM     11  C   UNL     1      22.281  12.352  33.437  1.00  0.00    -0.000 C 
BRANCH  11  12
ATOM     12  C   UNL     1      21.101  13.306  33.159  1.00  0.00    -0.000 C 
BRANCH  12  13
ATOM     13  C   UNL     1      20.555  14.051  34.393  1.00  0.00    -0.000 C 
BRANCH  13  14
ATOM     14  C   UNL     1      19.234  13.497  34.954  1.00  0.00    -0.000 C 
BRANCH  14  15
ATOM     15  C   UNL     1      19.443  12.549  36.143  1.00  0.00    -0.003 C 
ATOM     16  C   UNL     1      19.400  11.090  35.697  1.00  0.00     0.004 C 
ENDBRANCH  14  15
ENDBRANCH  13  14
ENDBRANCH  12  13
ENDBRANCH  11  12
ENDBRANCH  10  11
ENDBRANCH   1  10
TORSDOF 12
ENDMDL
MODEL 5
REMARK VINA RESULT:    -5.070      2.915      6.652
REMARK INTER + INTRA:          -9.641
REMARK INTER:                  -8.441
REMARK INTRA:                  -1.200
REMARK UNBOUND:                -1.015
REMARK SMILES CCCCCCCCCCCCCC(=O)[O-]
REMARK SMILES IDX 8 1 9 2 10 3 11 4 12 5 13 6 14 7 15 8 16 9 7 10 6 11 5 12
REMARK SMILES IDX 4 13 3 14 2 15 1 16
REMARK H PARENT
REMARK Flexibility Score: inf
ROOT
ATOM      1  C   UNL     1      25.970  11.054  35.106  1.00  0.00     0.000 C 
ENDROOT
BRANCH   1   2
ATOM      2  C   UNL     1      25.342  12.077  36.066  1.00  0.00     0.000 C 
BRANCH   2   3
ATOM      3  C   UNL     1      23.839  12.280  35.820  1.00  0.00     0.000 C 
BRANCH   3   4
ATOM      4  C   UNL     1      23.411  11.642  34.490  1.00  0.00     0.000 C 
BRANCH   4   5
ATOM      5  C   UNL     1      21.930  11.889  34.162  1.00  0.00     0.006 C 
BRANCH   5   6
ATOM      6  C   UNL     1      21.067  12.050  35.420  1.00  0.00     0.053 C 
BRANCH   6   7
ATOM      7  C   UNL     1      20.287  13.325  35.356  1.00  0.00     0.041 C 
ATOM      8  O   UNL     1      19.269  13.483  36.082  1.00  0.00    -0.550 OA
ATOM      9  O   UNL     1      20.710  14.359  34.531  1.00  0.00    -0.550 OA
ENDBRANCH   6   7
ENDBRANCH   5   6
ENDBRANCH   4   5
ENDBRANCH   3   4
ENDBRANCH   2   3
ENDBRANCH   1   2
BRANCH   1  10
ATOM     10  C   UNL     1      27.461  11.327  34.846  1.00  0.00     0.000 C 
BRANCH  10  11
ATOM     11  C   UNL     1      27.834  12.811  35.013  1.00  0.00    -0.000 C 
BRANCH  11  12
ATOM     12  C   UNL     1      27.581  13.693  33.772  1.00  0.00    -0.000 C 
BRANCH  12  13
ATOM     13  C   UNL     1      27.672  12.961  32.419  1.00  0.00    -0.000 C 
BRANCH  13  14
ATOM     14  C   UNL     1      26.327  12.752  31.701  1.00  0.00    -0.000 C 
BRANCH  14  15
ATOM     15  C   UNL     1      26.435  11.803  30.500  1.00  0.00    -0.003 C 
ATOM     16  C   UNL     1      27.519  10.753  30.724  1.00  0.00     0.004 C 
ENDBRANCH  14  15
ENDBRANCH  13  14
ENDBRANCH  12  13
ENDBRANCH  11  12
ENDBRANCH  10  11
ENDBRANCH   1  10
TORSDOF 12
ENDMDL
MODEL 6
REMARK VINA RESULT:    -4.966      1.854      3.465
REMARK INTER + INTRA:          -9.465
REMARK INTER:                  -7.859
REMARK INTRA:                  -1.605
REMARK UNBOUND:                -1.015
REMARK SMILES CCCCCCCCCCCCCC(=O)[O-]
REMARK SMILES IDX 8 1 9 2 10 3 11 4 12 5 13 6 14 7 15 8 16 9 7 10 6 11 5 12
REMARK SMILES IDX 4 13 3 14 2 15 1 16
REMARK H PARENT
REMARK Flexibility Score: inf
ROOT
ATOM      1  C   UNL     1      23.133  12.198  33.036  1.00  0.00     0.000 C 
ENDROOT
BRANCH   1   2
ATOM      2  C   UNL     1      23.435  11.438  34.338  1.00  0.00     0.000 C 
BRANCH   2   3
ATOM      3  C   UNL     1      23.532  12.365  35.559  1.00  0.00     0.000 C 
BRANCH   3   4
ATOM      4  C   UNL     1      24.998  12.587  35.962  1.00  0.00     0.000 C 
BRANCH   4   5
ATOM      5  C   UNL     1      25.948  11.548  35.345  1.00  0.00     0.006 C 
BRANCH   5   6
ATOM      6  C   UNL     1      27.335  12.127  35.036  1.00  0.00     0.053 C 
BRANCH   6   7
ATOM      7  C   UNL     1      27.205  13.446  34.342  1.00  0.00     0.041 C 
ATOM      8  O   UNL     1      26.809  13.498  33.147  1.00  0.00    -0.550 OA
ATOM      9  O   UNL     1      27.477  14.623  35.028  1.00  0.00    -0.550 OA
ENDBRANCH   6   7
ENDBRANCH   5   6
ENDBRANCH   4   5
ENDBRANCH   3   4
ENDBRANCH   2   3
ENDBRANCH   1   2
BRANCH   1  10
ATOM     10  C   UNL     1      21.683  12.003  32.561  1.00  0.00     0.000 C 
BRANCH  10  11
ATOM     11  C   UNL     1      20.944  13.334  32.338  1.00  0.00    -0.000 C 
BRANCH  11  12
ATOM     12  C   UNL     1      19.852  13.660  33.378  1.00  0.00    -0.000 C 
BRANCH  12  13
ATOM     13  C   UNL     1      20.372  13.994  34.790  1.00  0.00    -0.000 C 
BRANCH  13  14
ATOM     14  C   UNL     1      19.846  13.078  35.910  1.00  0.00    -0.000 C 
BRANCH  14  15
ATOM     15  C   UNL     1      19.155  11.817  35.372  1.00  0.00    -0.003 C 
ATOM     16  C   UNL     1      20.014  10.577  35.607  1.00  0.00     0.004 C 
ENDBRANCH  14  15
ENDBRANCH  13  14
ENDBRANCH  12  13
ENDBRANCH  11  12
ENDBRANCH  10  11
ENDBRANCH   1  10
TORSDOF 12
ENDMDL
MODEL 7
REMARK VINA RESULT:    -4.953      2.342      4.473
REMARK INTER + INTRA:          -9.442
REMARK INTER:                  -7.952
REMARK INTRA:                  -1.490
REMARK UNBOUND:                -1.015
REMARK SMILES CCCCCCCCCCCCCC(=O)[O-]
REMARK SMILES IDX 8 1 9 2 10 3 11 4 12 5 13 6 14 7 15 8 16 9 7 10 6 11 5 12
REMARK SMILES IDX 4 13 3 14 2 15 1 16
REMARK H PARENT
REMARK Flexibility Score: inf
ROOT
ATOM      1  C   UNL     1      27.455  13.447  33.299  1.00  0.00     0.000 C 
ENDROOT
BRANCH   1   2
ATOM      2  C   UNL     1      27.930  12.531  32.159  1.00  0.00     0.000 C 
BRANCH   2   3
ATOM      3  C   UNL     1      26.778  12.047  31.265  1.00  0.00     0.000 C 
BRANCH   3   4
ATOM      4  C   UNL     1      25.809  13.196  30.950  1.00  0.00     0.000 C 
BRANCH   4   5
ATOM      5  C   UNL     1      24.343  12.738  30.894  1.00  0.00     0.006 C 
BRANCH   5   6
ATOM      6  C   UNL     1      23.821  12.263  32.256  1.00  0.00     0.053 C 
BRANCH   6   7
ATOM      7  C   UNL     1      22.332  12.125  32.223  1.00  0.00     0.041 C 
ATOM      8  O   UNL     1      21.602  12.991  32.775  1.00  0.00    -0.550 OA
ATOM      9  O   UNL     1      21.746  11.065  31.543  1.00  0.00    -0.550 OA
ENDBRANCH   6   7
ENDBRANCH   5   6
ENDBRANCH   4   5
ENDBRANCH   3   4
ENDBRANCH   2   3
ENDBRANCH   1   2
BRANCH   1  10
ATOM     10  C   UNL     1      27.855  12.917  34.687  1.00  0.00     0.000 C 
BRANCH  10  11
ATOM     11  C   UNL     1      27.444  11.449  34.906  1.00  0.00    -0.000 C 
BRANCH  11  12
ATOM     12  C   UNL     1      25.936  11.219  35.136  1.00  0.00    -0.000 C 
BRANCH  12  13
ATOM     13  C   UNL     1      25.175  12.416  35.739  1.00  0.00    -0.000 C 
BRANCH  13  14
ATOM     14  C   UNL     1      23.653  12.226  35.856  1.00  0.00    -0.000 C 
BRANCH  14  15
ATOM     15  C   UNL     1      23.215  10.772  35.633  1.00  0.00    -0.003 C 
ATOM     16  C   UNL     1      21.694  10.656  35.587  1.00  0.00     0.004 C 
ENDBRANCH  14  15
ENDBRANCH  13  14
ENDBRANCH  12  13
ENDBRANCH  11  12
ENDBRANCH  10  11
ENDBRANCH   1  10
TORSDOF 12
ENDMDL
MODEL 8
REMARK VINA RESULT:    -4.836      1.220      2.178
REMARK INTER + INTRA:          -9.243
REMARK INTER:                  -8.249
REMARK INTRA:                  -0.994
REMARK UNBOUND:                -1.015
REMARK SMILES CCCCCCCCCCCCCC(=O)[O-]
REMARK SMILES IDX 8 1 9 2 10 3 11 4 12 5 13 6 14 7 15 8 16 9 7 10 6 11 5 12
REMARK SMILES IDX 4 13 3 14 2 15 1 16
REMARK H PARENT
REMARK Flexibility Score: inf
ROOT
ATOM      1  C   UNL     1      26.459  10.793  35.121  1.00  0.00     0.000 C 
ENDROOT
BRANCH   1   2
ATOM      2  C   UNL     1      27.653  11.656  34.680  1.00  0.00     0.000 C 
BRANCH   2   3
ATOM      3  C   UNL     1      27.373  13.162  34.791  1.00  0.00     0.000 C 
BRANCH   3   4
ATOM      4  C   UNL     1      27.219  13.794  33.399  1.00  0.00     0.000 C 
BRANCH   4   5
ATOM      5  C   UNL     1      26.255  13.009  32.494  1.00  0.00     0.006 C 
BRANCH   5   6
ATOM      6  C   UNL     1      26.715  12.977  31.031  1.00  0.00     0.053 C 
BRANCH   6   7
ATOM      7  C   UNL     1      27.946  12.138  30.890  1.00  0.00     0.041 C 
ATOM      8  O   UNL     1      27.863  10.881  30.918  1.00  0.00    -0.550 OA
ATOM      9  O   UNL     1      29.180  12.741  30.681  1.00  0.00    -0.550 OA
ENDBRANCH   6   7
ENDBRANCH   5   6
ENDBRANCH   4   5
ENDBRANCH   3   4
ENDBRANCH   2   3
ENDBRANCH   1   2
BRANCH   1  10
ATOM     10  C   UNL     1      25.357  11.619  35.806  1.00  0.00     0.000 C 
BRANCH  10  11
ATOM     11  C   UNL     1      23.946  11.056  35.554  1.00  0.00    -0.000 C 
BRANCH  11  12
ATOM     12  C   UNL     1      23.047  11.924  34.649  1.00  0.00    -0.000 C 
BRANCH  12  13
ATOM     13  C   UNL     1      21.819  12.542  35.345  1.00  0.00    -0.000 C 
BRANCH  13  14
ATOM     14  C   UNL     1      20.466  11.935  34.937  1.00  0.00    -0.000 C 
BRANCH  14  15
ATOM     15  C   UNL     1      20.232  10.542  35.540  1.00  0.00    -0.003 C 
ATOM     16  C   UNL     1      20.347   9.456  34.475  1.00  0.00     0.004 C 
ENDBRANCH  14  15
ENDBRANCH  13  14
ENDBRANCH  12  13
ENDBRANCH  11  12
ENDBRANCH  10  11
ENDBRANCH   1  10
TORSDOF 12
ENDMDL
MODEL 9
REMARK VINA RESULT:    -4.828      2.975      6.675
REMARK INTER + INTRA:          -9.229
REMARK INTER:                  -7.814
REMARK INTRA:                  -1.415
REMARK UNBOUND:                -1.015
REMARK SMILES CCCCCCCCCCCCCC(=O)[O-]
REMARK SMILES IDX 8 1 9 2 10 3 11 4 12 5 13 6 14 7 15 8 16 9 7 10 6 11 5 12
REMARK SMILES IDX 4 13 3 14 2 15 1 16
REMARK H PARENT
REMARK Flexibility Score: inf
ROOT
ATOM      1  C   UNL     1      23.692  12.102  35.826  1.00  0.00     0.000 C 
ENDROOT
BRANCH   1   2
ATOM      2  C   UNL     1      23.680  11.617  34.367  1.00  0.00     0.000 C 
BRANCH   2   3
ATOM      3  C   UNL     1      22.585  12.289  33.525  1.00  0.00     0.000 C 
BRANCH   3   4
ATOM      4  C   UNL     1      21.706  13.199  34.397  1.00  0.00     0.000 C 
BRANCH   4   5
ATOM      5  C   UNL     1      20.245  12.725  34.465  1.00  0.00     0.006 C 
BRANCH   5   6
ATOM      6  C   UNL     1      19.936  11.953  35.754  1.00  0.00     0.053 C 
BRANCH   6   7
ATOM      7  C   UNL     1      19.973  10.479  35.500  1.00  0.00     0.041 C 
ATOM      8  O   UNL     1      20.969   9.798  35.863  1.00  0.00    -0.550 OA
ATOM      9  O   UNL     1      18.888   9.848  34.905  1.00  0.00    -0.550 OA
ENDBRANCH   6   7
ENDBRANCH   5   6
ENDBRANCH   4   5
ENDBRANCH   3   4
ENDBRANCH   2   3
ENDBRANCH   1   2
BRANCH   1  10
ATOM     10  C   UNL     1      25.014  12.790  36.208  1.00  0.00     0.000 C 
BRANCH  10  11
ATOM     11  C   UNL     1      26.226  12.215  35.452  1.00  0.00    -0.000 C 
BRANCH  11  12
ATOM     12  C   UNL     1      27.292  13.252  35.040  1.00  0.00    -0.000 C 
BRANCH  12  13
ATOM     13  C   UNL     1      27.544  13.365  33.524  1.00  0.00    -0.000 C 
BRANCH  13  14
ATOM     14  C   UNL     1      27.956  12.053  32.834  1.00  0.00    -0.000 C 
BRANCH  14  15
ATOM     15  C   UNL     1      27.103  11.737  31.598  1.00  0.00    -0.003 C 
ATOM     16  C   UNL     1      25.856  12.616  31.551  1.00  0.00     0.004 C 
ENDBRANCH  14  15
ENDBRANCH  13  14
ENDBRANCH  12  13
ENDBRANCH  11  12
ENDBRANCH  10  11
ENDBRANCH   1  10
TORSDOF 12
ENDMDL
