MODEL 1
REMARK VINA RESULT:    -4.128      0.000      0.000
REMARK INTER + INTRA:          -4.439
REMARK INTER:                  -4.370
REMARK INTRA:                  -0.070
REMARK UNBOUND:                -0.070
REMARK SMILES CC(=O)c1cccc(C)c1
REMARK SMILES IDX 9 1 8 2 10 3 4 4 5 5 6 6 7 7 2 8 3 9 1 10
REMARK H PARENT
REMARK Flexibility Score: inf
ROOT
ATOM      1  C   UNL     1      31.556 166.208 159.845  1.00  0.00     0.044 C 
ATOM      2  C   UNL     1      31.869 166.654 158.446  1.00  0.00    -0.050 A 
ATOM      3  C   UNL     1      30.857 167.191 157.634  1.00  0.00     0.015 A 
ATOM      4  C   UNL     1      31.146 167.648 156.332  1.00  0.00     0.017 A 
ATOM      5  C   UNL     1      32.471 167.567 155.866  1.00  0.00     0.012 A 
ATOM      6  C   UNL     1      33.482 167.050 156.680  1.00  0.00     0.001 A 
ATOM      7  C   UNL     1      33.185 166.601 157.967  1.00  0.00     0.003 A 
ENDROOT
BRANCH   4   8
ATOM      8  C   UNL     1      30.083 168.210 155.454  1.00  0.00     0.159 C 
ATOM      9  O   UNL     1      29.094 167.497 155.133  1.00  0.00    -0.295 OA
ATOM     10  C   UNL     1      30.147 169.614 154.931  1.00  0.00     0.093 C 
ENDBRANCH   4   8
TORSDOF 1
ENDMDL
MODEL 2
REMARK VINA RESULT:    -4.112      2.098      3.903
REMARK INTER + INTRA:          -4.423
REMARK INTER:                  -4.347
REMARK INTRA:                  -0.075
REMARK UNBOUND:                -0.070
REMARK SMILES CC(=O)c1cccc(C)c1
REMARK SMILES IDX 9 1 8 2 10 3 4 4 5 5 6 6 7 7 2 8 3 9 1 10
REMARK H PARENT
REMARK Flexibility Score: inf
ROOT
ATOM      1  C   UNL     1      30.503 168.586 155.362  1.00  0.00     0.044 C 
ATOM      2  C   UNL     1      31.419 167.876 156.315  1.00  0.00    -0.050 A 
ATOM      3  C   UNL     1      30.962 167.505 157.591  1.00  0.00     0.015 A 
ATOM      4  C   UNL     1      31.801 166.805 158.481  1.00  0.00     0.017 A 
ATOM      5  C   UNL     1      33.103 166.472 158.062  1.00  0.00     0.012 A 
ATOM      6  C   UNL     1      33.552 166.824 156.786  1.00  0.00     0.001 A 
ATOM      7  C   UNL     1      32.713 167.517 155.913  1.00  0.00     0.003 A 
ENDROOT
BRANCH   4   8
ATOM      8  C   UNL     1      31.335 166.415 159.840  1.00  0.00     0.159 C 
ATOM      9  O   UNL     1      31.876 165.442 160.431  1.00  0.00    -0.295 OA
ATOM     10  C   UNL     1      30.229 167.147 160.540  1.00  0.00     0.093 C 
ENDBRANCH   4   8
TORSDOF 1
ENDMDL
MODEL 3
REMARK VINA RESULT:    -3.894      1.961      3.883
REMARK INTER + INTRA:          -4.191
REMARK INTER:                  -4.113
REMARK INTRA:                  -0.079
REMARK UNBOUND:                -0.070
REMARK SMILES CC(=O)c1cccc(C)c1
REMARK SMILES IDX 9 1 8 2 10 3 4 4 5 5 6 6 7 7 2 8 3 9 1 10
REMARK H PARENT
REMARK Flexibility Score: inf
ROOT
ATOM      1  C   UNL     1      28.142 168.133 156.346  1.00  0.00     0.044 C 
ATOM      2  C   UNL     1      29.616 167.881 156.217  1.00  0.00    -0.050 A 
ATOM      3  C   UNL     1      30.309 167.211 157.239  1.00  0.00     0.015 A 
ATOM      4  C   UNL     1      31.686 166.935 157.114  1.00  0.00     0.017 A 
ATOM      5  C   UNL     1      32.350 167.332 155.939  1.00  0.00     0.012 A 
ATOM      6  C   UNL     1      31.658 167.981 154.914  1.00  0.00     0.001 A 
ATOM      7  C   UNL     1      30.295 168.250 155.048  1.00  0.00     0.003 A 
ENDROOT
BRANCH   4   8
ATOM      8  C   UNL     1      32.437 166.236 158.192  1.00  0.00     0.159 C 
ATOM      9  O   UNL     1      31.932 166.135 159.343  1.00  0.00    -0.295 OA
ATOM     10  C   UNL     1      33.793 165.639 157.956  1.00  0.00     0.093 C 
ENDBRANCH   4   8
TORSDOF 1
ENDMDL
MODEL 4
REMARK VINA RESULT:    -3.878      1.893      2.790
REMARK INTER + INTRA:          -4.175
REMARK INTER:                  -4.097
REMARK INTRA:                  -0.078
REMARK UNBOUND:                -0.070
REMARK SMILES CC(=O)c1cccc(C)c1
REMARK SMILES IDX 9 1 8 2 10 3 4 4 5 5 6 6 7 7 2 8 3 9 1 10
REMARK H PARENT
REMARK Flexibility Score: inf
ROOT
ATOM      1  C   UNL     1      33.343 167.002 156.753  1.00  0.00     0.044 C 
ATOM      2  C   UNL     1      31.935 167.023 156.234  1.00  0.00    -0.050 A 
ATOM      3  C   UNL     1      31.294 168.247 155.980  1.00  0.00     0.015 A 
ATOM      4  C   UNL     1      29.985 168.279 155.458  1.00  0.00     0.017 A 
ATOM      5  C   UNL     1      29.337 167.060 155.182  1.00  0.00     0.012 A 
ATOM      6  C   UNL     1      29.981 165.843 155.417  1.00  0.00     0.001 A 
ATOM      7  C   UNL     1      31.276 165.822 155.935  1.00  0.00     0.003 A 
ENDROOT
BRANCH   4   8
ATOM      8  C   UNL     1      29.288 169.567 155.193  1.00  0.00     0.159 C 
ATOM      9  O   UNL     1      29.959 170.627 155.064  1.00  0.00    -0.295 OA
ATOM     10  C   UNL     1      27.795 169.652 155.074  1.00  0.00     0.093 C 
ENDBRANCH   4   8
TORSDOF 1
ENDMDL
MODEL 5
REMARK VINA RESULT:    -3.708      1.491      2.516
REMARK INTER + INTRA:          -3.994
REMARK INTER:                  -3.917
REMARK INTRA:                  -0.077
REMARK UNBOUND:                -0.070
REMARK SMILES CC(=O)c1cccc(C)c1
REMARK SMILES IDX 9 1 8 2 10 3 4 4 5 5 6 6 7 7 2 8 3 9 1 10
REMARK H PARENT
REMARK Flexibility Score: inf
ROOT
ATOM      1  C   UNL     1      33.502 166.577 157.927  1.00  0.00     0.044 C 
ATOM      2  C   UNL     1      32.371 167.025 157.049  1.00  0.00    -0.050 A 
ATOM      3  C   UNL     1      31.062 167.076 157.554  1.00  0.00     0.015 A 
ATOM      4  C   UNL     1      29.997 167.531 156.750  1.00  0.00     0.017 A 
ATOM      5  C   UNL     1      30.273 167.946 155.434  1.00  0.00     0.012 A 
ATOM      6  C   UNL     1      31.579 167.914 154.937  1.00  0.00     0.001 A 
ATOM      7  C   UNL     1      32.625 167.462 155.741  1.00  0.00     0.003 A 
ENDROOT
BRANCH   4   8
ATOM      8  C   UNL     1      28.602 167.581 157.267  1.00  0.00     0.159 C 
ATOM      9  O   UNL     1      27.660 167.907 156.496  1.00  0.00    -0.295 OA
ATOM     10  C   UNL     1      28.273 167.254 158.694  1.00  0.00     0.093 C 
ENDBRANCH   4   8
TORSDOF 1
ENDMDL
MODEL 6
REMARK VINA RESULT:    -3.693     22.319     23.453
REMARK INTER + INTRA:          -3.978
REMARK INTER:                  -3.903
REMARK INTRA:                  -0.075
REMARK UNBOUND:                -0.070
REMARK SMILES CC(=O)c1cccc(C)c1
REMARK SMILES IDX 9 1 8 2 10 3 4 4 5 5 6 6 7 7 2 8 3 9 1 10
REMARK H PARENT
REMARK Flexibility Score: inf
ROOT
ATOM      1  C   UNL     1      36.947 182.106 172.190  1.00  0.00     0.044 C 
ATOM      2  C   UNL     1      38.233 182.017 172.958  1.00  0.00    -0.050 A 
ATOM      3  C   UNL     1      38.983 180.830 172.946  1.00  0.00     0.015 A 
ATOM      4  C   UNL     1      40.210 180.746 173.634  1.00  0.00     0.017 A 
ATOM      5  C   UNL     1      40.677 181.881 174.323  1.00  0.00     0.012 A 
ATOM      6  C   UNL     1      39.940 183.068 174.321  1.00  0.00     0.001 A 
ATOM      7  C   UNL     1      38.727 183.140 173.637  1.00  0.00     0.003 A 
ENDROOT
BRANCH   4   8
ATOM      8  C   UNL     1      41.011 179.492 173.639  1.00  0.00     0.159 C 
ATOM      9  O   UNL     1      40.427 178.375 173.674  1.00  0.00    -0.295 OA
ATOM     10  C   UNL     1      42.511 179.508 173.604  1.00  0.00     0.093 C 
ENDBRANCH   4   8
TORSDOF 1
ENDMDL
MODEL 7
REMARK VINA RESULT:    -3.654     22.099     22.989
REMARK INTER + INTRA:          -3.938
REMARK INTER:                  -3.870
REMARK INTRA:                  -0.067
REMARK UNBOUND:                -0.070
REMARK SMILES CC(=O)c1cccc(C)c1
REMARK SMILES IDX 9 1 8 2 10 3 4 4 5 5 6 6 7 7 2 8 3 9 1 10
REMARK H PARENT
REMARK Flexibility Score: inf
ROOT
ATOM      1  C   UNL     1      41.420 180.247 173.594  1.00  0.00     0.044 C 
ATOM      2  C   UNL     1      40.343 181.291 173.540  1.00  0.00    -0.050 A 
ATOM      3  C   UNL     1      39.138 181.028 172.868  1.00  0.00     0.015 A 
ATOM      4  C   UNL     1      38.105 181.987 172.842  1.00  0.00     0.017 A 
ATOM      5  C   UNL     1      38.299 183.208 173.513  1.00  0.00     0.012 A 
ATOM      6  C   UNL     1      39.490 183.463 174.197  1.00  0.00     0.001 A 
ATOM      7  C   UNL     1      40.506 182.507 174.217  1.00  0.00     0.003 A 
ENDROOT
BRANCH   4   8
ATOM      8  C   UNL     1      36.826 181.728 172.125  1.00  0.00     0.159 C 
ATOM      9  O   UNL     1      35.986 180.925 172.614  1.00  0.00    -0.295 OA
ATOM     10  C   UNL     1      36.496 182.396 170.823  1.00  0.00     0.093 C 
ENDBRANCH   4   8
TORSDOF 1
ENDMDL
MODEL 8
REMARK VINA RESULT:    -3.501     21.330     22.285
REMARK INTER + INTRA:          -3.776
REMARK INTER:                  -3.707
REMARK INTRA:                  -0.069
REMARK UNBOUND:                -0.070
REMARK SMILES CC(=O)c1cccc(C)c1
REMARK SMILES IDX 9 1 8 2 10 3 4 4 5 5 6 6 7 7 2 8 3 9 1 10
REMARK H PARENT
REMARK Flexibility Score: inf
ROOT
ATOM      1  C   UNL     1      36.358 182.729 170.087  1.00  0.00     0.044 C 
ATOM      2  C   UNL     1      36.709 181.971 171.334  1.00  0.00    -0.050 A 
ATOM      3  C   UNL     1      38.049 181.665 171.621  1.00  0.00     0.015 A 
ATOM      4  C   UNL     1      38.395 180.986 172.807  1.00  0.00     0.017 A 
ATOM      5  C   UNL     1      37.371 180.632 173.705  1.00  0.00     0.012 A 
ATOM      6  C   UNL     1      36.039 180.952 173.429  1.00  0.00     0.001 A 
ATOM      7  C   UNL     1      35.709 181.624 172.253  1.00  0.00     0.003 A 
ENDROOT
BRANCH   4   8
ATOM      8  C   UNL     1      39.809 180.645 173.120  1.00  0.00     0.159 C 
ATOM      9  O   UNL     1      40.654 181.567 173.282  1.00  0.00    -0.295 OA
ATOM     10  C   UNL     1      40.273 179.224 173.251  1.00  0.00     0.093 C 
ENDBRANCH   4   8
TORSDOF 1
ENDMDL
