MODEL 1
REMARK VINA RESULT:    -7.365      0.000      0.000
REMARK INTER + INTRA:          -8.238
REMARK INTER:                  -8.226
REMARK INTRA:                  -0.012
REMARK UNBOUND:                -0.012
REMARK SMILES C=C(C)[C@@H]1CC[C@@]2(C(=O)[O-])CC[C@@]3(C)[C@H](CC[C@H]4[C@@]5(C)CCC(=O)C(C)(C)[C@@H]5CC[C@]43C)[C@H]12
REMARK SMILES IDX 7 1 6 2 33 3 11 4 5 5 15 6 4 7 12 8 16 9 13 10 17 11 31 12
REMARK SMILES IDX 14 13 18 14 30 15 32 16 19 17 29 18 21 19 20 20 28 21 22 22
REMARK SMILES IDX 25 23 23 24 26 25 27 26 24 27 8 28 9 29 10 30 2 31 3 32 1 33
REMARK H PARENT
REMARK Flexibility Score: inf
ROOT
ATOM      1  C   UNL     1     108.280 110.065 116.712  1.00  0.00     0.014 C 
ATOM      2  C   UNL     1     109.488 109.331 117.319  1.00  0.00     0.014 C 
ATOM      3  C   UNL     1     107.378 108.864 116.381  1.00  0.00     0.012 C 
ATOM      4  C   UNL     1     108.567 110.883 115.407  1.00  0.00     0.014 C 
ATOM      5  C   UNL     1     108.884 108.180 118.157  1.00  0.00     0.009 C 
ATOM      6  C   UNL     1     106.097 109.200 115.572  1.00  0.00     0.000 C 
ATOM      7  C   UNL     1     107.503 107.831 117.519  1.00  0.00     0.018 C 
ATOM      8  C   UNL     1     108.001 110.276 114.094  1.00  0.00     0.008 C 
ATOM      9  C   UNL     1     105.121 110.092 116.307  1.00  0.00     0.005 C 
ATOM     10  C   UNL     1     106.488 109.767 114.131  1.00  0.00    -0.024 C 
ATOM     11  C   UNL     1     103.834 110.277 115.524  1.00  0.00     0.005 C 
ATOM     12  C   UNL     1     105.458 110.891 113.533  1.00  0.00    -0.024 C 
ATOM     13  C   UNL     1     106.457 108.482 113.217  1.00  0.00     0.012 C 
ATOM     14  C   UNL     1     103.960 110.556 113.976  1.00  0.00     0.002 C 
ATOM     15  C   UNL     1     105.763 112.367 113.980  1.00  0.00     0.008 C 
ATOM     16  C   UNL     1     105.637 110.875 111.971  1.00  0.00     0.012 C 
ATOM     17  C   UNL     1     102.840 111.600 113.487  1.00  0.00    -0.025 C 
ATOM     18  C   UNL     1     104.699 113.410 113.541  1.00  0.00     0.006 C 
ATOM     19  C   UNL     1     101.446 111.246 114.113  1.00  0.00     0.015 C 
ATOM     20  C   UNL     1     102.636 111.493 111.943  1.00  0.00     0.012 C 
ATOM     21  C   UNL     1     103.248 113.044 113.961  1.00  0.00     0.008 C 
ATOM     22  C   UNL     1     100.333 112.249 113.796  1.00  0.00     0.077 C 
ATOM     23  C   UNL     1     102.179 114.186 113.690  1.00  0.00     0.027 C 
ATOM     24  C   UNL     1     100.754 113.682 113.974  1.00  0.00     0.138 C 
ATOM     25  C   UNL     1     102.218 114.750 112.238  1.00  0.00     0.020 C 
ATOM     26  C   UNL     1     102.454 115.369 114.664  1.00  0.00     0.020 C 
ATOM     27  O   UNL     1      99.875 114.492 114.240  1.00  0.00    -0.299 OA
ENDROOT
BRANCH   1  28
ATOM     28  C   UNL     1     107.779 111.027 117.790  1.00  0.00     0.048 C 
ATOM     29  O   UNL     1     108.095 110.899 118.998  1.00  0.00    -0.550 OA
ATOM     30  O   UNL     1     107.022 112.136 117.420  1.00  0.00    -0.550 OA
ENDBRANCH   1  28
BRANCH   7  31
ATOM     31  C   UNL     1     106.281 107.661 118.433  1.00  0.00    -0.077 C 
ATOM     32  C   UNL     1     105.046 107.001 117.864  1.00  0.00     0.039 C 
ATOM     33  C   UNL     1     106.250 107.997 119.737  1.00  0.00     0.008 C 
ENDBRANCH   7  31
TORSDOF 2
ENDMDL
MODEL 2
REMARK VINA RESULT:    -7.310      6.918      9.185
REMARK INTER + INTRA:          -8.176
REMARK INTER:                  -8.077
REMARK INTRA:                  -0.099
REMARK UNBOUND:                -0.012
REMARK SMILES C=C(C)[C@@H]1CC[C@@]2(C(=O)[O-])CC[C@@]3(C)[C@H](CC[C@H]4[C@@]5(C)CCC(=O)C(C)(C)[C@@H]5CC[C@]43C)[C@H]12
REMARK SMILES IDX 7 1 6 2 33 3 11 4 5 5 15 6 4 7 12 8 16 9 13 10 17 11 31 12
REMARK SMILES IDX 14 13 18 14 30 15 32 16 19 17 29 18 21 19 20 20 28 21 22 22
REMARK SMILES IDX 25 23 23 24 26 25 27 26 24 27 8 28 9 29 10 30 2 31 3 32 1 33
REMARK H PARENT
REMARK Flexibility Score: inf
ROOT
ATOM      1  C   UNL     1     115.955 111.808 120.155  1.00  0.00     0.014 C 
ATOM      2  C   UNL     1     116.718 111.047 121.251  1.00  0.00     0.014 C 
ATOM      3  C   UNL     1     114.813 110.815 119.886  1.00  0.00     0.012 C 
ATOM      4  C   UNL     1     116.748 112.068 118.829  1.00  0.00     0.014 C 
ATOM      5  C   UNL     1     115.624 110.405 122.136  1.00  0.00     0.009 C 
ATOM      6  C   UNL     1     113.899 111.164 118.681  1.00  0.00     0.000 C 
ATOM      7  C   UNL     1     114.368 110.206 121.232  1.00  0.00     0.018 C 
ATOM      8  C   UNL     1     116.308 111.222 117.604  1.00  0.00     0.008 C 
ATOM      9  C   UNL     1     113.121 112.450 118.852  1.00  0.00     0.005 C 
ATOM     10  C   UNL     1     114.738 111.125 117.324  1.00  0.00    -0.024 C 
ATOM     11  C   UNL     1     112.148 112.671 117.707  1.00  0.00     0.005 C 
ATOM     12  C   UNL     1     114.260 112.207 116.190  1.00  0.00    -0.024 C 
ATOM     13  C   UNL     1     114.499 109.660 116.792  1.00  0.00     0.012 C 
ATOM     14  C   UNL     1     112.674 112.396 116.245  1.00  0.00     0.002 C 
ATOM     15  C   UNL     1     114.911 113.631 116.322  1.00  0.00     0.008 C 
ATOM     16  C   UNL     1     114.746 111.645 114.804  1.00  0.00     0.012 C 
ATOM     17  C   UNL     1     112.066 113.460 115.206  1.00  0.00    -0.025 C 
ATOM     18  C   UNL     1     114.343 114.696 115.346  1.00  0.00     0.006 C 
ATOM     19  C   UNL     1     110.533 113.668 115.465  1.00  0.00     0.015 C 
ATOM     20  C   UNL     1     112.165 112.912 113.748  1.00  0.00     0.012 C 
ATOM     21  C   UNL     1     112.796 114.840 115.401  1.00  0.00     0.008 C 
ATOM     22  C   UNL     1     109.880 114.748 114.597  1.00  0.00     0.077 C 
ATOM     23  C   UNL     1     112.219 116.052 114.553  1.00  0.00     0.027 C 
ATOM     24  C   UNL     1     110.682 116.019 114.526  1.00  0.00     0.138 C 
ATOM     25  C   UNL     1     112.734 116.091 113.083  1.00  0.00     0.020 C 
ATOM     26  C   UNL     1     112.641 117.386 115.236  1.00  0.00     0.020 C 
ATOM     27  O   UNL     1     110.065 117.055 114.312  1.00  0.00    -0.299 OA
ENDROOT
BRANCH   1  28
ATOM     28  C   UNL     1     115.567 113.157 120.763  1.00  0.00     0.048 C 
ATOM     29  O   UNL     1     115.592 113.362 122.001  1.00  0.00    -0.550 OA
ATOM     30  O   UNL     1     115.262 114.224 119.922  1.00  0.00    -0.550 OA
ENDBRANCH   1  28
BRANCH   7  31
ATOM     31  C   UNL     1     112.992 110.635 121.761  1.00  0.00    -0.077 C 
ATOM     32  C   UNL     1     111.841 109.662 121.637  1.00  0.00     0.039 C 
ATOM     33  C   UNL     1     112.746 111.796 122.397  1.00  0.00     0.008 C 
ENDBRANCH   7  31
TORSDOF 2
ENDMDL
MODEL 3
REMARK VINA RESULT:    -7.044      4.502      8.560
REMARK INTER + INTRA:          -7.879
REMARK INTER:                  -7.698
REMARK INTRA:                  -0.181
REMARK UNBOUND:                -0.012
REMARK SMILES C=C(C)[C@@H]1CC[C@@]2(C(=O)[O-])CC[C@@]3(C)[C@H](CC[C@H]4[C@@]5(C)CCC(=O)C(C)(C)[C@@H]5CC[C@]43C)[C@H]12
REMARK SMILES IDX 7 1 6 2 33 3 11 4 5 5 15 6 4 7 12 8 16 9 13 10 17 11 31 12
REMARK SMILES IDX 14 13 18 14 30 15 32 16 19 17 29 18 21 19 20 20 28 21 22 22
REMARK SMILES IDX 25 23 23 24 26 25 27 26 24 27 8 28 9 29 10 30 2 31 3 32 1 33
REMARK H PARENT
REMARK Flexibility Score: inf
ROOT
ATOM      1  C   UNL     1     107.650 108.399 114.741  1.00  0.00     0.014 C 
ATOM      2  C   UNL     1     106.514 108.047 113.766  1.00  0.00     0.014 C 
ATOM      3  C   UNL     1     106.827 108.818 115.970  1.00  0.00     0.012 C 
ATOM      4  C   UNL     1     108.581 109.581 114.304  1.00  0.00     0.014 C 
ATOM      5  C   UNL     1     105.441 107.343 114.630  1.00  0.00     0.009 C 
ATOM      6  C   UNL     1     107.644 109.422 117.143  1.00  0.00     0.000 C 
ATOM      7  C   UNL     1     105.610 107.877 116.086  1.00  0.00     0.018 C 
ATOM      8  C   UNL     1     108.403 110.905 115.095  1.00  0.00     0.008 C 
ATOM      9  C   UNL     1     108.622 108.455 117.774  1.00  0.00     0.005 C 
ATOM     10  C   UNL     1     108.333 110.788 116.687  1.00  0.00    -0.024 C 
ATOM     11  C   UNL     1     109.294 109.058 118.994  1.00  0.00     0.005 C 
ATOM     12  C   UNL     1     109.788 111.088 117.378  1.00  0.00    -0.024 C 
ATOM     13  C   UNL     1     107.296 111.886 117.141  1.00  0.00     0.012 C 
ATOM     14  C   UNL     1     109.804 110.547 118.881  1.00  0.00     0.002 C 
ATOM     15  C   UNL     1     111.015 110.448 116.632  1.00  0.00     0.008 C 
ATOM     16  C   UNL     1     110.008 112.643 117.300  1.00  0.00     0.012 C 
ATOM     17  C   UNL     1     111.188 110.742 119.675  1.00  0.00    -0.025 C 
ATOM     18  C   UNL     1     112.373 110.601 117.371  1.00  0.00     0.006 C 
ATOM     19  C   UNL     1     111.125 110.035 121.074  1.00  0.00     0.015 C 
ATOM     20  C   UNL     1     111.425 112.253 119.989  1.00  0.00     0.012 C 
ATOM     21  C   UNL     1     112.352 110.092 118.839  1.00  0.00     0.008 C 
ATOM     22  C   UNL     1     112.437 110.069 121.864  1.00  0.00     0.077 C 
ATOM     23  C   UNL     1     113.774 110.063 119.544  1.00  0.00     0.027 C 
ATOM     24  C   UNL     1     113.641 109.712 121.035  1.00  0.00     0.138 C 
ATOM     25  C   UNL     1     114.561 111.403 119.425  1.00  0.00     0.020 C 
ATOM     26  C   UNL     1     114.638 108.950 118.882  1.00  0.00     0.020 C 
ATOM     27  O   UNL     1     114.599 109.230 121.624  1.00  0.00    -0.299 OA
ENDROOT
BRANCH   1  28
ATOM     28  C   UNL     1     108.500 107.135 114.879  1.00  0.00     0.048 C 
ATOM     29  O   UNL     1     108.045 105.994 114.623  1.00  0.00    -0.550 OA
ATOM     30  O   UNL     1     109.848 107.249 115.212  1.00  0.00    -0.550 OA
ENDBRANCH   1  28
BRANCH   7  31
ATOM     31  C   UNL     1     105.620 106.876 117.251  1.00  0.00    -0.077 C 
ATOM     32  C   UNL     1     105.244 107.375 118.628  1.00  0.00     0.039 C 
ATOM     33  C   UNL     1     105.875 105.560 117.125  1.00  0.00     0.008 C 
ENDBRANCH   7  31
TORSDOF 2
ENDMDL
MODEL 4
REMARK VINA RESULT:    -6.970      5.619      9.340
REMARK INTER + INTRA:          -7.797
REMARK INTER:                  -7.701
REMARK INTRA:                  -0.096
REMARK UNBOUND:                -0.012
REMARK SMILES C=C(C)[C@@H]1CC[C@@]2(C(=O)[O-])CC[C@@]3(C)[C@H](CC[C@H]4[C@@]5(C)CCC(=O)C(C)(C)[C@@H]5CC[C@]43C)[C@H]12
REMARK SMILES IDX 7 1 6 2 33 3 11 4 5 5 15 6 4 7 12 8 16 9 13 10 17 11 31 12
REMARK SMILES IDX 14 13 18 14 30 15 32 16 19 17 29 18 21 19 20 20 28 21 22 22
REMARK SMILES IDX 25 23 23 24 26 25 27 26 24 27 8 28 9 29 10 30 2 31 3 32 1 33
REMARK H PARENT
REMARK Flexibility Score: inf
ROOT
ATOM      1  C   UNL     1     114.500 110.743 121.480  1.00  0.00     0.014 C 
ATOM      2  C   UNL     1     115.368 110.746 122.750  1.00  0.00     0.014 C 
ATOM      3  C   UNL     1     114.289 112.255 121.298  1.00  0.00     0.012 C 
ATOM      4  C   UNL     1     113.110 110.030 121.607  1.00  0.00     0.014 C 
ATOM      5  C   UNL     1     116.324 111.951 122.585  1.00  0.00     0.009 C 
ATOM      6  C   UNL     1     113.288 112.657 120.182  1.00  0.00     0.000 C 
ATOM      7  C   UNL     1     115.603 112.978 121.659  1.00  0.00     0.018 C 
ATOM      8  C   UNL     1     111.873 110.968 121.635  1.00  0.00     0.008 C 
ATOM      9  C   UNL     1     113.730 112.263 118.789  1.00  0.00     0.005 C 
ATOM     10  C   UNL     1     111.825 112.128 120.538  1.00  0.00    -0.024 C 
ATOM     11  C   UNL     1     112.780 112.796 117.731  1.00  0.00     0.005 C 
ATOM     12  C   UNL     1     110.916 111.698 119.245  1.00  0.00    -0.024 C 
ATOM     13  C   UNL     1     111.162 113.362 121.264  1.00  0.00     0.012 C 
ATOM     14  C   UNL     1     111.233 112.657 118.007  1.00  0.00     0.002 C 
ATOM     15  C   UNL     1     111.119 110.217 118.761  1.00  0.00     0.008 C 
ATOM     16  C   UNL     1     109.415 111.792 119.703  1.00  0.00     0.012 C 
ATOM     17  C   UNL     1     110.435 112.328 116.651  1.00  0.00    -0.025 C 
ATOM     18  C   UNL     1     110.377 109.858 117.445  1.00  0.00     0.006 C 
ATOM     19  C   UNL     1     110.947 113.233 115.477  1.00  0.00     0.015 C 
ATOM     20  C   UNL     1     108.923 112.681 116.813  1.00  0.00     0.012 C 
ATOM     21  C   UNL     1     110.683 110.822 116.265  1.00  0.00     0.008 C 
ATOM     22  C   UNL     1     110.325 112.920 114.113  1.00  0.00     0.077 C 
ATOM     23  C   UNL     1     110.086 110.362 114.868  1.00  0.00     0.027 C 
ATOM     24  C   UNL     1     110.288 111.449 113.800  1.00  0.00     0.138 C 
ATOM     25  C   UNL     1     108.570 110.003 114.921  1.00  0.00     0.020 C 
ATOM     26  C   UNL     1     110.853 109.094 114.390  1.00  0.00     0.020 C 
ATOM     27  O   UNL     1     110.297 111.131 112.617  1.00  0.00    -0.299 OA
ENDROOT
BRANCH   1  28
ATOM     28  C   UNL     1     115.319 110.027 120.405  1.00  0.00     0.048 C 
ATOM     29  O   UNL     1     116.571 110.094 120.366  1.00  0.00    -0.550 OA
ATOM     30  O   UNL     1     114.673 109.199 119.490  1.00  0.00    -0.550 OA
ENDBRANCH   1  28
BRANCH   7  31
ATOM     31  C   UNL     1     116.383 113.611 120.497  1.00  0.00    -0.077 C 
ATOM     32  C   UNL     1     115.870 114.906 119.910  1.00  0.00     0.039 C 
ATOM     33  C   UNL     1     117.540 113.131 120.003  1.00  0.00     0.008 C 
ENDBRANCH   7  31
TORSDOF 2
ENDMDL
MODEL 5
REMARK VINA RESULT:    -6.665      7.103      9.767
REMARK INTER + INTRA:          -7.456
REMARK INTER:                  -7.254
REMARK INTRA:                  -0.202
REMARK UNBOUND:                -0.012
REMARK SMILES C=C(C)[C@@H]1CC[C@@]2(C(=O)[O-])CC[C@@]3(C)[C@H](CC[C@H]4[C@@]5(C)CCC(=O)C(C)(C)[C@@H]5CC[C@]43C)[C@H]12
REMARK SMILES IDX 7 1 6 2 33 3 11 4 5 5 15 6 4 7 12 8 16 9 13 10 17 11 31 12
REMARK SMILES IDX 14 13 18 14 30 15 32 16 19 17 29 18 21 19 20 20 28 21 22 22
REMARK SMILES IDX 25 23 23 24 26 25 27 26 24 27 8 28 9 29 10 30 2 31 3 32 1 33
REMARK H PARENT
REMARK Flexibility Score: inf
ROOT
ATOM      1  C   UNL     1     112.685 112.194 120.235  1.00  0.00     0.014 C 
ATOM      2  C   UNL     1     112.943 113.278 121.295  1.00  0.00     0.014 C 
ATOM      3  C   UNL     1     114.080 112.111 119.594  1.00  0.00     0.012 C 
ATOM      4  C   UNL     1     111.624 112.553 119.139  1.00  0.00     0.014 C 
ATOM      5  C   UNL     1     114.359 112.981 121.842  1.00  0.00     0.009 C 
ATOM      6  C   UNL     1     114.178 111.217 118.329  1.00  0.00     0.000 C 
ATOM      7  C   UNL     1     115.138 112.245 120.709  1.00  0.00     0.018 C 
ATOM      8  C   UNL     1     112.191 112.847 117.724  1.00  0.00     0.008 C 
ATOM      9  C   UNL     1     113.896 109.753 118.587  1.00  0.00     0.005 C 
ATOM     10  C   UNL     1     113.278 111.822 117.157  1.00  0.00    -0.024 C 
ATOM     11  C   UNL     1     114.136 108.912 117.345  1.00  0.00     0.005 C 
ATOM     12  C   UNL     1     112.597 110.707 116.168  1.00  0.00    -0.024 C 
ATOM     13  C   UNL     1     114.297 112.705 116.338  1.00  0.00     0.012 C 
ATOM     14  C   UNL     1     113.586 109.468 115.975  1.00  0.00     0.002 C 
ATOM     15  C   UNL     1     111.219 110.140 116.667  1.00  0.00     0.008 C 
ATOM     16  C   UNL     1     112.288 111.442 114.813  1.00  0.00     0.012 C 
ATOM     17  C   UNL     1     113.032 108.275 115.052  1.00  0.00    -0.025 C 
ATOM     18  C   UNL     1     110.652 108.974 115.812  1.00  0.00     0.006 C 
ATOM     19  C   UNL     1     114.023 107.059 115.068  1.00  0.00     0.015 C 
ATOM     20  C   UNL     1     112.965 108.730 113.560  1.00  0.00     0.012 C 
ATOM     21  C   UNL     1     111.644 107.794 115.617  1.00  0.00     0.008 C 
ATOM     22  C   UNL     1     113.532 105.826 114.305  1.00  0.00     0.077 C 
ATOM     23  C   UNL     1     111.017 106.518 114.911  1.00  0.00     0.027 C 
ATOM     24  C   UNL     1     112.101 105.471 114.606  1.00  0.00     0.138 C 
ATOM     25  C   UNL     1     110.262 106.841 113.586  1.00  0.00     0.020 C 
ATOM     26  C   UNL     1     109.998 105.858 115.886  1.00  0.00     0.020 C 
ATOM     27  O   UNL     1     111.779 104.297 114.475  1.00  0.00    -0.299 OA
ENDROOT
BRANCH   1  28
ATOM     28  C   UNL     1     112.201 110.959 120.996  1.00  0.00     0.048 C 
ATOM     29  O   UNL     1     112.391 110.818 122.228  1.00  0.00    -0.550 OA
ATOM     30  O   UNL     1     111.446 109.997 120.330  1.00  0.00    -0.550 OA
ENDBRANCH   1  28
BRANCH   7  31
ATOM     31  C   UNL     1     115.940 110.981 121.054  1.00  0.00    -0.077 C 
ATOM     32  C   UNL     1     117.254 110.750 120.343  1.00  0.00     0.039 C 
ATOM     33  C   UNL     1     115.592 110.091 122.002  1.00  0.00     0.008 C 
ENDBRANCH   7  31
TORSDOF 2
ENDMDL
MODEL 6
REMARK VINA RESULT:    -6.655      6.088     11.379
REMARK INTER + INTRA:          -7.445
REMARK INTER:                  -7.617
REMARK INTRA:                   0.172
REMARK UNBOUND:                -0.012
REMARK SMILES C=C(C)[C@@H]1CC[C@@]2(C(=O)[O-])CC[C@@]3(C)[C@H](CC[C@H]4[C@@]5(C)CCC(=O)C(C)(C)[C@@H]5CC[C@]43C)[C@H]12
REMARK SMILES IDX 7 1 6 2 33 3 11 4 5 5 15 6 4 7 12 8 16 9 13 10 17 11 31 12
REMARK SMILES IDX 14 13 18 14 30 15 32 16 19 17 29 18 21 19 20 20 28 21 22 22
REMARK SMILES IDX 25 23 23 24 26 25 27 26 24 27 8 28 9 29 10 30 2 31 3 32 1 33
REMARK H PARENT
REMARK Flexibility Score: inf
ROOT
ATOM      1  C   UNL     1     109.736 111.939 118.738  1.00  0.00     0.014 C 
ATOM      2  C   UNL     1     108.213 111.789 118.581  1.00  0.00     0.014 C 
ATOM      3  C   UNL     1     110.129 110.467 118.937  1.00  0.00     0.012 C 
ATOM      4  C   UNL     1     110.213 112.783 119.969  1.00  0.00     0.014 C 
ATOM      5  C   UNL     1     108.016 110.503 117.745  1.00  0.00     0.009 C 
ATOM      6  C   UNL     1     111.616 110.221 119.311  1.00  0.00     0.000 C 
ATOM      7  C   UNL     1     109.260 109.598 118.005  1.00  0.00     0.018 C 
ATOM      8  C   UNL     1     110.853 111.975 121.131  1.00  0.00     0.008 C 
ATOM      9  C   UNL     1     112.596 110.633 118.235  1.00  0.00     0.005 C 
ATOM     10  C   UNL     1     111.942 110.878 120.729  1.00  0.00    -0.024 C 
ATOM     11  C   UNL     1     114.019 110.249 118.600  1.00  0.00     0.005 C 
ATOM     12  C   UNL     1     113.467 111.457 120.882  1.00  0.00    -0.024 C 
ATOM     13  C   UNL     1     111.726 109.685 121.738  1.00  0.00     0.012 C 
ATOM     14  C   UNL     1     114.491 110.531 120.079  1.00  0.00     0.002 C 
ATOM     15  C   UNL     1     113.665 112.932 120.374  1.00  0.00     0.008 C 
ATOM     16  C   UNL     1     113.778 111.495 122.423  1.00  0.00     0.012 C 
ATOM     17  C   UNL     1     116.027 111.002 120.112  1.00  0.00    -0.025 C 
ATOM     18  C   UNL     1     115.137 113.425 120.375  1.00  0.00     0.006 C 
ATOM     19  C   UNL     1     116.899 110.105 119.165  1.00  0.00     0.015 C 
ATOM     20  C   UNL     1     116.626 110.796 121.539  1.00  0.00     0.012 C 
ATOM     21  C   UNL     1     116.116 112.491 119.611  1.00  0.00     0.008 C 
ATOM     22  C   UNL     1     118.361 110.543 119.041  1.00  0.00     0.077 C 
ATOM     23  C   UNL     1     117.582 113.074 119.439  1.00  0.00     0.027 C 
ATOM     24  C   UNL     1     118.523 112.024 118.826  1.00  0.00     0.138 C 
ATOM     25  C   UNL     1     118.215 113.582 120.770  1.00  0.00     0.020 C 
ATOM     26  C   UNL     1     117.528 114.279 118.453  1.00  0.00     0.020 C 
ATOM     27  O   UNL     1     119.528 112.394 118.234  1.00  0.00    -0.299 OA
ENDROOT
BRANCH   1  28
ATOM     28  C   UNL     1     110.231 112.618 117.461  1.00  0.00     0.048 C 
ATOM     29  O   UNL     1     109.490 112.781 116.461  1.00  0.00    -0.550 OA
ATOM     30  O   UNL     1     111.515 113.158 117.425  1.00  0.00    -0.550 OA
ENDBRANCH   1  28
BRANCH   7  31
ATOM     31  C   UNL     1     109.970 108.945 116.810  1.00  0.00    -0.077 C 
ATOM     32  C   UNL     1     109.955 107.437 116.705  1.00  0.00     0.039 C 
ATOM     33  C   UNL     1     110.552 109.623 115.804  1.00  0.00     0.008 C 
ENDBRANCH   7  31
TORSDOF 2
ENDMDL
MODEL 7
REMARK VINA RESULT:    -6.589      1.900      2.804
REMARK INTER + INTRA:          -7.371
REMARK INTER:                  -7.166
REMARK INTRA:                  -0.205
REMARK UNBOUND:                -0.012
REMARK SMILES C=C(C)[C@@H]1CC[C@@]2(C(=O)[O-])CC[C@@]3(C)[C@H](CC[C@H]4[C@@]5(C)CCC(=O)C(C)(C)[C@@H]5CC[C@]43C)[C@H]12
REMARK SMILES IDX 7 1 6 2 33 3 11 4 5 5 15 6 4 7 12 8 16 9 13 10 17 11 31 12
REMARK SMILES IDX 14 13 18 14 30 15 32 16 19 17 29 18 21 19 20 20 28 21 22 22
REMARK SMILES IDX 25 23 23 24 26 25 27 26 24 27 8 28 9 29 10 30 2 31 3 32 1 33
REMARK H PARENT
REMARK Flexibility Score: inf
ROOT
ATOM      1  C   UNL     1     107.546 108.191 116.459  1.00  0.00     0.014 C 
ATOM      2  C   UNL     1     108.595 107.146 116.877  1.00  0.00     0.014 C 
ATOM      3  C   UNL     1     107.575 108.001 114.933  1.00  0.00     0.012 C 
ATOM      4  C   UNL     1     107.890 109.679 116.810  1.00  0.00     0.014 C 
ATOM      5  C   UNL     1     108.359 105.938 115.941  1.00  0.00     0.009 C 
ATOM      6  C   UNL     1     106.746 109.032 114.120  1.00  0.00     0.000 C 
ATOM      7  C   UNL     1     107.721 106.496 114.631  1.00  0.00     0.018 C 
ATOM      8  C   UNL     1     108.280 110.581 115.608  1.00  0.00     0.008 C 
ATOM      9  C   UNL     1     105.258 108.970 114.385  1.00  0.00     0.005 C 
ATOM     10  C   UNL     1     107.349 110.497 114.314  1.00  0.00    -0.024 C 
ATOM     11  C   UNL     1     104.489 109.905 113.469  1.00  0.00     0.005 C 
ATOM     12  C   UNL     1     106.240 111.704 114.289  1.00  0.00    -0.024 C 
ATOM     13  C   UNL     1     108.326 110.651 113.085  1.00  0.00     0.012 C 
ATOM     14  C   UNL     1     105.072 111.356 113.257  1.00  0.00     0.002 C 
ATOM     15  C   UNL     1     105.570 112.010 115.677  1.00  0.00     0.008 C 
ATOM     16  C   UNL     1     107.016 113.014 113.894  1.00  0.00     0.012 C 
ATOM     17  C   UNL     1     103.890 112.440 113.154  1.00  0.00    -0.025 C 
ATOM     18  C   UNL     1     104.412 113.043 115.623  1.00  0.00     0.006 C 
ATOM     19  C   UNL     1     102.737 111.913 112.231  1.00  0.00     0.015 C 
ATOM     20  C   UNL     1     104.407 113.741 112.462  1.00  0.00     0.012 C 
ATOM     21  C   UNL     1     103.303 112.694 114.591  1.00  0.00     0.008 C 
ATOM     22  C   UNL     1     101.511 112.828 112.156  1.00  0.00     0.077 C 
ATOM     23  C   UNL     1     102.025 113.633 114.658  1.00  0.00     0.027 C 
ATOM     24  C   UNL     1     101.059 113.328 113.501  1.00  0.00     0.138 C 
ATOM     25  C   UNL     1     102.362 115.154 114.627  1.00  0.00     0.020 C 
ATOM     26  C   UNL     1     101.263 113.346 115.985  1.00  0.00     0.020 C 
ATOM     27  O   UNL     1      99.875 113.617 113.619  1.00  0.00    -0.299 OA
ENDROOT
BRANCH   1  28
ATOM     28  C   UNL     1     106.252 107.807 117.177  1.00  0.00     0.048 C 
ATOM     29  O   UNL     1     106.088 106.677 117.698  1.00  0.00    -0.550 OA
ATOM     30  O   UNL     1     105.252 108.763 117.344  1.00  0.00    -0.550 OA
ENDBRANCH   1  28
BRANCH   7  31
ATOM     31  C   UNL     1     106.494 105.788 114.038  1.00  0.00    -0.077 C 
ATOM     32  C   UNL     1     106.343 105.754 112.535  1.00  0.00     0.039 C 
ATOM     33  C   UNL     1     105.569 105.130 114.762  1.00  0.00     0.008 C 
ENDBRANCH   7  31
TORSDOF 2
ENDMDL
MODEL 8
REMARK VINA RESULT:    -6.462      3.982      8.403
REMARK INTER + INTRA:          -7.229
REMARK INTER:                  -7.031
REMARK INTRA:                  -0.198
REMARK UNBOUND:                -0.012
REMARK SMILES C=C(C)[C@@H]1CC[C@@]2(C(=O)[O-])CC[C@@]3(C)[C@H](CC[C@H]4[C@@]5(C)CCC(=O)C(C)(C)[C@@H]5CC[C@]43C)[C@H]12
REMARK SMILES IDX 7 1 6 2 33 3 11 4 5 5 15 6 4 7 12 8 16 9 13 10 17 11 31 12
REMARK SMILES IDX 14 13 18 14 30 15 32 16 19 17 29 18 21 19 20 20 28 21 22 22
REMARK SMILES IDX 25 23 23 24 26 25 27 26 24 27 8 28 9 29 10 30 2 31 3 32 1 33
REMARK H PARENT
REMARK Flexibility Score: inf
ROOT
ATOM      1  C   UNL     1     105.968 107.002 116.940  1.00  0.00     0.014 C 
ATOM      2  C   UNL     1     104.549 107.014 117.533  1.00  0.00     0.014 C 
ATOM      3  C   UNL     1     105.671 107.529 115.527  1.00  0.00     0.012 C 
ATOM      4  C   UNL     1     106.653 105.596 116.844  1.00  0.00     0.014 C 
ATOM      5  C   UNL     1     103.891 108.302 116.984  1.00  0.00     0.009 C 
ATOM      6  C   UNL     1     106.869 107.496 114.541  1.00  0.00     0.000 C 
ATOM      7  C   UNL     1     104.597 108.632 115.633  1.00  0.00     0.018 C 
ATOM      8  C   UNL     1     106.781 105.006 115.414  1.00  0.00     0.008 C 
ATOM      9  C   UNL     1     108.021 108.392 114.941  1.00  0.00     0.005 C 
ATOM     10  C   UNL     1     107.323 105.988 114.276  1.00  0.00    -0.024 C 
ATOM     11  C   UNL     1     109.103 108.420 113.876  1.00  0.00     0.005 C 
ATOM     12  C   UNL     1     108.929 105.789 114.023  1.00  0.00    -0.024 C 
ATOM     13  C   UNL     1     106.529 105.595 112.971  1.00  0.00     0.012 C 
ATOM     14  C   UNL     1     109.521 107.043 113.229  1.00  0.00     0.002 C 
ATOM     15  C   UNL     1     109.785 105.610 115.329  1.00  0.00     0.008 C 
ATOM     16  C   UNL     1     109.091 104.445 113.222  1.00  0.00     0.012 C 
ATOM     17  C   UNL     1     111.101 107.000 112.940  1.00  0.00    -0.025 C 
ATOM     18  C   UNL     1     111.320 105.577 115.098  1.00  0.00     0.006 C 
ATOM     19  C   UNL     1     111.580 108.349 112.299  1.00  0.00     0.015 C 
ATOM     20  C   UNL     1     111.428 105.902 111.879  1.00  0.00     0.012 C 
ATOM     21  C   UNL     1     111.864 106.795 114.301  1.00  0.00     0.008 C 
ATOM     22  C   UNL     1     113.094 108.450 112.086  1.00  0.00     0.077 C 
ATOM     23  C   UNL     1     113.447 106.875 114.222  1.00  0.00     0.027 C 
ATOM     24  C   UNL     1     113.894 108.004 113.280  1.00  0.00     0.138 C 
ATOM     25  C   UNL     1     114.119 105.549 113.751  1.00  0.00     0.020 C 
ATOM     26  C   UNL     1     114.002 107.207 115.638  1.00  0.00     0.020 C 
ATOM     27  O   UNL     1     115.008 108.492 113.417  1.00  0.00    -0.299 OA
ENDROOT
BRANCH   1  28
ATOM     28  C   UNL     1     106.816 107.896 117.846  1.00  0.00     0.048 C 
ATOM     29  O   UNL     1     106.301 108.688 118.672  1.00  0.00    -0.550 OA
ATOM     30  O   UNL     1     108.203 107.773 117.826  1.00  0.00    -0.550 OA
ENDBRANCH   1  28
BRANCH   7  31
ATOM     31  C   UNL     1     105.058 110.072 115.363  1.00  0.00    -0.077 C 
ATOM     32  C   UNL     1     105.079 110.562 113.933  1.00  0.00     0.039 C 
ATOM     33  C   UNL     1     105.382 110.961 116.320  1.00  0.00     0.008 C 
ENDBRANCH   7  31
TORSDOF 2
ENDMDL
MODEL 9
REMARK VINA RESULT:    -4.387      2.217      7.296
REMARK INTER + INTRA:          -4.911
REMARK INTER:                  -4.755
REMARK INTRA:                  -0.156
REMARK UNBOUND:                -0.012
REMARK SMILES C=C(C)[C@@H]1CC[C@@]2(C(=O)[O-])CC[C@@]3(C)[C@H](CC[C@H]4[C@@]5(C)CCC(=O)C(C)(C)[C@@H]5CC[C@]43C)[C@H]12
REMARK SMILES IDX 7 1 6 2 33 3 11 4 5 5 15 6 4 7 12 8 16 9 13 10 17 11 31 12
REMARK SMILES IDX 14 13 18 14 30 15 32 16 19 17 29 18 21 19 20 20 28 21 22 22
REMARK SMILES IDX 25 23 23 24 26 25 27 26 24 27 8 28 9 29 10 30 2 31 3 32 1 33
REMARK H PARENT
REMARK Flexibility Score: inf
ROOT
ATOM      1  C   UNL     1     103.805 113.614 113.074  1.00  0.00     0.014 C 
ATOM      2  C   UNL     1     103.263 114.929 112.490  1.00  0.00     0.014 C 
ATOM      3  C   UNL     1     103.484 113.831 114.562  1.00  0.00     0.012 C 
ATOM      4  C   UNL     1     105.343 113.373 112.898  1.00  0.00     0.014 C 
ATOM      5  C   UNL     1     101.963 115.217 113.277  1.00  0.00     0.009 C 
ATOM      6  C   UNL     1     104.053 112.757 115.527  1.00  0.00     0.000 C 
ATOM      7  C   UNL     1     102.114 114.530 114.669  1.00  0.00     0.018 C 
ATOM      8  C   UNL     1     106.198 113.511 114.186  1.00  0.00     0.008 C 
ATOM      9  C   UNL     1     103.481 111.373 115.313  1.00  0.00     0.005 C 
ATOM     10  C   UNL     1     105.649 112.778 115.495  1.00  0.00    -0.024 C 
ATOM     11  C   UNL     1     103.972 110.396 116.368  1.00  0.00     0.005 C 
ATOM     12  C   UNL     1     106.359 111.317 115.712  1.00  0.00    -0.024 C 
ATOM     13  C   UNL     1     106.023 113.730 116.696  1.00  0.00     0.012 C 
ATOM     14  C   UNL     1     105.506 110.437 116.736  1.00  0.00     0.002 C 
ATOM     15  C   UNL     1     106.540 110.472 114.399  1.00  0.00     0.008 C 
ATOM     16  C   UNL     1     107.814 111.602 116.236  1.00  0.00     0.012 C 
ATOM     17  C   UNL     1     106.068 108.958 117.017  1.00  0.00    -0.025 C 
ATOM     18  C   UNL     1     107.068 109.030 114.624  1.00  0.00     0.006 C 
ATOM     19  C   UNL     1     105.065 108.148 117.910  1.00  0.00     0.015 C 
ATOM     20  C   UNL     1     107.390 109.030 117.846  1.00  0.00     0.012 C 
ATOM     21  C   UNL     1     106.236 108.206 115.646  1.00  0.00     0.008 C 
ATOM     22  C   UNL     1     105.458 106.687 118.145  1.00  0.00     0.077 C 
ATOM     23  C   UNL     1     106.645 106.675 115.745  1.00  0.00     0.027 C 
ATOM     24  C   UNL     1     105.893 105.979 116.890  1.00  0.00     0.138 C 
ATOM     25  C   UNL     1     108.173 106.447 115.951  1.00  0.00     0.020 C 
ATOM     26  C   UNL     1     106.237 105.962 114.422  1.00  0.00     0.020 C 
ATOM     27  O   UNL     1     105.741 104.764 116.855  1.00  0.00    -0.299 OA
ENDROOT
BRANCH   1  28
ATOM     28  C   UNL     1     103.052 112.489 112.363  1.00  0.00     0.048 C 
ATOM     29  O   UNL     1     101.908 112.657 111.875  1.00  0.00    -0.550 OA
ATOM     30  O   UNL     1     103.680 111.262 112.166  1.00  0.00    -0.550 OA
ENDBRANCH   1  28
BRANCH   7  31
ATOM     31  C   UNL     1     100.951 113.689 115.215  1.00  0.00    -0.077 C 
ATOM     32  C   UNL     1     100.644 113.764 116.694  1.00  0.00     0.039 C 
ATOM     33  C   UNL     1     100.132 112.935 114.458  1.00  0.00     0.008 C 
ENDBRANCH   7  31
TORSDOF 2
ENDMDL
