MODEL 1
REMARK VINA RESULT:    -6.797      0.000      0.000
REMARK INTER + INTRA:          -8.499
REMARK INTER:                  -8.188
REMARK INTRA:                  -0.312
REMARK UNBOUND:                -0.312
REMARK SMILES O=c1c(O)c(-c2ccc(O)c(O)c2)oc2cc(O)cc(O)c12
REMARK SMILES IDX 5 1 3 2 2 3 1 4 22 5 20 6 19 7 17 8 16 9 15 10 14 11 6 12
REMARK SMILES IDX 7 13 8 14 9 15 13 16 11 17 10 18 12 20 4 22 21 24 18 26
REMARK H PARENT 10 19 12 21 4 23 21 25 18 27
REMARK Flexibility Score: inf
ROOT
ATOM      1  C   UNL     1      22.972  33.559   6.898  1.00  0.00     0.180 A 
ATOM      2  C   UNL     1      23.026  34.255   5.679  1.00  0.00     0.208 A 
ATOM      3  C   UNL     1      22.050  35.228   5.406  1.00  0.00     0.238 A 
ATOM      4  O   UNL     1      22.073  35.811   4.290  1.00  0.00    -0.285 OA
ATOM      5  C   UNL     1      21.042  35.502   6.362  1.00  0.00     0.111 A 
ATOM      6  C   UNL     1      20.027  36.493   6.208  1.00  0.00     0.134 A 
ATOM      7  C   UNL     1      19.004  36.588   7.160  1.00  0.00     0.093 A 
ATOM      8  C   UNL     1      18.995  35.772   8.291  1.00  0.00     0.123 A 
ATOM      9  C   UNL     1      20.016  34.840   8.482  1.00  0.00     0.094 A 
ATOM     10  C   UNL     1      21.030  34.697   7.531  1.00  0.00     0.146 A 
ATOM     11  O   UNL     1      21.976  33.791   7.745  1.00  0.00    -0.452 OA
ENDROOT
BRANCH   1  12
ATOM     12  C   UNL     1      23.979  32.537   7.267  1.00  0.00     0.025 A 
ATOM     13  C   UNL     1      25.238  32.902   7.778  1.00  0.00     0.016 A 
ATOM     14  C   UNL     1      26.163  31.920   8.143  1.00  0.00     0.051 A 
ATOM     15  C   UNL     1      25.844  30.565   8.017  1.00  0.00     0.157 A 
ATOM     16  C   UNL     1      23.654  31.176   7.162  1.00  0.00     0.062 A 
ATOM     17  C   UNL     1      24.582  30.189   7.527  1.00  0.00     0.158 A 
BRANCH  15  18
ATOM     18  O   UNL     1      26.789  29.608   8.387  1.00  0.00    -0.504 OA
ATOM     19  H   UNL     1      27.718  29.586   7.986  1.00  0.00     0.293 HD
ENDBRANCH  15  18
BRANCH  17  20
ATOM     20  O   UNL     1      24.254  28.840   7.407  1.00  0.00    -0.504 OA
ATOM     21  H   UNL     1      24.780  28.120   7.887  1.00  0.00     0.293 HD
ENDBRANCH  17  20
ENDBRANCH   1  12
BRANCH   2  22
ATOM     22  O   UNL     1      24.017  33.955   4.740  1.00  0.00    -0.502 OA
ATOM     23  H   UNL     1      25.005  34.009   4.955  1.00  0.00     0.293 HD
ENDBRANCH   2  22
BRANCH   6  24
ATOM     24  O   UNL     1      19.993  37.420   5.162  1.00  0.00    -0.507 OA
ATOM     25  H   UNL     1      19.158  37.868   4.817  1.00  0.00     0.293 HD
ENDBRANCH   6  24
BRANCH   8  26
ATOM     26  O   UNL     1      17.970  35.905   9.225  1.00  0.00    -0.508 OA
ATOM     27  H   UNL     1      17.824  35.215   9.953  1.00  0.00     0.293 HD
ENDBRANCH   8  26
TORSDOF 6
ENDMDL
MODEL 2
REMARK VINA RESULT:    -6.497      1.827      6.749
REMARK INTER + INTRA:          -8.138
REMARK INTER:                  -7.904
REMARK INTRA:                  -0.233
REMARK UNBOUND:                -0.312
REMARK SMILES O=c1c(O)c(-c2ccc(O)c(O)c2)oc2cc(O)cc(O)c12
REMARK SMILES IDX 5 1 3 2 2 3 1 4 22 5 20 6 19 7 17 8 16 9 15 10 14 11 6 12
REMARK SMILES IDX 7 13 8 14 9 15 13 16 11 17 10 18 12 20 4 22 21 24 18 26
REMARK H PARENT 10 19 12 21 4 23 21 25 18 27
REMARK Flexibility Score: inf
ROOT
ATOM      1  C   UNL     1      22.510  33.965   5.761  1.00  0.00     0.180 A 
ATOM      2  C   UNL     1      22.878  33.332   4.561  1.00  0.00     0.208 A 
ATOM      3  C   UNL     1      24.009  32.499   4.550  1.00  0.00     0.238 A 
ATOM      4  O   UNL     1      24.365  31.977   3.461  1.00  0.00    -0.285 OA
ATOM      5  C   UNL     1      24.747  32.297   5.741  1.00  0.00     0.111 A 
ATOM      6  C   UNL     1      25.885  31.444   5.855  1.00  0.00     0.134 A 
ATOM      7  C   UNL     1      26.615  31.421   7.050  1.00  0.00     0.093 A 
ATOM      8  C   UNL     1      26.212  32.171   8.154  1.00  0.00     0.123 A 
ATOM      9  C   UNL     1      25.066  32.963   8.074  1.00  0.00     0.094 A 
ATOM     10  C   UNL     1      24.338  33.034   6.883  1.00  0.00     0.146 A 
ATOM     11  O   UNL     1      23.260  33.809   6.845  1.00  0.00    -0.452 OA
ENDROOT
BRANCH   1  12
ATOM     12  C   UNL     1      21.317  34.838   5.856  1.00  0.00     0.025 A 
ATOM     13  C   UNL     1      21.294  36.113   5.263  1.00  0.00     0.016 A 
ATOM     14  C   UNL     1      20.149  36.910   5.344  1.00  0.00     0.051 A 
ATOM     15  C   UNL     1      19.009  36.443   6.004  1.00  0.00     0.157 A 
ATOM     16  C   UNL     1      20.163  34.365   6.500  1.00  0.00     0.062 A 
ATOM     17  C   UNL     1      19.012  35.163   6.583  1.00  0.00     0.158 A 
BRANCH  15  18
ATOM     18  O   UNL     1      17.881  37.262   6.071  1.00  0.00    -0.504 OA
ATOM     19  H   UNL     1      17.176  37.150   6.790  1.00  0.00     0.293 HD
ENDBRANCH  15  18
BRANCH  17  20
ATOM     20  O   UNL     1      17.876  34.688   7.236  1.00  0.00    -0.504 OA
ATOM     21  H   UNL     1      17.354  33.895   6.884  1.00  0.00     0.293 HD
ENDBRANCH  17  20
ENDBRANCH   1  12
BRANCH   2  22
ATOM     22  O   UNL     1      22.149  33.561   3.391  1.00  0.00    -0.502 OA
ATOM     23  H   UNL     1      22.217  32.959   2.581  1.00  0.00     0.293 HD
ENDBRANCH   2  22
BRANCH   6  24
ATOM     24  O   UNL     1      26.320  30.584   4.842  1.00  0.00    -0.507 OA
ATOM     25  H   UNL     1      26.950  30.844   4.098  1.00  0.00     0.293 HD
ENDBRANCH   6  24
BRANCH   8  26
ATOM     26  O   UNL     1      26.953  32.112   9.332  1.00  0.00    -0.508 OA
ATOM     27  H   UNL     1      27.683  32.785   9.532  1.00  0.00     0.293 HD
ENDBRANCH   8  26
TORSDOF 6
ENDMDL
MODEL 3
REMARK VINA RESULT:    -6.121      1.985      7.152
REMARK INTER + INTRA:          -7.686
REMARK INTER:                  -7.856
REMARK INTRA:                   0.171
REMARK UNBOUND:                -0.312
REMARK SMILES O=c1c(O)c(-c2ccc(O)c(O)c2)oc2cc(O)cc(O)c12
REMARK SMILES IDX 5 1 3 2 2 3 1 4 22 5 20 6 19 7 17 8 16 9 15 10 14 11 6 12
REMARK SMILES IDX 7 13 8 14 9 15 13 16 11 17 10 18 12 20 4 22 21 24 18 26
REMARK H PARENT 10 19 12 21 4 23 21 25 18 27
REMARK Flexibility Score: inf
ROOT
ATOM      1  C   UNL     1      22.296  33.976   6.482  1.00  0.00     0.180 A 
ATOM      2  C   UNL     1      22.732  33.467   7.717  1.00  0.00     0.208 A 
ATOM      3  C   UNL     1      23.923  32.722   7.765  1.00  0.00     0.238 A 
ATOM      4  O   UNL     1      24.280  32.224   8.864  1.00  0.00    -0.285 OA
ATOM      5  C   UNL     1      24.669  32.511   6.581  1.00  0.00     0.111 A 
ATOM      6  C   UNL     1      25.909  31.807   6.519  1.00  0.00     0.134 A 
ATOM      7  C   UNL     1      26.495  31.546   5.275  1.00  0.00     0.093 A 
ATOM      8  C   UNL     1      25.919  32.018   4.095  1.00  0.00     0.123 A 
ATOM      9  C   UNL     1      24.738  32.760   4.148  1.00  0.00     0.094 A 
ATOM     10  C   UNL     1      24.112  33.005   5.373  1.00  0.00     0.146 A 
ATOM     11  O   UNL     1      22.983  33.704   5.379  1.00  0.00    -0.452 OA
ENDROOT
BRANCH   1  12
ATOM     12  C   UNL     1      21.065  34.789   6.356  1.00  0.00     0.025 A 
ATOM     13  C   UNL     1      21.010  35.906   5.503  1.00  0.00     0.016 A 
ATOM     14  C   UNL     1      19.829  36.644   5.381  1.00  0.00     0.051 A 
ATOM     15  C   UNL     1      18.687  36.273   6.095  1.00  0.00     0.157 A 
ATOM     16  C   UNL     1      19.909  34.408   7.056  1.00  0.00     0.062 A 
ATOM     17  C   UNL     1      18.723  35.148   6.935  1.00  0.00     0.158 A 
BRANCH  15  18
ATOM     18  O   UNL     1      17.524  37.031   5.955  1.00  0.00    -0.504 OA
ATOM     19  H   UNL     1      17.286  37.777   6.597  1.00  0.00     0.293 HD
ENDBRANCH  15  18
BRANCH  17  20
ATOM     20  O   UNL     1      17.585  34.768   7.644  1.00  0.00    -0.504 OA
ATOM     21  H   UNL     1      16.657  34.868   7.252  1.00  0.00     0.293 HD
ENDBRANCH  17  20
ENDBRANCH   1  12
BRANCH   2  22
ATOM     22  O   UNL     1      21.970  33.668   8.871  1.00  0.00    -0.502 OA
ATOM     23  H   UNL     1      22.146  34.431   9.513  1.00  0.00     0.293 HD
ENDBRANCH   2  22
BRANCH   6  24
ATOM     24  O   UNL     1      26.616  31.371   7.644  1.00  0.00    -0.507 OA
ATOM     25  H   UNL     1      26.997  31.977   8.355  1.00  0.00     0.293 HD
ENDBRANCH   6  24
BRANCH   8  26
ATOM     26  O   UNL     1      26.537  31.753   2.875  1.00  0.00    -0.508 OA
ATOM     27  H   UNL     1      26.072  31.938   1.995  1.00  0.00     0.293 HD
ENDBRANCH   8  26
TORSDOF 6
ENDMDL
MODEL 4
REMARK VINA RESULT:    -6.055      2.069      7.152
REMARK INTER + INTRA:          -7.605
REMARK INTER:                  -7.305
REMARK INTRA:                  -0.300
REMARK UNBOUND:                -0.312
REMARK SMILES O=c1c(O)c(-c2ccc(O)c(O)c2)oc2cc(O)cc(O)c12
REMARK SMILES IDX 5 1 3 2 2 3 1 4 22 5 20 6 19 7 17 8 16 9 15 10 14 11 6 12
REMARK SMILES IDX 7 13 8 14 9 15 13 16 11 17 10 18 12 20 4 22 21 24 18 26
REMARK H PARENT 10 19 12 21 4 23 21 25 18 27
REMARK Flexibility Score: inf
ROOT
ATOM      1  C   UNL     1      22.768  33.247   6.013  1.00  0.00     0.180 A 
ATOM      2  C   UNL     1      23.578  32.981   7.130  1.00  0.00     0.208 A 
ATOM      3  C   UNL     1      24.260  31.754   7.199  1.00  0.00     0.238 A 
ATOM      4  O   UNL     1      24.942  31.499   8.227  1.00  0.00    -0.285 OA
ATOM      5  C   UNL     1      24.136  30.819   6.144  1.00  0.00     0.111 A 
ATOM      6  C   UNL     1      24.813  29.563   6.091  1.00  0.00     0.134 A 
ATOM      7  C   UNL     1      24.515  28.661   5.063  1.00  0.00     0.093 A 
ATOM      8  C   UNL     1      23.614  28.994   4.052  1.00  0.00     0.123 A 
ATOM      9  C   UNL     1      22.991  30.242   4.061  1.00  0.00     0.094 A 
ATOM     10  C   UNL     1      23.241  31.149   5.094  1.00  0.00     0.146 A 
ATOM     11  O   UNL     1      22.620  32.323   5.072  1.00  0.00    -0.452 OA
ENDROOT
BRANCH   1  12
ATOM     12  C   UNL     1      22.038  34.527   5.857  1.00  0.00     0.025 A 
ATOM     13  C   UNL     1      22.527  35.552   5.029  1.00  0.00     0.016 A 
ATOM     14  C   UNL     1      21.808  36.741   4.877  1.00  0.00     0.051 A 
ATOM     15  C   UNL     1      20.589  36.919   5.537  1.00  0.00     0.157 A 
ATOM     16  C   UNL     1      20.803  34.700   6.501  1.00  0.00     0.062 A 
ATOM     17  C   UNL     1      20.080  35.894   6.351  1.00  0.00     0.158 A 
BRANCH  15  18
ATOM     18  O   UNL     1      19.895  38.117   5.369  1.00  0.00    -0.504 OA
ATOM     19  H   UNL     1      18.998  38.159   4.900  1.00  0.00     0.293 HD
ENDBRANCH  15  18
BRANCH  17  20
ATOM     20  O   UNL     1      18.860  36.061   7.005  1.00  0.00    -0.504 OA
ATOM     21  H   UNL     1      18.290  35.269   7.276  1.00  0.00     0.293 HD
ENDBRANCH  17  20
ENDBRANCH   1  12
BRANCH   2  22
ATOM     22  O   UNL     1      23.670  33.909   8.170  1.00  0.00    -0.502 OA
ATOM     23  H   UNL     1      24.548  34.136   8.621  1.00  0.00     0.293 HD
ENDBRANCH   2  22
BRANCH   6  24
ATOM     24  O   UNL     1      25.799  29.169   7.000  1.00  0.00    -0.507 OA
ATOM     25  H   UNL     1      26.263  28.273   6.992  1.00  0.00     0.293 HD
ENDBRANCH   6  24
BRANCH   8  26
ATOM     26  O   UNL     1      23.352  28.077   3.036  1.00  0.00    -0.508 OA
ATOM     27  H   UNL     1      22.554  28.182   2.420  1.00  0.00     0.293 HD
ENDBRANCH   8  26
TORSDOF 6
ENDMDL
MODEL 5
REMARK VINA RESULT:    -6.002      2.213      7.314
REMARK INTER + INTRA:          -7.541
REMARK INTER:                  -7.292
REMARK INTRA:                  -0.249
REMARK UNBOUND:                -0.312
REMARK SMILES O=c1c(O)c(-c2ccc(O)c(O)c2)oc2cc(O)cc(O)c12
REMARK SMILES IDX 5 1 3 2 2 3 1 4 22 5 20 6 19 7 17 8 16 9 15 10 14 11 6 12
REMARK SMILES IDX 7 13 8 14 9 15 13 16 11 17 10 18 12 20 4 22 21 24 18 26
REMARK H PARENT 10 19 12 21 4 23 21 25 18 27
REMARK Flexibility Score: inf
ROOT
ATOM      1  C   UNL     1      23.425  33.378   6.086  1.00  0.00     0.180 A 
ATOM      2  C   UNL     1      24.095  33.245   7.314  1.00  0.00     0.208 A 
ATOM      3  C   UNL     1      25.154  32.327   7.416  1.00  0.00     0.238 A 
ATOM      4  O   UNL     1      25.715  32.174   8.533  1.00  0.00    -0.285 OA
ATOM      5  C   UNL     1      25.539  31.567   6.286  1.00  0.00     0.111 A 
ATOM      6  C   UNL     1      26.623  30.638   6.265  1.00  0.00     0.134 A 
ATOM      7  C   UNL     1      26.832  29.846   5.130  1.00  0.00     0.093 A 
ATOM      8  C   UNL     1      26.038  29.994   3.993  1.00  0.00     0.123 A 
ATOM      9  C   UNL     1      25.014  30.941   3.981  1.00  0.00     0.094 A 
ATOM     10  C   UNL     1      24.758  31.721   5.112  1.00  0.00     0.146 A 
ATOM     11  O   UNL     1      23.766  32.603   5.063  1.00  0.00    -0.452 OA
ENDROOT
BRANCH   1  12
ATOM     12  C   UNL     1      22.316  34.340   5.894  1.00  0.00     0.025 A 
ATOM     13  C   UNL     1      22.486  35.510   5.132  1.00  0.00     0.016 A 
ATOM     14  C   UNL     1      21.418  36.391   4.943  1.00  0.00     0.051 A 
ATOM     15  C   UNL     1      20.166  36.114   5.499  1.00  0.00     0.157 A 
ATOM     16  C   UNL     1      21.052  34.054   6.432  1.00  0.00     0.062 A 
ATOM     17  C   UNL     1      19.978  34.939   6.245  1.00  0.00     0.158 A 
BRANCH  15  18
ATOM     18  O   UNL     1      19.119  37.014   5.296  1.00  0.00    -0.504 OA
ATOM     19  H   UNL     1      18.925  37.417   4.388  1.00  0.00     0.293 HD
ENDBRANCH  15  18
BRANCH  17  20
ATOM     20  O   UNL     1      18.730  34.651   6.794  1.00  0.00    -0.504 OA
ATOM     21  H   UNL     1      17.977  35.329   6.786  1.00  0.00     0.293 HD
ENDBRANCH  17  20
ENDBRANCH   1  12
BRANCH   2  22
ATOM     22  O   UNL     1      23.686  33.989   8.424  1.00  0.00    -0.502 OA
ATOM     23  H   UNL     1      24.342  34.443   9.047  1.00  0.00     0.293 HD
ENDBRANCH   2  22
BRANCH   6  24
ATOM     24  O   UNL     1      27.533  30.477   7.314  1.00  0.00    -0.507 OA
ATOM     25  H   UNL     1      28.327  31.076   7.484  1.00  0.00     0.293 HD
ENDBRANCH   6  24
BRANCH   8  26
ATOM     26  O   UNL     1      26.284  29.200   2.875  1.00  0.00    -0.508 OA
ATOM     27  H   UNL     1      26.119  28.200   2.889  1.00  0.00     0.293 HD
ENDBRANCH   8  26
TORSDOF 6
ENDMDL
MODEL 6
REMARK VINA RESULT:    -5.996      1.922      7.140
REMARK INTER + INTRA:          -7.534
REMARK INTER:                  -7.369
REMARK INTRA:                  -0.165
REMARK UNBOUND:                -0.312
REMARK SMILES O=c1c(O)c(-c2ccc(O)c(O)c2)oc2cc(O)cc(O)c12
REMARK SMILES IDX 5 1 3 2 2 3 1 4 22 5 20 6 19 7 17 8 16 9 15 10 14 11 6 12
REMARK SMILES IDX 7 13 8 14 9 15 13 16 11 17 10 18 12 20 4 22 21 24 18 26
REMARK H PARENT 10 19 12 21 4 23 21 25 18 27
REMARK Flexibility Score: inf
ROOT
ATOM      1  C   UNL     1      22.500  33.263   5.416  1.00  0.00     0.180 A 
ATOM      2  C   UNL     1      22.233  32.170   4.574  1.00  0.00     0.208 A 
ATOM      3  C   UNL     1      23.060  31.037   4.647  1.00  0.00     0.238 A 
ATOM      4  O   UNL     1      22.848  30.082   3.853  1.00  0.00    -0.285 OA
ATOM      5  C   UNL     1      24.131  31.004   5.571  1.00  0.00     0.111 A 
ATOM      6  C   UNL     1      25.007  29.893   5.758  1.00  0.00     0.134 A 
ATOM      7  C   UNL     1      26.113  30.020   6.607  1.00  0.00     0.093 A 
ATOM      8  C   UNL     1      26.339  31.195   7.324  1.00  0.00     0.123 A 
ATOM      9  C   UNL     1      25.455  32.267   7.195  1.00  0.00     0.094 A 
ATOM     10  C   UNL     1      24.364  32.182   6.327  1.00  0.00     0.146 A 
ATOM     11  O   UNL     1      23.553  33.229   6.224  1.00  0.00    -0.452 OA
ENDROOT
BRANCH   1  12
ATOM     12  C   UNL     1      21.660  34.483   5.413  1.00  0.00     0.025 A 
ATOM     13  C   UNL     1      20.298  34.433   5.760  1.00  0.00     0.016 A 
ATOM     14  C   UNL     1      19.530  35.601   5.776  1.00  0.00     0.051 A 
ATOM     15  C   UNL     1      20.110  36.833   5.459  1.00  0.00     0.157 A 
ATOM     16  C   UNL     1      22.244  35.724   5.117  1.00  0.00     0.062 A 
ATOM     17  C   UNL     1      21.474  36.898   5.130  1.00  0.00     0.158 A 
BRANCH  15  18
ATOM     18  O   UNL     1      19.318  37.981   5.480  1.00  0.00    -0.504 OA
ATOM     19  H   UNL     1      18.720  38.237   4.704  1.00  0.00     0.293 HD
ENDBRANCH  15  18
BRANCH  17  20
ATOM     20  O   UNL     1      22.061  38.124   4.822  1.00  0.00    -0.504 OA
ATOM     21  H   UNL     1      22.108  38.875   5.499  1.00  0.00     0.293 HD
ENDBRANCH  17  20
ENDBRANCH   1  12
BRANCH   2  22
ATOM     22  O   UNL     1      21.183  32.230   3.654  1.00  0.00    -0.502 OA
ATOM     23  H   UNL     1      20.698  31.404   3.327  1.00  0.00     0.293 HD
ENDBRANCH   2  22
BRANCH   6  24
ATOM     24  O   UNL     1      24.821  28.643   5.161  1.00  0.00    -0.507 OA
ATOM     25  H   UNL     1      24.340  27.866   5.590  1.00  0.00     0.293 HD
ENDBRANCH   6  24
BRANCH   8  26
ATOM     26  O   UNL     1      27.441  31.281   8.172  1.00  0.00    -0.508 OA
ATOM     27  H   UNL     1      27.338  31.512   9.153  1.00  0.00     0.293 HD
ENDBRANCH   8  26
TORSDOF 6
ENDMDL
MODEL 7
REMARK VINA RESULT:    -5.710      2.601      3.470
REMARK INTER + INTRA:          -7.190
REMARK INTER:                  -7.059
REMARK INTRA:                  -0.131
REMARK UNBOUND:                -0.312
REMARK SMILES O=c1c(O)c(-c2ccc(O)c(O)c2)oc2cc(O)cc(O)c12
REMARK SMILES IDX 5 1 3 2 2 3 1 4 22 5 20 6 19 7 17 8 16 9 15 10 14 11 6 12
REMARK SMILES IDX 7 13 8 14 9 15 13 16 11 17 10 18 12 20 4 22 21 24 18 26
REMARK H PARENT 10 19 12 21 4 23 21 25 18 27
REMARK Flexibility Score: inf
ROOT
ATOM      1  C   UNL     1      22.346  34.049   6.067  1.00  0.00     0.180 A 
ATOM      2  C   UNL     1      22.264  33.982   7.468  1.00  0.00     0.208 A 
ATOM      3  C   UNL     1      21.124  34.498   8.108  1.00  0.00     0.238 A 
ATOM      4  O   UNL     1      21.080  34.483   9.367  1.00  0.00    -0.285 OA
ATOM      5  C   UNL     1      20.077  35.059   7.339  1.00  0.00     0.111 A 
ATOM      6  C   UNL     1      18.860  35.574   7.879  1.00  0.00     0.134 A 
ATOM      7  C   UNL     1      17.950  36.223   7.037  1.00  0.00     0.093 A 
ATOM      8  C   UNL     1      18.182  36.320   5.665  1.00  0.00     0.123 A 
ATOM      9  C   UNL     1      19.340  35.767   5.116  1.00  0.00     0.094 A 
ATOM     10  C   UNL     1      20.284  35.145   5.938  1.00  0.00     0.146 A 
ATOM     11  O   UNL     1      21.378  34.641   5.378  1.00  0.00    -0.452 OA
ENDROOT
BRANCH   1  12
ATOM     12  C   UNL     1      23.504  33.506   5.319  1.00  0.00     0.025 A 
ATOM     13  C   UNL     1      24.801  34.016   5.507  1.00  0.00     0.016 A 
ATOM     14  C   UNL     1      25.882  33.471   4.810  1.00  0.00     0.051 A 
ATOM     15  C   UNL     1      25.689  32.404   3.927  1.00  0.00     0.157 A 
ATOM     16  C   UNL     1      23.317  32.421   4.449  1.00  0.00     0.062 A 
ATOM     17  C   UNL     1      24.401  31.872   3.747  1.00  0.00     0.158 A 
BRANCH  15  18
ATOM     18  O   UNL     1      26.787  31.882   3.243  1.00  0.00    -0.504 OA
ATOM     19  H   UNL     1      26.682  31.277   2.438  1.00  0.00     0.293 HD
ENDBRANCH  15  18
BRANCH  17  20
ATOM     20  O   UNL     1      24.202  30.803   2.875  1.00  0.00    -0.504 OA
ATOM     21  H   UNL     1      24.958  30.426   2.316  1.00  0.00     0.293 HD
ENDBRANCH  17  20
ENDBRANCH   1  12
BRANCH   2  22
ATOM     22  O   UNL     1      23.318  33.444   8.210  1.00  0.00    -0.502 OA
ATOM     23  H   UNL     1      23.169  32.817   8.992  1.00  0.00     0.293 HD
ENDBRANCH   2  22
BRANCH   6  24
ATOM     24  O   UNL     1      18.488  35.450   9.221  1.00  0.00    -0.507 OA
ATOM     25  H   UNL     1      17.750  35.976   9.664  1.00  0.00     0.293 HD
ENDBRANCH   6  24
BRANCH   8  26
ATOM     26  O   UNL     1      17.247  36.959   4.853  1.00  0.00    -0.508 OA
ATOM     27  H   UNL     1      17.054  36.637   3.913  1.00  0.00     0.293 HD
ENDBRANCH   8  26
TORSDOF 6
ENDMDL
MODEL 8
REMARK VINA RESULT:    -5.463      4.179      7.451
REMARK INTER + INTRA:          -6.893
REMARK INTER:                  -6.696
REMARK INTRA:                  -0.197
REMARK UNBOUND:                -0.312
REMARK SMILES O=c1c(O)c(-c2ccc(O)c(O)c2)oc2cc(O)cc(O)c12
REMARK SMILES IDX 5 1 3 2 2 3 1 4 22 5 20 6 19 7 17 8 16 9 15 10 14 11 6 12
REMARK SMILES IDX 7 13 8 14 9 15 13 16 11 17 10 18 12 20 4 22 21 24 18 26
REMARK H PARENT 10 19 12 21 4 23 21 25 18 27
REMARK Flexibility Score: inf
ROOT
ATOM      1  C   UNL     1      24.252  27.815   6.572  1.00  0.00     0.180 A 
ATOM      2  C   UNL     1      25.632  27.556   6.630  1.00  0.00     0.208 A 
ATOM      3  C   UNL     1      26.501  28.587   7.024  1.00  0.00     0.238 A 
ATOM      4  O   UNL     1      27.741  28.365   7.023  1.00  0.00    -0.285 OA
ATOM      5  C   UNL     1      25.978  29.856   7.369  1.00  0.00     0.111 A 
ATOM      6  C   UNL     1      26.762  30.961   7.820  1.00  0.00     0.134 A 
ATOM      7  C   UNL     1      26.155  32.208   8.009  1.00  0.00     0.093 A 
ATOM      8  C   UNL     1      24.783  32.376   7.826  1.00  0.00     0.123 A 
ATOM      9  C   UNL     1      23.996  31.288   7.443  1.00  0.00     0.094 A 
ATOM     10  C   UNL     1      24.580  30.040   7.212  1.00  0.00     0.146 A 
ATOM     11  O   UNL     1      23.798  29.034   6.837  1.00  0.00    -0.452 OA
ENDROOT
BRANCH   1  12
ATOM     12  C   UNL     1      23.271  26.773   6.189  1.00  0.00     0.025 A 
ATOM     13  C   UNL     1      23.064  25.634   6.988  1.00  0.00     0.016 A 
ATOM     14  C   UNL     1      22.115  24.676   6.620  1.00  0.00     0.051 A 
ATOM     15  C   UNL     1      21.352  24.845   5.461  1.00  0.00     0.157 A 
ATOM     16  C   UNL     1      22.488  26.950   5.037  1.00  0.00     0.062 A 
ATOM     17  C   UNL     1      21.535  25.989   4.665  1.00  0.00     0.158 A 
BRANCH  15  18
ATOM     18  O   UNL     1      20.415  23.871   5.118  1.00  0.00    -0.504 OA
ATOM     19  H   UNL     1      19.809  23.441   5.806  1.00  0.00     0.293 HD
ENDBRANCH  15  18
BRANCH  17  20
ATOM     20  O   UNL     1      20.772  26.168   3.513  1.00  0.00    -0.504 OA
ATOM     21  H   UNL     1      20.913  26.963   2.902  1.00  0.00     0.293 HD
ENDBRANCH  17  20
ENDBRANCH   1  12
BRANCH   2  22
ATOM     22  O   UNL     1      26.129  26.303   6.264  1.00  0.00    -0.502 OA
ATOM     23  H   UNL     1      25.590  25.452   6.366  1.00  0.00     0.293 HD
ENDBRANCH   2  22
BRANCH   6  24
ATOM     24  O   UNL     1      28.125  30.878   8.122  1.00  0.00    -0.507 OA
ATOM     25  H   UNL     1      28.659  31.606   8.573  1.00  0.00     0.293 HD
ENDBRANCH   6  24
BRANCH   8  26
ATOM     26  O   UNL     1      24.209  33.627   8.038  1.00  0.00    -0.508 OA
ATOM     27  H   UNL     1      23.512  33.775   8.757  1.00  0.00     0.293 HD
ENDBRANCH   8  26
TORSDOF 6
ENDMDL
MODEL 9
REMARK VINA RESULT:    -5.274      1.793      7.365
REMARK INTER + INTRA:          -6.665
REMARK INTER:                  -6.348
REMARK INTRA:                  -0.317
REMARK UNBOUND:                -0.312
REMARK SMILES O=c1c(O)c(-c2ccc(O)c(O)c2)oc2cc(O)cc(O)c12
REMARK SMILES IDX 5 1 3 2 2 3 1 4 22 5 20 6 19 7 17 8 16 9 15 10 14 11 6 12
REMARK SMILES IDX 7 13 8 14 9 15 13 16 11 17 10 18 12 20 4 22 21 24 18 26
REMARK H PARENT 10 19 12 21 4 23 21 25 18 27
REMARK Flexibility Score: inf
ROOT
ATOM      1  C   UNL     1      23.994  32.226   6.704  1.00  0.00     0.180 A 
ATOM      2  C   UNL     1      25.155  32.408   7.475  1.00  0.00     0.208 A 
ATOM      3  C   UNL     1      25.971  31.297   7.748  1.00  0.00     0.238 A 
ATOM      4  O   UNL     1      26.981  31.456   8.484  1.00  0.00    -0.285 OA
ATOM      5  C   UNL     1      25.625  30.025   7.234  1.00  0.00     0.111 A 
ATOM      6  C   UNL     1      26.399  28.839   7.415  1.00  0.00     0.134 A 
ATOM      7  C   UNL     1      25.895  27.611   6.973  1.00  0.00     0.093 A 
ATOM      8  C   UNL     1      24.675  27.532   6.301  1.00  0.00     0.123 A 
ATOM      9  C   UNL     1      23.938  28.693   6.066  1.00  0.00     0.094 A 
ATOM     10  C   UNL     1      24.398  29.929   6.527  1.00  0.00     0.146 A 
ATOM     11  O   UNL     1      23.661  31.008   6.292  1.00  0.00    -0.452 OA
ENDROOT
BRANCH   1  12
ATOM     12  C   UNL     1      23.097  33.351   6.354  1.00  0.00     0.025 A 
ATOM     13  C   UNL     1      23.209  34.021   5.122  1.00  0.00     0.016 A 
ATOM     14  C   UNL     1      22.336  35.063   4.803  1.00  0.00     0.051 A 
ATOM     15  C   UNL     1      21.332  35.445   5.698  1.00  0.00     0.157 A 
ATOM     16  C   UNL     1      22.074  33.722   7.241  1.00  0.00     0.062 A 
ATOM     17  C   UNL     1      21.197  34.770   6.923  1.00  0.00     0.158 A 
BRANCH  15  18
ATOM     18  O   UNL     1      20.476  36.491   5.353  1.00  0.00    -0.504 OA
ATOM     19  H   UNL     1      19.542  36.328   4.997  1.00  0.00     0.293 HD
ENDBRANCH  15  18
BRANCH  17  20
ATOM     20  O   UNL     1      20.193  35.139   7.817  1.00  0.00    -0.504 OA
ATOM     21  H   UNL     1      20.348  35.142   8.818  1.00  0.00     0.293 HD
ENDBRANCH  17  20
ENDBRANCH   1  12
BRANCH   2  22
ATOM     22  O   UNL     1      25.467  33.668   7.990  1.00  0.00    -0.502 OA
ATOM     23  H   UNL     1      24.800  34.430   8.007  1.00  0.00     0.293 HD
ENDBRANCH   2  22
BRANCH   6  24
ATOM     24  O   UNL     1      27.673  28.820   7.992  1.00  0.00    -0.507 OA
ATOM     25  H   UNL     1      28.482  28.377   7.584  1.00  0.00     0.293 HD
ENDBRANCH   6  24
BRANCH   8  26
ATOM     26  O   UNL     1      24.211  26.294   5.862  1.00  0.00    -0.508 OA
ATOM     27  H   UNL     1      23.226  26.059   5.885  1.00  0.00     0.293 HD
ENDBRANCH   8  26
TORSDOF 6
ENDMDL
