MODEL 1
REMARK VINA RESULT:    -4.343      0.000      0.000
REMARK INTER + INTRA:          -6.622
REMARK INTER:                  -6.120
REMARK INTRA:                  -0.502
REMARK UNBOUND:                -0.502
REMARK SMILES CCCCCCCCC(=O)[O-]
REMARK SMILES IDX 6 1 7 2 8 3 9 4 10 5 11 6 5 7 4 8 3 9 2 10 1 11
REMARK H PARENT
REMARK Flexibility Score: inf
ROOT
ATOM      1  C   UNL     1     140.358 135.347 130.358  1.00  0.00     0.000 C 
ENDROOT
BRANCH   1   2
ATOM      2  C   UNL     1     139.605 136.453 131.121  1.00  0.00     0.006 C 
BRANCH   2   3
ATOM      3  C   UNL     1     139.041 137.562 130.217  1.00  0.00     0.053 C 
BRANCH   3   4
ATOM      4  C   UNL     1     137.566 137.756 130.396  1.00  0.00     0.041 C 
ATOM      5  O   UNL     1     136.824 136.771 130.651  1.00  0.00    -0.550 OA
ATOM      6  O   UNL     1     137.005 139.018 130.245  1.00  0.00    -0.550 OA
ENDBRANCH   3   4
ENDBRANCH   2   3
ENDBRANCH   1   2
BRANCH   1   7
ATOM      7  C   UNL     1     139.531 134.737 129.211  1.00  0.00     0.000 C 
BRANCH   7   8
ATOM      8  C   UNL     1     138.528 133.682 129.701  1.00  0.00    -0.000 C 
BRANCH   8   9
ATOM      9  C   UNL     1     139.188 132.598 130.571  1.00  0.00    -0.000 C 
BRANCH   9  10
ATOM     10  C   UNL     1     139.688 131.403 129.745  1.00  0.00    -0.003 C 
ATOM     11  C   UNL     1     138.600 130.801 128.856  1.00  0.00     0.004 C 
ENDBRANCH   9  10
ENDBRANCH   8   9
ENDBRANCH   7   8
ENDBRANCH   1   7
TORSDOF 7
ENDMDL
MODEL 2
REMARK VINA RESULT:    -4.319      2.216      3.906
REMARK INTER + INTRA:          -6.589
REMARK INTER:                  -5.884
REMARK INTRA:                  -0.705
REMARK UNBOUND:                -0.502
REMARK SMILES CCCCCCCCC(=O)[O-]
REMARK SMILES IDX 6 1 7 2 8 3 9 4 10 5 11 6 5 7 4 8 3 9 2 10 1 11
REMARK H PARENT
REMARK Flexibility Score: inf
ROOT
ATOM      1  C   UNL     1     139.662 131.487 129.853  1.00  0.00     0.000 C 
ENDROOT
BRANCH   1   2
ATOM      2  C   UNL     1     139.259 132.811 130.528  1.00  0.00     0.006 C 
BRANCH   2   3
ATOM      3  C   UNL     1     139.681 134.065 129.743  1.00  0.00     0.053 C 
BRANCH   3   4
ATOM      4  C   UNL     1     140.201 135.153 130.632  1.00  0.00     0.041 C 
ATOM      5  O   UNL     1     140.899 134.867 131.641  1.00  0.00    -0.550 OA
ATOM      6  O   UNL     1     139.887 136.480 130.368  1.00  0.00    -0.550 OA
ENDBRANCH   3   4
ENDBRANCH   2   3
ENDBRANCH   1   2
BRANCH   1   7
ATOM      7  C   UNL     1     138.452 130.644 129.410  1.00  0.00     0.000 C 
BRANCH   7   8
ATOM      8  C   UNL     1     138.149 130.785 127.911  1.00  0.00    -0.000 C 
BRANCH   8   9
ATOM      9  C   UNL     1     136.762 131.397 127.644  1.00  0.00    -0.000 C 
BRANCH   9  10
ATOM     10  C   UNL     1     136.813 132.926 127.500  1.00  0.00    -0.003 C 
ATOM     11  C   UNL     1     136.056 133.652 128.612  1.00  0.00     0.004 C 
ENDBRANCH   9  10
ENDBRANCH   8   9
ENDBRANCH   7   8
ENDBRANCH   1   7
TORSDOF 7
ENDMDL
MODEL 3
REMARK VINA RESULT:    -4.273      2.280      3.355
REMARK INTER + INTRA:          -6.524
REMARK INTER:                  -5.731
REMARK INTRA:                  -0.793
REMARK UNBOUND:                -0.502
REMARK SMILES CCCCCCCCC(=O)[O-]
REMARK SMILES IDX 6 1 7 2 8 3 9 4 10 5 11 6 5 7 4 8 3 9 2 10 1 11
REMARK H PARENT
REMARK Flexibility Score: inf
ROOT
ATOM      1  C   UNL     1     137.088 134.251 130.087  1.00  0.00     0.000 C 
ENDROOT
BRANCH   1   2
ATOM      2  C   UNL     1     138.287 134.462 129.143  1.00  0.00     0.006 C 
BRANCH   2   3
ATOM      3  C   UNL     1     139.643 134.089 129.764  1.00  0.00     0.053 C 
BRANCH   3   4
ATOM      4  C   UNL     1     140.206 135.183 130.619  1.00  0.00     0.041 C 
ATOM      5  O   UNL     1     140.037 136.389 130.297  1.00  0.00    -0.550 OA
ATOM      6  O   UNL     1     140.947 134.872 131.752  1.00  0.00    -0.550 OA
ENDBRANCH   3   4
ENDBRANCH   2   3
ENDBRANCH   1   2
BRANCH   1   7
ATOM      7  C   UNL     1     137.212 132.977 130.942  1.00  0.00     0.000 C 
BRANCH   7   8
ATOM      8  C   UNL     1     136.794 131.709 130.181  1.00  0.00    -0.000 C 
BRANCH   8   9
ATOM      9  C   UNL     1     137.936 130.684 130.068  1.00  0.00    -0.000 C 
BRANCH   9  10
ATOM     10  C   UNL     1     138.476 130.561 128.635  1.00  0.00    -0.003 C 
ATOM     11  C   UNL     1     137.530 131.155 127.592  1.00  0.00     0.004 C 
ENDBRANCH   9  10
ENDBRANCH   8   9
ENDBRANCH   7   8
ENDBRANCH   1   7
TORSDOF 7
ENDMDL
MODEL 4
REMARK VINA RESULT:    -4.258      2.540      3.664
REMARK INTER + INTRA:          -6.502
REMARK INTER:                  -5.768
REMARK INTRA:                  -0.733
REMARK UNBOUND:                -0.502
REMARK SMILES CCCCCCCCC(=O)[O-]
REMARK SMILES IDX 6 1 7 2 8 3 9 4 10 5 11 6 5 7 4 8 3 9 2 10 1 11
REMARK H PARENT
REMARK Flexibility Score: inf
ROOT
ATOM      1  C   UNL     1     137.313 133.991 129.034  1.00  0.00     0.000 C 
ENDROOT
BRANCH   1   2
ATOM      2  C   UNL     1     137.921 133.983 130.449  1.00  0.00     0.006 C 
BRANCH   2   3
ATOM      3  C   UNL     1     139.415 133.619 130.483  1.00  0.00     0.053 C 
BRANCH   3   4
ATOM      4  C   UNL     1     140.286 134.792 130.812  1.00  0.00     0.041 C 
ATOM      5  O   UNL     1     140.301 135.801 130.059  1.00  0.00    -0.550 OA
ATOM      6  O   UNL     1     141.110 134.758 131.930  1.00  0.00    -0.550 OA
ENDBRANCH   3   4
ENDBRANCH   2   3
ENDBRANCH   1   2
BRANCH   1   7
ATOM      7  C   UNL     1     136.044 133.127 128.919  1.00  0.00     0.000 C 
BRANCH   7   8
ATOM      8  C   UNL     1     136.347 131.621 128.967  1.00  0.00    -0.000 C 
BRANCH   8   9
ATOM      9  C   UNL     1     137.392 131.195 127.921  1.00  0.00    -0.000 C 
BRANCH   9  10
ATOM     10  C   UNL     1     138.609 130.504 128.554  1.00  0.00    -0.003 C 
ATOM     11  C   UNL     1     138.288 129.851 129.898  1.00  0.00     0.004 C 
ENDBRANCH   9  10
ENDBRANCH   8   9
ENDBRANCH   7   8
ENDBRANCH   1   7
TORSDOF 7
ENDMDL
MODEL 5
REMARK VINA RESULT:    -4.248      3.579      5.332
REMARK INTER + INTRA:          -6.488
REMARK INTER:                  -5.710
REMARK INTRA:                  -0.778
REMARK UNBOUND:                -0.502
REMARK SMILES CCCCCCCCC(=O)[O-]
REMARK SMILES IDX 6 1 7 2 8 3 9 4 10 5 11 6 5 7 4 8 3 9 2 10 1 11
REMARK H PARENT
REMARK Flexibility Score: inf
ROOT
ATOM      1  C   UNL     1     138.050 130.862 127.852  1.00  0.00     0.000 C 
ENDROOT
BRANCH   1   2
ATOM      2  C   UNL     1     138.511 130.256 129.191  1.00  0.00     0.006 C 
BRANCH   2   3
ATOM      3  C   UNL     1     139.644 131.041 129.874  1.00  0.00     0.053 C 
BRANCH   3   4
ATOM      4  C   UNL     1     139.151 132.266 130.581  1.00  0.00     0.041 C 
ATOM      5  O   UNL     1     138.545 132.162 131.681  1.00  0.00    -0.550 OA
ATOM      6  O   UNL     1     139.328 133.520 130.011  1.00  0.00    -0.550 OA
ENDBRANCH   3   4
ENDBRANCH   2   3
ENDBRANCH   1   2
BRANCH   1   7
ATOM      7  C   UNL     1     136.600 131.376 127.891  1.00  0.00     0.000 C 
BRANCH   7   8
ATOM      8  C   UNL     1     135.859 130.966 129.173  1.00  0.00    -0.000 C 
BRANCH   8   9
ATOM      9  C   UNL     1     135.386 132.177 129.995  1.00  0.00    -0.000 C 
BRANCH   9  10
ATOM     10  C   UNL     1     135.789 133.515 129.356  1.00  0.00    -0.003 C 
ATOM     11  C   UNL     1     134.692 134.575 129.458  1.00  0.00     0.004 C 
ENDBRANCH   9  10
ENDBRANCH   8   9
ENDBRANCH   7   8
ENDBRANCH   1   7
TORSDOF 7
ENDMDL
MODEL 6
REMARK VINA RESULT:    -4.218      4.428      5.753
REMARK INTER + INTRA:          -6.446
REMARK INTER:                  -5.773
REMARK INTRA:                  -0.673
REMARK UNBOUND:                -0.502
REMARK SMILES CCCCCCCCC(=O)[O-]
REMARK SMILES IDX 6 1 7 2 8 3 9 4 10 5 11 6 5 7 4 8 3 9 2 10 1 11
REMARK H PARENT
REMARK Flexibility Score: inf
ROOT
ATOM      1  C   UNL     1     135.184 134.085 129.109  1.00  0.00     0.000 C 
ENDROOT
BRANCH   1   2
ATOM      2  C   UNL     1     133.998 133.401 129.815  1.00  0.00     0.006 C 
BRANCH   2   3
ATOM      3  C   UNL     1     134.394 132.171 130.649  1.00  0.00     0.053 C 
BRANCH   3   4
ATOM      4  C   UNL     1     133.976 130.883 130.008  1.00  0.00     0.041 C 
ATOM      5  O   UNL     1     134.556 130.475 128.968  1.00  0.00    -0.550 OA
ATOM      6  O   UNL     1     132.922 130.149 130.539  1.00  0.00    -0.550 OA
ENDBRANCH   3   4
ENDBRANCH   2   3
ENDBRANCH   1   2
BRANCH   1   7
ATOM      7  C   UNL     1     136.524 133.865 129.833  1.00  0.00     0.000 C 
BRANCH   7   8
ATOM      8  C   UNL     1     137.581 133.204 128.935  1.00  0.00    -0.000 C 
BRANCH   8   9
ATOM      9  C   UNL     1     137.003 132.740 127.586  1.00  0.00    -0.000 C 
BRANCH   9  10
ATOM     10  C   UNL     1     137.418 131.303 127.232  1.00  0.00    -0.003 C 
ATOM     11  C   UNL     1     138.293 130.657 128.306  1.00  0.00     0.004 C 
ENDBRANCH   9  10
ENDBRANCH   8   9
ENDBRANCH   7   8
ENDBRANCH   1   7
TORSDOF 7
ENDMDL
MODEL 7
REMARK VINA RESULT:    -4.192      1.981      3.089
REMARK INTER + INTRA:          -6.409
REMARK INTER:                  -5.544
REMARK INTRA:                  -0.865
REMARK UNBOUND:                -0.502
REMARK SMILES CCCCCCCCC(=O)[O-]
REMARK SMILES IDX 6 1 7 2 8 3 9 4 10 5 11 6 5 7 4 8 3 9 2 10 1 11
REMARK H PARENT
REMARK Flexibility Score: inf
ROOT
ATOM      1  C   UNL     1     139.081 132.488 130.580  1.00  0.00     0.000 C 
ENDROOT
BRANCH   1   2
ATOM      2  C   UNL     1     139.474 133.824 129.921  1.00  0.00     0.006 C 
BRANCH   2   3
ATOM      3  C   UNL     1     138.327 134.502 129.154  1.00  0.00     0.053 C 
BRANCH   3   4
ATOM      4  C   UNL     1     137.212 134.940 130.054  1.00  0.00     0.041 C 
ATOM      5  O   UNL     1     136.095 134.361 130.008  1.00  0.00    -0.550 OA
ATOM      6  O   UNL     1     137.394 136.012 130.920  1.00  0.00    -0.550 OA
ENDBRANCH   3   4
ENDBRANCH   2   3
ENDBRANCH   1   2
BRANCH   1   7
ATOM      7  C   UNL     1     139.670 131.264 129.856  1.00  0.00     0.000 C 
BRANCH   7   8
ATOM      8  C   UNL     1     138.617 130.491 129.048  1.00  0.00    -0.000 C 
BRANCH   8   9
ATOM      9  C   UNL     1     137.177 130.873 129.435  1.00  0.00    -0.000 C 
BRANCH   9  10
ATOM     10  C   UNL     1     136.333 131.289 128.221  1.00  0.00    -0.003 C 
ATOM     11  C   UNL     1     137.183 131.644 127.001  1.00  0.00     0.004 C 
ENDBRANCH   9  10
ENDBRANCH   8   9
ENDBRANCH   7   8
ENDBRANCH   1   7
TORSDOF 7
ENDMDL
MODEL 8
REMARK VINA RESULT:    -4.189      2.694      4.425
REMARK INTER + INTRA:          -6.405
REMARK INTER:                  -5.529
REMARK INTRA:                  -0.876
REMARK UNBOUND:                -0.502
REMARK SMILES CCCCCCCCC(=O)[O-]
REMARK SMILES IDX 6 1 7 2 8 3 9 4 10 5 11 6 5 7 4 8 3 9 2 10 1 11
REMARK H PARENT
REMARK Flexibility Score: inf
ROOT
ATOM      1  C   UNL     1     138.594 130.597 129.430  1.00  0.00     0.000 C 
ENDROOT
BRANCH   1   2
ATOM      2  C   UNL     1     139.734 131.533 129.872  1.00  0.00     0.006 C 
BRANCH   2   3
ATOM      3  C   UNL     1     139.262 132.742 130.699  1.00  0.00     0.053 C 
BRANCH   3   4
ATOM      4  C   UNL     1     139.300 134.022 129.922  1.00  0.00     0.041 C 
ATOM      5  O   UNL     1     138.409 134.271 129.068  1.00  0.00    -0.550 OA
ATOM      6  O   UNL     1     140.339 134.925 130.114  1.00  0.00    -0.550 OA
ENDBRANCH   3   4
ENDBRANCH   2   3
ENDBRANCH   1   2
BRANCH   1   7
ATOM      7  C   UNL     1     138.125 130.858 127.988  1.00  0.00     0.000 C 
BRANCH   7   8
ATOM      8  C   UNL     1     136.663 131.328 127.916  1.00  0.00    -0.000 C 
BRANCH   8   9
ATOM      9  C   UNL     1     135.936 131.204 129.267  1.00  0.00    -0.000 C 
BRANCH   9  10
ATOM     10  C   UNL     1     135.401 132.552 129.773  1.00  0.00    -0.003 C 
ATOM     11  C   UNL     1     135.603 132.743 131.276  1.00  0.00     0.004 C 
ENDBRANCH   9  10
ENDBRANCH   8   9
ENDBRANCH   7   8
ENDBRANCH   1   7
TORSDOF 7
ENDMDL
MODEL 9
REMARK VINA RESULT:    -4.177      3.181      5.476
REMARK INTER + INTRA:          -6.388
REMARK INTER:                  -5.783
REMARK INTRA:                  -0.605
REMARK UNBOUND:                -0.502
REMARK SMILES CCCCCCCCC(=O)[O-]
REMARK SMILES IDX 6 1 7 2 8 3 9 4 10 5 11 6 5 7 4 8 3 9 2 10 1 11
REMARK H PARENT
REMARK Flexibility Score: inf
ROOT
ATOM      1  C   UNL     1     138.895 131.428 130.692  1.00  0.00     0.000 C 
ENDROOT
BRANCH   1   2
ATOM      2  C   UNL     1     138.293 130.307 129.825  1.00  0.00     0.006 C 
BRANCH   2   3
ATOM      3  C   UNL     1     138.350 130.589 128.314  1.00  0.00     0.053 C 
BRANCH   3   4
ATOM      4  C   UNL     1     137.122 131.285 127.812  1.00  0.00     0.041 C 
ATOM      5  O   UNL     1     137.187 132.036 126.803  1.00  0.00    -0.550 OA
ATOM      6  O   UNL     1     135.911 131.133 128.477  1.00  0.00    -0.550 OA
ENDBRANCH   3   4
ENDBRANCH   2   3
ENDBRANCH   1   2
BRANCH   1   7
ATOM      7  C   UNL     1     137.833 132.382 131.267  1.00  0.00     0.000 C 
BRANCH   7   8
ATOM      8  C   UNL     1     137.841 133.759 130.585  1.00  0.00    -0.000 C 
BRANCH   8   9
ATOM      9  C   UNL     1     139.147 134.029 129.817  1.00  0.00    -0.000 C 
BRANCH   9  10
ATOM     10  C   UNL     1     140.094 134.968 130.579  1.00  0.00    -0.003 C 
ATOM     11  C   UNL     1     139.622 136.421 130.571  1.00  0.00     0.004 C 
ENDBRANCH   9  10
ENDBRANCH   8   9
ENDBRANCH   7   8
ENDBRANCH   1   7
TORSDOF 7
ENDMDL
