MODEL 1
REMARK VINA RESULT:    23.680      0.000      0.000
REMARK INTER + INTRA:          33.362
REMARK INTER:                  32.678
REMARK INTRA:                   0.683
REMARK UNBOUND:                 0.683
REMARK SMILES C[C@@H]1C(=O)O[C@H](C)[C@@H]1C[C@H](O)[C@@](C)(O)[C@@H]1CC[C@@]2(O)C3=CC(=O)[C@@H]4C[C@H](O)[C@H](O)C[C@@]4(C)[C@@H]3CC[C@@]12C
REMARK SMILES IDX 12 1 13 2 10 3 9 4 8 5 1 6 2 7 3 8 6 9 5 10 4 11 7 12 11 13
REMARK SMILES IDX 15 15 16 16 36 17 17 18 18 19 35 20 37 21 20 22 34 23 33 24
REMARK SMILES IDX 21 25 31 26 22 27 24 28 30 29 32 30 23 31 25 32 28 33 26 34
REMARK SMILES IDX 19 35 29 37 27 39 14 41
REMARK H PARENT 11 14 19 36 29 38 27 40 14 42
REMARK Flexibility Score: inf
ROOT
ATOM      1  C   UNL     1      16.824  17.278  27.438  1.00  0.00     0.091 C 
ATOM      2  C   UNL     1      17.112  18.642  28.114  1.00  0.00     0.045 C 
ENDROOT
BRANCH   1   3
ATOM      3  C   UNL     1      15.587  16.588  28.125  1.00  0.00     0.146 C 
BRANCH   3   4
ATOM      4  C   UNL     1      15.203  15.175  27.581  1.00  0.00     0.043 C 
BRANCH   4   5
ATOM      5  C   UNL     1      13.718  14.719  27.788  1.00  0.00     0.046 C 
ATOM      6  C   UNL     1      14.512  12.233  27.468  1.00  0.00     0.020 C 
ATOM      7  C   UNL     1      13.518  13.208  28.125  1.00  0.00     0.103 C 
ATOM      8  C   UNL     1      12.162  12.966  27.578  1.00  0.00     0.309 C 
ATOM      9  C   UNL     1      12.681  15.019  26.652  1.00  0.00     0.177 C 
ATOM     10  O   UNL     1      11.722  13.981  26.759  1.00  0.00    -0.462 OA
ATOM     11  O   UNL     1      11.470  11.943  27.826  1.00  0.00    -0.252 OA
ATOM     12  C   UNL     1      13.237  15.027  25.225  1.00  0.00     0.053 C 
ENDBRANCH   4   5
ENDBRANCH   3   4
BRANCH   3  13
ATOM     13  O   UNL     1      14.467  17.440  28.099  1.00  0.00    -0.390 OA
ATOM     14  H   UNL     1      14.032  17.377  28.990  1.00  0.00     0.211 HD
ENDBRANCH   3  13
ENDBRANCH   1   3
BRANCH   1  15
ATOM     15  C   UNL     1      16.671  17.407  25.852  1.00  0.00     0.032 C 
ATOM     16  C   UNL     1      17.986  17.901  25.197  1.00  0.00     0.010 C 
ATOM     17  C   UNL     1      15.538  18.252  25.140  1.00  0.00     0.006 C 
ATOM     18  C   UNL     1      17.681  19.179  24.418  1.00  0.00     0.041 C 
ATOM     19  C   UNL     1      16.240  19.590  24.747  1.00  0.00     0.092 C 
ATOM     20  C   UNL     1      15.126  17.470  23.850  1.00  0.00     0.011 C 
ATOM     21  C   UNL     1      14.251  18.490  25.973  1.00  0.00     0.015 C 
ATOM     22  C   UNL     1      15.634  20.322  23.534  1.00  0.00    -0.031 C 
ATOM     23  C   UNL     1      14.246  18.274  22.897  1.00  0.00     0.009 C 
ATOM     24  C   UNL     1      14.966  19.540  22.393  1.00  0.00     0.025 C 
ATOM     25  C   UNL     1      15.934  21.630  23.360  1.00  0.00     0.050 C 
ATOM     26  C   UNL     1      14.047  20.460  21.497  1.00  0.00    -0.013 C 
ATOM     27  C   UNL     1      15.530  22.376  22.157  1.00  0.00     0.159 C 
ATOM     28  C   UNL     1      14.952  21.626  20.988  1.00  0.00     0.070 C 
ATOM     29  C   UNL     1      13.524  19.670  20.255  1.00  0.00     0.042 C 
ATOM     30  C   UNL     1      12.840  20.986  22.338  1.00  0.00     0.013 C 
ATOM     31  O   UNL     1      15.750  23.615  22.091  1.00  0.00    -0.295 OA
ATOM     32  C   UNL     1      14.254  22.536  19.956  1.00  0.00     0.047 C 
ATOM     33  C   UNL     1      12.862  20.551  19.173  1.00  0.00     0.143 C 
ATOM     34  C   UNL     1      13.783  21.713  18.746  1.00  0.00     0.143 C 
BRANCH  19  35
ATOM     35  O   UNL     1      16.288  20.452  25.866  1.00  0.00    -0.385 OA
ATOM     36  H   UNL     1      15.761  20.043  26.602  1.00  0.00     0.211 HD
ENDBRANCH  19  35
BRANCH  33  37
ATOM     37  O   UNL     1      11.625  21.033  19.632  1.00  0.00    -0.390 OA
ATOM     38  H   UNL     1      10.920  20.605  19.079  1.00  0.00     0.211 HD
ENDBRANCH  33  37
BRANCH  34  39
ATOM     39  O   UNL     1      13.107  22.540  17.836  1.00  0.00    -0.390 OA
ATOM     40  H   UNL     1      12.188  22.177  17.744  1.00  0.00     0.211 HD
ENDBRANCH  34  39
ENDBRANCH   1  15
BRANCH   1  41
ATOM     41  O   UNL     1      17.957  16.478  27.685  1.00  0.00    -0.387 OA
ATOM     42  H   UNL     1      18.518  16.937  28.363  1.00  0.00     0.211 HD
ENDBRANCH   1  41
TORSDOF 9
ENDMDL
