MODEL 1
REMARK VINA RESULT:    -3.187      0.000      0.000
REMARK INTER + INTRA:          -5.206
REMARK INTER:                  -4.677
REMARK INTRA:                  -0.529
REMARK UNBOUND:                -0.529
REMARK SMILES O=C([O-])CCCCCCCC(=O)[O-]
REMARK SMILES IDX 7 1 6 2 5 3 4 4 2 5 1 6 3 7 8 8 9 9 10 10 11 11 12 12 13 13
REMARK H PARENT
REMARK Flexibility Score: inf
ROOT
ATOM      1  C   UNL     1      -7.900   5.907   7.118  1.00  0.00     0.000 C 
ENDROOT
BRANCH   1   2
ATOM      2  C   UNL     1      -9.351   5.958   6.612  1.00  0.00     0.000 C 
BRANCH   2   3
ATOM      3  C   UNL     1      -9.761   7.355   6.122  1.00  0.00     0.006 C 
BRANCH   3   4
ATOM      4  C   UNL     1      -8.601   8.043   5.398  1.00  0.00     0.053 C 
BRANCH   4   5
ATOM      5  C   UNL     1      -8.692   7.809   3.923  1.00  0.00     0.041 C 
ATOM      6  O   UNL     1      -9.803   7.550   3.389  1.00  0.00    -0.550 OA
ATOM      7  O   UNL     1      -7.559   7.925   3.129  1.00  0.00    -0.550 OA
ENDBRANCH   4   5
ENDBRANCH   3   4
ENDBRANCH   2   3
ENDBRANCH   1   2
BRANCH   1   8
ATOM      8  C   UNL     1      -7.778   5.227   8.493  1.00  0.00     0.000 C 
BRANCH   8   9
ATOM      9  C   UNL     1      -6.849   5.994   9.448  1.00  0.00     0.006 C 
BRANCH   9  10
ATOM     10  C   UNL     1      -6.574   7.430   8.982  1.00  0.00     0.053 C 
BRANCH  10  11
ATOM     11  C   UNL     1      -5.113   7.624   8.725  1.00  0.00     0.041 C 
ATOM     12  O   UNL     1      -4.293   6.713   9.014  1.00  0.00    -0.550 OA
ATOM     13  O   UNL     1      -4.650   8.829   8.213  1.00  0.00    -0.550 OA
ENDBRANCH  10  11
ENDBRANCH   9  10
ENDBRANCH   8   9
ENDBRANCH   1   8
TORSDOF 8
ENDMDL
MODEL 2
REMARK VINA RESULT:    -3.181      0.856      5.318
REMARK INTER + INTRA:          -5.198
REMARK INTER:                  -4.806
REMARK INTRA:                  -0.392
REMARK UNBOUND:                -0.529
REMARK SMILES O=C([O-])CCCCCCCC(=O)[O-]
REMARK SMILES IDX 7 1 6 2 5 3 4 4 2 5 1 6 3 7 8 8 9 9 10 10 11 11 12 12 13 13
REMARK H PARENT
REMARK Flexibility Score: inf
ROOT
ATOM      1  C   UNL     1      -7.802   6.000   7.298  1.00  0.00     0.000 C 
ENDROOT
BRANCH   1   2
ATOM      2  C   UNL     1      -7.688   5.225   8.621  1.00  0.00     0.000 C 
BRANCH   2   3
ATOM      3  C   UNL     1      -6.466   5.646   9.452  1.00  0.00     0.006 C 
BRANCH   3   4
ATOM      4  C   UNL     1      -6.382   7.171   9.566  1.00  0.00     0.053 C 
BRANCH   4   5
ATOM      5  C   UNL     1      -4.975   7.635   9.355  1.00  0.00     0.041 C 
ATOM      6  O   UNL     1      -4.057   7.248  10.125  1.00  0.00    -0.550 OA
ATOM      7  O   UNL     1      -4.668   8.457   8.279  1.00  0.00    -0.550 OA
ENDBRANCH   4   5
ENDBRANCH   3   4
ENDBRANCH   2   3
ENDBRANCH   1   2
BRANCH   1   8
ATOM      8  C   UNL     1      -9.205   5.900   6.674  1.00  0.00     0.000 C 
BRANCH   8   9
ATOM      9  C   UNL     1      -9.683   7.236   6.082  1.00  0.00     0.006 C 
BRANCH   9  10
ATOM     10  C   UNL     1      -9.550   7.287   4.554  1.00  0.00     0.053 C 
BRANCH  10  11
ATOM     11  C   UNL     1      -8.334   8.064   4.161  1.00  0.00     0.041 C 
ATOM     12  O   UNL     1      -7.754   7.824   3.069  1.00  0.00    -0.550 OA
ATOM     13  O   UNL     1      -7.810   9.020   5.023  1.00  0.00    -0.550 OA
ENDBRANCH  10  11
ENDBRANCH   9  10
ENDBRANCH   8   9
ENDBRANCH   1   8
TORSDOF 8
ENDMDL
MODEL 3
REMARK VINA RESULT:    -3.034     23.689     24.902
REMARK INTER + INTRA:          -4.982
REMARK INTER:                  -4.734
REMARK INTRA:                  -0.248
REMARK UNBOUND:                -0.529
REMARK SMILES O=C([O-])CCCCCCCC(=O)[O-]
REMARK SMILES IDX 7 1 6 2 5 3 4 4 2 5 1 6 3 7 8 8 9 9 10 10 11 11 12 12 13 13
REMARK H PARENT
REMARK Flexibility Score: inf
ROOT
ATOM      1  C   UNL     1       9.808  -5.304  -7.330  1.00  0.00     0.000 C 
ENDROOT
BRANCH   1   2
ATOM      2  C   UNL     1       9.119  -5.665  -6.004  1.00  0.00     0.000 C 
BRANCH   2   3
ATOM      3  C   UNL     1       9.848  -5.090  -4.780  1.00  0.00     0.006 C 
BRANCH   3   4
ATOM      4  C   UNL     1       9.009  -4.002  -4.104  1.00  0.00     0.053 C 
BRANCH   4   5
ATOM      5  C   UNL     1       9.678  -3.524  -2.854  1.00  0.00     0.041 C 
ATOM      6  O   UNL     1       9.813  -2.291  -2.639  1.00  0.00    -0.550 OA
ATOM      7  O   UNL     1      10.110  -4.439  -1.903  1.00  0.00    -0.550 OA
ENDBRANCH   4   5
ENDBRANCH   3   4
ENDBRANCH   2   3
ENDBRANCH   1   2
BRANCH   1   8
ATOM      8  C   UNL     1       9.340  -6.188  -8.499  1.00  0.00     0.000 C 
BRANCH   8   9
ATOM      9  C   UNL     1       9.408  -5.461  -9.851  1.00  0.00     0.006 C 
BRANCH   9  10
ATOM     10  C   UNL     1       9.460  -3.934  -9.702  1.00  0.00     0.053 C 
BRANCH  10  11
ATOM     11  C   UNL     1       8.082  -3.356  -9.779  1.00  0.00     0.041 C 
ATOM     12  O   UNL     1       7.111  -4.079 -10.125  1.00  0.00    -0.550 OA
ATOM     13  O   UNL     1       7.877  -2.008  -9.517  1.00  0.00    -0.550 OA
ENDBRANCH  10  11
ENDBRANCH   9  10
ENDBRANCH   8   9
ENDBRANCH   1   8
TORSDOF 8
ENDMDL
MODEL 4
REMARK VINA RESULT:    -2.845      2.246      5.004
REMARK INTER + INTRA:          -4.704
REMARK INTER:                  -4.284
REMARK INTRA:                  -0.420
REMARK UNBOUND:                -0.529
REMARK SMILES O=C([O-])CCCCCCCC(=O)[O-]
REMARK SMILES IDX 7 1 6 2 5 3 4 4 2 5 1 6 3 7 8 8 9 9 10 10 11 11 12 12 13 13
REMARK H PARENT
REMARK Flexibility Score: inf
ROOT
ATOM      1  C   UNL     1      -8.878   6.196   6.223  1.00  0.00     0.000 C 
ENDROOT
BRANCH   1   2
ATOM      2  C   UNL     1      -9.710   6.755   7.389  1.00  0.00     0.000 C 
BRANCH   2   3
ATOM      3  C   UNL     1      -9.144   6.366   8.763  1.00  0.00     0.006 C 
BRANCH   3   4
ATOM      4  C   UNL     1      -8.453   5.001   8.703  1.00  0.00     0.053 C 
BRANCH   4   5
ATOM      5  C   UNL     1      -7.058   5.095   9.238  1.00  0.00     0.041 C 
ATOM      6  O   UNL     1      -6.374   6.134   9.043  1.00  0.00    -0.550 OA
ATOM      7  O   UNL     1      -6.531   4.056   9.992  1.00  0.00    -0.550 OA
ENDBRANCH   4   5
ENDBRANCH   3   4
ENDBRANCH   2   3
ENDBRANCH   1   2
BRANCH   1   8
ATOM      8  C   UNL     1      -8.886   7.123   4.995  1.00  0.00     0.000 C 
BRANCH   8   9
ATOM      9  C   UNL     1      -8.805   8.609   5.378  1.00  0.00     0.006 C 
BRANCH   9  10
ATOM     10  C   UNL     1      -8.159   9.469   4.284  1.00  0.00     0.053 C 
BRANCH  10  11
ATOM     11  C   UNL     1      -6.734   9.767   4.629  1.00  0.00     0.041 C 
ATOM     12  O   UNL     1      -5.869   9.865   3.719  1.00  0.00    -0.550 OA
ATOM     13  O   UNL     1      -6.350   9.889   5.958  1.00  0.00    -0.550 OA
ENDBRANCH  10  11
ENDBRANCH   9  10
ENDBRANCH   8   9
ENDBRANCH   1   8
TORSDOF 8
ENDMDL
MODEL 5
REMARK VINA RESULT:    -2.757      2.635      6.730
REMARK INTER + INTRA:          -4.576
REMARK INTER:                  -4.322
REMARK INTRA:                  -0.254
REMARK UNBOUND:                -0.529
REMARK SMILES O=C([O-])CCCCCCCC(=O)[O-]
REMARK SMILES IDX 7 1 6 2 5 3 4 4 2 5 1 6 3 7 8 8 9 9 10 10 11 11 12 12 13 13
REMARK H PARENT
REMARK Flexibility Score: inf
ROOT
ATOM      1  C   UNL     1      -9.396   7.087   4.300  1.00  0.00     0.000 C 
ENDROOT
BRANCH   1   2
ATOM      2  C   UNL     1      -9.379   7.205   5.833  1.00  0.00     0.000 C 
BRANCH   2   3
ATOM      3  C   UNL     1      -9.095   5.864   6.528  1.00  0.00     0.006 C 
BRANCH   3   4
ATOM      4  C   UNL     1      -7.775   5.920   7.302  1.00  0.00     0.053 C 
BRANCH   4   5
ATOM      5  C   UNL     1      -7.972   5.443   8.707  1.00  0.00     0.041 C 
ATOM      6  O   UNL     1      -7.538   4.314   9.060  1.00  0.00    -0.550 OA
ATOM      7  O   UNL     1      -8.590   6.264   9.641  1.00  0.00    -0.550 OA
ENDBRANCH   4   5
ENDBRANCH   3   4
ENDBRANCH   2   3
ENDBRANCH   1   2
BRANCH   1   8
ATOM      8  C   UNL     1      -8.284   7.915   3.632  1.00  0.00     0.000 C 
BRANCH   8   9
ATOM      9  C   UNL     1      -8.826   9.167   2.924  1.00  0.00     0.006 C 
BRANCH   9  10
ATOM     10  C   UNL     1      -8.158   9.416   1.566  1.00  0.00     0.053 C 
BRANCH  10  11
ATOM     11  C   UNL     1      -9.086   9.045   0.452  1.00  0.00     0.041 C 
ATOM     12  O   UNL     1     -10.037   8.246   0.660  1.00  0.00    -0.550 OA
ATOM     13  O   UNL     1      -8.872   9.543  -0.827  1.00  0.00    -0.550 OA
ENDBRANCH  10  11
ENDBRANCH   9  10
ENDBRANCH   8   9
ENDBRANCH   1   8
TORSDOF 8
ENDMDL
MODEL 6
REMARK VINA RESULT:    -2.721      2.074      2.866
REMARK INTER + INTRA:          -4.522
REMARK INTER:                  -3.842
REMARK INTRA:                  -0.681
REMARK UNBOUND:                -0.529
REMARK SMILES O=C([O-])CCCCCCCC(=O)[O-]
REMARK SMILES IDX 7 1 6 2 5 3 4 4 2 5 1 6 3 7 8 8 9 9 10 10 11 11 12 12 13 13
REMARK H PARENT
REMARK Flexibility Score: inf
ROOT
ATOM      1  C   UNL     1      -6.969   9.268   7.062  1.00  0.00     0.000 C 
ENDROOT
BRANCH   1   2
ATOM      2  C   UNL     1      -8.446   9.197   7.484  1.00  0.00     0.000 C 
BRANCH   2   3
ATOM      3  C   UNL     1      -9.358   8.668   6.367  1.00  0.00     0.006 C 
BRANCH   3   4
ATOM      4  C   UNL     1      -8.778   8.992   4.988  1.00  0.00     0.053 C 
BRANCH   4   5
ATOM      5  C   UNL     1      -8.732   7.763   4.136  1.00  0.00     0.041 C 
ATOM      6  O   UNL     1      -7.780   7.584   3.331  1.00  0.00    -0.550 OA
ATOM      7  O   UNL     1      -9.715   6.791   4.264  1.00  0.00    -0.550 OA
ENDBRANCH   4   5
ENDBRANCH   3   4
ENDBRANCH   2   3
ENDBRANCH   1   2
BRANCH   1   8
ATOM      8  C   UNL     1      -6.010   8.880   8.201  1.00  0.00     0.000 C 
BRANCH   8   9
ATOM      9  C   UNL     1      -6.579   7.767   9.096  1.00  0.00     0.006 C 
BRANCH   9  10
ATOM     10  C   UNL     1      -6.129   6.367   8.658  1.00  0.00     0.053 C 
BRANCH  10  11
ATOM     11  C   UNL     1      -7.291   5.586   8.132  1.00  0.00     0.041 C 
ATOM     12  O   UNL     1      -7.896   4.771   8.877  1.00  0.00    -0.550 OA
ATOM     13  O   UNL     1      -7.676   5.721   6.804  1.00  0.00    -0.550 OA
ENDBRANCH  10  11
ENDBRANCH   9  10
ENDBRANCH   8   9
ENDBRANCH   1   8
TORSDOF 8
ENDMDL
MODEL 7
REMARK VINA RESULT:    -2.616     12.281     14.601
REMARK INTER + INTRA:          -4.368
REMARK INTER:                  -4.193
REMARK INTRA:                  -0.175
REMARK UNBOUND:                -0.529
REMARK SMILES O=C([O-])CCCCCCCC(=O)[O-]
REMARK SMILES IDX 7 1 6 2 5 3 4 4 2 5 1 6 3 7 8 8 9 9 10 10 11 11 12 12 13 13
REMARK H PARENT
REMARK Flexibility Score: inf
ROOT
ATOM      1  C   UNL     1      -5.205  -6.067   9.158  1.00  0.00     0.000 C 
ENDROOT
BRANCH   1   2
ATOM      2  C   UNL     1      -3.774  -5.761   8.686  1.00  0.00     0.000 C 
BRANCH   2   3
ATOM      3  C   UNL     1      -2.703  -6.305   9.644  1.00  0.00     0.006 C 
BRANCH   3   4
ATOM      4  C   UNL     1      -1.931  -7.460   9.000  1.00  0.00     0.053 C 
BRANCH   4   5
ATOM      5  C   UNL     1      -0.600  -7.634   9.663  1.00  0.00     0.041 C 
ATOM      6  O   UNL     1       0.013  -6.636  10.125  1.00  0.00    -0.550 OA
ATOM      7  O   UNL     1      -0.059  -8.904   9.814  1.00  0.00    -0.550 OA
ENDBRANCH   4   5
ENDBRANCH   3   4
ENDBRANCH   2   3
ENDBRANCH   1   2
BRANCH   1   8
ATOM      8  C   UNL     1      -6.105  -4.820   9.160  1.00  0.00     0.000 C 
BRANCH   8   9
ATOM      9  C   UNL     1      -7.482  -5.089   9.789  1.00  0.00     0.006 C 
BRANCH   9  10
ATOM     10  C   UNL     1      -8.624  -5.027   8.765  1.00  0.00     0.053 C 
BRANCH  10  11
ATOM     11  C   UNL     1      -9.343  -3.720   8.865  1.00  0.00     0.041 C 
ATOM     12  O   UNL     1      -9.405  -2.953   7.868  1.00  0.00    -0.550 OA
ATOM     13  O   UNL     1      -9.904  -3.324  10.073  1.00  0.00    -0.550 OA
ENDBRANCH  10  11
ENDBRANCH   9  10
ENDBRANCH   8   9
ENDBRANCH   1   8
TORSDOF 8
ENDMDL
MODEL 8
REMARK VINA RESULT:    -2.541      2.473      3.508
REMARK INTER + INTRA:          -4.259
REMARK INTER:                  -3.775
REMARK INTRA:                  -0.484
REMARK UNBOUND:                -0.529
REMARK SMILES O=C([O-])CCCCCCCC(=O)[O-]
REMARK SMILES IDX 7 1 6 2 5 3 4 4 2 5 1 6 3 7 8 8 9 9 10 10 11 11 12 12 13 13
REMARK H PARENT
REMARK Flexibility Score: inf
ROOT
ATOM      1  C   UNL     1      -7.145   9.777   5.475  1.00  0.00     0.000 C 
ENDROOT
BRANCH   1   2
ATOM      2  C   UNL     1      -8.406   9.081   4.937  1.00  0.00     0.000 C 
BRANCH   2   3
ATOM      3  C   UNL     1      -8.122   8.202   3.710  1.00  0.00     0.006 C 
BRANCH   3   4
ATOM      4  C   UNL     1      -7.567   9.039   2.554  1.00  0.00     0.053 C 
BRANCH   4   5
ATOM      5  C   UNL     1      -8.583   9.166   1.464  1.00  0.00     0.041 C 
ATOM      6  O   UNL     1      -9.740   8.691   1.616  1.00  0.00    -0.550 OA
ATOM      7  O   UNL     1      -8.270   9.852   0.298  1.00  0.00    -0.550 OA
ENDBRANCH   4   5
ENDBRANCH   3   4
ENDBRANCH   2   3
ENDBRANCH   1   2
BRANCH   1   8
ATOM      8  C   UNL     1      -6.852   9.418   6.942  1.00  0.00     0.000 C 
BRANCH   8   9
ATOM      9  C   UNL     1      -7.826   8.365   7.496  1.00  0.00     0.006 C 
BRANCH   9  10
ATOM     10  C   UNL     1      -7.107   7.181   8.156  1.00  0.00     0.053 C 
BRANCH  10  11
ATOM     11  C   UNL     1      -7.755   5.892   7.761  1.00  0.00     0.041 C 
ATOM     12  O   UNL     1      -7.639   4.875   8.495  1.00  0.00    -0.550 OA
ATOM     13  O   UNL     1      -8.445   5.798   6.559  1.00  0.00    -0.550 OA
ENDBRANCH  10  11
ENDBRANCH   9  10
ENDBRANCH   8   9
ENDBRANCH   1   8
TORSDOF 8
ENDMDL
MODEL 9
REMARK VINA RESULT:    -1.799     13.271     15.391
REMARK INTER + INTRA:          -3.169
REMARK INTER:                  -2.877
REMARK INTRA:                  -0.292
REMARK UNBOUND:                -0.529
REMARK SMILES O=C([O-])CCCCCCCC(=O)[O-]
REMARK SMILES IDX 7 1 6 2 5 3 4 4 2 5 1 6 3 7 8 8 9 9 10 10 11 11 12 12 13 13
REMARK H PARENT
REMARK Flexibility Score: inf
ROOT
ATOM      1  C   UNL     1      -5.140  -5.978   9.260  1.00  0.00     0.000 C 
ENDROOT
BRANCH   1   2
ATOM      2  C   UNL     1      -3.747  -5.696   8.675  1.00  0.00     0.000 C 
BRANCH   2   3
ATOM      3  C   UNL     1      -2.610  -6.199   9.577  1.00  0.00     0.006 C 
BRANCH   3   4
ATOM      4  C   UNL     1      -1.992  -7.482   9.015  1.00  0.00     0.053 C 
BRANCH   4   5
ATOM      5  C   UNL     1      -0.606  -7.673   9.546  1.00  0.00     0.041 C 
ATOM      6  O   UNL     1      -0.013  -6.725  10.125  1.00  0.00    -0.550 OA
ATOM      7  O   UNL     1       0.013  -8.912   9.444  1.00  0.00    -0.550 OA
ENDBRANCH   4   5
ENDBRANCH   3   4
ENDBRANCH   2   3
ENDBRANCH   1   2
BRANCH   1   8
ATOM      8  C   UNL     1      -6.133  -4.833   8.998  1.00  0.00     0.000 C 
BRANCH   8   9
ATOM      9  C   UNL     1      -7.449  -5.005   9.774  1.00  0.00     0.006 C 
BRANCH   9  10
ATOM     10  C   UNL     1      -7.810  -6.478  10.009  1.00  0.00     0.053 C 
BRANCH  10  11
ATOM     11  C   UNL     1      -8.688  -6.982   8.907  1.00  0.00     0.041 C 
ATOM     12  O   UNL     1      -9.930  -6.781   8.945  1.00  0.00    -0.550 OA
ATOM     13  O   UNL     1      -8.141  -7.716   7.862  1.00  0.00    -0.550 OA
ENDBRANCH  10  11
ENDBRANCH   9  10
ENDBRANCH   8   9
ENDBRANCH   1   8
TORSDOF 8
ENDMDL
