MODEL 1
REMARK VINA RESULT:    -5.344      0.000      0.000
REMARK INTER + INTRA:         -10.248
REMARK INTER:                  -9.406
REMARK INTRA:                  -0.842
REMARK UNBOUND:                -0.842
REMARK SMILES CCCCCCC=CCCCCCCCC(=O)[O-]
REMARK SMILES IDX 10 1 11 2 12 3 13 4 14 5 15 6 16 7 17 8 18 9 9 10 8 11 7 12
REMARK SMILES IDX 6 13 5 14 4 15 3 16 2 17 1 18
REMARK H PARENT
REMARK Flexibility Score: inf
ROOT
ATOM      1  C   UNL     1      16.599 -35.243  23.812  1.00  0.00     0.004 C 
ENDROOT
BRANCH   1   2
ATOM      2  C   UNL     1      17.396 -36.076  22.795  1.00  0.00     0.000 C 
BRANCH   2   3
ATOM      3  C   UNL     1      17.992 -37.369  23.390  1.00  0.00     0.000 C 
BRANCH   3   4
ATOM      4  C   UNL     1      18.309 -37.226  24.889  1.00  0.00     0.000 C 
BRANCH   4   5
ATOM      5  C   UNL     1      17.464 -38.164  25.770  1.00  0.00     0.006 C 
BRANCH   5   6
ATOM      6  C   UNL     1      17.647 -37.947  27.280  1.00  0.00     0.053 C 
BRANCH   6   7
ATOM      7  C   UNL     1      17.382 -36.528  27.679  1.00  0.00     0.041 C 
ATOM      8  O   UNL     1      16.202 -36.094  27.727  1.00  0.00    -0.550 OA
ATOM      9  O   UNL     1      18.438 -35.696  28.033  1.00  0.00    -0.550 OA
ENDBRANCH   6   7
ENDBRANCH   5   6
ENDBRANCH   4   5
ENDBRANCH   3   4
ENDBRANCH   2   3
ENDBRANCH   1   2
BRANCH   1  10
ATOM     10  C   UNL     1      15.146 -35.004  23.378  1.00  0.00     0.027 C 
BRANCH  10  11
ATOM     11  C   UNL     1      14.870 -33.541  23.174  1.00  0.00    -0.031 C 
ATOM     12  C   UNL     1      14.891 -32.987  21.951  1.00  0.00    -0.031 C 
BRANCH  12  13
ATOM     13  C   UNL     1      14.732 -31.506  21.752  1.00  0.00     0.027 C 
BRANCH  13  14
ATOM     14  C   UNL     1      14.302 -30.797  23.046  1.00  0.00     0.004 C 
BRANCH  14  15
ATOM     15  C   UNL     1      12.874 -30.216  22.982  1.00  0.00     0.000 C 
BRANCH  15  16
ATOM     16  C   UNL     1      12.817 -28.749  23.435  1.00  0.00    -0.000 C 
BRANCH  16  17
ATOM     17  C   UNL     1      13.933 -28.437  24.439  1.00  0.00    -0.003 C 
ATOM     18  C   UNL     1      14.366 -26.977  24.343  1.00  0.00     0.004 C 
ENDBRANCH  16  17
ENDBRANCH  15  16
ENDBRANCH  14  15
ENDBRANCH  13  14
ENDBRANCH  12  13
ENDBRANCH  10  11
ENDBRANCH   1  10
TORSDOF 13
ENDMDL
MODEL 2
REMARK VINA RESULT:    -5.243     11.563     14.057
REMARK INTER + INTRA:         -10.070
REMARK INTER:                  -8.974
REMARK INTRA:                  -1.096
REMARK UNBOUND:                -0.842
REMARK SMILES CCCCCCC=CCCCCCCCC(=O)[O-]
REMARK SMILES IDX 10 1 11 2 12 3 13 4 14 5 15 6 16 7 17 8 18 9 9 10 8 11 7 12
REMARK SMILES IDX 6 13 5 14 4 15 3 16 2 17 1 18
REMARK H PARENT
REMARK Flexibility Score: inf
ROOT
ATOM      1  C   UNL     1      22.741 -33.339  37.658  1.00  0.00     0.004 C 
ENDROOT
BRANCH   1   2
ATOM      2  C   UNL     1      23.237 -34.426  36.690  1.00  0.00     0.000 C 
BRANCH   2   3
ATOM      3  C   UNL     1      24.329 -33.931  35.717  1.00  0.00     0.000 C 
BRANCH   3   4
ATOM      4  C   UNL     1      24.155 -34.514  34.304  1.00  0.00     0.000 C 
BRANCH   4   5
ATOM      5  C   UNL     1      24.126 -33.430  33.211  1.00  0.00     0.006 C 
BRANCH   5   6
ATOM      6  C   UNL     1      22.846 -32.582  33.198  1.00  0.00     0.053 C 
BRANCH   6   7
ATOM      7  C   UNL     1      21.611 -33.428  33.233  1.00  0.00     0.041 C 
ATOM      8  O   UNL     1      21.328 -34.176  32.261  1.00  0.00    -0.550 OA
ATOM      9  O   UNL     1      20.792 -33.418  34.355  1.00  0.00    -0.550 OA
ENDBRANCH   6   7
ENDBRANCH   5   6
ENDBRANCH   4   5
ENDBRANCH   3   4
ENDBRANCH   2   3
ENDBRANCH   1   2
BRANCH   1  10
ATOM     10  C   UNL     1      22.585 -31.969  36.985  1.00  0.00     0.027 C 
BRANCH  10  11
ATOM     11  C   UNL     1      22.622 -30.856  37.995  1.00  0.00    -0.031 C 
ATOM     12  C   UNL     1      21.655 -29.926  38.050  1.00  0.00    -0.031 C 
BRANCH  12  13
ATOM     13  C   UNL     1      21.746 -28.747  38.977  1.00  0.00     0.027 C 
BRANCH  13  14
ATOM     14  C   UNL     1      20.849 -27.586  38.518  1.00  0.00     0.004 C 
BRANCH  14  15
ATOM     15  C   UNL     1      19.575 -28.050  37.782  1.00  0.00     0.000 C 
BRANCH  15  16
ATOM     16  C   UNL     1      18.912 -26.915  36.985  1.00  0.00    -0.000 C 
BRANCH  16  17
ATOM     17  C   UNL     1      18.872 -25.618  37.802  1.00  0.00    -0.003 C 
ATOM     18  C   UNL     1      17.674 -24.759  37.409  1.00  0.00     0.004 C 
ENDBRANCH  16  17
ENDBRANCH  15  16
ENDBRANCH  14  15
ENDBRANCH  13  14
ENDBRANCH  12  13
ENDBRANCH  10  11
ENDBRANCH   1  10
TORSDOF 13
ENDMDL
MODEL 3
REMARK VINA RESULT:    -5.231     12.260     14.456
REMARK INTER + INTRA:         -10.049
REMARK INTER:                  -9.130
REMARK INTRA:                  -0.919
REMARK UNBOUND:                -0.842
REMARK SMILES CCCCCCC=CCCCCCCCC(=O)[O-]
REMARK SMILES IDX 10 1 11 2 12 3 13 4 14 5 15 6 16 7 17 8 18 9 9 10 8 11 7 12
REMARK SMILES IDX 6 13 5 14 4 15 3 16 2 17 1 18
REMARK H PARENT
REMARK Flexibility Score: inf
ROOT
ATOM      1  C   UNL     1      22.833 -31.001  37.027  1.00  0.00     0.004 C 
ENDROOT
BRANCH   1   2
ATOM      2  C   UNL     1      22.149 -32.375  36.940  1.00  0.00     0.000 C 
BRANCH   2   3
ATOM      3  C   UNL     1      22.858 -33.469  37.767  1.00  0.00     0.000 C 
BRANCH   3   4
ATOM      4  C   UNL     1      23.566 -34.504  36.876  1.00  0.00     0.000 C 
BRANCH   4   5
ATOM      5  C   UNL     1      23.065 -34.479  35.420  1.00  0.00     0.006 C 
BRANCH   5   6
ATOM      6  C   UNL     1      24.165 -34.229  34.378  1.00  0.00     0.053 C 
BRANCH   6   7
ATOM      7  C   UNL     1      23.734 -33.250  33.330  1.00  0.00     0.041 C 
ATOM      8  O   UNL     1      22.522 -32.927  33.225  1.00  0.00    -0.550 OA
ATOM      9  O   UNL     1      24.677 -32.667  32.491  1.00  0.00    -0.550 OA
ENDBRANCH   6   7
ENDBRANCH   5   6
ENDBRANCH   4   5
ENDBRANCH   3   4
ENDBRANCH   2   3
ENDBRANCH   1   2
BRANCH   1  10
ATOM     10  C   UNL     1      23.194 -30.604  38.464  1.00  0.00     0.027 C 
BRANCH  10  11
ATOM     11  C   UNL     1      22.164 -29.681  39.052  1.00  0.00    -0.031 C 
ATOM     12  C   UNL     1      21.212 -29.117  38.292  1.00  0.00    -0.031 C 
BRANCH  12  13
ATOM     13  C   UNL     1      20.253 -28.104  38.850  1.00  0.00     0.027 C 
BRANCH  13  14
ATOM     14  C   UNL     1      19.564 -27.294  37.740  1.00  0.00     0.004 C 
BRANCH  14  15
ATOM     15  C   UNL     1      19.401 -25.799  38.083  1.00  0.00     0.000 C 
BRANCH  15  16
ATOM     16  C   UNL     1      18.071 -25.221  37.575  1.00  0.00    -0.000 C 
BRANCH  16  17
ATOM     17  C   UNL     1      17.445 -26.131  36.512  1.00  0.00    -0.003 C 
ATOM     18  C   UNL     1      15.935 -26.243  36.703  1.00  0.00     0.004 C 
ENDBRANCH  16  17
ENDBRANCH  15  16
ENDBRANCH  14  15
ENDBRANCH  13  14
ENDBRANCH  12  13
ENDBRANCH  10  11
ENDBRANCH   1  10
TORSDOF 13
ENDMDL
MODEL 4
REMARK VINA RESULT:    -5.205      3.241      7.988
REMARK INTER + INTRA:         -10.003
REMARK INTER:                  -9.187
REMARK INTRA:                  -0.816
REMARK UNBOUND:                -0.842
REMARK SMILES CCCCCCC=CCCCCCCCC(=O)[O-]
REMARK SMILES IDX 10 1 11 2 12 3 13 4 14 5 15 6 16 7 17 8 18 9 9 10 8 11 7 12
REMARK SMILES IDX 6 13 5 14 4 15 3 16 2 17 1 18
REMARK H PARENT
REMARK Flexibility Score: inf
ROOT
ATOM      1  C   UNL     1      14.969 -33.550  23.185  1.00  0.00     0.004 C 
ENDROOT
BRANCH   1   2
ATOM      2  C   UNL     1      14.951 -32.093  22.692  1.00  0.00     0.000 C 
BRANCH   2   3
ATOM      3  C   UNL     1      13.706 -31.743  21.850  1.00  0.00     0.000 C 
BRANCH   3   4
ATOM      4  C   UNL     1      12.839 -30.661  22.518  1.00  0.00     0.000 C 
BRANCH   4   5
ATOM      5  C   UNL     1      13.576 -29.922  23.650  1.00  0.00     0.006 C 
BRANCH   5   6
ATOM      6  C   UNL     1      13.247 -28.424  23.744  1.00  0.00     0.053 C 
BRANCH   6   7
ATOM      7  C   UNL     1      14.272 -27.673  24.537  1.00  0.00     0.041 C 
ATOM      8  O   UNL     1      15.024 -26.838  23.970  1.00  0.00    -0.550 OA
ATOM      9  O   UNL     1      14.372 -27.870  25.909  1.00  0.00    -0.550 OA
ENDBRANCH   6   7
ENDBRANCH   5   6
ENDBRANCH   4   5
ENDBRANCH   3   4
ENDBRANCH   2   3
ENDBRANCH   1   2
BRANCH   1  10
ATOM     10  C   UNL     1      15.719 -34.491  22.233  1.00  0.00     0.027 C 
BRANCH  10  11
ATOM     11  C   UNL     1      16.321 -35.652  22.974  1.00  0.00    -0.031 C 
ATOM     12  C   UNL     1      17.556 -36.098  22.695  1.00  0.00    -0.031 C 
BRANCH  12  13
ATOM     13  C   UNL     1      18.117 -37.329  23.349  1.00  0.00     0.027 C 
BRANCH  13  14
ATOM     14  C   UNL     1      17.634 -37.479  24.800  1.00  0.00     0.004 C 
BRANCH  14  15
ATOM     15  C   UNL     1      18.655 -36.975  25.842  1.00  0.00     0.000 C 
BRANCH  15  16
ATOM     16  C   UNL     1      18.058 -35.918  26.784  1.00  0.00    -0.000 C 
BRANCH  16  17
ATOM     17  C   UNL     1      16.624 -36.282  27.185  1.00  0.00    -0.003 C 
ATOM     18  C   UNL     1      16.484 -36.374  28.702  1.00  0.00     0.004 C 
ENDBRANCH  16  17
ENDBRANCH  15  16
ENDBRANCH  14  15
ENDBRANCH  13  14
ENDBRANCH  12  13
ENDBRANCH  10  11
ENDBRANCH   1  10
TORSDOF 13
ENDMDL
MODEL 5
REMARK VINA RESULT:    -5.163      1.219      2.388
REMARK INTER + INTRA:          -9.929
REMARK INTER:                  -8.992
REMARK INTRA:                  -0.938
REMARK UNBOUND:                -0.842
REMARK SMILES CCCCCCC=CCCCCCCCC(=O)[O-]
REMARK SMILES IDX 10 1 11 2 12 3 13 4 14 5 15 6 16 7 17 8 18 9 9 10 8 11 7 12
REMARK SMILES IDX 6 13 5 14 4 15 3 16 2 17 1 18
REMARK H PARENT
REMARK Flexibility Score: inf
ROOT
ATOM      1  C   UNL     1      14.390 -33.975  22.657  1.00  0.00     0.004 C 
ENDROOT
BRANCH   1   2
ATOM      2  C   UNL     1      14.888 -35.138  23.531  1.00  0.00     0.000 C 
BRANCH   2   3
ATOM      3  C   UNL     1      16.405 -35.090  23.813  1.00  0.00     0.000 C 
BRANCH   3   4
ATOM      4  C   UNL     1      17.185 -36.114  22.971  1.00  0.00     0.000 C 
BRANCH   4   5
ATOM      5  C   UNL     1      17.996 -37.101  23.833  1.00  0.00     0.006 C 
BRANCH   5   6
ATOM      6  C   UNL     1      17.284 -37.546  25.119  1.00  0.00     0.053 C 
BRANCH   6   7
ATOM      7  C   UNL     1      18.131 -37.323  26.334  1.00  0.00     0.041 C 
ATOM      8  O   UNL     1      18.761 -36.243  26.478  1.00  0.00    -0.550 OA
ATOM      9  O   UNL     1      18.196 -38.295  27.325  1.00  0.00    -0.550 OA
ENDBRANCH   6   7
ENDBRANCH   5   6
ENDBRANCH   4   5
ENDBRANCH   3   4
ENDBRANCH   2   3
ENDBRANCH   1   2
BRANCH   1  10
ATOM     10  C   UNL     1      14.940 -32.615  23.106  1.00  0.00     0.027 C 
BRANCH  10  11
ATOM     11  C   UNL     1      13.996 -31.499  22.755  1.00  0.00    -0.031 C 
ATOM     12  C   UNL     1      12.689 -31.725  22.548  1.00  0.00    -0.031 C 
BRANCH  12  13
ATOM     13  C   UNL     1      11.764 -30.637  22.082  1.00  0.00     0.027 C 
BRANCH  13  14
ATOM     14  C   UNL     1      11.479 -29.612  23.192  1.00  0.00     0.004 C 
BRANCH  14  15
ATOM     15  C   UNL     1      12.057 -28.212  22.897  1.00  0.00     0.000 C 
BRANCH  15  16
ATOM     16  C   UNL     1      12.644 -27.544  24.150  1.00  0.00    -0.000 C 
BRANCH  16  17
ATOM     17  C   UNL     1      14.141 -27.847  24.287  1.00  0.00    -0.003 C 
ATOM     18  C   UNL     1      14.974 -26.577  24.145  1.00  0.00     0.004 C 
ENDBRANCH  16  17
ENDBRANCH  15  16
ENDBRANCH  14  15
ENDBRANCH  13  14
ENDBRANCH  12  13
ENDBRANCH  10  11
ENDBRANCH   1  10
TORSDOF 13
ENDMDL
MODEL 6
REMARK VINA RESULT:    -5.132     12.401     15.996
REMARK INTER + INTRA:          -9.874
REMARK INTER:                  -8.459
REMARK INTRA:                  -1.415
REMARK UNBOUND:                -0.842
REMARK SMILES CCCCCCC=CCCCCCCCC(=O)[O-]
REMARK SMILES IDX 10 1 11 2 12 3 13 4 14 5 15 6 16 7 17 8 18 9 9 10 8 11 7 12
REMARK SMILES IDX 6 13 5 14 4 15 3 16 2 17 1 18
REMARK H PARENT
REMARK Flexibility Score: inf
ROOT
ATOM      1  C   UNL     1      22.921 -30.570  38.712  1.00  0.00     0.004 C 
ENDROOT
BRANCH   1   2
ATOM      2  C   UNL     1      21.651 -30.330  39.546  1.00  0.00     0.000 C 
BRANCH   2   3
ATOM      3  C   UNL     1      21.776 -29.149  40.531  1.00  0.00     0.000 C 
BRANCH   3   4
ATOM      4  C   UNL     1      21.053 -27.889  40.022  1.00  0.00     0.000 C 
BRANCH   4   5
ATOM      5  C   UNL     1      19.947 -28.209  38.999  1.00  0.00     0.006 C 
BRANCH   5   6
ATOM      6  C   UNL     1      20.062 -27.429  37.681  1.00  0.00     0.053 C 
BRANCH   6   7
ATOM      7  C   UNL     1      18.961 -26.425  37.525  1.00  0.00     0.041 C 
ATOM      8  O   UNL     1      17.972 -26.679  36.789  1.00  0.00    -0.550 OA
ATOM      9  O   UNL     1      19.011 -25.223  38.221  1.00  0.00    -0.550 OA
ENDBRANCH   6   7
ENDBRANCH   5   6
ENDBRANCH   4   5
ENDBRANCH   3   4
ENDBRANCH   2   3
ENDBRANCH   1   2
BRANCH   1  10
ATOM     10  C   UNL     1      22.650 -30.575  37.202  1.00  0.00     0.027 C 
BRANCH  10  11
ATOM     11  C   UNL     1      23.133 -31.847  36.563  1.00  0.00    -0.031 C 
ATOM     12  C   UNL     1      22.640 -33.043  36.922  1.00  0.00    -0.031 C 
BRANCH  12  13
ATOM     13  C   UNL     1      23.201 -34.325  36.373  1.00  0.00     0.027 C 
BRANCH  13  14
ATOM     14  C   UNL     1      24.383 -34.073  35.424  1.00  0.00     0.004 C 
BRANCH  14  15
ATOM     15  C   UNL     1      24.044 -34.331  33.941  1.00  0.00     0.000 C 
BRANCH  15  16
ATOM     16  C   UNL     1      24.121 -33.054  33.090  1.00  0.00    -0.000 C 
BRANCH  16  17
ATOM     17  C   UNL     1      22.722 -32.560  32.708  1.00  0.00    -0.003 C 
ATOM     18  C   UNL     1      21.665 -33.621  32.999  1.00  0.00     0.004 C 
ENDBRANCH  16  17
ENDBRANCH  15  16
ENDBRANCH  14  15
ENDBRANCH  13  14
ENDBRANCH  12  13
ENDBRANCH  10  11
ENDBRANCH   1  10
TORSDOF 13
ENDMDL
MODEL 7
REMARK VINA RESULT:    -5.117     12.302     15.272
REMARK INTER + INTRA:          -9.848
REMARK INTER:                  -8.444
REMARK INTRA:                  -1.404
REMARK UNBOUND:                -0.842
REMARK SMILES CCCCCCC=CCCCCCCCC(=O)[O-]
REMARK SMILES IDX 10 1 11 2 12 3 13 4 14 5 15 6 16 7 17 8 18 9 9 10 8 11 7 12
REMARK SMILES IDX 6 13 5 14 4 15 3 16 2 17 1 18
REMARK H PARENT
REMARK Flexibility Score: inf
ROOT
ATOM      1  C   UNL     1      23.247 -33.777  38.930  1.00  0.00     0.004 C 
ENDROOT
BRANCH   1   2
ATOM      2  C   UNL     1      23.350 -34.472  37.562  1.00  0.00     0.000 C 
BRANCH   2   3
ATOM      3  C   UNL     1      22.851 -33.600  36.389  1.00  0.00     0.000 C 
BRANCH   3   4
ATOM      4  C   UNL     1      23.963 -33.316  35.364  1.00  0.00     0.000 C 
BRANCH   4   5
ATOM      5  C   UNL     1      24.138 -34.455  34.342  1.00  0.00     0.006 C 
BRANCH   5   6
ATOM      6  C   UNL     1      23.778 -34.068  32.900  1.00  0.00     0.053 C 
BRANCH   6   7
ATOM      7  C   UNL     1      22.542 -33.226  32.836  1.00  0.00     0.041 C 
ATOM      8  O   UNL     1      21.417 -33.731  33.088  1.00  0.00    -0.550 OA
ATOM      9  O   UNL     1      22.636 -31.873  32.532  1.00  0.00    -0.550 OA
ENDBRANCH   6   7
ENDBRANCH   5   6
ENDBRANCH   4   5
ENDBRANCH   3   4
ENDBRANCH   2   3
ENDBRANCH   1   2
BRANCH   1  10
ATOM     10  C   UNL     1      22.259 -32.603  38.928  1.00  0.00     0.027 C 
BRANCH  10  11
ATOM     11  C   UNL     1      22.944 -31.310  39.273  1.00  0.00    -0.031 C 
ATOM     12  C   UNL     1      23.204 -30.382  38.338  1.00  0.00    -0.031 C 
BRANCH  12  13
ATOM     13  C   UNL     1      23.992 -29.142  38.654  1.00  0.00     0.027 C 
BRANCH  13  14
ATOM     14  C   UNL     1      23.089 -27.904  38.771  1.00  0.00     0.004 C 
BRANCH  14  15
ATOM     15  C   UNL     1      21.649 -28.145  38.275  1.00  0.00     0.000 C 
BRANCH  15  16
ATOM     16  C   UNL     1      20.594 -27.748  39.319  1.00  0.00    -0.000 C 
BRANCH  16  17
ATOM     17  C   UNL     1      20.644 -28.679  40.537  1.00  0.00    -0.003 C 
ATOM     18  C   UNL     1      19.549 -29.739  40.464  1.00  0.00     0.004 C 
ENDBRANCH  16  17
ENDBRANCH  15  16
ENDBRANCH  14  15
ENDBRANCH  13  14
ENDBRANCH  12  13
ENDBRANCH  10  11
ENDBRANCH   1  10
TORSDOF 13
ENDMDL
MODEL 8
REMARK VINA RESULT:    -5.080      1.236      2.112
REMARK INTER + INTRA:          -9.783
REMARK INTER:                  -8.791
REMARK INTRA:                  -0.992
REMARK UNBOUND:                -0.842
REMARK SMILES CCCCCCC=CCCCCCCCC(=O)[O-]
REMARK SMILES IDX 10 1 11 2 12 3 13 4 14 5 15 6 16 7 17 8 18 9 9 10 8 11 7 12
REMARK SMILES IDX 6 13 5 14 4 15 3 16 2 17 1 18
REMARK H PARENT
REMARK Flexibility Score: inf
ROOT
ATOM      1  C   UNL     1      16.065 -35.470  23.423  1.00  0.00     0.004 C 
ENDROOT
BRANCH   1   2
ATOM      2  C   UNL     1      17.319 -35.947  22.669  1.00  0.00     0.000 C 
BRANCH   2   3
ATOM      3  C   UNL     1      18.074 -37.084  23.389  1.00  0.00     0.000 C 
BRANCH   3   4
ATOM      4  C   UNL     1      17.446 -37.427  24.751  1.00  0.00     0.000 C 
BRANCH   4   5
ATOM      5  C   UNL     1      18.385 -37.126  25.934  1.00  0.00     0.006 C 
BRANCH   5   6
ATOM      6  C   UNL     1      17.984 -37.812  27.249  1.00  0.00     0.053 C 
BRANCH   6   7
ATOM      7  C   UNL     1      16.883 -37.078  27.951  1.00  0.00     0.041 C 
ATOM      8  O   UNL     1      15.845 -37.690  28.313  1.00  0.00    -0.550 OA
ATOM      9  O   UNL     1      17.020 -35.725  28.236  1.00  0.00    -0.550 OA
ENDBRANCH   6   7
ENDBRANCH   5   6
ENDBRANCH   4   5
ENDBRANCH   3   4
ENDBRANCH   2   3
ENDBRANCH   1   2
BRANCH   1  10
ATOM     10  C   UNL     1      14.986 -34.908  22.488  1.00  0.00     0.027 C 
BRANCH  10  11
ATOM     11  C   UNL     1      15.178 -33.436  22.253  1.00  0.00    -0.031 C 
ATOM     12  C   UNL     1      14.635 -32.519  23.070  1.00  0.00    -0.031 C 
BRANCH  12  13
ATOM     13  C   UNL     1      14.724 -31.048  22.776  1.00  0.00     0.027 C 
BRANCH  13  14
ATOM     14  C   UNL     1      13.943 -30.210  23.800  1.00  0.00     0.004 C 
BRANCH  14  15
ATOM     15  C   UNL     1      12.820 -29.361  23.170  1.00  0.00     0.000 C 
BRANCH  15  16
ATOM     16  C   UNL     1      11.629 -30.215  22.707  1.00  0.00    -0.000 C 
BRANCH  16  17
ATOM     17  C   UNL     1      11.187 -31.188  23.806  1.00  0.00    -0.003 C 
ATOM     18  C   UNL     1      10.748 -32.524  23.214  1.00  0.00     0.004 C 
ENDBRANCH  16  17
ENDBRANCH  15  16
ENDBRANCH  14  15
ENDBRANCH  13  14
ENDBRANCH  12  13
ENDBRANCH  10  11
ENDBRANCH   1  10
TORSDOF 13
ENDMDL
MODEL 9
REMARK VINA RESULT:    -5.036     12.525     14.793
REMARK INTER + INTRA:          -9.706
REMARK INTER:                  -9.063
REMARK INTRA:                  -0.643
REMARK UNBOUND:                -0.842
REMARK SMILES CCCCCCC=CCCCCCCCC(=O)[O-]
REMARK SMILES IDX 10 1 11 2 12 3 13 4 14 5 15 6 16 7 17 8 18 9 9 10 8 11 7 12
REMARK SMILES IDX 6 13 5 14 4 15 3 16 2 17 1 18
REMARK H PARENT
REMARK Flexibility Score: inf
ROOT
ATOM      1  C   UNL     1      21.982 -29.742  38.550  1.00  0.00     0.004 C 
ENDROOT
BRANCH   1   2
ATOM      2  C   UNL     1      22.034 -31.231  38.930  1.00  0.00     0.000 C 
BRANCH   2   3
ATOM      3  C   UNL     1      22.609 -32.131  37.815  1.00  0.00     0.000 C 
BRANCH   3   4
ATOM      4  C   UNL     1      22.945 -33.543  38.324  1.00  0.00     0.000 C 
BRANCH   4   5
ATOM      5  C   UNL     1      23.238 -34.535  37.182  1.00  0.00     0.006 C 
BRANCH   5   6
ATOM      6  C   UNL     1      23.873 -33.895  35.939  1.00  0.00     0.053 C 
BRANCH   6   7
ATOM      7  C   UNL     1      23.257 -34.399  34.671  1.00  0.00     0.041 C 
ATOM      8  O   UNL     1      23.987 -34.824  33.738  1.00  0.00    -0.550 OA
ATOM      9  O   UNL     1      21.875 -34.433  34.534  1.00  0.00    -0.550 OA
ENDBRANCH   6   7
ENDBRANCH   5   6
ENDBRANCH   4   5
ENDBRANCH   3   4
ENDBRANCH   2   3
ENDBRANCH   1   2
BRANCH   1  10
ATOM     10  C   UNL     1      20.565 -29.264  38.209  1.00  0.00     0.027 C 
BRANCH  10  11
ATOM     11  C   UNL     1      20.536 -27.784  37.944  1.00  0.00    -0.031 C 
ATOM     12  C   UNL     1      20.425 -26.895  38.943  1.00  0.00    -0.031 C 
BRANCH  12  13
ATOM     13  C   UNL     1      20.277 -25.423  38.677  1.00  0.00     0.027 C 
BRANCH  13  14
ATOM     14  C   UNL     1      19.428 -25.149  37.426  1.00  0.00     0.004 C 
BRANCH  14  15
ATOM     15  C   UNL     1      17.990 -24.693  37.748  1.00  0.00     0.000 C 
BRANCH  15  16
ATOM     16  C   UNL     1      17.237 -24.202  36.502  1.00  0.00    -0.000 C 
BRANCH  16  17
ATOM     17  C   UNL     1      16.396 -25.327  35.887  1.00  0.00    -0.003 C 
ATOM     18  C   UNL     1      15.865 -26.269  36.963  1.00  0.00     0.004 C 
ENDBRANCH  16  17
ENDBRANCH  15  16
ENDBRANCH  14  15
ENDBRANCH  13  14
ENDBRANCH  12  13
ENDBRANCH  10  11
ENDBRANCH   1  10
TORSDOF 13
ENDMDL
