MODEL 1
REMARK VINA RESULT:    -7.663      0.000      0.000
REMARK INTER + INTRA:          -8.335
REMARK INTER:                  -8.335
REMARK INTRA:                   0.000
REMARK UNBOUND:                 0.000
REMARK SMILES Cc1cc(O)c2c(c1)C(=O)c1cc(O)cc(O)c1C2=O
REMARK SMILES IDX 1 1 2 2 8 3 7 4 6 5 4 6 3 7 19 8 20 9 18 10 11 11 9 12 10 13
REMARK SMILES IDX 12 14 13 15 15 16 16 17 5 18 17 20 14 22
REMARK H PARENT 5 19 17 21 14 23
REMARK Flexibility Score: inf
ROOT
ATOM      1  C   UNL     1      14.518  -2.243  14.876  1.00  0.00     0.044 C 
ATOM      2  C   UNL     1      13.623  -2.029  13.690  1.00  0.00    -0.047 A 
ATOM      3  C   UNL     1      12.415  -1.338  13.835  1.00  0.00     0.016 A 
ATOM      4  C   UNL     1      11.592  -1.095  12.722  1.00  0.00     0.038 A 
ATOM      5  C   UNL     1      11.995  -1.527  11.440  1.00  0.00     0.076 A 
ATOM      6  C   UNL     1      13.199  -2.266  11.305  1.00  0.00     0.127 A 
ATOM      7  C   UNL     1      14.012  -2.479  12.424  1.00  0.00     0.050 A 
ATOM      8  C   UNL     1      11.172  -1.121  10.271  1.00  0.00     0.201 C 
ATOM      9  O   UNL     1      11.716  -0.957   9.146  1.00  0.00    -0.288 OA
ATOM     10  C   UNL     1       9.753  -0.730  10.468  1.00  0.00     0.076 A 
ATOM     11  C   UNL     1       9.352  -0.300  11.753  1.00  0.00     0.041 A 
ATOM     12  C   UNL     1      10.298  -0.389  12.891  1.00  0.00     0.194 C 
ATOM     13  O   UNL     1       9.992   0.111  14.008  1.00  0.00    -0.289 OA
ATOM     14  C   UNL     1       8.056   0.209  11.949  1.00  0.00     0.059 A 
ATOM     15  C   UNL     1       7.154   0.277  10.883  1.00  0.00     0.120 A 
ATOM     16  C   UNL     1       7.532  -0.185   9.624  1.00  0.00     0.093 A 
ATOM     17  C   UNL     1       8.809  -0.714   9.408  1.00  0.00     0.131 A 
ENDROOT
BRANCH   6  18
ATOM     18  O   UNL     1      13.607  -2.833  10.096  1.00  0.00    -0.507 OA
ATOM     19  H   UNL     1      14.270  -3.594  10.031  1.00  0.00     0.293 HD
ENDBRANCH   6  18
BRANCH  17  20
ATOM     20  O   UNL     1       9.084  -1.240   8.144  1.00  0.00    -0.507 OA
ATOM     21  H   UNL     1       9.801  -1.931   7.971  1.00  0.00     0.293 HD
ENDBRANCH  17  20
BRANCH  15  22
ATOM     22  O   UNL     1       5.872   0.791  11.069  1.00  0.00    -0.508 OA
ATOM     23  H   UNL     1       5.199   0.331  11.671  1.00  0.00     0.293 HD
ENDBRANCH  15  22
TORSDOF 3
ENDMDL
MODEL 2
REMARK VINA RESULT:    -7.453      2.428      4.645
REMARK INTER + INTRA:          -8.107
REMARK INTER:                  -8.107
REMARK INTRA:                   0.000
REMARK UNBOUND:                 0.000
REMARK SMILES Cc1cc(O)c2c(c1)C(=O)c1cc(O)cc(O)c1C2=O
REMARK SMILES IDX 1 1 2 2 8 3 7 4 6 5 4 6 3 7 19 8 20 9 18 10 11 11 9 12 10 13
REMARK SMILES IDX 12 14 13 15 15 16 16 17 5 18 17 20 14 22
REMARK H PARENT 5 19 17 21 14 23
REMARK Flexibility Score: inf
ROOT
ATOM      1  C   UNL     1      12.806   1.965  16.970  1.00  0.00     0.044 C 
ATOM      2  C   UNL     1      11.630   1.724  16.070  1.00  0.00    -0.047 A 
ATOM      3  C   UNL     1      11.792   1.015  14.874  1.00  0.00     0.016 A 
ATOM      4  C   UNL     1      10.689   0.746  14.046  1.00  0.00     0.038 A 
ATOM      5  C   UNL     1       9.399   1.171  14.432  1.00  0.00     0.076 A 
ATOM      6  C   UNL     1       9.247   1.928  15.622  1.00  0.00     0.127 A 
ATOM      7  C   UNL     1      10.356   2.167  16.441  1.00  0.00     0.050 A 
ATOM      8  C   UNL     1       8.241   0.739  13.606  1.00  0.00     0.201 C 
ATOM      9  O   UNL     1       7.114   0.571  14.143  1.00  0.00    -0.288 OA
ATOM     10  C   UNL     1       8.455   0.327  12.195  1.00  0.00     0.076 A 
ATOM     11  C   UNL     1       9.748  -0.096  11.812  1.00  0.00     0.041 A 
ATOM     12  C   UNL     1      10.876   0.021  12.766  1.00  0.00     0.194 C 
ATOM     13  O   UNL     1      12.002  -0.471  12.477  1.00  0.00    -0.289 OA
ATOM     14  C   UNL     1       9.959  -0.624  10.527  1.00  0.00     0.059 A 
ATOM     15  C   UNL     1       8.903  -0.718   9.616  1.00  0.00     0.120 A 
ATOM     16  C   UNL     1       7.635  -0.264   9.977  1.00  0.00     0.093 A 
ATOM     17  C   UNL     1       7.403   0.284  11.243  1.00  0.00     0.131 A 
ENDROOT
BRANCH   6  18
ATOM     18  O   UNL     1       8.028   2.488  16.011  1.00  0.00    -0.507 OA
ATOM     19  H   UNL     1       7.758   3.440  15.801  1.00  0.00     0.293 HD
ENDBRANCH   6  18
BRANCH  17  20
ATOM     20  O   UNL     1       6.131   0.800  11.499  1.00  0.00    -0.507 OA
ATOM     21  H   UNL     1       5.832   1.719  11.204  1.00  0.00     0.293 HD
ENDBRANCH  17  20
BRANCH  15  22
ATOM     22  O   UNL     1       9.105  -1.252   8.345  1.00  0.00    -0.508 OA
ATOM     23  H   UNL     1       8.485  -1.032   7.574  1.00  0.00     0.293 HD
ENDBRANCH  15  22
TORSDOF 3
ENDMDL
MODEL 3
REMARK VINA RESULT:    -7.351      2.042      5.196
REMARK INTER + INTRA:          -7.996
REMARK INTER:                  -7.996
REMARK INTRA:                   0.000
REMARK UNBOUND:                 0.000
REMARK SMILES Cc1cc(O)c2c(c1)C(=O)c1cc(O)cc(O)c1C2=O
REMARK SMILES IDX 1 1 2 2 8 3 7 4 6 5 4 6 3 7 19 8 20 9 18 10 11 11 9 12 10 13
REMARK SMILES IDX 12 14 13 15 15 16 16 17 5 18 17 20 14 22
REMARK H PARENT 5 19 17 21 14 23
REMARK Flexibility Score: inf
ROOT
ATOM      1  C   UNL     1       8.377   0.806  16.889  1.00  0.00     0.044 C 
ATOM      2  C   UNL     1       8.910   0.544  15.510  1.00  0.00    -0.047 A 
ATOM      3  C   UNL     1      10.119  -0.141  15.342  1.00  0.00     0.016 A 
ATOM      4  C   UNL     1      10.604  -0.429  14.055  1.00  0.00     0.038 A 
ATOM      5  C   UNL     1       9.856  -0.050  12.919  1.00  0.00     0.076 A 
ATOM      6  C   UNL     1       8.655   0.683  13.095  1.00  0.00     0.127 A 
ATOM      7  C   UNL     1       8.181   0.942  14.385  1.00  0.00     0.050 A 
ATOM      8  C   UNL     1      10.328  -0.503  11.584  1.00  0.00     0.201 C 
ATOM      9  O   UNL     1       9.495  -0.713  10.662  1.00  0.00    -0.288 OA
ATOM     10  C   UNL     1      11.751  -0.886  11.396  1.00  0.00     0.076 A 
ATOM     11  C   UNL     1      12.496  -1.264  12.536  1.00  0.00     0.041 A 
ATOM     12  C   UNL     1      11.901  -1.128  13.886  1.00  0.00     0.194 C 
ATOM     13  O   UNL     1      12.511  -1.582  14.894  1.00  0.00    -0.289 OA
ATOM     14  C   UNL     1      13.801  -1.765  12.384  1.00  0.00     0.059 A 
ATOM     15  C   UNL     1      14.374  -1.877  11.113  1.00  0.00     0.120 A 
ATOM     16  C   UNL     1      13.656  -1.467   9.991  1.00  0.00     0.093 A 
ATOM     17  C   UNL     1      12.364  -0.946  10.117  1.00  0.00     0.131 A 
ENDROOT
BRANCH   6  18
ATOM     18  O   UNL     1       7.921   1.201  12.025  1.00  0.00    -0.507 OA
ATOM     19  H   UNL     1       8.229   1.983  11.463  1.00  0.00     0.293 HD
ENDBRANCH   6  18
BRANCH  17  20
ATOM     20  O   UNL     1      11.743  -0.472   8.959  1.00  0.00    -0.507 OA
ATOM     21  H   UNL     1      11.270  -1.069   8.295  1.00  0.00     0.293 HD
ENDBRANCH  17  20
BRANCH  15  22
ATOM     22  O   UNL     1      15.662  -2.384  10.957  1.00  0.00    -0.508 OA
ATOM     23  H   UNL     1      16.226  -2.157  10.145  1.00  0.00     0.293 HD
ENDBRANCH  15  22
TORSDOF 3
ENDMDL
MODEL 4
REMARK VINA RESULT:    -7.185      2.367      5.828
REMARK INTER + INTRA:          -7.815
REMARK INTER:                  -7.815
REMARK INTRA:                   0.000
REMARK UNBOUND:                 0.000
REMARK SMILES Cc1cc(O)c2c(c1)C(=O)c1cc(O)cc(O)c1C2=O
REMARK SMILES IDX 1 1 2 2 8 3 7 4 6 5 4 6 3 7 19 8 20 9 18 10 11 11 9 12 10 13
REMARK SMILES IDX 12 14 13 15 15 16 16 17 5 18 17 20 14 22
REMARK H PARENT 5 19 17 21 14 23
REMARK Flexibility Score: inf
ROOT
ATOM      1  C   UNL     1       5.254   0.607  10.014  1.00  0.00     0.044 C 
ATOM      2  C   UNL     1       6.622   0.452  10.613  1.00  0.00    -0.047 A 
ATOM      3  C   UNL     1       6.839   0.753  11.962  1.00  0.00     0.016 A 
ATOM      4  C   UNL     1       8.106   0.570  12.541  1.00  0.00     0.038 A 
ATOM      5  C   UNL     1       9.167   0.054  11.766  1.00  0.00     0.076 A 
ATOM      6  C   UNL     1       8.953  -0.207  10.387  1.00  0.00     0.127 A 
ATOM      7  C   UNL     1       7.679  -0.036   9.837  1.00  0.00     0.050 A 
ATOM      8  C   UNL     1      10.447  -0.265  12.450  1.00  0.00     0.201 C 
ATOM      9  O   UNL     1      11.176  -1.197  12.017  1.00  0.00    -0.288 OA
ATOM     10  C   UNL     1      10.772   0.386  13.745  1.00  0.00     0.076 A 
ATOM     11  C   UNL     1       9.708   0.903  14.518  1.00  0.00     0.041 A 
ATOM     12  C   UNL     1       8.334   0.921  13.964  1.00  0.00     0.194 C 
ATOM     13  O   UNL     1       7.362   1.261  14.695  1.00  0.00    -0.289 OA
ATOM     14  C   UNL     1       9.958   1.400  15.809  1.00  0.00     0.059 A 
ATOM     15  C   UNL     1      11.255   1.404  16.328  1.00  0.00     0.120 A 
ATOM     16  C   UNL     1      12.313   0.932  15.553  1.00  0.00     0.093 A 
ATOM     17  C   UNL     1      12.094   0.451  14.258  1.00  0.00     0.131 A 
ENDROOT
BRANCH   6  18
ATOM     18  O   UNL     1       9.979  -0.602   9.525  1.00  0.00    -0.507 OA
ATOM     19  H   UNL     1      10.311  -1.553   9.450  1.00  0.00     0.293 HD
ENDBRANCH   6  18
BRANCH  17  20
ATOM     20  O   UNL     1      13.214   0.081  13.509  1.00  0.00    -0.507 OA
ATOM     21  H   UNL     1      13.183  -0.111  12.518  1.00  0.00     0.293 HD
ENDBRANCH  17  20
BRANCH  15  22
ATOM     22  O   UNL     1      11.506   1.885  17.612  1.00  0.00    -0.508 OA
ATOM     23  H   UNL     1      12.449   2.080  17.930  1.00  0.00     0.293 HD
ENDBRANCH  15  22
TORSDOF 3
ENDMDL
MODEL 5
REMARK VINA RESULT:    -7.150      2.144      4.088
REMARK INTER + INTRA:          -7.777
REMARK INTER:                  -7.777
REMARK INTRA:                   0.000
REMARK UNBOUND:                 0.000
REMARK SMILES Cc1cc(O)c2c(c1)C(=O)c1cc(O)cc(O)c1C2=O
REMARK SMILES IDX 1 1 2 2 8 3 7 4 6 5 4 6 3 7 19 8 20 9 18 10 11 11 9 12 10 13
REMARK SMILES IDX 12 14 13 15 15 16 16 17 5 18 17 20 14 22
REMARK H PARENT 5 19 17 21 14 23
REMARK Flexibility Score: inf
ROOT
ATOM      1  C   UNL     1       8.000   1.488  17.182  1.00  0.00     0.044 C 
ATOM      2  C   UNL     1       8.678   0.946  15.958  1.00  0.00    -0.047 A 
ATOM      3  C   UNL     1       8.025   0.971  14.721  1.00  0.00     0.016 A 
ATOM      4  C   UNL     1       8.669   0.505  13.562  1.00  0.00     0.038 A 
ATOM      5  C   UNL     1       9.997   0.030  13.637  1.00  0.00     0.076 A 
ATOM      6  C   UNL     1      10.638  -0.036  14.901  1.00  0.00     0.127 A 
ATOM      7  C   UNL     1       9.985   0.452  16.038  1.00  0.00     0.050 A 
ATOM      8  C   UNL     1      10.693  -0.313  12.369  1.00  0.00     0.201 C 
ATOM      9  O   UNL     1      11.943  -0.181  12.283  1.00  0.00    -0.288 OA
ATOM     10  C   UNL     1       9.898  -0.630  11.154  1.00  0.00     0.076 A 
ATOM     11  C   UNL     1       8.570  -0.153  11.084  1.00  0.00     0.041 A 
ATOM     12  C   UNL     1       7.958   0.507  12.261  1.00  0.00     0.194 C 
ATOM     13  O   UNL     1       6.821   1.047  12.162  1.00  0.00    -0.289 OA
ATOM     14  C   UNL     1       7.832  -0.311   9.897  1.00  0.00     0.059 A 
ATOM     15  C   UNL     1       8.398  -0.951   8.791  1.00  0.00     0.120 A 
ATOM     16  C   UNL     1       9.694  -1.458   8.871  1.00  0.00     0.093 A 
ATOM     17  C   UNL     1      10.442  -1.332  10.047  1.00  0.00     0.131 A 
ENDROOT
BRANCH   6  18
ATOM     18  O   UNL     1      11.901  -0.604  15.080  1.00  0.00    -0.507 OA
ATOM     19  H   UNL     1      12.080  -1.387  15.694  1.00  0.00     0.293 HD
ENDBRANCH   6  18
BRANCH  17  20
ATOM     20  O   UNL     1      11.697  -1.944  10.082  1.00  0.00    -0.507 OA
ATOM     21  H   UNL     1      12.435  -1.741   9.424  1.00  0.00     0.293 HD
ENDBRANCH  17  20
BRANCH  15  22
ATOM     22  O   UNL     1       7.675  -1.099   7.609  1.00  0.00    -0.508 OA
ATOM     23  H   UNL     1       6.681  -0.907   7.569  1.00  0.00     0.293 HD
ENDBRANCH  15  22
TORSDOF 3
ENDMDL
MODEL 6
REMARK VINA RESULT:    -7.089      1.611      3.448
REMARK INTER + INTRA:          -7.710
REMARK INTER:                  -7.710
REMARK INTRA:                   0.000
REMARK UNBOUND:                 0.000
REMARK SMILES Cc1cc(O)c2c(c1)C(=O)c1cc(O)cc(O)c1C2=O
REMARK SMILES IDX 1 1 2 2 8 3 7 4 6 5 4 6 3 7 19 8 20 9 18 10 11 11 9 12 10 13
REMARK SMILES IDX 12 14 13 15 15 16 16 17 5 18 17 20 14 22
REMARK H PARENT 5 19 17 21 14 23
REMARK Flexibility Score: inf
ROOT
ATOM      1  C   UNL     1      14.843  -1.806   9.994  1.00  0.00     0.044 C 
ATOM      2  C   UNL     1      13.646  -1.303  10.747  1.00  0.00    -0.047 A 
ATOM      3  C   UNL     1      12.386  -1.288  10.138  1.00  0.00     0.016 A 
ATOM      4  C   UNL     1      11.253  -0.859  10.850  1.00  0.00     0.038 A 
ATOM      5  C   UNL     1      11.377  -0.463  12.200  1.00  0.00     0.076 A 
ATOM      6  C   UNL     1      12.663  -0.437  12.798  1.00  0.00     0.127 A 
ATOM      7  C   UNL     1      13.774  -0.887  12.076  1.00  0.00     0.050 A 
ATOM      8  C   UNL     1      10.136  -0.160  12.959  1.00  0.00     0.201 C 
ATOM      9  O   UNL     1      10.095  -0.365  14.202  1.00  0.00    -0.288 OA
ATOM     10  C   UNL     1       8.895   0.204  12.229  1.00  0.00     0.076 A 
ATOM     11  C   UNL     1       8.775  -0.193  10.878  1.00  0.00     0.041 A 
ATOM     12  C   UNL     1       9.927  -0.818  10.187  1.00  0.00     0.194 C 
ATOM     13  O   UNL     1       9.786  -1.290   9.025  1.00  0.00    -0.289 OA
ATOM     14  C   UNL     1       7.563   0.009  10.195  1.00  0.00     0.059 A 
ATOM     15  C   UNL     1       6.480   0.616  10.836  1.00  0.00     0.120 A 
ATOM     16  C   UNL     1       6.609   1.046  12.156  1.00  0.00     0.093 A 
ATOM     17  C   UNL     1       7.810   0.875  12.852  1.00  0.00     0.131 A 
ENDROOT
BRANCH   6  18
ATOM     18  O   UNL     1      12.889   0.056  14.084  1.00  0.00    -0.507 OA
ATOM     19  H   UNL     1      13.602  -0.304  14.704  1.00  0.00     0.293 HD
ENDBRANCH   6  18
BRANCH  17  20
ATOM     20  O   UNL     1       7.892   1.412  14.139  1.00  0.00    -0.507 OA
ATOM     21  H   UNL     1       7.228   2.077  14.510  1.00  0.00     0.293 HD
ENDBRANCH  17  20
BRANCH  15  22
ATOM     22  O   UNL     1       5.274   0.808  10.166  1.00  0.00    -0.508 OA
ATOM     23  H   UNL     1       4.385   0.591  10.603  1.00  0.00     0.293 HD
ENDBRANCH  15  22
TORSDOF 3
ENDMDL
MODEL 7
REMARK VINA RESULT:    -7.002      2.552      4.477
REMARK INTER + INTRA:          -7.616
REMARK INTER:                  -7.616
REMARK INTRA:                   0.000
REMARK UNBOUND:                 0.000
REMARK SMILES Cc1cc(O)c2c(c1)C(=O)c1cc(O)cc(O)c1C2=O
REMARK SMILES IDX 1 1 2 2 8 3 7 4 6 5 4 6 3 7 19 8 20 9 18 10 11 11 9 12 10 13
REMARK SMILES IDX 12 14 13 15 15 16 16 17 5 18 17 20 14 22
REMARK H PARENT 5 19 17 21 14 23
REMARK Flexibility Score: inf
ROOT
ATOM      1  C   UNL     1      14.335  -1.223  10.002  1.00  0.00     0.044 C 
ATOM      2  C   UNL     1      13.035  -0.952  10.701  1.00  0.00    -0.047 A 
ATOM      3  C   UNL     1      13.025  -0.325  11.952  1.00  0.00     0.016 A 
ATOM      4  C   UNL     1      11.811  -0.029  12.593  1.00  0.00     0.038 A 
ATOM      5  C   UNL     1      10.586  -0.340  11.963  1.00  0.00     0.076 A 
ATOM      6  C   UNL     1      10.603  -1.016  10.716  1.00  0.00     0.127 A 
ATOM      7  C   UNL     1      11.823  -1.284  10.086  1.00  0.00     0.050 A 
ATOM      8  C   UNL     1       9.328   0.123  12.604  1.00  0.00     0.201 C 
ATOM      9  O   UNL     1       8.325   0.399  11.893  1.00  0.00    -0.288 OA
ATOM     10  C   UNL     1       9.313   0.439  14.056  1.00  0.00     0.076 A 
ATOM     11  C   UNL     1      10.541   0.749  14.683  1.00  0.00     0.041 A 
ATOM     12  C   UNL     1      11.810   0.608  13.933  1.00  0.00     0.194 C 
ATOM     13  O   UNL     1      12.894   1.005  14.445  1.00  0.00    -0.289 OA
ATOM     14  C   UNL     1      10.552   1.187  16.019  1.00  0.00     0.059 A 
ATOM     15  C   UNL     1       9.358   1.303  16.738  1.00  0.00     0.120 A 
ATOM     16  C   UNL     1       8.150   0.959  16.134  1.00  0.00     0.093 A 
ATOM     17  C   UNL     1       8.114   0.501  14.813  1.00  0.00     0.131 A 
ENDROOT
BRANCH   6  18
ATOM     18  O   UNL     1       9.441  -1.468  10.085  1.00  0.00    -0.507 OA
ATOM     19  H   UNL     1       9.442  -1.983   9.215  1.00  0.00     0.293 HD
ENDBRANCH   6  18
BRANCH  17  20
ATOM     20  O   UNL     1       6.879   0.089  14.306  1.00  0.00    -0.507 OA
ATOM     21  H   UNL     1       6.358  -0.694  14.674  1.00  0.00     0.293 HD
ENDBRANCH  17  20
BRANCH  15  22
ATOM     22  O   UNL     1       9.364   1.748  18.058  1.00  0.00    -0.508 OA
ATOM     23  H   UNL     1       9.014   1.170  18.813  1.00  0.00     0.293 HD
ENDBRANCH  15  22
TORSDOF 3
ENDMDL
MODEL 8
REMARK VINA RESULT:    -7.000      1.421      6.239
REMARK INTER + INTRA:          -7.614
REMARK INTER:                  -7.614
REMARK INTRA:                   0.000
REMARK UNBOUND:                 0.000
REMARK SMILES Cc1cc(O)c2c(c1)C(=O)c1cc(O)cc(O)c1C2=O
REMARK SMILES IDX 1 1 2 2 8 3 7 4 6 5 4 6 3 7 19 8 20 9 18 10 11 11 9 12 10 13
REMARK SMILES IDX 12 14 13 15 15 16 16 17 5 18 17 20 14 22
REMARK H PARENT 5 19 17 21 14 23
REMARK Flexibility Score: inf
ROOT
ATOM      1  C   UNL     1       7.624  -0.977   7.727  1.00  0.00     0.044 C 
ATOM      2  C   UNL     1       8.224  -0.793   9.091  1.00  0.00    -0.047 A 
ATOM      3  C   UNL     1       9.567  -1.113   9.319  1.00  0.00     0.016 A 
ATOM      4  C   UNL     1      10.148  -0.903  10.581  1.00  0.00     0.038 A 
ATOM      5  C   UNL     1       9.381  -0.341  11.625  1.00  0.00     0.076 A 
ATOM      6  C   UNL     1       8.008  -0.061  11.401  1.00  0.00     0.127 A 
ATOM      7  C   UNL     1       7.456  -0.260  10.131  1.00  0.00     0.050 A 
ATOM      8  C   UNL     1      10.069   0.002  12.896  1.00  0.00     0.201 C 
ATOM      9  O   UNL     1       9.653   0.963  13.596  1.00  0.00    -0.288 OA
ATOM     10  C   UNL     1      11.352  -0.663  13.243  1.00  0.00     0.076 A 
ATOM     11  C   UNL     1      12.116  -1.225  12.195  1.00  0.00     0.041 A 
ATOM     12  C   UNL     1      11.564  -1.274  10.821  1.00  0.00     0.194 C 
ATOM     13  O   UNL     1      12.289  -1.656   9.862  1.00  0.00    -0.289 OA
ATOM     14  C   UNL     1      13.397  -1.739  12.462  1.00  0.00     0.059 A 
ATOM     15  C   UNL     1      13.915  -1.714  13.761  1.00  0.00     0.120 A 
ATOM     16  C   UNL     1      13.147  -1.197  14.803  1.00  0.00     0.093 A 
ATOM     17  C   UNL     1      11.862  -0.698  14.567  1.00  0.00     0.131 A 
ENDROOT
BRANCH   6  18
ATOM     18  O   UNL     1       7.152   0.379  12.412  1.00  0.00    -0.507 OA
ATOM     19  H   UNL     1       7.347   0.268  13.398  1.00  0.00     0.293 HD
ENDBRANCH   6  18
BRANCH  17  20
ATOM     20  O   UNL     1      11.118  -0.281  15.674  1.00  0.00    -0.507 OA
ATOM     21  H   UNL     1      10.401   0.429  15.629  1.00  0.00     0.293 HD
ENDBRANCH  17  20
BRANCH  15  22
ATOM     22  O   UNL     1      15.188  -2.211  14.028  1.00  0.00    -0.508 OA
ATOM     23  H   UNL     1      15.772  -2.596  13.293  1.00  0.00     0.293 HD
ENDBRANCH  15  22
TORSDOF 3
ENDMDL
MODEL 9
REMARK VINA RESULT:    -6.977      2.352      5.221
REMARK INTER + INTRA:          -7.589
REMARK INTER:                  -7.589
REMARK INTRA:                   0.000
REMARK UNBOUND:                 0.000
REMARK SMILES Cc1cc(O)c2c(c1)C(=O)c1cc(O)cc(O)c1C2=O
REMARK SMILES IDX 1 1 2 2 8 3 7 4 6 5 4 6 3 7 19 8 20 9 18 10 11 11 9 12 10 13
REMARK SMILES IDX 12 14 13 15 15 16 16 17 5 18 17 20 14 22
REMARK H PARENT 5 19 17 21 14 23
REMARK Flexibility Score: inf
ROOT
ATOM      1  C   UNL     1       7.998  -1.129   8.108  1.00  0.00     0.044 C 
ATOM      2  C   UNL     1       8.763  -0.866   9.373  1.00  0.00    -0.047 A 
ATOM      3  C   UNL     1       8.153  -0.196  10.439  1.00  0.00     0.016 A 
ATOM      4  C   UNL     1       8.847   0.016  11.642  1.00  0.00     0.038 A 
ATOM      5  C   UNL     1      10.164  -0.472  11.791  1.00  0.00     0.076 A 
ATOM      6  C   UNL     1      10.794  -1.110  10.691  1.00  0.00     0.127 A 
ATOM      7  C   UNL     1      10.077  -1.327   9.510  1.00  0.00     0.050 A 
ATOM      8  C   UNL     1      10.808  -0.359  13.125  1.00  0.00     0.201 C 
ATOM      9  O   UNL     1      11.658  -1.216  13.487  1.00  0.00    -0.288 OA
ATOM     10  C   UNL     1      10.316   0.650  14.099  1.00  0.00     0.076 A 
ATOM     11  C   UNL     1       8.998   1.136  13.946  1.00  0.00     0.041 A 
ATOM     12  C   UNL     1       8.203   0.754  12.756  1.00  0.00     0.194 C 
ATOM     13  O   UNL     1       6.986   1.079  12.678  1.00  0.00    -0.289 OA
ATOM     14  C   UNL     1       8.448   1.983  14.923  1.00  0.00     0.059 A 
ATOM     15  C   UNL     1       9.201   2.363  16.038  1.00  0.00     0.120 A 
ATOM     16  C   UNL     1      10.515   1.918  16.171  1.00  0.00     0.093 A 
ATOM     17  C   UNL     1      11.093   1.090  15.202  1.00  0.00     0.131 A 
ENDROOT
BRANCH   6  18
ATOM     18  O   UNL     1      12.131  -1.510  10.714  1.00  0.00    -0.507 OA
ATOM     19  H   UNL     1      12.474  -2.343  10.253  1.00  0.00     0.293 HD
ENDBRANCH   6  18
BRANCH  17  20
ATOM     20  O   UNL     1      12.441   0.759  15.358  1.00  0.00    -0.507 OA
ATOM     21  H   UNL     1      12.805  -0.174  15.224  1.00  0.00     0.293 HD
ENDBRANCH  17  20
BRANCH  15  22
ATOM     22  O   UNL     1       8.655   3.193  17.015  1.00  0.00    -0.508 OA
ATOM     23  H   UNL     1       7.713   3.560  16.934  1.00  0.00     0.293 HD
ENDBRANCH  15  22
TORSDOF 3
ENDMDL
