MODEL 1
REMARK VINA RESULT:     0.000      0.000      0.000
REMARK INTER + INTRA:          -0.072
REMARK INTER:                   0.000
REMARK INTRA:                  -0.072
REMARK UNBOUND:                -0.072
REMARK SMILES CCCC(=O)[O-]
REMARK SMILES IDX 3 1 4 2 5 3 6 4 2 5 1 6
REMARK H PARENT
REMARK Flexibility Score: inf
ROOT
ATOM      1  C   UNL     1     177.510 186.654 185.294  1.00  0.00     0.052 C 
ENDROOT
BRANCH   1   2
ATOM      2  C   UNL     1     177.819 187.473 184.079  1.00  0.00     0.041 C 
ATOM      3  O   UNL     1     178.865 187.251 183.415  1.00  0.00    -0.550 OA
ATOM      4  O   UNL     1     176.968 188.504 183.700  1.00  0.00    -0.550 OA
ENDBRANCH   1   2
BRANCH   1   5
ATOM      5  C   UNL     1     178.572 186.833 186.387  1.00  0.00     0.003 C 
ATOM      6  C   UNL     1     178.681 188.282 186.860  1.00  0.00     0.004 C 
ENDBRANCH   1   5
TORSDOF 2
ENDMDL
MODEL 2
REMARK VINA RESULT:     0.000      3.707      4.759
REMARK INTER + INTRA:          -0.072
REMARK INTER:                   0.000
REMARK INTRA:                  -0.072
REMARK UNBOUND:                -0.072
REMARK SMILES CCCC(=O)[O-]
REMARK SMILES IDX 3 1 4 2 5 3 6 4 2 5 1 6
REMARK H PARENT
REMARK Flexibility Score: inf
ROOT
ATOM      1  C   UNL     1     180.473 188.696 188.448  1.00  0.00     0.052 C 
ENDROOT
BRANCH   1   2
ATOM      2  C   UNL     1     181.811 188.396 187.846  1.00  0.00     0.041 C 
ATOM      3  O   UNL     1     182.584 187.572 188.401  1.00  0.00    -0.550 OA
ATOM      4  O   UNL     1     182.217 189.052 186.691  1.00  0.00    -0.550 OA
ENDBRANCH   1   2
BRANCH   1   5
ATOM      5  C   UNL     1     179.329 188.395 187.471  1.00  0.00     0.003 C 
ATOM      6  C   UNL     1     179.321 186.936 187.016  1.00  0.00     0.004 C 
ENDBRANCH   1   5
TORSDOF 2
ENDMDL
MODEL 3
REMARK VINA RESULT:     0.000      4.322      4.844
REMARK INTER + INTRA:          -0.072
REMARK INTER:                   0.000
REMARK INTRA:                  -0.072
REMARK UNBOUND:                -0.072
REMARK SMILES CCCC(=O)[O-]
REMARK SMILES IDX 3 1 4 2 5 3 6 4 2 5 1 6
REMARK H PARENT
REMARK Flexibility Score: inf
ROOT
ATOM      1  C   UNL     1     182.394 190.378 186.202  1.00  0.00     0.052 C 
ENDROOT
BRANCH   1   2
ATOM      2  C   UNL     1     181.036 190.431 185.574  1.00  0.00     0.041 C 
ATOM      3  O   UNL     1     180.861 191.052 184.493  1.00  0.00    -0.550 OA
ATOM      4  O   UNL     1     179.955 189.823 186.201  1.00  0.00    -0.550 OA
ENDBRANCH   1   2
BRANCH   1   5
ATOM      5  C   UNL     1     182.881 188.934 186.383  1.00  0.00     0.003 C 
ATOM      6  C   UNL     1     182.945 188.171 185.061  1.00  0.00     0.004 C 
ENDBRANCH   1   5
TORSDOF 2
ENDMDL
MODEL 4
REMARK VINA RESULT:     0.000      7.964      8.810
REMARK INTER + INTRA:          -0.072
REMARK INTER:                   0.000
REMARK INTRA:                  -0.072
REMARK UNBOUND:                -0.072
REMARK SMILES CCCC(=O)[O-]
REMARK SMILES IDX 3 1 4 2 5 3 6 4 2 5 1 6
REMARK H PARENT
REMARK Flexibility Score: inf
ROOT
ATOM      1  C   UNL     1     185.253 186.846 188.898  1.00  0.00     0.052 C 
ENDROOT
BRANCH   1   2
ATOM      2  C   UNL     1     185.375 187.253 190.334  1.00  0.00     0.041 C 
ATOM      3  O   UNL     1     186.487 187.622 190.796  1.00  0.00    -0.550 OA
ATOM      4  O   UNL     1     184.268 187.191 191.171  1.00  0.00    -0.550 OA
ENDBRANCH   1   2
BRANCH   1   5
ATOM      5  C   UNL     1     184.220 187.700 188.150  1.00  0.00     0.003 C 
ATOM      6  C   UNL     1     184.559 189.189 188.189  1.00  0.00     0.004 C 
ENDBRANCH   1   5
TORSDOF 2
ENDMDL
MODEL 5
REMARK VINA RESULT:     0.000     10.485     11.392
REMARK INTER + INTRA:          -0.072
REMARK INTER:                   0.000
REMARK INTRA:                  -0.072
REMARK UNBOUND:                -0.072
REMARK SMILES CCCC(=O)[O-]
REMARK SMILES IDX 3 1 4 2 5 3 6 4 2 5 1 6
REMARK H PARENT
REMARK Flexibility Score: inf
ROOT
ATOM      1  C   UNL     1     186.146 186.067 192.440  1.00  0.00     0.052 C 
ENDROOT
BRANCH   1   2
ATOM      2  C   UNL     1     186.362 187.182 193.416  1.00  0.00     0.041 C 
ATOM      3  O   UNL     1     186.880 188.265 193.036  1.00  0.00    -0.550 OA
ATOM      4  O   UNL     1     186.023 187.012 194.753  1.00  0.00    -0.550 OA
ENDBRANCH   1   2
BRANCH   1   5
ATOM      5  C   UNL     1     184.669 185.657 192.362  1.00  0.00     0.003 C 
ATOM      6  C   UNL     1     183.764 186.818 191.954  1.00  0.00     0.004 C 
ENDBRANCH   1   5
TORSDOF 2
ENDMDL
MODEL 6
REMARK VINA RESULT:     0.000      9.059      9.596
REMARK INTER + INTRA:          -0.072
REMARK INTER:                   0.000
REMARK INTRA:                  -0.072
REMARK UNBOUND:                -0.072
REMARK SMILES CCCC(=O)[O-]
REMARK SMILES IDX 3 1 4 2 5 3 6 4 2 5 1 6
REMARK H PARENT
REMARK Flexibility Score: inf
ROOT
ATOM      1  C   UNL     1     183.785 187.350 191.274  1.00  0.00     0.052 C 
ENDROOT
BRANCH   1   2
ATOM      2  C   UNL     1     184.926 186.405 191.056  1.00  0.00     0.041 C 
ATOM      3  O   UNL     1     186.032 186.833 190.633  1.00  0.00    -0.550 OA
ATOM      4  O   UNL     1     184.756 185.045 191.286  1.00  0.00    -0.550 OA
ENDBRANCH   1   2
BRANCH   1   5
ATOM      5  C   UNL     1     183.287 187.316 192.725  1.00  0.00     0.003 C 
ATOM      6  C   UNL     1     184.387 187.668 193.726  1.00  0.00     0.004 C 
ENDBRANCH   1   5
TORSDOF 2
ENDMDL
MODEL 7
REMARK VINA RESULT:     0.000     12.074     12.735
REMARK INTER + INTRA:          -0.072
REMARK INTER:                   0.000
REMARK INTRA:                  -0.072
REMARK UNBOUND:                -0.072
REMARK SMILES CCCC(=O)[O-]
REMARK SMILES IDX 3 1 4 2 5 3 6 4 2 5 1 6
REMARK H PARENT
REMARK Flexibility Score: inf
ROOT
ATOM      1  C   UNL     1     182.394 192.353 194.727  1.00  0.00     0.052 C 
ENDROOT
BRANCH   1   2
ATOM      2  C   UNL     1     182.553 193.774 195.172  1.00  0.00     0.041 C 
ATOM      3  O   UNL     1     182.328 194.092 196.370  1.00  0.00    -0.550 OA
ATOM      4  O   UNL     1     182.917 194.754 194.257  1.00  0.00    -0.550 OA
ENDBRANCH   1   2
BRANCH   1   5
ATOM      5  C   UNL     1     183.695 191.793 194.136  1.00  0.00     0.003 C 
ATOM      6  C   UNL     1     184.855 191.847 195.128  1.00  0.00     0.004 C 
ENDBRANCH   1   5
TORSDOF 2
ENDMDL
MODEL 8
REMARK VINA RESULT:     0.000     10.472     11.328
REMARK INTER + INTRA:          -0.072
REMARK INTER:                   0.000
REMARK INTRA:                  -0.072
REMARK UNBOUND:                -0.072
REMARK SMILES CCCC(=O)[O-]
REMARK SMILES IDX 3 1 4 2 5 3 6 4 2 5 1 6
REMARK H PARENT
REMARK Flexibility Score: inf
ROOT
ATOM      1  C   UNL     1     186.090 185.876 192.940  1.00  0.00     0.052 C 
ENDROOT
BRANCH   1   2
ATOM      2  C   UNL     1     184.686 186.396 192.906  1.00  0.00     0.041 C 
ATOM      3  O   UNL     1     183.757 185.749 193.457  1.00  0.00    -0.550 OA
ATOM      4  O   UNL     1     184.398 187.578 192.235  1.00  0.00    -0.550 OA
ENDBRANCH   1   2
BRANCH   1   5
ATOM      5  C   UNL     1     187.052 186.877 193.595  1.00  0.00     0.003 C 
ATOM      6  C   UNL     1     186.644 187.223 195.026  1.00  0.00     0.004 C 
ENDBRANCH   1   5
TORSDOF 2
ENDMDL
MODEL 9
REMARK VINA RESULT:     0.000      8.186      8.962
REMARK INTER + INTRA:          -0.072
REMARK INTER:                   0.000
REMARK INTRA:                  -0.072
REMARK UNBOUND:                -0.072
REMARK SMILES CCCC(=O)[O-]
REMARK SMILES IDX 3 1 4 2 5 3 6 4 2 5 1 6
REMARK H PARENT
REMARK Flexibility Score: inf
ROOT
ATOM      1  C   UNL     1     178.983 194.499 189.318  1.00  0.00     0.052 C 
ENDROOT
BRANCH   1   2
ATOM      2  C   UNL     1     180.371 195.040 189.477  1.00  0.00     0.041 C 
ATOM      3  O   UNL     1     181.338 194.256 189.664  1.00  0.00    -0.550 OA
ATOM      4  O   UNL     1     180.591 196.411 189.451  1.00  0.00    -0.550 OA
ENDBRANCH   1   2
BRANCH   1   5
ATOM      5  C   UNL     1     178.360 194.913 187.979  1.00  0.00     0.003 C 
ATOM      6  C   UNL     1     179.187 194.442 186.783  1.00  0.00     0.004 C 
ENDBRANCH   1   5
TORSDOF 2
ENDMDL
