MODEL 1
REMARK VINA RESULT:     2.244      0.000      0.000
REMARK INTER + INTRA:           2.359
REMARK INTER:                   2.441
REMARK INTRA:                  -0.082
REMARK UNBOUND:                -0.082
REMARK SMILES O=C([O-])c1ccccc1O
REMARK SMILES IDX 4 1 9 2 5 3 8 4 6 5 7 6 2 7 1 8 3 9 10 10
REMARK H PARENT 10 11
REMARK Flexibility Score: inf
ROOT
ATOM      1  C   UNL     1     -31.790  39.432 -25.377  1.00  0.00     0.039 A 
ATOM      2  C   UNL     1     -30.463  39.803 -25.719  1.00  0.00     0.124 A 
ATOM      3  C   UNL     1     -32.137  38.068 -25.379  1.00  0.00     0.014 A 
ATOM      4  C   UNL     1     -29.547  38.818 -26.109  1.00  0.00     0.047 A 
ATOM      5  C   UNL     1     -31.204  37.096 -25.751  1.00  0.00     0.001 A 
ATOM      6  C   UNL     1     -29.915  37.471 -26.125  1.00  0.00     0.004 A 
ENDROOT
BRANCH   1   7
ATOM      7  C   UNL     1     -32.840  40.422 -25.049  1.00  0.00     0.075 C 
ATOM      8  O   UNL     1     -33.076  40.744 -23.855  1.00  0.00    -0.545 OA
ATOM      9  O   UNL     1     -33.535  41.061 -26.070  1.00  0.00    -0.545 OA
ENDBRANCH   1   7
BRANCH   2  10
ATOM     10  O   UNL     1     -30.007  41.122 -25.652  1.00  0.00    -0.507 OA
ATOM     11  H   UNL     1     -29.030  41.374 -25.619  1.00  0.00     0.293 HD
ENDBRANCH   2  10
TORSDOF 2
ENDMDL
MODEL 2
REMARK VINA RESULT:     4.432      2.340      2.932
REMARK INTER + INTRA:           4.739
REMARK INTER:                   4.964
REMARK INTRA:                  -0.226
REMARK UNBOUND:                -0.082
REMARK SMILES O=C([O-])c1ccccc1O
REMARK SMILES IDX 4 1 9 2 5 3 8 4 6 5 7 6 2 7 1 8 3 9 10 10
REMARK H PARENT 10 11
REMARK Flexibility Score: inf
ROOT
ATOM      1  C   UNL     1     -31.977  40.555 -24.903  1.00  0.00     0.039 A 
ATOM      2  C   UNL     1     -31.402  40.823 -23.633  1.00  0.00     0.124 A 
ATOM      3  C   UNL     1     -31.144  40.537 -26.037  1.00  0.00     0.014 A 
ATOM      4  C   UNL     1     -30.037  41.125 -23.541  1.00  0.00     0.047 A 
ATOM      5  C   UNL     1     -29.781  40.819 -25.924  1.00  0.00     0.001 A 
ATOM      6  C   UNL     1     -29.230  41.122 -24.680  1.00  0.00     0.004 A 
ENDROOT
BRANCH   1   7
ATOM      7  C   UNL     1     -33.426  40.324 -25.094  1.00  0.00     0.075 C 
ATOM      8  O   UNL     1     -33.859  39.738 -26.121  1.00  0.00    -0.545 OA
ATOM      9  O   UNL     1     -34.326  40.695 -24.101  1.00  0.00    -0.545 OA
ENDBRANCH   1   7
BRANCH   2  10
ATOM     10  O   UNL     1     -32.135  40.768 -22.445  1.00  0.00    -0.507 OA
ATOM     11  H   UNL     1     -33.144  40.784 -22.412  1.00  0.00     0.293 HD
ENDBRANCH   2  10
TORSDOF 2
ENDMDL
MODEL 3
REMARK VINA RESULT:     5.046      2.337      3.046
REMARK INTER + INTRA:           5.406
REMARK INTER:                   5.646
REMARK INTRA:                  -0.240
REMARK UNBOUND:                -0.082
REMARK SMILES O=C([O-])c1ccccc1O
REMARK SMILES IDX 4 1 9 2 5 3 8 4 6 5 7 6 2 7 1 8 3 9 10 10
REMARK H PARENT 10 11
REMARK Flexibility Score: inf
ROOT
ATOM      1  C   UNL     1     -31.701  38.691 -25.748  1.00  0.00     0.039 A 
ATOM      2  C   UNL     1     -30.301  38.692 -25.985  1.00  0.00     0.124 A 
ATOM      3  C   UNL     1     -32.387  39.919 -25.722  1.00  0.00     0.014 A 
ATOM      4  C   UNL     1     -29.623  39.909 -26.125  1.00  0.00     0.047 A 
ATOM      5  C   UNL     1     -31.699  41.124 -25.884  1.00  0.00     0.001 A 
ATOM      6  C   UNL     1     -30.318  41.119 -26.075  1.00  0.00     0.004 A 
ENDROOT
BRANCH   1   7
ATOM      7  C   UNL     1     -32.471  37.452 -25.494  1.00  0.00     0.075 C 
ATOM      8  O   UNL     1     -32.065  36.597 -24.663  1.00  0.00    -0.545 OA
ATOM      9  O   UNL     1     -33.693  37.252 -26.124  1.00  0.00    -0.545 OA
ENDBRANCH   1   7
BRANCH   2  10
ATOM     10  O   UNL     1     -29.558  37.516 -26.122  1.00  0.00    -0.507 OA
ATOM     11  H   UNL     1     -29.921  36.599 -25.908  1.00  0.00     0.293 HD
ENDBRANCH   2  10
TORSDOF 2
ENDMDL
