MODEL 1
REMARK VINA RESULT:    -5.017      0.000      0.000
REMARK INTER + INTRA:          -5.901
REMARK INTER:                  -5.751
REMARK INTRA:                  -0.151
REMARK UNBOUND:                -0.151
REMARK SMILES O=C([O-])C=Cc1ccc(O)cc1
REMARK SMILES IDX 6 1 7 2 12 3 8 4 11 5 9 6 5 7 4 8 2 9 1 10 3 11 10 12
REMARK H PARENT 10 13
REMARK Flexibility Score: inf
ROOT
ATOM      1  C   UNL     1       2.559  -8.584   4.045  1.00  0.00    -0.025 A 
ATOM      2  C   UNL     1       3.451  -9.468   3.404  1.00  0.00     0.012 A 
ATOM      3  C   UNL     1       3.081  -7.493   4.760  1.00  0.00     0.012 A 
ATOM      4  C   UNL     1       4.831  -9.244   3.462  1.00  0.00     0.047 A 
ATOM      5  C   UNL     1       4.461  -7.273   4.814  1.00  0.00     0.047 A 
ATOM      6  C   UNL     1       5.339  -8.144   4.165  1.00  0.00     0.115 A 
ENDROOT
BRANCH   1   7
ATOM      7  C   UNL     1       1.088  -8.781   4.026  1.00  0.00     0.010 C 
ATOM      8  C   UNL     1       0.206  -7.854   4.422  1.00  0.00     0.025 C 
BRANCH   8   9
ATOM      9  C   UNL     1      -1.245  -8.098   4.397  1.00  0.00     0.064 C 
ATOM     10  O   UNL     1      -1.903  -7.823   3.360  1.00  0.00    -0.545 OA
ATOM     11  O   UNL     1      -1.901  -8.630   5.500  1.00  0.00    -0.545 OA
ENDBRANCH   8   9
ENDBRANCH   1   7
BRANCH   6  12
ATOM     12  O   UNL     1       6.710  -7.912   4.226  1.00  0.00    -0.508 OA
ATOM     13  H   UNL     1       7.177  -7.311   3.557  1.00  0.00     0.293 HD
ENDBRANCH   6  12
TORSDOF 3
ENDMDL
MODEL 2
REMARK VINA RESULT:    -4.990      0.092      1.400
REMARK INTER + INTRA:          -5.869
REMARK INTER:                  -5.730
REMARK INTRA:                  -0.139
REMARK UNBOUND:                -0.151
REMARK SMILES O=C([O-])C=Cc1ccc(O)cc1
REMARK SMILES IDX 6 1 7 2 12 3 8 4 11 5 9 6 5 7 4 8 2 9 1 10 3 11 10 12
REMARK H PARENT 10 13
REMARK Flexibility Score: inf
ROOT
ATOM      1  C   UNL     1       2.537  -8.562   4.089  1.00  0.00    -0.025 A 
ATOM      2  C   UNL     1       3.117  -7.459   4.748  1.00  0.00     0.012 A 
ATOM      3  C   UNL     1       3.377  -9.485   3.444  1.00  0.00     0.012 A 
ATOM      4  C   UNL     1       4.507  -7.303   4.776  1.00  0.00     0.047 A 
ATOM      5  C   UNL     1       4.766  -9.326   3.476  1.00  0.00     0.047 A 
ATOM      6  C   UNL     1       5.335  -8.238   4.142  1.00  0.00     0.115 A 
ENDROOT
BRANCH   1   7
ATOM      7  C   UNL     1       1.069  -8.768   4.018  1.00  0.00     0.010 C 
ATOM      8  C   UNL     1       0.170  -7.893   4.488  1.00  0.00     0.025 C 
BRANCH   8   9
ATOM      9  C   UNL     1      -1.278  -8.144   4.407  1.00  0.00     0.064 C 
ATOM     10  O   UNL     1      -1.907  -7.822   3.366  1.00  0.00    -0.545 OA
ATOM     11  O   UNL     1      -1.962  -8.736   5.463  1.00  0.00    -0.545 OA
ENDBRANCH   8   9
ENDBRANCH   1   7
BRANCH   6  12
ATOM     12  O   UNL     1       6.720  -8.093   4.166  1.00  0.00    -0.508 OA
ATOM     13  H   UNL     1       7.326  -8.706   3.634  1.00  0.00     0.293 HD
ENDBRANCH   6  12
TORSDOF 3
ENDMDL
MODEL 3
REMARK VINA RESULT:    -4.485      2.485      6.422
REMARK INTER + INTRA:          -5.291
REMARK INTER:                  -5.155
REMARK INTRA:                  -0.136
REMARK UNBOUND:                -0.151
REMARK SMILES O=C([O-])C=Cc1ccc(O)cc1
REMARK SMILES IDX 6 1 7 2 12 3 8 4 11 5 9 6 5 7 4 8 2 9 1 10 3 11 10 12
REMARK H PARENT 10 13
REMARK Flexibility Score: inf
ROOT
ATOM      1  C   UNL     1       5.253  -7.971   4.007  1.00  0.00    -0.025 A 
ATOM      2  C   UNL     1       5.190  -9.122   3.194  1.00  0.00     0.012 A 
ATOM      3  C   UNL     1       4.074  -7.501   4.609  1.00  0.00     0.012 A 
ATOM      4  C   UNL     1       3.976  -9.793   3.013  1.00  0.00     0.047 A 
ATOM      5  C   UNL     1       2.864  -8.176   4.426  1.00  0.00     0.047 A 
ATOM      6  C   UNL     1       2.811  -9.323   3.630  1.00  0.00     0.115 A 
ENDROOT
BRANCH   1   7
ATOM      7  C   UNL     1       6.512  -7.214   4.223  1.00  0.00     0.010 C 
ATOM      8  C   UNL     1       7.069  -6.418   3.302  1.00  0.00     0.025 C 
BRANCH   8   9
ATOM      9  C   UNL     1       8.326  -5.695   3.555  1.00  0.00     0.064 C 
ATOM     10  O   UNL     1       9.323  -6.320   4.000  1.00  0.00    -0.545 OA
ATOM     11  O   UNL     1       8.431  -4.331   3.308  1.00  0.00    -0.545 OA
ENDBRANCH   8   9
ENDBRANCH   1   7
BRANCH   6  12
ATOM     12  O   UNL     1       1.598  -9.986   3.457  1.00  0.00    -0.508 OA
ATOM     13  H   UNL     1       1.199 -10.560   4.190  1.00  0.00     0.293 HD
ENDBRANCH   6  12
TORSDOF 3
ENDMDL
MODEL 4
REMARK VINA RESULT:    -4.198      1.490      5.967
REMARK INTER + INTRA:          -4.962
REMARK INTER:                  -4.812
REMARK INTRA:                  -0.150
REMARK UNBOUND:                -0.151
REMARK SMILES O=C([O-])C=Cc1ccc(O)cc1
REMARK SMILES IDX 6 1 7 2 12 3 8 4 11 5 9 6 5 7 4 8 2 9 1 10 3 11 10 12
REMARK H PARENT 10 13
REMARK Flexibility Score: inf
ROOT
ATOM      1  C   UNL     1       3.850  -8.345   4.104  1.00  0.00    -0.025 A 
ATOM      2  C   UNL     1       3.254  -9.477   3.511  1.00  0.00     0.012 A 
ATOM      3  C   UNL     1       3.023  -7.371   4.688  1.00  0.00     0.012 A 
ATOM      4  C   UNL     1       1.865  -9.635   3.528  1.00  0.00     0.047 A 
ATOM      5  C   UNL     1       1.635  -7.534   4.704  1.00  0.00     0.047 A 
ATOM      6  C   UNL     1       1.052  -8.665   4.127  1.00  0.00     0.115 A 
ENDROOT
BRANCH   1   7
ATOM      7  C   UNL     1       5.318  -8.122   4.103  1.00  0.00     0.010 C 
ATOM      8  C   UNL     1       5.889  -6.918   4.242  1.00  0.00     0.025 C 
BRANCH   8   9
ATOM      9  C   UNL     1       7.350  -6.742   4.223  1.00  0.00     0.064 C 
ATOM     10  O   UNL     1       8.044  -7.213   5.160  1.00  0.00    -0.545 OA
ATOM     11  O   UNL     1       7.976  -6.065   3.182  1.00  0.00    -0.545 OA
ENDBRANCH   8   9
ENDBRANCH   1   7
BRANCH   6  12
ATOM     12  O   UNL     1      -0.333  -8.814   4.151  1.00  0.00    -0.508 OA
ATOM     13  H   UNL     1      -0.766  -9.719   4.293  1.00  0.00     0.293 HD
ENDBRANCH   6  12
TORSDOF 3
ENDMDL
MODEL 5
REMARK VINA RESULT:    -4.197      1.525      1.756
REMARK INTER + INTRA:          -4.961
REMARK INTER:                  -4.811
REMARK INTRA:                  -0.150
REMARK UNBOUND:                -0.151
REMARK SMILES O=C([O-])C=Cc1ccc(O)cc1
REMARK SMILES IDX 6 1 7 2 12 3 8 4 11 5 9 6 5 7 4 8 2 9 1 10 3 11 10 12
REMARK H PARENT 10 13
REMARK Flexibility Score: inf
ROOT
ATOM      1  C   UNL     1       1.854  -8.178   4.429  1.00  0.00    -0.025 A 
ATOM      2  C   UNL     1       2.127  -9.373   3.733  1.00  0.00     0.012 A 
ATOM      3  C   UNL     1       2.927  -7.362   4.824  1.00  0.00     0.012 A 
ATOM      4  C   UNL     1       3.445  -9.725   3.423  1.00  0.00     0.047 A 
ATOM      5  C   UNL     1       4.243  -7.717   4.511  1.00  0.00     0.047 A 
ATOM      6  C   UNL     1       4.506  -8.896   3.810  1.00  0.00     0.115 A 
ENDROOT
BRANCH   1   7
ATOM      7  C   UNL     1       0.475  -7.764   4.794  1.00  0.00     0.010 C 
ATOM      8  C   UNL     1       0.196  -6.859   5.741  1.00  0.00     0.025 C 
BRANCH   8   9
ATOM      9  C   UNL     1      -1.188  -6.487   6.078  1.00  0.00     0.064 C 
ATOM     10  O   UNL     1      -1.472  -5.281   6.295  1.00  0.00    -0.545 OA
ATOM     11  O   UNL     1      -2.189  -7.449   6.158  1.00  0.00    -0.545 OA
ENDBRANCH   8   9
ENDBRANCH   1   7
BRANCH   6  12
ATOM     12  O   UNL     1       5.821  -9.237   3.504  1.00  0.00    -0.508 OA
ATOM     13  H   UNL     1       6.553  -8.537   3.460  1.00  0.00     0.293 HD
ENDBRANCH   6  12
TORSDOF 3
ENDMDL
MODEL 6
REMARK VINA RESULT:    -4.163      1.279      2.285
REMARK INTER + INTRA:          -4.922
REMARK INTER:                  -4.772
REMARK INTRA:                  -0.150
REMARK UNBOUND:                -0.151
REMARK SMILES O=C([O-])C=Cc1ccc(O)cc1
REMARK SMILES IDX 6 1 7 2 12 3 8 4 11 5 9 6 5 7 4 8 2 9 1 10 3 11 10 12
REMARK H PARENT 10 13
REMARK Flexibility Score: inf
ROOT
ATOM      1  C   UNL     1       2.257  -6.680   5.237  1.00  0.00    -0.025 A 
ATOM      2  C   UNL     1       2.799  -5.493   5.770  1.00  0.00     0.012 A 
ATOM      3  C   UNL     1       3.126  -7.626   4.668  1.00  0.00     0.012 A 
ATOM      4  C   UNL     1       4.181  -5.276   5.752  1.00  0.00     0.047 A 
ATOM      5  C   UNL     1       4.507  -7.406   4.653  1.00  0.00     0.047 A 
ATOM      6  C   UNL     1       5.038  -6.233   5.196  1.00  0.00     0.115 A 
ENDROOT
BRANCH   1   7
ATOM      7  C   UNL     1       0.799  -6.955   5.219  1.00  0.00     0.010 C 
ATOM      8  C   UNL     1       0.211  -7.805   4.367  1.00  0.00     0.025 C 
BRANCH   8   9
ATOM      9  C   UNL     1      -1.243  -8.038   4.378  1.00  0.00     0.064 C 
ATOM     10  O   UNL     1      -1.907  -7.861   3.324  1.00  0.00    -0.545 OA
ATOM     11  O   UNL     1      -1.893  -8.453   5.534  1.00  0.00    -0.545 OA
ENDBRANCH   8   9
ENDBRANCH   1   7
BRANCH   6  12
ATOM     12  O   UNL     1       6.416  -6.028   5.175  1.00  0.00    -0.508 OA
ATOM     13  H   UNL     1       6.843  -5.371   4.533  1.00  0.00     0.293 HD
ENDBRANCH   6  12
TORSDOF 3
ENDMDL
MODEL 7
REMARK VINA RESULT:    -4.082      1.295      5.795
REMARK INTER + INTRA:          -4.829
REMARK INTER:                  -4.677
REMARK INTRA:                  -0.152
REMARK UNBOUND:                -0.151
REMARK SMILES O=C([O-])C=Cc1ccc(O)cc1
REMARK SMILES IDX 6 1 7 2 12 3 8 4 11 5 9 6 5 7 4 8 2 9 1 10 3 11 10 12
REMARK H PARENT 10 13
REMARK Flexibility Score: inf
ROOT
ATOM      1  C   UNL     1       2.205  -7.819   4.604  1.00  0.00    -0.025 A 
ATOM      2  C   UNL     1       1.165  -8.641   4.124  1.00  0.00     0.012 A 
ATOM      3  C   UNL     1       1.874  -6.643   5.297  1.00  0.00     0.012 A 
ATOM      4  C   UNL     1      -0.171  -8.300   4.358  1.00  0.00     0.047 A 
ATOM      5  C   UNL     1       0.537  -6.307   5.530  1.00  0.00     0.047 A 
ATOM      6  C   UNL     1      -0.488  -7.133   5.064  1.00  0.00     0.115 A 
ENDROOT
BRANCH   1   7
ATOM      7  C   UNL     1       3.639  -8.128   4.372  1.00  0.00     0.010 C 
ATOM      8  C   UNL     1       4.641  -7.302   4.701  1.00  0.00     0.025 C 
BRANCH   8   9
ATOM      9  C   UNL     1       6.049  -7.644   4.442  1.00  0.00     0.064 C 
ATOM     10  O   UNL     1       6.583  -8.593   5.072  1.00  0.00    -0.545 OA
ATOM     11  O   UNL     1       6.797  -6.937   3.508  1.00  0.00    -0.545 OA
ENDBRANCH   8   9
ENDBRANCH   1   7
BRANCH   6  12
ATOM     12  O   UNL     1      -1.815  -6.786   5.304  1.00  0.00    -0.508 OA
ATOM     13  H   UNL     1      -2.176  -5.872   5.060  1.00  0.00     0.293 HD
ENDBRANCH   6  12
TORSDOF 3
ENDMDL
MODEL 8
REMARK VINA RESULT:    -4.072      4.610      6.664
REMARK INTER + INTRA:          -4.818
REMARK INTER:                  -4.682
REMARK INTRA:                  -0.135
REMARK UNBOUND:                -0.151
REMARK SMILES O=C([O-])C=Cc1ccc(O)cc1
REMARK SMILES IDX 6 1 7 2 12 3 8 4 11 5 9 6 5 7 4 8 2 9 1 10 3 11 10 12
REMARK H PARENT 10 13
REMARK Flexibility Score: inf
ROOT
ATOM      1  C   UNL     1       6.097  -4.695   4.693  1.00  0.00    -0.025 A 
ATOM      2  C   UNL     1       5.125  -5.541   5.264  1.00  0.00     0.012 A 
ATOM      3  C   UNL     1       7.075  -5.255   3.853  1.00  0.00     0.012 A 
ATOM      4  C   UNL     1       5.123  -6.910   4.977  1.00  0.00     0.047 A 
ATOM      5  C   UNL     1       7.068  -6.624   3.568  1.00  0.00     0.047 A 
ATOM      6  C   UNL     1       6.093  -7.454   4.126  1.00  0.00     0.115 A 
ENDROOT
BRANCH   1   7
ATOM      7  C   UNL     1       6.153  -3.238   4.974  1.00  0.00     0.010 C 
ATOM      8  C   UNL     1       5.122  -2.404   4.785  1.00  0.00     0.025 C 
BRANCH   8   9
ATOM      9  C   UNL     1       5.225  -0.963   5.065  1.00  0.00     0.064 C 
ATOM     10  O   UNL     1       4.259  -0.364   5.605  1.00  0.00    -0.545 OA
ATOM     11  O   UNL     1       6.376  -0.252   4.746  1.00  0.00    -0.545 OA
ENDBRANCH   8   9
ENDBRANCH   1   7
BRANCH   6  12
ATOM     12  O   UNL     1       6.098  -8.816   3.832  1.00  0.00    -0.508 OA
ATOM     13  H   UNL     1       6.605  -9.184   3.036  1.00  0.00     0.293 HD
ENDBRANCH   6  12
TORSDOF 3
ENDMDL
MODEL 9
REMARK VINA RESULT:    -4.055     14.943     15.742
REMARK INTER + INTRA:          -4.798
REMARK INTER:                  -4.659
REMARK INTRA:                  -0.139
REMARK UNBOUND:                -0.151
REMARK SMILES O=C([O-])C=Cc1ccc(O)cc1
REMARK SMILES IDX 6 1 7 2 12 3 8 4 11 5 9 6 5 7 4 8 2 9 1 10 3 11 10 12
REMARK H PARENT 10 13
REMARK Flexibility Score: inf
ROOT
ATOM      1  C   UNL     1       3.816   7.350   6.290  1.00  0.00    -0.025 A 
ATOM      2  C   UNL     1       3.904   6.069   5.708  1.00  0.00     0.012 A 
ATOM      3  C   UNL     1       5.001   8.022   6.633  1.00  0.00     0.012 A 
ATOM      4  C   UNL     1       5.152   5.491   5.456  1.00  0.00     0.047 A 
ATOM      5  C   UNL     1       6.247   7.441   6.379  1.00  0.00     0.047 A 
ATOM      6  C   UNL     1       6.327   6.177   5.789  1.00  0.00     0.115 A 
ENDROOT
BRANCH   1   7
ATOM      7  C   UNL     1       2.517   8.004   6.590  1.00  0.00     0.010 C 
ATOM      8  C   UNL     1       1.475   7.371   7.146  1.00  0.00     0.025 C 
BRANCH   8   9
ATOM      9  C   UNL     1       0.201   8.056   7.414  1.00  0.00     0.064 C 
ATOM     10  O   UNL     1       0.207   9.185   7.971  1.00  0.00    -0.545 OA
ATOM     11  O   UNL     1      -1.013   7.478   7.059  1.00  0.00    -0.545 OA
ENDBRANCH   8   9
ENDBRANCH   1   7
BRANCH   6  12
ATOM     12  O   UNL     1       7.575   5.611   5.540  1.00  0.00    -0.508 OA
ATOM     13  H   UNL     1       8.433   6.088   5.792  1.00  0.00     0.293 HD
ENDBRANCH   6  12
TORSDOF 3
ENDMDL
