MODEL 1
REMARK VINA RESULT:    -4.132      0.000      0.000
REMARK INTER + INTRA:          -5.362
REMARK INTER:                  -5.099
REMARK INTRA:                  -0.263
REMARK UNBOUND:                -0.263
REMARK SMILES CCCCC=CC(C)=O
REMARK SMILES IDX 4 1 3 2 2 3 1 4 5 5 6 6 7 7 9 8 8 9
REMARK H PARENT
REMARK Flexibility Score: inf
ROOT
ATOM      1  C   UNL     1     211.855 153.322 184.492  1.00  0.00     0.027 C 
ENDROOT
BRANCH   1   2
ATOM      2  C   UNL     1     213.303 152.816 184.489  1.00  0.00     0.004 C 
BRANCH   2   3
ATOM      3  C   UNL     1     213.559 151.878 185.674  1.00  0.00    -0.003 C 
ATOM      4  C   UNL     1     214.005 150.498 185.197  1.00  0.00     0.004 C 
ENDBRANCH   2   3
ENDBRANCH   1   2
BRANCH   1   5
ATOM      5  C   UNL     1     211.091 152.789 183.314  1.00  0.00    -0.023 C 
ATOM      6  C   UNL     1     211.570 151.788 182.566  1.00  0.00     0.042 C 
BRANCH   6   7
ATOM      7  C   UNL     1     210.861 151.241 181.392  1.00  0.00     0.152 C 
ATOM      8  O   UNL     1     211.529 150.956 180.362  1.00  0.00    -0.295 OA
ATOM      9  C   UNL     1     209.379 151.013 181.381  1.00  0.00     0.093 C 
ENDBRANCH   6   7
ENDBRANCH   1   5
TORSDOF 4
ENDMDL
MODEL 2
REMARK VINA RESULT:    -4.086      2.153      5.143
REMARK INTER + INTRA:          -5.304
REMARK INTER:                  -5.200
REMARK INTRA:                  -0.105
REMARK UNBOUND:                -0.263
REMARK SMILES CCCCC=CC(C)=O
REMARK SMILES IDX 4 1 3 2 2 3 1 4 5 5 6 6 7 7 9 8 8 9
REMARK H PARENT
REMARK Flexibility Score: inf
ROOT
ATOM      1  C   UNL     1     210.226 151.966 181.786  1.00  0.00     0.027 C 
ENDROOT
BRANCH   1   2
ATOM      2  C   UNL     1     209.468 150.682 181.423  1.00  0.00     0.004 C 
BRANCH   2   3
ATOM      3  C   UNL     1     208.204 151.002 180.615  1.00  0.00    -0.003 C 
ATOM      4  C   UNL     1     207.050 150.086 181.014  1.00  0.00     0.004 C 
ENDBRANCH   2   3
ENDBRANCH   1   2
BRANCH   1   5
ATOM      5  C   UNL     1     211.493 151.656 182.531  1.00  0.00    -0.023 C 
ATOM      6  C   UNL     1     211.848 152.346 183.621  1.00  0.00     0.042 C 
BRANCH   6   7
ATOM      7  C   UNL     1     213.090 152.087 184.377  1.00  0.00     0.152 C 
ATOM      8  O   UNL     1     213.658 153.052 184.954  1.00  0.00    -0.295 OA
ATOM      9  C   UNL     1     213.696 150.719 184.483  1.00  0.00     0.093 C 
ENDBRANCH   6   7
ENDBRANCH   1   5
TORSDOF 4
ENDMDL
MODEL 3
REMARK VINA RESULT:    -4.038      2.338      4.580
REMARK INTER + INTRA:          -5.246
REMARK INTER:                  -5.014
REMARK INTRA:                  -0.232
REMARK UNBOUND:                -0.263
REMARK SMILES CCCCC=CC(C)=O
REMARK SMILES IDX 4 1 3 2 2 3 1 4 5 5 6 6 7 7 9 8 8 9
REMARK H PARENT
REMARK Flexibility Score: inf
ROOT
ATOM      1  C   UNL     1     210.720 152.542 182.539  1.00  0.00     0.027 C 
ENDROOT
BRANCH   1   2
ATOM      2  C   UNL     1     210.347 151.380 181.610  1.00  0.00     0.004 C 
BRANCH   2   3
ATOM      3  C   UNL     1     211.566 150.497 181.320  1.00  0.00    -0.003 C 
ATOM      4  C   UNL     1     212.218 150.877 179.993  1.00  0.00     0.004 C 
ENDBRANCH   2   3
ENDBRANCH   1   2
BRANCH   1   5
ATOM      5  C   UNL     1     211.828 152.154 183.477  1.00  0.00    -0.023 C 
ATOM      6  C   UNL     1     212.478 153.070 184.204  1.00  0.00     0.042 C 
BRANCH   6   7
ATOM      7  C   UNL     1     213.581 152.737 185.129  1.00  0.00     0.152 C 
ATOM      8  O   UNL     1     214.442 153.621 185.383  1.00  0.00    -0.295 OA
ATOM      9  C   UNL     1     213.711 151.390 185.775  1.00  0.00     0.093 C 
ENDBRANCH   6   7
ENDBRANCH   1   5
TORSDOF 4
ENDMDL
MODEL 4
REMARK VINA RESULT:    -3.913      2.404      3.740
REMARK INTER + INTRA:          -5.091
REMARK INTER:                  -4.901
REMARK INTRA:                  -0.190
REMARK UNBOUND:                -0.263
REMARK SMILES CCCCC=CC(C)=O
REMARK SMILES IDX 4 1 3 2 2 3 1 4 5 5 6 6 7 7 9 8 8 9
REMARK H PARENT
REMARK Flexibility Score: inf
ROOT
ATOM      1  C   UNL     1     210.718 151.032 181.721  1.00  0.00     0.027 C 
ENDROOT
BRANCH   1   2
ATOM      2  C   UNL     1     210.743 152.427 182.358  1.00  0.00     0.004 C 
BRANCH   2   3
ATOM      3  C   UNL     1     211.713 152.470 183.545  1.00  0.00    -0.003 C 
ATOM      4  C   UNL     1     211.496 153.724 184.388  1.00  0.00     0.004 C 
ENDBRANCH   2   3
ENDBRANCH   1   2
BRANCH   1   5
ATOM      5  C   UNL     1     212.092 150.609 181.286  1.00  0.00    -0.023 C 
ATOM      6  C   UNL     1     212.551 150.885 180.060  1.00  0.00     0.042 C 
BRANCH   6   7
ATOM      7  C   UNL     1     213.888 150.479 179.583  1.00  0.00     0.152 C 
ATOM      8  O   UNL     1     214.165 150.627 178.363  1.00  0.00    -0.295 OA
ATOM      9  C   UNL     1     214.926 149.899 180.497  1.00  0.00     0.093 C 
ENDBRANCH   6   7
ENDBRANCH   1   5
TORSDOF 4
ENDMDL
MODEL 5
REMARK VINA RESULT:    -3.907      2.398      4.455
REMARK INTER + INTRA:          -5.084
REMARK INTER:                  -4.822
REMARK INTRA:                  -0.262
REMARK UNBOUND:                -0.263
REMARK SMILES CCCCC=CC(C)=O
REMARK SMILES IDX 4 1 3 2 2 3 1 4 5 5 6 6 7 7 9 8 8 9
REMARK H PARENT
REMARK Flexibility Score: inf
ROOT
ATOM      1  C   UNL     1     210.736 151.074 181.459  1.00  0.00     0.027 C 
ENDROOT
BRANCH   1   2
ATOM      2  C   UNL     1     211.951 150.138 181.476  1.00  0.00     0.004 C 
BRANCH   2   3
ATOM      3  C   UNL     1     212.624 150.089 180.099  1.00  0.00    -0.003 C 
ATOM      4  C   UNL     1     212.147 151.236 179.212  1.00  0.00     0.004 C 
ENDBRANCH   2   3
ENDBRANCH   1   2
BRANCH   1   5
ATOM      5  C   UNL     1     210.851 152.132 182.520  1.00  0.00    -0.023 C 
ATOM      6  C   UNL     1     211.942 152.234 183.287  1.00  0.00     0.042 C 
BRANCH   6   7
ATOM      7  C   UNL     1     212.095 153.250 184.349  1.00  0.00     0.152 C 
ATOM      8  O   UNL     1     213.150 153.250 185.037  1.00  0.00    -0.295 OA
ATOM      9  C   UNL     1     211.041 154.277 184.637  1.00  0.00     0.093 C 
ENDBRANCH   6   7
ENDBRANCH   1   5
TORSDOF 4
ENDMDL
MODEL 6
REMARK VINA RESULT:    -3.895      2.538      3.689
REMARK INTER + INTRA:          -5.069
REMARK INTER:                  -4.805
REMARK INTRA:                  -0.264
REMARK UNBOUND:                -0.263
REMARK SMILES CCCCC=CC(C)=O
REMARK SMILES IDX 4 1 3 2 2 3 1 4 5 5 6 6 7 7 9 8 8 9
REMARK H PARENT
REMARK Flexibility Score: inf
ROOT
ATOM      1  C   UNL     1     211.358 150.957 181.790  1.00  0.00     0.027 C 
ENDROOT
BRANCH   1   2
ATOM      2  C   UNL     1     210.468 152.129 182.221  1.00  0.00     0.004 C 
BRANCH   2   3
ATOM      3  C   UNL     1     211.095 152.890 183.395  1.00  0.00    -0.003 C 
ATOM      4  C   UNL     1     212.387 152.221 183.859  1.00  0.00     0.004 C 
ENDBRANCH   2   3
ENDBRANCH   1   2
BRANCH   1   5
ATOM      5  C   UNL     1     211.795 151.103 180.360  1.00  0.00    -0.023 C 
ATOM      6  C   UNL     1     212.750 151.971 180.008  1.00  0.00     0.042 C 
BRANCH   6   7
ATOM      7  C   UNL     1     213.204 152.158 178.615  1.00  0.00     0.152 C 
ATOM      8  O   UNL     1     213.771 151.197 178.031  1.00  0.00    -0.295 OA
ATOM      9  C   UNL     1     213.013 153.448 177.873  1.00  0.00     0.093 C 
ENDBRANCH   6   7
ENDBRANCH   1   5
TORSDOF 4
ENDMDL
MODEL 7
REMARK VINA RESULT:    -3.872      1.690      2.384
REMARK INTER + INTRA:          -5.041
REMARK INTER:                  -4.762
REMARK INTRA:                  -0.279
REMARK UNBOUND:                -0.263
REMARK SMILES CCCCC=CC(C)=O
REMARK SMILES IDX 4 1 3 2 2 3 1 4 5 5 6 6 7 7 9 8 8 9
REMARK H PARENT
REMARK Flexibility Score: inf
ROOT
ATOM      1  C   UNL     1     213.909 151.648 185.017  1.00  0.00     0.027 C 
ENDROOT
BRANCH   1   2
ATOM      2  C   UNL     1     214.133 150.154 184.752  1.00  0.00     0.004 C 
BRANCH   2   3
ATOM      3  C   UNL     1     215.596 149.875 184.384  1.00  0.00    -0.003 C 
ATOM      4  C   UNL     1     215.920 150.394 182.986  1.00  0.00     0.004 C 
ENDBRANCH   2   3
ENDBRANCH   1   2
BRANCH   1   5
ATOM      5  C   UNL     1     212.718 152.162 184.261  1.00  0.00    -0.023 C 
ATOM      6  C   UNL     1     212.249 151.524 183.182  1.00  0.00     0.042 C 
BRANCH   6   7
ATOM      7  C   UNL     1     211.089 151.998 182.400  1.00  0.00     0.152 C 
ATOM      8  O   UNL     1     210.746 153.206 182.500  1.00  0.00    -0.295 OA
ATOM      9  C   UNL     1     210.307 151.095 181.493  1.00  0.00     0.093 C 
ENDBRANCH   6   7
ENDBRANCH   1   5
TORSDOF 4
ENDMDL
MODEL 8
REMARK VINA RESULT:    -3.856      1.974      4.321
REMARK INTER + INTRA:          -5.020
REMARK INTER:                  -4.869
REMARK INTRA:                  -0.151
REMARK UNBOUND:                -0.263
REMARK SMILES CCCCC=CC(C)=O
REMARK SMILES IDX 4 1 3 2 2 3 1 4 5 5 6 6 7 7 9 8 8 9
REMARK H PARENT
REMARK Flexibility Score: inf
ROOT
ATOM      1  C   UNL     1     211.594 152.593 183.626  1.00  0.00     0.027 C 
ENDROOT
BRANCH   1   2
ATOM      2  C   UNL     1     210.745 152.618 182.349  1.00  0.00     0.004 C 
BRANCH   2   3
ATOM      3  C   UNL     1     210.597 151.209 181.761  1.00  0.00    -0.003 C 
ATOM      4  C   UNL     1     209.198 150.996 181.190  1.00  0.00     0.004 C 
ENDBRANCH   2   3
ENDBRANCH   1   2
BRANCH   1   5
ATOM      5  C   UNL     1     212.649 151.526 183.557  1.00  0.00    -0.023 C 
ATOM      6  C   UNL     1     213.871 151.784 183.076  1.00  0.00     0.042 C 
BRANCH   6   7
ATOM      7  C   UNL     1     214.936 150.765 182.976  1.00  0.00     0.152 C 
ATOM      8  O   UNL     1     215.553 150.641 181.885  1.00  0.00    -0.295 OA
ATOM      9  C   UNL     1     215.308 149.876 184.125  1.00  0.00     0.093 C 
ENDBRANCH   6   7
ENDBRANCH   1   5
TORSDOF 4
ENDMDL
MODEL 9
REMARK VINA RESULT:    -3.785      2.879      4.783
REMARK INTER + INTRA:          -4.933
REMARK INTER:                  -4.747
REMARK INTRA:                  -0.186
REMARK UNBOUND:                -0.263
REMARK SMILES CCCCC=CC(C)=O
REMARK SMILES IDX 4 1 3 2 2 3 1 4 5 5 6 6 7 7 9 8 8 9
REMARK H PARENT
REMARK Flexibility Score: inf
ROOT
ATOM      1  C   UNL     1     212.551 152.598 184.349  1.00  0.00     0.027 C 
ENDROOT
BRANCH   1   2
ATOM      2  C   UNL     1     212.167 151.707 183.161  1.00  0.00     0.004 C 
BRANCH   2   3
ATOM      3  C   UNL     1     210.832 152.151 182.551  1.00  0.00    -0.003 C 
ATOM      4  C   UNL     1     210.357 151.165 181.488  1.00  0.00     0.004 C 
ENDBRANCH   2   3
ENDBRANCH   1   2
BRANCH   1   5
ATOM      5  C   UNL     1     211.680 153.821 184.415  1.00  0.00    -0.023 C 
ATOM      6  C   UNL     1     212.206 155.047 184.510  1.00  0.00     0.042 C 
BRANCH   6   7
ATOM      7  C   UNL     1     211.391 156.276 184.591  1.00  0.00     0.152 C 
ATOM      8  O   UNL     1     210.965 156.789 183.521  1.00  0.00    -0.295 OA
ATOM      9  C   UNL     1     211.051 156.932 185.895  1.00  0.00     0.093 C 
ENDBRANCH   6   7
ENDBRANCH   1   5
TORSDOF 4
ENDMDL
