MODEL 1
REMARK VINA RESULT:    -3.868      0.000      0.000
REMARK INTER + INTRA:          -4.907
REMARK INTER:                  -4.772
REMARK INTRA:                  -0.134
REMARK UNBOUND:                -0.134
REMARK SMILES CCCCCC(=O)[O-]
REMARK SMILES IDX 4 1 5 2 6 3 7 4 8 5 3 6 2 7 1 8
REMARK H PARENT
REMARK Flexibility Score: inf
ROOT
ATOM      1  C   UNL     1     -14.211 -27.527 -34.264  1.00  0.00     0.006 C 
ENDROOT
BRANCH   1   2
ATOM      2  C   UNL     1     -13.292 -27.541 -35.489  1.00  0.00     0.053 C 
BRANCH   2   3
ATOM      3  C   UNL     1     -12.718 -26.180 -35.729  1.00  0.00     0.041 C 
ATOM      4  O   UNL     1     -13.428 -25.273 -36.237  1.00  0.00    -0.550 OA
ATOM      5  O   UNL     1     -11.382 -25.929 -35.439  1.00  0.00    -0.550 OA
ENDBRANCH   2   3
ENDBRANCH   1   2
BRANCH   1   6
ATOM      6  C   UNL     1     -13.426 -27.172 -32.993  1.00  0.00     0.000 C 
BRANCH   6   7
ATOM      7  C   UNL     1     -12.588 -28.348 -32.468  1.00  0.00    -0.003 C 
ATOM      8  C   UNL     1     -13.047 -28.834 -31.093  1.00  0.00     0.004 C 
ENDBRANCH   6   7
ENDBRANCH   1   6
TORSDOF 4
ENDMDL
MODEL 2
REMARK VINA RESULT:    -3.838      1.448      2.183
REMARK INTER + INTRA:          -4.870
REMARK INTER:                  -4.696
REMARK INTRA:                  -0.174
REMARK UNBOUND:                -0.134
REMARK SMILES CCCCCC(=O)[O-]
REMARK SMILES IDX 4 1 5 2 6 3 7 4 8 5 3 6 2 7 1 8
REMARK H PARENT
REMARK Flexibility Score: inf
ROOT
ATOM      1  C   UNL     1     -11.296 -26.535 -35.084  1.00  0.00     0.006 C 
ENDROOT
BRANCH   1   2
ATOM      2  C   UNL     1     -12.152 -25.369 -34.580  1.00  0.00     0.053 C 
BRANCH   2   3
ATOM      3  C   UNL     1     -12.742 -24.616 -35.730  1.00  0.00     0.041 C 
ATOM      4  O   UNL     1     -13.366 -25.228 -36.636  1.00  0.00    -0.550 OA
ATOM      5  O   UNL     1     -12.561 -23.241 -35.827  1.00  0.00    -0.550 OA
ENDBRANCH   2   3
ENDBRANCH   1   2
BRANCH   1   6
ATOM      6  C   UNL     1     -11.839 -27.876 -34.569  1.00  0.00     0.000 C 
BRANCH   6   7
ATOM      7  C   UNL     1     -13.136 -27.718 -33.762  1.00  0.00    -0.003 C 
ATOM      8  C   UNL     1     -13.006 -28.234 -32.329  1.00  0.00     0.004 C 
ENDBRANCH   6   7
ENDBRANCH   1   6
TORSDOF 4
ENDMDL
MODEL 3
REMARK VINA RESULT:    -3.832      2.866      4.474
REMARK INTER + INTRA:          -4.863
REMARK INTER:                  -4.746
REMARK INTRA:                  -0.117
REMARK UNBOUND:                -0.134
REMARK SMILES CCCCCC(=O)[O-]
REMARK SMILES IDX 4 1 5 2 6 3 7 4 8 5 3 6 2 7 1 8
REMARK H PARENT
REMARK Flexibility Score: inf
ROOT
ATOM      1  C   UNL     1     -13.298 -27.870 -32.784  1.00  0.00     0.006 C 
ENDROOT
BRANCH   1   2
ATOM      2  C   UNL     1     -12.972 -28.639 -31.500  1.00  0.00     0.053 C 
BRANCH   2   3
ATOM      3  C   UNL     1     -11.886 -27.950 -30.736  1.00  0.00     0.041 C 
ATOM      4  O   UNL     1     -11.137 -28.607 -29.967  1.00  0.00    -0.550 OA
ATOM      5  O   UNL     1     -11.733 -26.573 -30.836  1.00  0.00    -0.550 OA
ENDBRANCH   2   3
ENDBRANCH   1   2
BRANCH   1   6
ATOM      6  C   UNL     1     -12.442 -28.371 -33.956  1.00  0.00     0.000 C 
BRANCH   6   7
ATOM      7  C   UNL     1     -12.903 -27.807 -35.309  1.00  0.00    -0.003 C 
ATOM      8  C   UNL     1     -14.420 -27.639 -35.392  1.00  0.00     0.004 C 
ENDBRANCH   6   7
ENDBRANCH   1   6
TORSDOF 4
ENDMDL
MODEL 4
REMARK VINA RESULT:    -3.794      2.819      4.400
REMARK INTER + INTRA:          -4.815
REMARK INTER:                  -4.640
REMARK INTRA:                  -0.175
REMARK UNBOUND:                -0.134
REMARK SMILES CCCCCC(=O)[O-]
REMARK SMILES IDX 4 1 5 2 6 3 7 4 8 5 3 6 2 7 1 8
REMARK H PARENT
REMARK Flexibility Score: inf
ROOT
ATOM      1  C   UNL     1     -11.905 -28.224 -34.315  1.00  0.00     0.006 C 
ENDROOT
BRANCH   1   2
ATOM      2  C   UNL     1     -12.927 -27.837 -33.243  1.00  0.00     0.053 C 
BRANCH   2   3
ATOM      3  C   UNL     1     -12.447 -28.248 -31.887  1.00  0.00     0.041 C 
ATOM      4  O   UNL     1     -11.287 -27.940 -31.505  1.00  0.00    -0.550 OA
ATOM      5  O   UNL     1     -13.263 -29.013 -31.063  1.00  0.00    -0.550 OA
ENDBRANCH   2   3
ENDBRANCH   1   2
BRANCH   1   6
ATOM      6  C   UNL     1     -11.334 -26.976 -35.006  1.00  0.00     0.000 C 
BRANCH   6   7
ATOM      7  C   UNL     1     -12.214 -25.733 -34.800  1.00  0.00    -0.003 C 
ATOM      8  C   UNL     1     -12.909 -25.283 -36.085  1.00  0.00     0.004 C 
ENDBRANCH   6   7
ENDBRANCH   1   6
TORSDOF 4
ENDMDL
MODEL 5
REMARK VINA RESULT:    -3.778      2.741      4.140
REMARK INTER + INTRA:          -4.795
REMARK INTER:                  -4.578
REMARK INTRA:                  -0.218
REMARK UNBOUND:                -0.134
REMARK SMILES CCCCCC(=O)[O-]
REMARK SMILES IDX 4 1 5 2 6 3 7 4 8 5 3 6 2 7 1 8
REMARK H PARENT
REMARK Flexibility Score: inf
ROOT
ATOM      1  C   UNL     1     -13.352 -27.488 -33.205  1.00  0.00     0.006 C 
ENDROOT
BRANCH   1   2
ATOM      2  C   UNL     1     -12.939 -28.411 -32.055  1.00  0.00     0.053 C 
BRANCH   2   3
ATOM      3  C   UNL     1     -11.846 -27.785 -31.247  1.00  0.00     0.041 C 
ATOM      4  O   UNL     1     -11.426 -26.633 -31.532  1.00  0.00    -0.550 OA
ATOM      5  O   UNL     1     -11.257 -28.495 -30.208  1.00  0.00    -0.550 OA
ENDBRANCH   2   3
ENDBRANCH   1   2
BRANCH   1   6
ATOM      6  C   UNL     1     -12.948 -28.087 -34.561  1.00  0.00     0.000 C 
BRANCH   6   7
ATOM      7  C   UNL     1     -11.481 -27.804 -34.919  1.00  0.00    -0.003 C 
ATOM      8  C   UNL     1     -11.206 -26.318 -35.147  1.00  0.00     0.004 C 
ENDBRANCH   6   7
ENDBRANCH   1   6
TORSDOF 4
ENDMDL
MODEL 6
REMARK VINA RESULT:    -3.705      1.397      1.814
REMARK INTER + INTRA:          -4.705
REMARK INTER:                  -4.615
REMARK INTRA:                  -0.091
REMARK UNBOUND:                -0.134
REMARK SMILES CCCCCC(=O)[O-]
REMARK SMILES IDX 4 1 5 2 6 3 7 4 8 5 3 6 2 7 1 8
REMARK H PARENT
REMARK Flexibility Score: inf
ROOT
ATOM      1  C   UNL     1     -12.321 -28.571 -33.667  1.00  0.00     0.006 C 
ENDROOT
BRANCH   1   2
ATOM      2  C   UNL     1     -11.910 -27.495 -34.677  1.00  0.00     0.053 C 
BRANCH   2   3
ATOM      3  C   UNL     1     -13.110 -26.964 -35.395  1.00  0.00     0.041 C 
ATOM      4  O   UNL     1     -13.161 -25.752 -35.734  1.00  0.00    -0.550 OA
ATOM      5  O   UNL     1     -14.195 -27.795 -35.645  1.00  0.00    -0.550 OA
ENDBRANCH   2   3
ENDBRANCH   1   2
BRANCH   1   6
ATOM      6  C   UNL     1     -13.005 -27.943 -32.444  1.00  0.00     0.000 C 
BRANCH   6   7
ATOM      7  C   UNL     1     -12.826 -28.783 -31.170  1.00  0.00    -0.003 C 
ATOM      8  C   UNL     1     -11.587 -28.384 -30.368  1.00  0.00     0.004 C 
ENDBRANCH   6   7
ENDBRANCH   1   6
TORSDOF 4
ENDMDL
MODEL 7
REMARK VINA RESULT:    -3.678      3.115      4.296
REMARK INTER + INTRA:          -4.673
REMARK INTER:                  -4.512
REMARK INTRA:                  -0.161
REMARK UNBOUND:                -0.134
REMARK SMILES CCCCCC(=O)[O-]
REMARK SMILES IDX 4 1 5 2 6 3 7 4 8 5 3 6 2 7 1 8
REMARK H PARENT
REMARK Flexibility Score: inf
ROOT
ATOM      1  C   UNL     1     -12.236 -26.807 -33.299  1.00  0.00     0.006 C 
ENDROOT
BRANCH   1   2
ATOM      2  C   UNL     1     -12.974 -26.983 -31.969  1.00  0.00     0.053 C 
BRANCH   2   3
ATOM      3  C   UNL     1     -12.428 -28.155 -31.217  1.00  0.00     0.041 C 
ATOM      4  O   UNL     1     -13.174 -29.128 -30.929  1.00  0.00    -0.550 OA
ATOM      5  O   UNL     1     -11.106 -28.151 -30.789  1.00  0.00    -0.550 OA
ENDBRANCH   2   3
ENDBRANCH   1   2
BRANCH   1   6
ATOM      6  C   UNL     1     -12.375 -28.061 -34.174  1.00  0.00     0.000 C 
BRANCH   6   7
ATOM      7  C   UNL     1     -13.066 -27.773 -35.516  1.00  0.00    -0.003 C 
ATOM      8  C   UNL     1     -14.567 -27.525 -35.366  1.00  0.00     0.004 C 
ENDBRANCH   6   7
ENDBRANCH   1   6
TORSDOF 4
ENDMDL
MODEL 8
REMARK VINA RESULT:    -3.643     15.739     16.388
REMARK INTER + INTRA:          -4.629
REMARK INTER:                  -4.532
REMARK INTRA:                  -0.097
REMARK UNBOUND:                -0.134
REMARK SMILES CCCCCC(=O)[O-]
REMARK SMILES IDX 4 1 5 2 6 3 7 4 8 5 3 6 2 7 1 8
REMARK H PARENT
REMARK Flexibility Score: inf
ROOT
ATOM      1  C   UNL     1      -7.355 -30.833 -48.601  1.00  0.00     0.006 C 
ENDROOT
BRANCH   1   2
ATOM      2  C   UNL     1      -6.241 -31.403 -47.718  1.00  0.00     0.053 C 
BRANCH   2   3
ATOM      3  C   UNL     1      -6.315 -32.896 -47.677  1.00  0.00     0.041 C 
ATOM      4  O   UNL     1      -6.407 -33.497 -46.574  1.00  0.00    -0.550 OA
ATOM      5  O   UNL     1      -6.233 -33.628 -48.855  1.00  0.00    -0.550 OA
ENDBRANCH   2   3
ENDBRANCH   1   2
BRANCH   1   6
ATOM      6  C   UNL     1      -6.988 -29.433 -49.113  1.00  0.00     0.000 C 
BRANCH   6   7
ATOM      7  C   UNL     1      -5.573 -29.002 -48.695  1.00  0.00    -0.003 C 
ATOM      8  C   UNL     1      -5.578 -27.829 -47.716  1.00  0.00     0.004 C 
ENDBRANCH   6   7
ENDBRANCH   1   6
TORSDOF 4
ENDMDL
MODEL 9
REMARK VINA RESULT:    -3.613      2.878      3.894
REMARK INTER + INTRA:          -4.592
REMARK INTER:                  -4.403
REMARK INTRA:                  -0.189
REMARK UNBOUND:                -0.134
REMARK SMILES CCCCCC(=O)[O-]
REMARK SMILES IDX 4 1 5 2 6 3 7 4 8 5 3 6 2 7 1 8
REMARK H PARENT
REMARK Flexibility Score: inf
ROOT
ATOM      1  C   UNL     1     -11.422 -26.830 -34.225  1.00  0.00     0.006 C 
ENDROOT
BRANCH   1   2
ATOM      2  C   UNL     1     -11.641 -25.653 -33.269  1.00  0.00     0.053 C 
BRANCH   2   3
ATOM      3  C   UNL     1     -11.226 -26.021 -31.880  1.00  0.00     0.041 C 
ATOM      4  O   UNL     1     -10.006 -26.149 -31.595  1.00  0.00    -0.550 OA
ATOM      5  O   UNL     1     -12.190 -26.272 -30.910  1.00  0.00    -0.550 OA
ENDBRANCH   2   3
ENDBRANCH   1   2
BRANCH   1   6
ATOM      6  C   UNL     1     -12.403 -27.972 -33.923  1.00  0.00     0.000 C 
BRANCH   6   7
ATOM      7  C   UNL     1     -13.872 -27.524 -33.996  1.00  0.00    -0.003 C 
ATOM      8  C   UNL     1     -14.427 -27.548 -35.420  1.00  0.00     0.004 C 
ENDBRANCH   6   7
ENDBRANCH   1   6
TORSDOF 4
ENDMDL
