MODEL 1
REMARK VINA RESULT:    -3.642      0.000      0.000
REMARK INTER + INTRA:          -9.143
REMARK INTER:                  -6.836
REMARK INTRA:                  -2.306
REMARK UNBOUND:                -2.306
REMARK SMILES CCCCCCCCC=CCCCCCCCC(=O)[O-]
REMARK SMILES IDX 10 1 9 2 11 3 12 4 13 5 14 6 15 7 16 8 17 9 18 10 19 11
REMARK SMILES IDX 20 12 8 13 7 14 6 15 5 16 4 17 3 18 2 19 1 20
REMARK H PARENT
REMARK Flexibility Score: inf
ROOT
ATOM      1  C   UNL     1      58.894  28.932  49.328  1.00  0.00    -0.031 C 
ATOM      2  C   UNL     1      58.097  29.303  50.346  1.00  0.00    -0.031 C 
ENDROOT
BRANCH   1   3
ATOM      3  C   UNL     1      60.217  28.228  49.515  1.00  0.00     0.027 C 
BRANCH   3   4
ATOM      4  C   UNL     1      60.055  26.707  49.387  1.00  0.00     0.004 C 
BRANCH   4   5
ATOM      5  C   UNL     1      60.864  25.933  50.441  1.00  0.00     0.000 C 
BRANCH   5   6
ATOM      6  C   UNL     1      62.208  26.601  50.764  1.00  0.00     0.000 C 
BRANCH   6   7
ATOM      7  C   UNL     1      63.296  26.150  49.777  1.00  0.00     0.000 C 
BRANCH   7   8
ATOM      8  C   UNL     1      64.254  27.288  49.392  1.00  0.00     0.006 C 
BRANCH   8   9
ATOM      9  C   UNL     1      63.935  27.892  48.019  1.00  0.00     0.053 C 
BRANCH   9  10
ATOM     10  C   UNL     1      64.649  29.195  47.843  1.00  0.00     0.041 C 
ATOM     11  O   UNL     1      65.641  29.275  47.070  1.00  0.00    -0.550 OA
ATOM     12  O   UNL     1      64.251  30.310  48.570  1.00  0.00    -0.550 OA
ENDBRANCH   9  10
ENDBRANCH   8   9
ENDBRANCH   7   8
ENDBRANCH   6   7
ENDBRANCH   5   6
ENDBRANCH   4   5
ENDBRANCH   3   4
ENDBRANCH   1   3
BRANCH   2  13
ATOM     13  C   UNL     1      58.433  29.107  51.806  1.00  0.00     0.027 C 
BRANCH  13  14
ATOM     14  C   UNL     1      57.442  28.163  52.516  1.00  0.00     0.004 C 
BRANCH  14  15
ATOM     15  C   UNL     1      57.798  26.669  52.388  1.00  0.00     0.000 C 
BRANCH  15  16
ATOM     16  C   UNL     1      56.734  25.788  51.701  1.00  0.00     0.000 C 
BRANCH  16  17
ATOM     17  C   UNL     1      56.556  26.044  50.191  1.00  0.00    -0.000 C 
BRANCH  17  18
ATOM     18  C   UNL     1      55.104  26.386  49.789  1.00  0.00    -0.000 C 
BRANCH  18  19
ATOM     19  C   UNL     1      54.706  27.837  50.109  1.00  0.00    -0.003 C 
ATOM     20  C   UNL     1      53.266  28.158  49.718  1.00  0.00     0.004 C 
ENDBRANCH  18  19
ENDBRANCH  17  18
ENDBRANCH  16  17
ENDBRANCH  15  16
ENDBRANCH  14  15
ENDBRANCH  13  14
ENDBRANCH   2  13
TORSDOF 15
ENDMDL
MODEL 2
REMARK VINA RESULT:    -3.611     11.446     12.921
REMARK INTER + INTRA:          -9.084
REMARK INTER:                  -6.674
REMARK INTRA:                  -2.410
REMARK UNBOUND:                -2.306
REMARK SMILES CCCCCCCCC=CCCCCCCCC(=O)[O-]
REMARK SMILES IDX 10 1 9 2 11 3 12 4 13 5 14 6 15 7 16 8 17 9 18 10 19 11
REMARK SMILES IDX 20 12 8 13 7 14 6 15 5 16 4 17 3 18 2 19 1 20
REMARK H PARENT
REMARK Flexibility Score: inf
ROOT
ATOM      1  C   UNL     1      63.118  33.054  59.750  1.00  0.00    -0.031 C 
ATOM      2  C   UNL     1      64.225  33.736  60.095  1.00  0.00    -0.031 C 
ENDROOT
BRANCH   1   3
ATOM      3  C   UNL     1      61.853  33.039  60.574  1.00  0.00     0.027 C 
BRANCH   3   4
ATOM      4  C   UNL     1      61.100  31.713  60.404  1.00  0.00     0.004 C 
BRANCH   4   5
ATOM      5  C   UNL     1      61.056  30.885  61.699  1.00  0.00     0.000 C 
BRANCH   5   6
ATOM      6  C   UNL     1      61.900  29.606  61.615  1.00  0.00     0.000 C 
BRANCH   6   7
ATOM      7  C   UNL     1      63.401  29.938  61.629  1.00  0.00     0.000 C 
BRANCH   7   8
ATOM      8  C   UNL     1      64.131  29.433  60.375  1.00  0.00     0.006 C 
BRANCH   8   9
ATOM      9  C   UNL     1      65.468  30.147  60.140  1.00  0.00     0.053 C 
BRANCH   9  10
ATOM     10  C   UNL     1      66.602  29.176  60.229  1.00  0.00     0.041 C 
ATOM     11  O   UNL     1      67.341  28.970  59.229  1.00  0.00    -0.550 OA
ATOM     12  O   UNL     1      66.814  28.460  61.400  1.00  0.00    -0.550 OA
ENDBRANCH   9  10
ENDBRANCH   8   9
ENDBRANCH   7   8
ENDBRANCH   6   7
ENDBRANCH   5   6
ENDBRANCH   4   5
ENDBRANCH   3   4
ENDBRANCH   1   3
BRANCH   2  13
ATOM     13  C   UNL     1      64.368  34.539  61.366  1.00  0.00     0.027 C 
BRANCH  13  14
ATOM     14  C   UNL     1      64.452  36.055  61.098  1.00  0.00     0.004 C 
BRANCH  14  15
ATOM     15  C   UNL     1      63.226  36.848  61.589  1.00  0.00     0.000 C 
BRANCH  15  16
ATOM     16  C   UNL     1      61.975  36.763  60.690  1.00  0.00     0.000 C 
BRANCH  16  17
ATOM     17  C   UNL     1      62.261  36.801  59.175  1.00  0.00    -0.000 C 
BRANCH  17  18
ATOM     18  C   UNL     1      61.240  36.003  58.332  1.00  0.00    -0.000 C 
BRANCH  18  19
ATOM     19  C   UNL     1      59.900  35.777  59.050  1.00  0.00    -0.003 C 
ATOM     20  C   UNL     1      58.693  36.052  58.156  1.00  0.00     0.004 C 
ENDBRANCH  18  19
ENDBRANCH  17  18
ENDBRANCH  16  17
ENDBRANCH  15  16
ENDBRANCH  14  15
ENDBRANCH  13  14
ENDBRANCH   2  13
TORSDOF 15
ENDMDL
MODEL 3
REMARK VINA RESULT:    -3.449     11.890     13.520
REMARK INTER + INTRA:          -8.779
REMARK INTER:                  -7.667
REMARK INTRA:                  -1.112
REMARK UNBOUND:                -2.306
REMARK SMILES CCCCCCCCC=CCCCCCCCC(=O)[O-]
REMARK SMILES IDX 10 1 9 2 11 3 12 4 13 5 14 6 15 7 16 8 17 9 18 10 19 11
REMARK SMILES IDX 20 12 8 13 7 14 6 15 5 16 4 17 3 18 2 19 1 20
REMARK H PARENT
REMARK Flexibility Score: inf
ROOT
ATOM      1  C   UNL     1      63.700  28.988  60.173  1.00  0.00    -0.031 C 
ATOM      2  C   UNL     1      62.450  29.089  60.661  1.00  0.00    -0.031 C 
ENDROOT
BRANCH   1   3
ATOM      3  C   UNL     1      64.884  29.730  60.743  1.00  0.00     0.027 C 
BRANCH   3   4
ATOM      4  C   UNL     1      66.158  28.877  60.667  1.00  0.00     0.004 C 
BRANCH   4   5
ATOM      5  C   UNL     1      66.923  29.070  59.346  1.00  0.00     0.000 C 
BRANCH   5   6
ATOM      6  C   UNL     1      68.434  29.235  59.556  1.00  0.00     0.000 C 
BRANCH   6   7
ATOM      7  C   UNL     1      68.832  28.870  60.995  1.00  0.00     0.000 C 
BRANCH   7   8
ATOM      8  C   UNL     1      70.228  29.388  61.374  1.00  0.00     0.006 C 
BRANCH   8   9
ATOM      9  C   UNL     1      70.862  30.242  60.269  1.00  0.00     0.053 C 
BRANCH   9  10
ATOM     10  C   UNL     1      71.755  31.285  60.862  1.00  0.00     0.041 C 
ATOM     11  O   UNL     1      71.614  32.496  60.545  1.00  0.00    -0.550 OA
ATOM     12  O   UNL     1      72.777  30.915  61.728  1.00  0.00    -0.550 OA
ENDBRANCH   9  10
ENDBRANCH   8   9
ENDBRANCH   7   8
ENDBRANCH   6   7
ENDBRANCH   5   6
ENDBRANCH   4   5
ENDBRANCH   3   4
ENDBRANCH   1   3
BRANCH   2  13
ATOM     13  C   UNL     1      62.056  29.986  61.810  1.00  0.00     0.027 C 
BRANCH  13  14
ATOM     14  C   UNL     1      61.039  31.067  61.392  1.00  0.00     0.004 C 
BRANCH  14  15
ATOM     15  C   UNL     1      61.479  31.906  60.177  1.00  0.00     0.000 C 
BRANCH  15  16
ATOM     16  C   UNL     1      62.509  33.016  60.472  1.00  0.00     0.000 C 
BRANCH  16  17
ATOM     17  C   UNL     1      61.924  34.441  60.541  1.00  0.00    -0.000 C 
BRANCH  17  18
ATOM     18  C   UNL     1      62.961  35.516  60.936  1.00  0.00    -0.000 C 
BRANCH  18  19
ATOM     19  C   UNL     1      64.263  34.929  61.506  1.00  0.00    -0.003 C 
ATOM     20  C   UNL     1      65.423  35.921  61.481  1.00  0.00     0.004 C 
ENDBRANCH  18  19
ENDBRANCH  17  18
ENDBRANCH  16  17
ENDBRANCH  15  16
ENDBRANCH  14  15
ENDBRANCH  13  14
ENDBRANCH   2  13
TORSDOF 15
ENDMDL
MODEL 4
REMARK VINA RESULT:    -3.444     10.762     13.405
REMARK INTER + INTRA:          -8.771
REMARK INTER:                  -6.863
REMARK INTRA:                  -1.908
REMARK UNBOUND:                -2.306
REMARK SMILES CCCCCCCCC=CCCCCCCCC(=O)[O-]
REMARK SMILES IDX 10 1 9 2 11 3 12 4 13 5 14 6 15 7 16 8 17 9 18 10 19 11
REMARK SMILES IDX 20 12 8 13 7 14 6 15 5 16 4 17 3 18 2 19 1 20
REMARK H PARENT
REMARK Flexibility Score: inf
ROOT
ATOM      1  C   UNL     1      60.765  30.981  61.226  1.00  0.00    -0.031 C 
ATOM      2  C   UNL     1      61.803  30.401  61.856  1.00  0.00    -0.031 C 
ENDROOT
BRANCH   1   3
ATOM      3  C   UNL     1      60.573  30.952  59.729  1.00  0.00     0.027 C 
BRANCH   3   4
ATOM      4  C   UNL     1      59.687  29.771  59.310  1.00  0.00     0.004 C 
BRANCH   4   5
ATOM      5  C   UNL     1      60.491  28.619  58.684  1.00  0.00     0.000 C 
BRANCH   5   6
ATOM      6  C   UNL     1      60.146  27.254  59.297  1.00  0.00     0.000 C 
BRANCH   6   7
ATOM      7  C   UNL     1      59.919  27.376  60.812  1.00  0.00     0.000 C 
BRANCH   7   8
ATOM      8  C   UNL     1      58.663  26.627  61.284  1.00  0.00     0.006 C 
BRANCH   8   9
ATOM      9  C   UNL     1      57.365  27.361  60.923  1.00  0.00     0.053 C 
BRANCH   9  10
ATOM     10  C   UNL     1      56.370  27.240  62.034  1.00  0.00     0.041 C 
ATOM     11  O   UNL     1      55.894  28.273  62.575  1.00  0.00    -0.550 OA
ATOM     12  O   UNL     1      56.005  25.985  62.506  1.00  0.00    -0.550 OA
ENDBRANCH   9  10
ENDBRANCH   8   9
ENDBRANCH   7   8
ENDBRANCH   6   7
ENDBRANCH   5   6
ENDBRANCH   4   5
ENDBRANCH   3   4
ENDBRANCH   1   3
BRANCH   2  13
ATOM     13  C   UNL     1      62.931  29.684  61.154  1.00  0.00     0.027 C 
BRANCH  13  14
ATOM     14  C   UNL     1      64.227  30.519  61.119  1.00  0.00     0.004 C 
BRANCH  14  15
ATOM     15  C   UNL     1      64.165  31.735  60.175  1.00  0.00     0.000 C 
BRANCH  15  16
ATOM     16  C   UNL     1      64.265  33.114  60.858  1.00  0.00     0.000 C 
BRANCH  16  17
ATOM     17  C   UNL     1      63.011  34.000  60.717  1.00  0.00    -0.000 C 
BRANCH  17  18
ATOM     18  C   UNL     1      63.259  35.483  61.074  1.00  0.00    -0.000 C 
BRANCH  18  19
ATOM     19  C   UNL     1      61.996  36.355  60.975  1.00  0.00    -0.003 C 
ATOM     20  C   UNL     1      60.828  35.634  60.306  1.00  0.00     0.004 C 
ENDBRANCH  18  19
ENDBRANCH  17  18
ENDBRANCH  16  17
ENDBRANCH  15  16
ENDBRANCH  14  15
ENDBRANCH  13  14
ENDBRANCH   2  13
TORSDOF 15
ENDMDL
MODEL 5
REMARK VINA RESULT:    -3.408      2.764      5.125
REMARK INTER + INTRA:          -8.702
REMARK INTER:                  -6.270
REMARK INTRA:                  -2.433
REMARK UNBOUND:                -2.306
REMARK SMILES CCCCCCCCC=CCCCCCCCC(=O)[O-]
REMARK SMILES IDX 10 1 9 2 11 3 12 4 13 5 14 6 15 7 16 8 17 9 18 10 19 11
REMARK SMILES IDX 20 12 8 13 7 14 6 15 5 16 4 17 3 18 2 19 1 20
REMARK H PARENT
REMARK Flexibility Score: inf
ROOT
ATOM      1  C   UNL     1      54.858  25.857  49.365  1.00  0.00    -0.031 C 
ATOM      2  C   UNL     1      53.647  26.435  49.266  1.00  0.00    -0.031 C 
ENDROOT
BRANCH   1   3
ATOM      3  C   UNL     1      55.775  26.033  50.550  1.00  0.00     0.027 C 
BRANCH   3   4
ATOM      4  C   UNL     1      57.066  26.759  50.145  1.00  0.00     0.004 C 
BRANCH   4   5
ATOM      5  C   UNL     1      57.336  28.009  51.000  1.00  0.00     0.000 C 
BRANCH   5   6
ATOM      6  C   UNL     1      57.794  29.212  50.163  1.00  0.00     0.000 C 
BRANCH   6   7
ATOM      7  C   UNL     1      58.915  28.809  49.192  1.00  0.00     0.000 C 
BRANCH   7   8
ATOM      8  C   UNL     1      60.284  28.694  49.881  1.00  0.00     0.006 C 
BRANCH   8   9
ATOM      9  C   UNL     1      61.062  27.446  49.449  1.00  0.00     0.053 C 
BRANCH   9  10
ATOM     10  C   UNL     1      60.800  26.314  50.393  1.00  0.00     0.041 C 
ATOM     11  O   UNL     1      60.500  26.546  51.594  1.00  0.00    -0.550 OA
ATOM     12  O   UNL     1      60.937  25.002  49.959  1.00  0.00    -0.550 OA
ENDBRANCH   9  10
ENDBRANCH   8   9
ENDBRANCH   7   8
ENDBRANCH   6   7
ENDBRANCH   5   6
ENDBRANCH   4   5
ENDBRANCH   3   4
ENDBRANCH   1   3
BRANCH   2  13
ATOM     13  C   UNL     1      53.063  27.367  50.302  1.00  0.00     0.027 C 
BRANCH  13  14
ATOM     14  C   UNL     1      53.019  28.831  49.818  1.00  0.00     0.004 C 
BRANCH  14  15
ATOM     15  C   UNL     1      54.019  29.759  50.535  1.00  0.00     0.000 C 
BRANCH  15  16
ATOM     16  C   UNL     1      53.417  30.670  51.625  1.00  0.00     0.000 C 
BRANCH  16  17
ATOM     17  C   UNL     1      53.761  30.263  53.072  1.00  0.00    -0.000 C 
BRANCH  17  18
ATOM     18  C   UNL     1      55.105  29.510  53.199  1.00  0.00    -0.000 C 
BRANCH  18  19
ATOM     19  C   UNL     1      54.996  28.196  53.990  1.00  0.00    -0.003 C 
ATOM     20  C   UNL     1      53.648  27.503  53.807  1.00  0.00     0.004 C 
ENDBRANCH  18  19
ENDBRANCH  17  18
ENDBRANCH  16  17
ENDBRANCH  15  16
ENDBRANCH  14  15
ENDBRANCH  13  14
ENDBRANCH   2  13
TORSDOF 15
ENDMDL
MODEL 6
REMARK VINA RESULT:    -3.387      1.609      2.854
REMARK INTER + INTRA:          -8.663
REMARK INTER:                  -6.217
REMARK INTRA:                  -2.447
REMARK UNBOUND:                -2.306
REMARK SMILES CCCCCCCCC=CCCCCCCCC(=O)[O-]
REMARK SMILES IDX 10 1 9 2 11 3 12 4 13 5 14 6 15 7 16 8 17 9 18 10 19 11
REMARK SMILES IDX 20 12 8 13 7 14 6 15 5 16 4 17 3 18 2 19 1 20
REMARK H PARENT
REMARK Flexibility Score: inf
ROOT
ATOM      1  C   UNL     1      59.187  25.694  50.445  1.00  0.00    -0.031 C 
ATOM      2  C   UNL     1      58.902  26.514  49.417  1.00  0.00    -0.031 C 
ENDROOT
BRANCH   1   3
ATOM      3  C   UNL     1      60.302  25.945  51.430  1.00  0.00     0.027 C 
BRANCH   3   4
ATOM      4  C   UNL     1      61.580  25.202  51.018  1.00  0.00     0.004 C 
BRANCH   4   5
ATOM      5  C   UNL     1      62.832  26.094  51.081  1.00  0.00     0.000 C 
BRANCH   5   6
ATOM      6  C   UNL     1      63.397  26.423  49.692  1.00  0.00     0.000 C 
BRANCH   6   7
ATOM      7  C   UNL     1      63.104  27.883  49.313  1.00  0.00     0.000 C 
BRANCH   7   8
ATOM      8  C   UNL     1      62.753  28.752  50.531  1.00  0.00     0.006 C 
BRANCH   8   9
ATOM      9  C   UNL     1      63.640  29.998  50.645  1.00  0.00     0.053 C 
BRANCH   9  10
ATOM     10  C   UNL     1      63.177  31.058  49.698  1.00  0.00     0.041 C 
ATOM     11  O   UNL     1      63.994  31.610  48.914  1.00  0.00    -0.550 OA
ATOM     12  O   UNL     1      61.851  31.475  49.715  1.00  0.00    -0.550 OA
ENDBRANCH   9  10
ENDBRANCH   8   9
ENDBRANCH   7   8
ENDBRANCH   6   7
ENDBRANCH   5   6
ENDBRANCH   4   5
ENDBRANCH   3   4
ENDBRANCH   1   3
BRANCH   2  13
ATOM     13  C   UNL     1      59.679  27.766  49.086  1.00  0.00     0.027 C 
BRANCH  13  14
ATOM     14  C   UNL     1      58.906  29.051  49.446  1.00  0.00     0.004 C 
BRANCH  14  15
ATOM     15  C   UNL     1      58.906  29.382  50.951  1.00  0.00     0.000 C 
BRANCH  15  16
ATOM     16  C   UNL     1      57.520  29.399  51.628  1.00  0.00     0.000 C 
BRANCH  16  17
ATOM     17  C   UNL     1      56.340  29.047  50.700  1.00  0.00    -0.000 C 
BRANCH  17  18
ATOM     18  C   UNL     1      55.681  27.688  51.027  1.00  0.00    -0.000 C 
BRANCH  18  19
ATOM     19  C   UNL     1      54.691  27.214  49.950  1.00  0.00    -0.003 C 
ATOM     20  C   UNL     1      55.049  25.845  49.377  1.00  0.00     0.004 C 
ENDBRANCH  18  19
ENDBRANCH  17  18
ENDBRANCH  16  17
ENDBRANCH  15  16
ENDBRANCH  14  15
ENDBRANCH  13  14
ENDBRANCH   2  13
TORSDOF 15
ENDMDL
MODEL 7
REMARK VINA RESULT:    -3.382      4.046      7.501
REMARK INTER + INTRA:          -8.654
REMARK INTER:                  -5.798
REMARK INTRA:                  -2.856
REMARK UNBOUND:                -2.306
REMARK SMILES CCCCCCCCC=CCCCCCCCC(=O)[O-]
REMARK SMILES IDX 10 1 9 2 11 3 12 4 13 5 14 6 15 7 16 8 17 9 18 10 19 11
REMARK SMILES IDX 20 12 8 13 7 14 6 15 5 16 4 17 3 18 2 19 1 20
REMARK H PARENT
REMARK Flexibility Score: inf
ROOT
ATOM      1  C   UNL     1      57.095  26.946  51.301  1.00  0.00    -0.031 C 
ATOM      2  C   UNL     1      57.599  28.194  51.288  1.00  0.00    -0.031 C 
ENDROOT
BRANCH   1   3
ATOM      3  C   UNL     1      56.491  26.276  50.091  1.00  0.00     0.027 C 
BRANCH   3   4
ATOM      4  C   UNL     1      55.028  25.889  50.348  1.00  0.00     0.004 C 
BRANCH   4   5
ATOM      5  C   UNL     1      54.044  26.670  49.462  1.00  0.00     0.000 C 
BRANCH   5   6
ATOM      6  C   UNL     1      53.230  27.706  50.250  1.00  0.00     0.000 C 
BRANCH   6   7
ATOM      7  C   UNL     1      53.852  29.105  50.122  1.00  0.00     0.000 C 
BRANCH   7   8
ATOM      8  C   UNL     1      54.176  29.737  51.485  1.00  0.00     0.006 C 
BRANCH   8   9
ATOM      9  C   UNL     1      54.074  28.735  52.641  1.00  0.00     0.053 C 
BRANCH   9  10
ATOM     10  C   UNL     1      54.961  29.150  53.772  1.00  0.00     0.041 C 
ATOM     11  O   UNL     1      55.704  28.305  54.339  1.00  0.00    -0.550 OA
ATOM     12  O   UNL     1      54.930  30.460  54.235  1.00  0.00    -0.550 OA
ENDBRANCH   9  10
ENDBRANCH   8   9
ENDBRANCH   7   8
ENDBRANCH   6   7
ENDBRANCH   5   6
ENDBRANCH   4   5
ENDBRANCH   3   4
ENDBRANCH   1   3
BRANCH   2  13
ATOM     13  C   UNL     1      57.592  29.102  50.082  1.00  0.00     0.027 C 
BRANCH  13  14
ATOM     14  C   UNL     1      58.932  29.080  49.320  1.00  0.00     0.004 C 
BRANCH  14  15
ATOM     15  C   UNL     1      60.130  28.616  50.171  1.00  0.00     0.000 C 
BRANCH  15  16
ATOM     16  C   UNL     1      60.984  27.487  49.558  1.00  0.00     0.000 C 
BRANCH  16  17
ATOM     17  C   UNL     1      60.312  26.099  49.547  1.00  0.00    -0.000 C 
BRANCH  17  18
ATOM     18  C   UNL     1      60.425  25.347  50.893  1.00  0.00    -0.000 C 
BRANCH  18  19
ATOM     19  C   UNL     1      59.461  24.155  51.009  1.00  0.00    -0.003 C 
ATOM     20  C   UNL     1      59.537  23.461  52.367  1.00  0.00     0.004 C 
ENDBRANCH  18  19
ENDBRANCH  17  18
ENDBRANCH  16  17
ENDBRANCH  15  16
ENDBRANCH  14  15
ENDBRANCH  13  14
ENDBRANCH   2  13
TORSDOF 15
ENDMDL
MODEL 8
REMARK VINA RESULT:    -3.367      2.069      4.591
REMARK INTER + INTRA:          -8.625
REMARK INTER:                  -6.283
REMARK INTRA:                  -2.342
REMARK UNBOUND:                -2.306
REMARK SMILES CCCCCCCCC=CCCCCCCCC(=O)[O-]
REMARK SMILES IDX 10 1 9 2 11 3 12 4 13 5 14 6 15 7 16 8 17 9 18 10 19 11
REMARK SMILES IDX 20 12 8 13 7 14 6 15 5 16 4 17 3 18 2 19 1 20
REMARK H PARENT
REMARK Flexibility Score: inf
ROOT
ATOM      1  C   UNL     1      55.005  29.358  52.526  1.00  0.00    -0.031 C 
ATOM      2  C   UNL     1      54.175  29.417  51.469  1.00  0.00    -0.031 C 
ENDROOT
BRANCH   1   3
ATOM      3  C   UNL     1      56.392  28.767  52.470  1.00  0.00     0.027 C 
BRANCH   3   4
ATOM      4  C   UNL     1      57.456  29.825  52.793  1.00  0.00     0.004 C 
BRANCH   4   5
ATOM      5  C   UNL     1      58.491  29.988  51.667  1.00  0.00     0.000 C 
BRANCH   5   6
ATOM      6  C   UNL     1      58.099  29.235  50.387  1.00  0.00     0.000 C 
BRANCH   6   7
ATOM      7  C   UNL     1      59.254  29.238  49.374  1.00  0.00     0.000 C 
BRANCH   7   8
ATOM      8  C   UNL     1      59.825  27.833  49.124  1.00  0.00     0.006 C 
BRANCH   8   9
ATOM      9  C   UNL     1      61.340  27.760  49.354  1.00  0.00     0.053 C 
BRANCH   9  10
ATOM     10  C   UNL     1      61.740  28.649  50.488  1.00  0.00     0.041 C 
ATOM     11  O   UNL     1      62.267  29.771  50.261  1.00  0.00    -0.550 OA
ATOM     12  O   UNL     1      61.578  28.218  51.799  1.00  0.00    -0.550 OA
ENDBRANCH   9  10
ENDBRANCH   8   9
ENDBRANCH   7   8
ENDBRANCH   6   7
ENDBRANCH   5   6
ENDBRANCH   4   5
ENDBRANCH   3   4
ENDBRANCH   1   3
BRANCH   2  13
ATOM     13  C   UNL     1      54.500  28.864  50.101  1.00  0.00     0.027 C 
BRANCH  13  14
ATOM     14  C   UNL     1      53.557  27.715  49.692  1.00  0.00     0.004 C 
BRANCH  14  15
ATOM     15  C   UNL     1      54.272  26.371  49.455  1.00  0.00     0.000 C 
BRANCH  15  16
ATOM     16  C   UNL     1      55.285  25.955  50.542  1.00  0.00     0.000 C 
BRANCH  16  17
ATOM     17  C   UNL     1      56.757  25.937  50.083  1.00  0.00    -0.000 C 
BRANCH  17  18
ATOM     18  C   UNL     1      57.747  25.527  51.197  1.00  0.00    -0.000 C 
BRANCH  18  19
ATOM     19  C   UNL     1      59.008  24.826  50.667  1.00  0.00    -0.003 C 
ATOM     20  C   UNL     1      60.196  24.938  51.619  1.00  0.00     0.004 C 
ENDBRANCH  18  19
ENDBRANCH  17  18
ENDBRANCH  16  17
ENDBRANCH  15  16
ENDBRANCH  14  15
ENDBRANCH  13  14
ENDBRANCH   2  13
TORSDOF 15
ENDMDL
MODEL 9
REMARK VINA RESULT:    -3.353     10.978     13.354
REMARK INTER + INTRA:          -8.599
REMARK INTER:                  -5.921
REMARK INTRA:                  -2.678
REMARK UNBOUND:                -2.306
REMARK SMILES CCCCCCCCC=CCCCCCCCC(=O)[O-]
REMARK SMILES IDX 10 1 9 2 11 3 12 4 13 5 14 6 15 7 16 8 17 9 18 10 19 11
REMARK SMILES IDX 20 12 8 13 7 14 6 15 5 16 4 17 3 18 2 19 1 20
REMARK H PARENT
REMARK Flexibility Score: inf
ROOT
ATOM      1  C   UNL     1      63.325  33.817  60.882  1.00  0.00    -0.031 C 
ATOM      2  C   UNL     1      64.404  34.483  61.329  1.00  0.00    -0.031 C 
ENDROOT
BRANCH   1   3
ATOM      3  C   UNL     1      62.027  34.486  60.498  1.00  0.00     0.027 C 
BRANCH   3   4
ATOM      4  C   UNL     1      61.207  33.598  59.553  1.00  0.00     0.004 C 
BRANCH   4   5
ATOM      5  C   UNL     1      61.685  32.136  59.549  1.00  0.00     0.000 C 
BRANCH   5   6
ATOM      6  C   UNL     1      60.639  31.169  60.122  1.00  0.00     0.000 C 
BRANCH   6   7
ATOM      7  C   UNL     1      60.928  30.863  61.600  1.00  0.00     0.000 C 
BRANCH   7   8
ATOM      8  C   UNL     1      62.140  29.937  61.787  1.00  0.00     0.006 C 
BRANCH   8   9
ATOM      9  C   UNL     1      62.019  28.634  60.987  1.00  0.00     0.053 C 
BRANCH   9  10
ATOM     10  C   UNL     1      63.250  27.800  61.157  1.00  0.00     0.041 C 
ATOM     11  O   UNL     1      63.156  26.597  61.519  1.00  0.00    -0.550 OA
ATOM     12  O   UNL     1      64.504  28.366  60.966  1.00  0.00    -0.550 OA
ENDBRANCH   9  10
ENDBRANCH   8   9
ENDBRANCH   7   8
ENDBRANCH   6   7
ENDBRANCH   5   6
ENDBRANCH   4   5
ENDBRANCH   3   4
ENDBRANCH   1   3
BRANCH   2  13
ATOM     13  C   UNL     1      64.452  35.977  61.548  1.00  0.00     0.027 C 
BRANCH  13  14
ATOM     14  C   UNL     1      65.214  36.712  60.426  1.00  0.00     0.004 C 
BRANCH  14  15
ATOM     15  C   UNL     1      64.378  36.958  59.156  1.00  0.00     0.000 C 
BRANCH  15  16
ATOM     16  C   UNL     1      64.783  36.126  57.921  1.00  0.00     0.000 C 
BRANCH  16  17
ATOM     17  C   UNL     1      63.635  35.324  57.275  1.00  0.00    -0.000 C 
BRANCH  17  18
ATOM     18  C   UNL     1      63.997  33.849  56.989  1.00  0.00    -0.000 C 
BRANCH  18  19
ATOM     19  C   UNL     1      65.367  33.436  57.552  1.00  0.00    -0.003 C 
ATOM     20  C   UNL     1      65.318  32.125  58.333  1.00  0.00     0.004 C 
ENDBRANCH  18  19
ENDBRANCH  17  18
ENDBRANCH  16  17
ENDBRANCH  15  16
ENDBRANCH  14  15
ENDBRANCH  13  14
ENDBRANCH   2  13
TORSDOF 15
ENDMDL
