MODEL 1
REMARK VINA RESULT:    -3.546      0.000      0.000
REMARK INTER + INTRA:          -4.536
REMARK INTER:                  -4.272
REMARK INTRA:                  -0.264
REMARK UNBOUND:                -0.264
REMARK SMILES C=CCc1ccc(O)c(OC)c1
REMARK SMILES IDX 9 1 7 2 6 3 5 4 4 5 12 6 10 7 11 8 8 9 3 11 2 12 1 13
REMARK H PARENT 8 10
REMARK Flexibility Score: inf
ROOT
ATOM      1  C   UNL     1     143.939 133.156 138.312  1.00  0.00     0.160 A 
ATOM      2  C   UNL     1     143.047 132.398 137.539  1.00  0.00     0.157 A 
ATOM      3  C   UNL     1     141.794 132.923 137.193  1.00  0.00     0.050 A 
ATOM      4  C   UNL     1     141.427 134.204 137.610  1.00  0.00     0.008 A 
ATOM      5  C   UNL     1     142.313 134.978 138.375  1.00  0.00    -0.040 A 
ATOM      6  C   UNL     1     143.563 134.448 138.730  1.00  0.00     0.054 A 
ENDROOT
BRANCH   1   7
ATOM      7  O   UNL     1     145.182 132.594 138.643  1.00  0.00    -0.493 OA
ATOM      8  C   UNL     1     146.396 132.860 137.950  1.00  0.00     0.278 C 
ENDBRANCH   1   7
BRANCH   2   9
ATOM      9  O   UNL     1     143.411 131.120 137.121  1.00  0.00    -0.504 OA
ATOM     10  H   UNL     1     143.710 130.411 137.781  1.00  0.00     0.293 HD
ENDBRANCH   2   9
BRANCH   5  11
ATOM     11  C   UNL     1     141.908 136.349 138.850  1.00  0.00     0.062 C 
BRANCH  11  12
ATOM     12  C   UNL     1     142.601 137.416 138.050  1.00  0.00    -0.030 C 
ATOM     13  C   UNL     1     142.122 137.835 136.875  1.00  0.00     0.004 C 
ENDBRANCH  11  12
ENDBRANCH   5  11
TORSDOF 4
ENDMDL
MODEL 2
REMARK VINA RESULT:    -3.514      8.907     10.527
REMARK INTER + INTRA:          -4.497
REMARK INTER:                  -4.276
REMARK INTRA:                  -0.221
REMARK UNBOUND:                -0.264
REMARK SMILES C=CCc1ccc(O)c(OC)c1
REMARK SMILES IDX 9 1 7 2 6 3 5 4 4 5 12 6 10 7 11 8 8 9 3 11 2 12 1 13
REMARK H PARENT 8 10
REMARK Flexibility Score: inf
ROOT
ATOM      1  C   UNL     1     133.229 137.694 138.244  1.00  0.00     0.160 A 
ATOM      2  C   UNL     1     132.328 138.590 137.649  1.00  0.00     0.157 A 
ATOM      3  C   UNL     1     132.760 139.864 137.255  1.00  0.00     0.050 A 
ATOM      4  C   UNL     1     134.088 140.249 137.447  1.00  0.00     0.008 A 
ATOM      5  C   UNL     1     135.003 139.360 138.030  1.00  0.00    -0.040 A 
ATOM      6  C   UNL     1     134.568 138.088 138.435  1.00  0.00     0.054 A 
ENDROOT
BRANCH   1   7
ATOM      7  O   UNL     1     132.758 136.430 138.630  1.00  0.00    -0.493 OA
ATOM      8  C   UNL     1     132.923 135.240 137.866  1.00  0.00     0.278 C 
ENDBRANCH   1   7
BRANCH   2   9
ATOM      9  O   UNL     1     131.002 138.208 137.457  1.00  0.00    -0.504 OA
ATOM     10  H   UNL     1     130.654 137.315 137.784  1.00  0.00     0.293 HD
ENDBRANCH   2   9
BRANCH   5  11
ATOM     11  C   UNL     1     136.429 139.783 138.265  1.00  0.00     0.062 C 
BRANCH  11  12
ATOM     12  C   UNL     1     137.210 139.758 136.980  1.00  0.00    -0.030 C 
ATOM     13  C   UNL     1     138.375 139.112 136.879  1.00  0.00     0.004 C 
ENDBRANCH  11  12
ENDBRANCH   5  11
TORSDOF 4
ENDMDL
MODEL 3
REMARK VINA RESULT:    -3.500     11.907     14.724
REMARK INTER + INTRA:          -4.480
REMARK INTER:                  -4.223
REMARK INTRA:                  -0.257
REMARK UNBOUND:                -0.264
REMARK SMILES C=CCc1ccc(O)c(OC)c1
REMARK SMILES IDX 9 1 7 2 6 3 5 4 4 5 12 6 10 7 11 8 8 9 3 11 2 12 1 13
REMARK H PARENT 8 10
REMARK Flexibility Score: inf
ROOT
ATOM      1  C   UNL     1     137.680 148.244 138.334  1.00  0.00     0.160 A 
ATOM      2  C   UNL     1     138.546 149.076 137.610  1.00  0.00     0.157 A 
ATOM      3  C   UNL     1     139.817 148.617 137.238  1.00  0.00     0.050 A 
ATOM      4  C   UNL     1     140.229 147.328 137.583  1.00  0.00     0.008 A 
ATOM      5  C   UNL     1     139.370 146.480 138.299  1.00  0.00    -0.040 A 
ATOM      6  C   UNL     1     138.101 146.944 138.680  1.00  0.00     0.054 A 
ENDROOT
BRANCH   1   7
ATOM      7  O   UNL     1     136.418 148.742 138.693  1.00  0.00    -0.493 OA
ATOM      8  C   UNL     1     135.222 148.510 137.957  1.00  0.00     0.278 C 
ENDBRANCH   1   7
BRANCH   2   9
ATOM      9  O   UNL     1     138.137 150.363 137.265  1.00  0.00    -0.504 OA
ATOM     10  H   UNL     1     137.765 151.004 137.955  1.00  0.00     0.293 HD
ENDBRANCH   2   9
BRANCH   5  11
ATOM     11  C   UNL     1     139.823 145.100 138.696  1.00  0.00     0.062 C 
BRANCH  11  12
ATOM     12  C   UNL     1     138.928 144.052 138.094  1.00  0.00    -0.030 C 
ATOM     13  C   UNL     1     139.152 143.554 136.875  1.00  0.00     0.004 C 
ENDBRANCH  11  12
ENDBRANCH   5  11
TORSDOF 4
ENDMDL
MODEL 4
REMARK VINA RESULT:    -3.437      8.879     10.475
REMARK INTER + INTRA:          -4.403
REMARK INTER:                  -4.156
REMARK INTRA:                  -0.247
REMARK UNBOUND:                -0.264
REMARK SMILES C=CCc1ccc(O)c(OC)c1
REMARK SMILES IDX 9 1 7 2 6 3 5 4 4 5 12 6 10 7 11 8 8 9 3 11 2 12 1 13
REMARK H PARENT 8 10
REMARK Flexibility Score: inf
ROOT
ATOM      1  C   UNL     1     148.360 143.913 138.352  1.00  0.00     0.160 A 
ATOM      2  C   UNL     1     149.187 143.045 137.624  1.00  0.00     0.157 A 
ATOM      3  C   UNL     1     148.720 141.778 137.249  1.00  0.00     0.050 A 
ATOM      4  C   UNL     1     147.429 141.373 137.593  1.00  0.00     0.008 A 
ATOM      5  C   UNL     1     146.587 142.234 138.312  1.00  0.00    -0.040 A 
ATOM      6  C   UNL     1     147.058 143.499 138.698  1.00  0.00     0.054 A 
ENDROOT
BRANCH   1   7
ATOM      7  O   UNL     1     148.866 145.171 138.715  1.00  0.00    -0.493 OA
ATOM      8  C   UNL     1     148.616 146.377 138.000  1.00  0.00     0.278 C 
ENDBRANCH   1   7
BRANCH   2   9
ATOM      9  O   UNL     1     150.476 143.448 137.279  1.00  0.00    -0.504 OA
ATOM     10  H   UNL     1     150.771 144.413 137.366  1.00  0.00     0.293 HD
ENDBRANCH   2   9
BRANCH   5  11
ATOM     11  C   UNL     1     145.204 141.788 138.710  1.00  0.00     0.062 C 
BRANCH  11  12
ATOM     12  C   UNL     1     144.158 142.586 137.983  1.00  0.00    -0.030 C 
ATOM     13  C   UNL     1     143.569 142.127 136.875  1.00  0.00     0.004 C 
ENDBRANCH  11  12
ENDBRANCH   5  11
TORSDOF 4
ENDMDL
MODEL 5
REMARK VINA RESULT:    -3.421     12.329     14.675
REMARK INTER + INTRA:          -4.384
REMARK INTER:                  -4.188
REMARK INTRA:                  -0.196
REMARK UNBOUND:                -0.264
REMARK SMILES C=CCc1ccc(O)c(OC)c1
REMARK SMILES IDX 9 1 7 2 6 3 5 4 4 5 12 6 10 7 11 8 8 9 3 11 2 12 1 13
REMARK H PARENT 8 10
REMARK Flexibility Score: inf
ROOT
ATOM      1  C   UNL     1     137.507 148.207 138.182  1.00  0.00     0.160 A 
ATOM      2  C   UNL     1     138.673 148.672 137.557  1.00  0.00     0.157 A 
ATOM      3  C   UNL     1     139.796 147.840 137.453  1.00  0.00     0.050 A 
ATOM      4  C   UNL     1     139.761 146.543 137.967  1.00  0.00     0.008 A 
ATOM      5  C   UNL     1     138.598 146.059 138.585  1.00  0.00    -0.040 A 
ATOM      6  C   UNL     1     137.477 146.897 138.699  1.00  0.00     0.054 A 
ENDROOT
BRANCH   1   7
ATOM      7  O   UNL     1     136.406 149.073 138.271  1.00  0.00    -0.493 OA
ATOM      8  C   UNL     1     135.116 148.793 137.737  1.00  0.00     0.278 C 
ENDBRANCH   1   7
BRANCH   2   9
ATOM      9  O   UNL     1     138.711 149.968 137.044  1.00  0.00    -0.504 OA
ATOM     10  H   UNL     1     139.201 150.184 136.184  1.00  0.00     0.293 HD
ENDBRANCH   2   9
BRANCH   5  11
ATOM     11  C   UNL     1     138.567 144.670 139.165  1.00  0.00     0.062 C 
BRANCH  11  12
ATOM     12  C   UNL     1     137.161 144.138 139.198  1.00  0.00    -0.030 C 
ATOM     13  C   UNL     1     136.907 142.832 139.320  1.00  0.00     0.004 C 
ENDBRANCH  11  12
ENDBRANCH   5  11
TORSDOF 4
ENDMDL
MODEL 6
REMARK VINA RESULT:    -3.363      9.186     11.419
REMARK INTER + INTRA:          -4.315
REMARK INTER:                  -4.067
REMARK INTRA:                  -0.248
REMARK UNBOUND:                -0.264
REMARK SMILES C=CCc1ccc(O)c(OC)c1
REMARK SMILES IDX 9 1 7 2 6 3 5 4 4 5 12 6 10 7 11 8 8 9 3 11 2 12 1 13
REMARK H PARENT 8 10
REMARK Flexibility Score: inf
ROOT
ATOM      1  C   UNL     1     147.856 145.144 138.738  1.00  0.00     0.160 A 
ATOM      2  C   UNL     1     146.684 145.805 139.133  1.00  0.00     0.157 A 
ATOM      3  C   UNL     1     145.471 145.106 139.205  1.00  0.00     0.050 A 
ATOM      4  C   UNL     1     145.422 143.748 138.887  1.00  0.00     0.008 A 
ATOM      5  C   UNL     1     146.588 143.070 138.500  1.00  0.00    -0.040 A 
ATOM      6  C   UNL     1     147.800 143.773 138.418  1.00  0.00     0.054 A 
ENDROOT
BRANCH   1   7
ATOM      7  O   UNL     1     149.049 145.880 138.673  1.00  0.00    -0.493 OA
ATOM      8  C   UNL     1     149.665 146.312 137.464  1.00  0.00     0.278 C 
ENDBRANCH   1   7
BRANCH   2   9
ATOM      9  O   UNL     1     146.731 147.161 139.450  1.00  0.00    -0.504 OA
ATOM     10  H   UNL     1     147.311 147.809 138.929  1.00  0.00     0.293 HD
ENDBRANCH   2   9
BRANCH   5  11
ATOM     11  C   UNL     1     146.532 141.611 138.130  1.00  0.00     0.062 C 
BRANCH  11  12
ATOM     12  C   UNL     1     145.201 141.018 138.502  1.00  0.00    -0.030 C 
ATOM     13  C   UNL     1     145.101 140.009 139.372  1.00  0.00     0.004 C 
ENDBRANCH  11  12
ENDBRANCH   5  11
TORSDOF 4
ENDMDL
MODEL 7
REMARK VINA RESULT:    -3.353     12.324     14.946
REMARK INTER + INTRA:          -4.302
REMARK INTER:                  -4.075
REMARK INTRA:                  -0.227
REMARK UNBOUND:                -0.264
REMARK SMILES C=CCc1ccc(O)c(OC)c1
REMARK SMILES IDX 9 1 7 2 6 3 5 4 4 5 12 6 10 7 11 8 8 9 3 11 2 12 1 13
REMARK H PARENT 8 10
REMARK Flexibility Score: inf
ROOT
ATOM      1  C   UNL     1     135.994 148.076 138.677  1.00  0.00     0.160 A 
ATOM      2  C   UNL     1     135.365 146.925 139.173  1.00  0.00     0.157 A 
ATOM      3  C   UNL     1     136.097 145.745 139.354  1.00  0.00     0.050 A 
ATOM      4  C   UNL     1     137.458 145.706 139.046  1.00  0.00     0.008 A 
ATOM      5  C   UNL     1     138.105 146.852 138.559  1.00  0.00    -0.040 A 
ATOM      6  C   UNL     1     137.368 148.031 138.367  1.00  0.00     0.054 A 
ENDROOT
BRANCH   1   7
ATOM      7  O   UNL     1     135.225 149.237 138.503  1.00  0.00    -0.493 OA
ATOM      8  C   UNL     1     135.274 150.071 137.351  1.00  0.00     0.278 C 
ENDBRANCH   1   7
BRANCH   2   9
ATOM      9  O   UNL     1     134.006 146.962 139.480  1.00  0.00    -0.504 OA
ATOM     10  H   UNL     1     133.469 147.818 139.413  1.00  0.00     0.293 HD
ENDBRANCH   2   9
BRANCH   5  11
ATOM     11  C   UNL     1     139.567 146.805 138.200  1.00  0.00     0.062 C 
BRANCH  11  12
ATOM     12  C   UNL     1     140.311 145.875 139.116  1.00  0.00    -0.030 C 
ATOM     13  C   UNL     1     141.094 144.901 138.644  1.00  0.00     0.004 C 
ENDBRANCH  11  12
ENDBRANCH   5  11
TORSDOF 4
ENDMDL
MODEL 8
REMARK VINA RESULT:    -3.340      7.975      9.487
REMARK INTER + INTRA:          -4.287
REMARK INTER:                  -4.039
REMARK INTRA:                  -0.248
REMARK UNBOUND:                -0.264
REMARK SMILES C=CCc1ccc(O)c(OC)c1
REMARK SMILES IDX 9 1 7 2 6 3 5 4 4 5 12 6 10 7 11 8 8 9 3 11 2 12 1 13
REMARK H PARENT 8 10
REMARK Flexibility Score: inf
ROOT
ATOM      1  C   UNL     1     133.802 136.447 138.752  1.00  0.00     0.160 A 
ATOM      2  C   UNL     1     134.971 135.783 139.152  1.00  0.00     0.157 A 
ATOM      3  C   UNL     1     136.190 136.472 139.202  1.00  0.00     0.050 A 
ATOM      4  C   UNL     1     136.250 137.823 138.858  1.00  0.00     0.008 A 
ATOM      5  C   UNL     1     135.088 138.504 138.466  1.00  0.00    -0.040 A 
ATOM      6  C   UNL     1     133.869 137.811 138.406  1.00  0.00     0.054 A 
ENDROOT
BRANCH   1   7
ATOM      7  O   UNL     1     132.602 135.721 138.709  1.00  0.00    -0.493 OA
ATOM      8  C   UNL     1     132.041 135.160 137.527  1.00  0.00     0.278 C 
ENDBRANCH   1   7
BRANCH   2   9
ATOM      9  O   UNL     1     134.913 134.433 139.495  1.00  0.00    -0.504 OA
ATOM     10  H   UNL     1     135.329 133.718 138.910  1.00  0.00     0.293 HD
ENDBRANCH   2   9
BRANCH   5  11
ATOM     11  C   UNL     1     135.155 139.955 138.067  1.00  0.00     0.062 C 
BRANCH  11  12
ATOM     12  C   UNL     1     136.455 140.568 138.506  1.00  0.00    -0.030 C 
ATOM     13  C   UNL     1     136.497 141.567 139.392  1.00  0.00     0.004 C 
ENDBRANCH  11  12
ENDBRANCH   5  11
TORSDOF 4
ENDMDL
MODEL 9
REMARK VINA RESULT:    -3.335      1.812      3.076
REMARK INTER + INTRA:          -4.281
REMARK INTER:                  -4.072
REMARK INTRA:                  -0.209
REMARK UNBOUND:                -0.264
REMARK SMILES C=CCc1ccc(O)c(OC)c1
REMARK SMILES IDX 9 1 7 2 6 3 5 4 4 5 12 6 10 7 11 8 8 9 3 11 2 12 1 13
REMARK H PARENT 8 10
REMARK Flexibility Score: inf
ROOT
ATOM      1  C   UNL     1     145.227 133.697 138.569  1.00  0.00     0.160 A 
ATOM      2  C   UNL     1     145.914 134.788 139.122  1.00  0.00     0.157 A 
ATOM      3  C   UNL     1     145.242 135.994 139.362  1.00  0.00     0.050 A 
ATOM      4  C   UNL     1     143.886 136.118 139.057  1.00  0.00     0.008 A 
ATOM      5  C   UNL     1     143.182 135.033 138.513  1.00  0.00    -0.040 A 
ATOM      6  C   UNL     1     143.858 133.828 138.262  1.00  0.00     0.054 A 
ENDROOT
BRANCH   1   7
ATOM      7  O   UNL     1     145.936 132.508 138.338  1.00  0.00    -0.493 OA
ATOM      8  C   UNL     1     145.368 131.326 137.783  1.00  0.00     0.278 C 
ENDBRANCH   1   7
BRANCH   2   9
ATOM      9  O   UNL     1     147.268 134.666 139.427  1.00  0.00    -0.504 OA
ATOM     10  H   UNL     1     147.765 135.389 139.933  1.00  0.00     0.293 HD
ENDBRANCH   2   9
BRANCH   5  11
ATOM     11  C   UNL     1     141.726 135.173 138.156  1.00  0.00     0.062 C 
BRANCH  11  12
ATOM     12  C   UNL     1     140.971 135.858 139.261  1.00  0.00    -0.030 C 
ATOM     13  C   UNL     1     139.963 136.698 139.006  1.00  0.00     0.004 C 
ENDBRANCH  11  12
ENDBRANCH   5  11
TORSDOF 4
ENDMDL
