MODEL 1
REMARK VINA RESULT:    -4.975      0.000      0.000
REMARK INTER + INTRA:          -5.394
REMARK INTER:                  -5.266
REMARK INTRA:                  -0.128
REMARK UNBOUND:                -0.128
REMARK SMILES C=C(C)[C@H]1CC=C(C)CC1
REMARK SMILES IDX 8 1 7 2 6 3 5 4 4 5 10 6 9 7 2 8 1 9 3 10
REMARK H PARENT
REMARK Flexibility Score: inf
ROOT
ATOM      1  C   UNL     1      10.905 -16.440  16.500  1.00  0.00     0.039 C 
ATOM      2  C   UNL     1      10.775 -15.020  16.978  1.00  0.00    -0.077 C 
ATOM      3  C   UNL     1       9.986 -14.755  18.042  1.00  0.00    -0.027 C 
ATOM      4  C   UNL     1       9.750 -13.358  18.562  1.00  0.00     0.035 C 
ATOM      5  C   UNL     1      10.871 -12.387  18.153  1.00  0.00     0.018 C 
ATOM      6  C   UNL     1      11.159 -12.526  16.651  1.00  0.00     0.013 C 
ATOM      7  C   UNL     1      11.636 -13.949  16.334  1.00  0.00     0.031 C 
ENDROOT
BRANCH   5   8
ATOM      8  C   UNL     1      10.524 -10.952  18.526  1.00  0.00    -0.077 C 
ATOM      9  C   UNL     1       9.398 -10.388  18.061  1.00  0.00     0.008 C 
ATOM     10  C   UNL     1      11.431 -10.130  19.410  1.00  0.00     0.039 C 
ENDBRANCH   5   8
TORSDOF 1
ENDMDL
MODEL 2
REMARK VINA RESULT:    -4.884      1.186      4.583
REMARK INTER + INTRA:          -5.298
REMARK INTER:                  -5.170
REMARK INTRA:                  -0.128
REMARK UNBOUND:                -0.128
REMARK SMILES C=C(C)[C@H]1CC=C(C)CC1
REMARK SMILES IDX 8 1 7 2 6 3 5 4 4 5 10 6 9 7 2 8 1 9 3 10
REMARK H PARENT
REMARK Flexibility Score: inf
ROOT
ATOM      1  C   UNL     1      10.134  -9.226  18.066  1.00  0.00     0.039 C 
ATOM      2  C   UNL     1      10.121 -10.690  17.721  1.00  0.00    -0.077 C 
ATOM      3  C   UNL     1       9.901 -11.060  16.441  1.00  0.00    -0.027 C 
ATOM      4  C   UNL     1       9.816 -12.503  16.005  1.00  0.00     0.035 C 
ATOM      5  C   UNL     1      10.529 -13.449  16.987  1.00  0.00     0.018 C 
ATOM      6  C   UNL     1      10.093 -13.135  18.426  1.00  0.00     0.013 C 
ATOM      7  C   UNL     1      10.486 -11.698  18.794  1.00  0.00     0.031 C 
ENDROOT
BRANCH   5   8
ATOM      8  C   UNL     1      10.276 -14.908  16.632  1.00  0.00    -0.077 C 
ATOM      9  C   UNL     1       9.320 -15.601  17.271  1.00  0.00     0.008 C 
ATOM     10  C   UNL     1      11.089 -15.612  15.572  1.00  0.00     0.039 C 
ENDBRANCH   5   8
TORSDOF 1
ENDMDL
MODEL 3
REMARK VINA RESULT:    -4.875      1.363      4.495
REMARK INTER + INTRA:          -5.288
REMARK INTER:                  -5.158
REMARK INTRA:                  -0.131
REMARK UNBOUND:                -0.128
REMARK SMILES C=C(C)[C@H]1CC=C(C)CC1
REMARK SMILES IDX 8 1 7 2 6 3 5 4 4 5 10 6 9 7 2 8 1 9 3 10
REMARK H PARENT
REMARK Flexibility Score: inf
ROOT
ATOM      1  C   UNL     1      13.002  -8.987  18.587  1.00  0.00     0.039 C 
ATOM      2  C   UNL     1      12.215 -10.216  18.224  1.00  0.00    -0.077 C 
ATOM      3  C   UNL     1      12.716 -11.067  17.302  1.00  0.00    -0.027 C 
ATOM      4  C   UNL     1      11.980 -12.297  16.832  1.00  0.00     0.035 C 
ATOM      5  C   UNL     1      10.929 -12.771  17.851  1.00  0.00     0.018 C 
ATOM      6  C   UNL     1      10.070 -11.581  18.308  1.00  0.00     0.013 C 
ATOM      7  C   UNL     1      10.949 -10.530  18.997  1.00  0.00     0.031 C 
ENDROOT
BRANCH   5   8
ATOM      8  C   UNL     1      10.072 -13.894  17.283  1.00  0.00    -0.077 C 
ATOM      9  C   UNL     1       9.738 -13.895  15.982  1.00  0.00     0.008 C 
ATOM     10  C   UNL     1       9.571 -15.019  18.156  1.00  0.00     0.039 C 
ENDBRANCH   5   8
TORSDOF 1
ENDMDL
MODEL 4
REMARK VINA RESULT:    -4.866      2.068      4.076
REMARK INTER + INTRA:          -5.278
REMARK INTER:                  -5.154
REMARK INTRA:                  -0.124
REMARK UNBOUND:                -0.128
REMARK SMILES C=C(C)[C@H]1CC=C(C)CC1
REMARK SMILES IDX 8 1 7 2 6 3 5 4 4 5 10 6 9 7 2 8 1 9 3 10
REMARK H PARENT
REMARK Flexibility Score: inf
ROOT
ATOM      1  C   UNL     1      12.884 -18.285  13.679  1.00  0.00     0.039 C 
ATOM      2  C   UNL     1      12.221 -17.379  14.679  1.00  0.00    -0.077 C 
ATOM      3  C   UNL     1      11.647 -16.235  14.248  1.00  0.00    -0.027 C 
ATOM      4  C   UNL     1      11.004 -15.236  15.178  1.00  0.00     0.035 C 
ATOM      5  C   UNL     1      10.582 -15.873  16.514  1.00  0.00     0.018 C 
ATOM      6  C   UNL     1      11.740 -16.705  17.085  1.00  0.00     0.013 C 
ATOM      7  C   UNL     1      12.101 -17.841  16.119  1.00  0.00     0.031 C 
ENDROOT
BRANCH   5   8
ATOM      8  C   UNL     1      10.108 -14.819  17.505  1.00  0.00    -0.077 C 
ATOM      9  C   UNL     1       9.138 -15.112  18.387  1.00  0.00     0.008 C 
ATOM     10  C   UNL     1      10.699 -13.430  17.518  1.00  0.00     0.039 C 
ENDBRANCH   5   8
TORSDOF 1
ENDMDL
MODEL 5
REMARK VINA RESULT:    -4.798     16.419     18.713
REMARK INTER + INTRA:          -5.207
REMARK INTER:                  -5.081
REMARK INTRA:                  -0.125
REMARK UNBOUND:                -0.128
REMARK SMILES C=C(C)[C@H]1CC=C(C)CC1
REMARK SMILES IDX 8 1 7 2 6 3 5 4 4 5 10 6 9 7 2 8 1 9 3 10
REMARK H PARENT
REMARK Flexibility Score: inf
ROOT
ATOM      1  C   UNL     1      -3.722 -29.124  12.377  1.00  0.00     0.039 C 
ATOM      2  C   UNL     1      -2.847 -28.007  12.875  1.00  0.00    -0.077 C 
ATOM      3  C   UNL     1      -3.403 -26.803  13.133  1.00  0.00    -0.027 C 
ATOM      4  C   UNL     1      -2.601 -25.607  13.584  1.00  0.00     0.035 C 
ATOM      5  C   UNL     1      -1.266 -26.013  14.234  1.00  0.00     0.018 C 
ATOM      6  C   UNL     1      -0.543 -27.037  13.345  1.00  0.00     0.013 C 
ATOM      7  C   UNL     1      -1.395 -28.303  13.197  1.00  0.00     0.031 C 
ENDROOT
BRANCH   5   8
ATOM      8  C   UNL     1      -0.393 -24.798  14.513  1.00  0.00    -0.077 C 
ATOM      9  C   UNL     1      -0.826 -23.833  15.340  1.00  0.00     0.008 C 
ATOM     10  C   UNL     1       0.962 -24.638  13.867  1.00  0.00     0.039 C 
ENDBRANCH   5   8
TORSDOF 1
ENDMDL
MODEL 6
REMARK VINA RESULT:    -4.785      1.177      2.174
REMARK INTER + INTRA:          -5.193
REMARK INTER:                  -5.067
REMARK INTRA:                  -0.126
REMARK UNBOUND:                -0.128
REMARK SMILES C=C(C)[C@H]1CC=C(C)CC1
REMARK SMILES IDX 8 1 7 2 6 3 5 4 4 5 10 6 9 7 2 8 1 9 3 10
REMARK H PARENT
REMARK Flexibility Score: inf
ROOT
ATOM      1  C   UNL     1      11.626 -17.273  16.433  1.00  0.00     0.039 C 
ATOM      2  C   UNL     1      11.237 -15.834  16.633  1.00  0.00    -0.077 C 
ATOM      3  C   UNL     1      11.778 -14.891  15.832  1.00  0.00    -0.027 C 
ATOM      4  C   UNL     1      11.492 -13.417  15.988  1.00  0.00     0.035 C 
ATOM      5  C   UNL     1      10.168 -13.156  16.727  1.00  0.00     0.018 C 
ATOM      6  C   UNL     1      10.104 -14.012  18.001  1.00  0.00     0.013 C 
ATOM      7  C   UNL     1      10.151 -15.502  17.639  1.00  0.00     0.031 C 
ENDROOT
BRANCH   5   8
ATOM      8  C   UNL     1       9.989 -11.677  17.037  1.00  0.00    -0.077 C 
ATOM      9  C   UNL     1      10.082 -10.766  16.055  1.00  0.00     0.008 C 
ATOM     10  C   UNL     1       9.716 -11.195  18.442  1.00  0.00     0.039 C 
ENDBRANCH   5   8
TORSDOF 1
ENDMDL
MODEL 7
REMARK VINA RESULT:    -4.757      1.376      4.446
REMARK INTER + INTRA:          -5.163
REMARK INTER:                  -5.035
REMARK INTRA:                  -0.128
REMARK UNBOUND:                -0.128
REMARK SMILES C=C(C)[C@H]1CC=C(C)CC1
REMARK SMILES IDX 8 1 7 2 6 3 5 4 4 5 10 6 9 7 2 8 1 9 3 10
REMARK H PARENT
REMARK Flexibility Score: inf
ROOT
ATOM      1  C   UNL     1      10.306  -9.092  18.295  1.00  0.00     0.039 C 
ATOM      2  C   UNL     1      10.264 -10.501  17.772  1.00  0.00    -0.077 C 
ATOM      3  C   UNL     1      10.164 -11.523  18.649  1.00  0.00    -0.027 C 
ATOM      4  C   UNL     1      10.168 -12.972  18.228  1.00  0.00     0.035 C 
ATOM      5  C   UNL     1       9.744 -13.152  16.759  1.00  0.00     0.018 C 
ATOM      6  C   UNL     1      10.519 -12.169  15.868  1.00  0.00     0.013 C 
ATOM      7  C   UNL     1      10.201 -10.725  16.273  1.00  0.00     0.031 C 
ENDROOT
BRANCH   5   8
ATOM      8  C   UNL     1       9.932 -14.591  16.300  1.00  0.00    -0.077 C 
ATOM      9  C   UNL     1       9.536 -15.606  17.086  1.00  0.00     0.008 C 
ATOM     10  C   UNL     1      10.569 -14.916  14.971  1.00  0.00     0.039 C 
ENDBRANCH   5   8
TORSDOF 1
ENDMDL
MODEL 8
REMARK VINA RESULT:    -4.600      1.415      4.982
REMARK INTER + INTRA:          -4.997
REMARK INTER:                  -4.866
REMARK INTRA:                  -0.131
REMARK UNBOUND:                -0.128
REMARK SMILES C=C(C)[C@H]1CC=C(C)CC1
REMARK SMILES IDX 8 1 7 2 6 3 5 4 4 5 10 6 9 7 2 8 1 9 3 10
REMARK H PARENT
REMARK Flexibility Score: inf
ROOT
ATOM      1  C   UNL     1      10.067 -12.182  18.422  1.00  0.00     0.039 C 
ATOM      2  C   UNL     1      10.539 -13.373  17.635  1.00  0.00    -0.077 C 
ATOM      3  C   UNL     1      10.092 -14.602  17.972  1.00  0.00    -0.027 C 
ATOM      4  C   UNL     1      10.547 -15.862  17.279  1.00  0.00     0.035 C 
ATOM      5  C   UNL     1      11.094 -15.584  15.868  1.00  0.00     0.018 C 
ATOM      6  C   UNL     1      12.095 -14.420  15.915  1.00  0.00     0.013 C 
ATOM      7  C   UNL     1      11.398 -13.144  16.405  1.00  0.00     0.031 C 
ENDROOT
BRANCH   5   8
ATOM      8  C   UNL     1      11.717 -16.833  15.259  1.00  0.00    -0.077 C 
ATOM      9  C   UNL     1      12.147 -17.827  16.053  1.00  0.00     0.008 C 
ATOM     10  C   UNL     1      11.877 -16.984  13.766  1.00  0.00     0.039 C 
ENDBRANCH   5   8
TORSDOF 1
ENDMDL
MODEL 9
REMARK VINA RESULT:    -4.564      0.741      1.741
REMARK INTER + INTRA:          -4.960
REMARK INTER:                  -4.839
REMARK INTRA:                  -0.121
REMARK UNBOUND:                -0.128
REMARK SMILES C=C(C)[C@H]1CC=C(C)CC1
REMARK SMILES IDX 8 1 7 2 6 3 5 4 4 5 10 6 9 7 2 8 1 9 3 10
REMARK H PARENT
REMARK Flexibility Score: inf
ROOT
ATOM      1  C   UNL     1      10.474 -15.907  16.590  1.00  0.00     0.039 C 
ATOM      2  C   UNL     1      10.560 -14.510  17.139  1.00  0.00    -0.077 C 
ATOM      3  C   UNL     1      11.454 -13.649  16.605  1.00  0.00    -0.027 C 
ATOM      4  C   UNL     1      11.653 -12.245  17.120  1.00  0.00     0.035 C 
ATOM      5  C   UNL     1      10.423 -11.727  17.887  1.00  0.00     0.018 C 
ATOM      6  C   UNL     1       9.961 -12.779  18.906  1.00  0.00     0.013 C 
ATOM      7  C   UNL     1       9.552 -14.070  18.184  1.00  0.00     0.031 C 
ENDROOT
BRANCH   5   8
ATOM      8  C   UNL     1      10.709 -10.389  18.555  1.00  0.00    -0.077 C 
ATOM      9  C   UNL     1       9.970  -9.311  18.248  1.00  0.00     0.008 C 
ATOM     10  C   UNL     1      11.825 -10.235  19.560  1.00  0.00     0.039 C 
ENDBRANCH   5   8
TORSDOF 1
ENDMDL
