MODEL 1
REMARK VINA RESULT:     0.000      0.000      0.000
REMARK INTER + INTRA:          -0.704
REMARK INTER:                   0.000
REMARK INTRA:                  -0.704
REMARK UNBOUND:                -0.704
REMARK SMILES CCCCCCCC(=O)[O-]
REMARK SMILES IDX 5 1 6 2 7 3 8 4 9 5 10 6 4 7 3 8 2 9 1 10
REMARK H PARENT
REMARK Flexibility Score: inf
ROOT
ATOM      1  C   UNL     1     174.304 184.673 190.434  1.00  0.00     0.000 C 
ENDROOT
BRANCH   1   2
ATOM      2  C   UNL     1     174.747 185.946 191.172  1.00  0.00     0.006 C 
BRANCH   2   3
ATOM      3  C   UNL     1     174.230 187.200 190.462  1.00  0.00     0.053 C 
BRANCH   3   4
ATOM      4  C   UNL     1     175.097 187.535 189.290  1.00  0.00     0.041 C 
ATOM      5  O   UNL     1     176.257 187.992 189.470  1.00  0.00    -0.550 OA
ATOM      6  O   UNL     1     174.644 187.295 187.999  1.00  0.00    -0.550 OA
ENDBRANCH   3   4
ENDBRANCH   2   3
ENDBRANCH   1   2
BRANCH   1   7
ATOM      7  C   UNL     1     175.491 183.851 189.907  1.00  0.00     0.000 C 
BRANCH   7   8
ATOM      8  C   UNL     1     176.846 184.385 190.405  1.00  0.00    -0.000 C 
BRANCH   8   9
ATOM      9  C   UNL     1     177.783 184.776 189.251  1.00  0.00    -0.003 C 
ATOM     10  C   UNL     1     177.106 184.687 187.884  1.00  0.00     0.004 C 
ENDBRANCH   8   9
ENDBRANCH   7   8
ENDBRANCH   1   7
TORSDOF 6
ENDMDL
MODEL 2
REMARK VINA RESULT:     0.000      9.898     10.926
REMARK INTER + INTRA:          -0.704
REMARK INTER:                   0.000
REMARK INTRA:                  -0.704
REMARK UNBOUND:                -0.704
REMARK SMILES CCCCCCCC(=O)[O-]
REMARK SMILES IDX 5 1 6 2 7 3 8 4 9 5 10 6 4 7 3 8 2 9 1 10
REMARK H PARENT
REMARK Flexibility Score: inf
ROOT
ATOM      1  C   UNL     1     184.552 186.932 195.631  1.00  0.00     0.000 C 
ENDROOT
BRANCH   1   2
ATOM      2  C   UNL     1     184.023 188.199 196.321  1.00  0.00     0.006 C 
BRANCH   2   3
ATOM      3  C   UNL     1     182.799 188.752 195.586  1.00  0.00     0.053 C 
BRANCH   3   4
ATOM      4  C   UNL     1     183.218 189.538 194.385  1.00  0.00     0.041 C 
ATOM      5  O   UNL     1     183.769 190.662 194.523  1.00  0.00    -0.550 OA
ATOM      6  O   UNL     1     183.047 189.007 193.112  1.00  0.00    -0.550 OA
ENDBRANCH   3   4
ENDBRANCH   2   3
ENDBRANCH   1   2
BRANCH   1   7
ATOM      7  C   UNL     1     185.985 187.101 195.101  1.00  0.00     0.000 C 
BRANCH   7   8
ATOM      8  C   UNL     1     186.628 188.425 195.551  1.00  0.00    -0.000 C 
BRANCH   8   9
ATOM      9  C   UNL     1     187.061 189.301 194.364  1.00  0.00    -0.003 C 
ATOM     10  C   UNL     1     186.623 188.728 193.017  1.00  0.00     0.004 C 
ENDBRANCH   8   9
ENDBRANCH   7   8
ENDBRANCH   1   7
TORSDOF 6
ENDMDL
MODEL 3
REMARK VINA RESULT:     0.000      7.606      9.413
REMARK INTER + INTRA:          -0.704
REMARK INTER:                   0.000
REMARK INTRA:                  -0.704
REMARK UNBOUND:                -0.704
REMARK SMILES CCCCCCCC(=O)[O-]
REMARK SMILES IDX 5 1 6 2 7 3 8 4 9 5 10 6 4 7 3 8 2 9 1 10
REMARK H PARENT
REMARK Flexibility Score: inf
ROOT
ATOM      1  C   UNL     1     184.784 181.929 193.002  1.00  0.00     0.000 C 
ENDROOT
BRANCH   1   2
ATOM      2  C   UNL     1     185.292 183.132 192.192  1.00  0.00     0.006 C 
BRANCH   2   3
ATOM      3  C   UNL     1     185.576 184.328 193.106  1.00  0.00     0.053 C 
BRANCH   3   4
ATOM      4  C   UNL     1     184.306 185.044 193.444  1.00  0.00     0.041 C 
ATOM      5  O   UNL     1     183.711 185.725 192.568  1.00  0.00    -0.550 OA
ATOM      6  O   UNL     1     183.753 184.916 194.712  1.00  0.00    -0.550 OA
ENDBRANCH   3   4
ENDBRANCH   2   3
ENDBRANCH   1   2
BRANCH   1   7
ATOM      7  C   UNL     1     183.360 181.507 192.603  1.00  0.00     0.000 C 
BRANCH   7   8
ATOM      8  C   UNL     1     182.848 182.258 191.361  1.00  0.00    -0.000 C 
BRANCH   8   9
ATOM      9  C   UNL     1     181.554 183.041 191.640  1.00  0.00    -0.003 C 
ATOM     10  C   UNL     1     181.158 183.019 193.117  1.00  0.00     0.004 C 
ENDBRANCH   8   9
ENDBRANCH   7   8
ENDBRANCH   1   7
TORSDOF 6
ENDMDL
MODEL 4
REMARK VINA RESULT:     0.000      6.833      7.847
REMARK INTER + INTRA:          -0.704
REMARK INTER:                   0.000
REMARK INTRA:                  -0.704
REMARK UNBOUND:                -0.704
REMARK SMILES CCCCCCCC(=O)[O-]
REMARK SMILES IDX 5 1 6 2 7 3 8 4 9 5 10 6 4 7 3 8 2 9 1 10
REMARK H PARENT
REMARK Flexibility Score: inf
ROOT
ATOM      1  C   UNL     1     179.365 192.214 185.694  1.00  0.00     0.000 C 
ENDROOT
BRANCH   1   2
ATOM      2  C   UNL     1     178.847 191.916 187.110  1.00  0.00     0.006 C 
BRANCH   2   3
ATOM      3  C   UNL     1     179.848 192.383 188.170  1.00  0.00     0.053 C 
BRANCH   3   4
ATOM      4  C   UNL     1     180.952 191.385 188.325  1.00  0.00     0.041 C 
ATOM      5  O   UNL     1     180.731 190.275 188.877  1.00  0.00    -0.550 OA
ATOM      6  O   UNL     1     182.214 191.661 187.813  1.00  0.00    -0.550 OA
ENDBRANCH   3   4
ENDBRANCH   2   3
ENDBRANCH   1   2
BRANCH   1   7
ATOM      7  C   UNL     1     179.572 190.939 184.860  1.00  0.00     0.000 C 
BRANCH   7   8
ATOM      8  C   UNL     1     179.033 189.680 185.561  1.00  0.00    -0.000 C 
BRANCH   8   9
ATOM      9  C   UNL     1     180.122 188.618 185.779  1.00  0.00    -0.003 C 
ATOM     10  C   UNL     1     181.515 189.110 185.387  1.00  0.00     0.004 C 
ENDBRANCH   8   9
ENDBRANCH   7   8
ENDBRANCH   1   7
TORSDOF 6
ENDMDL
MODEL 5
REMARK VINA RESULT:     0.000      5.681      7.317
REMARK INTER + INTRA:          -0.703
REMARK INTER:                   0.000
REMARK INTRA:                  -0.703
REMARK UNBOUND:                -0.704
REMARK SMILES CCCCCCCC(=O)[O-]
REMARK SMILES IDX 5 1 6 2 7 3 8 4 9 5 10 6 4 7 3 8 2 9 1 10
REMARK H PARENT
REMARK Flexibility Score: inf
ROOT
ATOM      1  C   UNL     1     180.355 187.794 188.393  1.00  0.00     0.000 C 
ENDROOT
BRANCH   1   2
ATOM      2  C   UNL     1     181.296 186.587 188.527  1.00  0.00     0.006 C 
BRANCH   2   3
ATOM      3  C   UNL     1     180.983 185.786 189.794  1.00  0.00     0.053 C 
BRANCH   3   4
ATOM      4  C   UNL     1     181.593 186.441 190.993  1.00  0.00     0.041 C 
ATOM      5  O   UNL     1     182.840 186.417 191.163  1.00  0.00    -0.550 OA
ATOM      6  O   UNL     1     180.787 187.123 191.896  1.00  0.00    -0.550 OA
ENDBRANCH   3   4
ENDBRANCH   2   3
ENDBRANCH   1   2
BRANCH   1   7
ATOM      7  C   UNL     1     181.107 189.135 188.422  1.00  0.00     0.000 C 
BRANCH   7   8
ATOM      8  C   UNL     1     182.635 188.956 188.383  1.00  0.00    -0.000 C 
BRANCH   8   9
ATOM      9  C   UNL     1     183.331 189.584 189.601  1.00  0.00    -0.003 C 
ATOM     10  C   UNL     1     182.341 190.106 190.643  1.00  0.00     0.004 C 
ENDBRANCH   8   9
ENDBRANCH   7   8
ENDBRANCH   1   7
TORSDOF 6
ENDMDL
MODEL 6
REMARK VINA RESULT:     0.000      7.225      7.915
REMARK INTER + INTRA:          -0.703
REMARK INTER:                   0.000
REMARK INTRA:                  -0.703
REMARK UNBOUND:                -0.704
REMARK SMILES CCCCCCCC(=O)[O-]
REMARK SMILES IDX 5 1 6 2 7 3 8 4 9 5 10 6 4 7 3 8 2 9 1 10
REMARK H PARENT
REMARK Flexibility Score: inf
ROOT
ATOM      1  C   UNL     1     175.532 180.075 197.487  1.00  0.00     0.000 C 
ENDROOT
BRANCH   1   2
ATOM      2  C   UNL     1     175.384 181.604 197.515  1.00  0.00     0.006 C 
BRANCH   2   3
ATOM      3  C   UNL     1     174.134 182.048 196.749  1.00  0.00     0.053 C 
BRANCH   3   4
ATOM      4  C   UNL     1     174.398 182.064 195.277  1.00  0.00     0.041 C 
ATOM      5  O   UNL     1     175.143 182.947 194.776  1.00  0.00    -0.550 OA
ATOM      6  O   UNL     1     173.863 181.072 194.464  1.00  0.00    -0.550 OA
ENDBRANCH   3   4
ENDBRANCH   2   3
ENDBRANCH   1   2
BRANCH   1   7
ATOM      7  C   UNL     1     176.820 179.619 196.783  1.00  0.00     0.000 C 
BRANCH   7   8
ATOM      8  C   UNL     1     177.754 180.794 196.440  1.00  0.00    -0.000 C 
BRANCH   8   9
ATOM      9  C   UNL     1     178.051 180.889 194.935  1.00  0.00    -0.003 C 
ATOM     10  C   UNL     1     177.235 179.895 194.108  1.00  0.00     0.004 C 
ENDBRANCH   8   9
ENDBRANCH   7   8
ENDBRANCH   1   7
TORSDOF 6
ENDMDL
MODEL 7
REMARK VINA RESULT:     0.000      2.385      3.614
REMARK INTER + INTRA:          -0.703
REMARK INTER:                   0.000
REMARK INTRA:                  -0.703
REMARK UNBOUND:                -0.704
REMARK SMILES CCCCCCCC(=O)[O-]
REMARK SMILES IDX 5 1 6 2 7 3 8 4 9 5 10 6 4 7 3 8 2 9 1 10
REMARK H PARENT
REMARK Flexibility Score: inf
ROOT
ATOM      1  C   UNL     1     175.595 188.255 190.205  1.00  0.00     0.000 C 
ENDROOT
BRANCH   1   2
ATOM      2  C   UNL     1     175.161 188.597 188.771  1.00  0.00     0.006 C 
BRANCH   2   3
ATOM      3  C   UNL     1     173.946 189.530 188.773  1.00  0.00     0.053 C 
BRANCH   3   4
ATOM      4  C   UNL     1     172.689 188.753 189.008  1.00  0.00     0.041 C 
ATOM      5  O   UNL     1     172.235 187.996 188.109  1.00  0.00    -0.550 OA
ATOM      6  O   UNL     1     172.047 188.826 190.237  1.00  0.00    -0.550 OA
ENDBRANCH   3   4
ENDBRANCH   2   3
ENDBRANCH   1   2
BRANCH   1   7
ATOM      7  C   UNL     1     175.490 186.752 190.511  1.00  0.00     0.000 C 
BRANCH   7   8
ATOM      8  C   UNL     1     175.162 185.916 189.261  1.00  0.00    -0.000 C 
BRANCH   8   9
ATOM      9  C   UNL     1     173.865 185.108 189.419  1.00  0.00    -0.003 C 
ATOM     10  C   UNL     1     173.119 185.434 190.714  1.00  0.00     0.004 C 
ENDBRANCH   8   9
ENDBRANCH   7   8
ENDBRANCH   1   7
TORSDOF 6
ENDMDL
MODEL 8
REMARK VINA RESULT:     0.000      7.025      8.168
REMARK INTER + INTRA:          -0.703
REMARK INTER:                   0.000
REMARK INTRA:                  -0.703
REMARK UNBOUND:                -0.704
REMARK SMILES CCCCCCCC(=O)[O-]
REMARK SMILES IDX 5 1 6 2 7 3 8 4 9 5 10 6 4 7 3 8 2 9 1 10
REMARK H PARENT
REMARK Flexibility Score: inf
ROOT
ATOM      1  C   UNL     1     181.320 191.727 192.067  1.00  0.00     0.000 C 
ENDROOT
BRANCH   1   2
ATOM      2  C   UNL     1     182.633 190.931 192.017  1.00  0.00     0.006 C 
BRANCH   2   3
ATOM      3  C   UNL     1     182.737 190.125 190.719  1.00  0.00     0.053 C 
BRANCH   3   4
ATOM      4  C   UNL     1     181.934 188.867 190.817  1.00  0.00     0.041 C 
ATOM      5  O   UNL     1     182.323 187.923 191.554  1.00  0.00    -0.550 OA
ATOM      6  O   UNL     1     180.729 188.757 190.134  1.00  0.00    -0.550 OA
ENDBRANCH   3   4
ENDBRANCH   2   3
ENDBRANCH   1   2
BRANCH   1   7
ATOM      7  C   UNL     1     180.417 191.305 193.237  1.00  0.00     0.000 C 
BRANCH   7   8
ATOM      8  C   UNL     1     181.114 190.325 194.197  1.00  0.00    -0.000 C 
BRANCH   8   9
ATOM      9  C   UNL     1     180.357 188.994 194.329  1.00  0.00    -0.003 C 
ATOM     10  C   UNL     1     179.174 188.889 193.366  1.00  0.00     0.004 C 
ENDBRANCH   8   9
ENDBRANCH   7   8
ENDBRANCH   1   7
TORSDOF 6
ENDMDL
MODEL 9
REMARK VINA RESULT:     0.000      6.263      7.738
REMARK INTER + INTRA:          -0.703
REMARK INTER:                   0.000
REMARK INTRA:                  -0.703
REMARK UNBOUND:                -0.704
REMARK SMILES CCCCCCCC(=O)[O-]
REMARK SMILES IDX 5 1 6 2 7 3 8 4 9 5 10 6 4 7 3 8 2 9 1 10
REMARK H PARENT
REMARK Flexibility Score: inf
ROOT
ATOM      1  C   UNL     1     179.377 189.262 190.893  1.00  0.00     0.000 C 
ENDROOT
BRANCH   1   2
ATOM      2  C   UNL     1     180.812 189.709 191.218  1.00  0.00     0.006 C 
BRANCH   2   3
ATOM      3  C   UNL     1     181.334 189.005 192.474  1.00  0.00     0.053 C 
BRANCH   3   4
ATOM      4  C   UNL     1     180.807 189.671 193.706  1.00  0.00     0.041 C 
ATOM      5  O   UNL     1     181.232 190.808 194.042  1.00  0.00    -0.550 OA
ATOM      6  O   UNL     1     179.810 189.059 194.454  1.00  0.00    -0.550 OA
ENDBRANCH   3   4
ENDBRANCH   2   3
ENDBRANCH   1   2
BRANCH   1   7
ATOM      7  C   UNL     1     178.371 190.422 190.948  1.00  0.00     0.000 C 
BRANCH   7   8
ATOM      8  C   UNL     1     179.054 191.790 191.124  1.00  0.00    -0.000 C 
BRANCH   8   9
ATOM      9  C   UNL     1     178.580 192.525 192.388  1.00  0.00    -0.003 C 
ATOM     10  C   UNL     1     177.658 191.670 193.257  1.00  0.00     0.004 C 
ENDBRANCH   8   9
ENDBRANCH   7   8
ENDBRANCH   1   7
TORSDOF 6
ENDMDL
