MODEL 1
REMARK VINA RESULT:    -6.103      0.000      0.000
REMARK INTER + INTRA:          -7.468
REMARK INTER:                  -7.173
REMARK INTRA:                  -0.295
REMARK UNBOUND:                -0.295
REMARK SMILES O=c1cc(-c2ccc(O)c(O)c2)oc2cc(O)cc(O)c12
REMARK SMILES IDX 4 1 3 2 2 3 1 4 21 5 19 6 18 7 16 8 15 9 14 10 13 11 5 12
REMARK SMILES IDX 6 13 7 14 8 15 12 16 10 17 9 18 11 20 20 22 17 24
REMARK H PARENT 9 19 11 21 20 23 17 25
REMARK Flexibility Score: inf
ROOT
ATOM      1  C   UNL     1      22.434   1.449 159.004  1.00  0.00     0.138 A 
ATOM      2  C   UNL     1      21.765   0.265 159.341  1.00  0.00     0.100 A 
ATOM      3  C   UNL     1      21.165   0.144 160.596  1.00  0.00     0.197 A 
ATOM      4  O   UNL     1      20.527  -0.910 160.848  1.00  0.00    -0.289 OA
ATOM      5  C   UNL     1      21.268   1.203 161.530  1.00  0.00     0.107 A 
ATOM      6  C   UNL     1      20.725   1.178 162.851  1.00  0.00     0.134 A 
ATOM      7  C   UNL     1      20.806   2.325 163.651  1.00  0.00     0.093 A 
ATOM      8  C   UNL     1      21.457   3.476 163.199  1.00  0.00     0.123 A 
ATOM      9  C   UNL     1      22.032   3.492 161.931  1.00  0.00     0.094 A 
ATOM     10  C   UNL     1      21.940   2.376 161.096  1.00  0.00     0.146 A 
ATOM     11  O   UNL     1      22.488   2.441 159.887  1.00  0.00    -0.456 OA
ENDROOT
BRANCH   1  12
ATOM     12  C   UNL     1      23.091   1.632 157.685  1.00  0.00     0.021 A 
ATOM     13  C   UNL     1      23.709   2.845 157.327  1.00  0.00     0.016 A 
ATOM     14  C   UNL     1      24.327   2.985 156.082  1.00  0.00     0.051 A 
ATOM     15  C   UNL     1      24.348   1.916 155.177  1.00  0.00     0.157 A 
ATOM     16  C   UNL     1      23.128   0.558 156.775  1.00  0.00     0.062 A 
ATOM     17  C   UNL     1      23.746   0.697 155.528  1.00  0.00     0.158 A 
BRANCH  15  18
ATOM     18  O   UNL     1      24.966   2.059 153.936  1.00  0.00    -0.504 OA
ATOM     19  H   UNL     1      25.831   1.579 153.715  1.00  0.00     0.293 HD
ENDBRANCH  15  18
BRANCH  17  20
ATOM     20  O   UNL     1      23.753  -0.388 154.652  1.00  0.00    -0.504 OA
ATOM     21  H   UNL     1      24.333  -1.204 154.810  1.00  0.00     0.293 HD
ENDBRANCH  17  20
ENDBRANCH   1  12
BRANCH   6  22
ATOM     22  O   UNL     1      20.125   0.057 163.431  1.00  0.00    -0.507 OA
ATOM     23  H   UNL     1      19.907  -0.043 164.410  1.00  0.00     0.293 HD
ENDBRANCH   6  22
BRANCH   8  24
ATOM     24  O   UNL     1      21.545   4.607 164.008  1.00  0.00    -0.508 OA
ATOM     25  H   UNL     1      20.755   4.929 164.555  1.00  0.00     0.293 HD
ENDBRANCH   8  24
TORSDOF 5
ENDMDL
MODEL 2
REMARK VINA RESULT:    -5.868      0.791      1.548
REMARK INTER + INTRA:          -7.192
REMARK INTER:                  -6.877
REMARK INTRA:                  -0.315
REMARK UNBOUND:                -0.295
REMARK SMILES O=c1cc(-c2ccc(O)c(O)c2)oc2cc(O)cc(O)c12
REMARK SMILES IDX 4 1 3 2 2 3 1 4 21 5 19 6 18 7 16 8 15 9 14 10 13 11 5 12
REMARK SMILES IDX 6 13 7 14 8 15 12 16 10 17 9 18 11 20 20 22 17 24
REMARK H PARENT 9 19 11 21 20 23 17 25
REMARK Flexibility Score: inf
ROOT
ATOM      1  C   UNL     1      22.188   1.384 159.360  1.00  0.00     0.138 A 
ATOM      2  C   UNL     1      21.470   0.236 159.721  1.00  0.00     0.100 A 
ATOM      3  C   UNL     1      20.880   0.160 160.984  1.00  0.00     0.197 A 
ATOM      4  O   UNL     1      20.197  -0.860 161.258  1.00  0.00    -0.289 OA
ATOM      5  C   UNL     1      21.041   1.225 161.902  1.00  0.00     0.107 A 
ATOM      6  C   UNL     1      20.513   1.243 163.229  1.00  0.00     0.134 A 
ATOM      7  C   UNL     1      20.655   2.396 164.012  1.00  0.00     0.093 A 
ATOM      8  C   UNL     1      21.353   3.509 163.538  1.00  0.00     0.123 A 
ATOM      9  C   UNL     1      21.914   3.482 162.263  1.00  0.00     0.094 A 
ATOM     10  C   UNL     1      21.761   2.360 161.445  1.00  0.00     0.146 A 
ATOM     11  O   UNL     1      22.298   2.384 160.229  1.00  0.00    -0.456 OA
ENDROOT
BRANCH   1  12
ATOM     12  C   UNL     1      22.838   1.519 158.032  1.00  0.00     0.021 A 
ATOM     13  C   UNL     1      23.019   0.413 157.180  1.00  0.00     0.016 A 
ATOM     14  C   UNL     1      23.626   0.572 155.932  1.00  0.00     0.051 A 
ATOM     15  C   UNL     1      24.055   1.835 155.508  1.00  0.00     0.157 A 
ATOM     16  C   UNL     1      23.260   2.788 157.594  1.00  0.00     0.062 A 
ATOM     17  C   UNL     1      23.869   2.948 156.344  1.00  0.00     0.158 A 
BRANCH  15  18
ATOM     18  O   UNL     1      24.661   1.991 154.263  1.00  0.00    -0.504 OA
ATOM     19  H   UNL     1      24.233   2.544 153.529  1.00  0.00     0.293 HD
ENDBRANCH  15  18
BRANCH  17  20
ATOM     20  O   UNL     1      24.280   4.222 155.951  1.00  0.00    -0.504 OA
ATOM     21  H   UNL     1      25.194   4.589 156.189  1.00  0.00     0.293 HD
ENDBRANCH  17  20
ENDBRANCH   1  12
BRANCH   6  22
ATOM     22  O   UNL     1      19.869   0.158 163.831  1.00  0.00    -0.507 OA
ATOM     23  H   UNL     1      19.617   0.101 164.805  1.00  0.00     0.293 HD
ENDBRANCH   6  22
BRANCH   8  24
ATOM     24  O   UNL     1      21.502   4.645 164.330  1.00  0.00    -0.508 OA
ATOM     25  H   UNL     1      20.732   5.284 164.488  1.00  0.00     0.293 HD
ENDBRANCH   8  24
TORSDOF 5
ENDMDL
MODEL 3
REMARK VINA RESULT:    -5.784     13.853     15.726
REMARK INTER + INTRA:          -7.093
REMARK INTER:                  -6.804
REMARK INTRA:                  -0.288
REMARK UNBOUND:                -0.295
REMARK SMILES O=c1cc(-c2ccc(O)c(O)c2)oc2cc(O)cc(O)c12
REMARK SMILES IDX 4 1 3 2 2 3 1 4 21 5 19 6 18 7 16 8 15 9 14 10 13 11 5 12
REMARK SMILES IDX 6 13 7 14 8 15 12 16 10 17 9 18 11 20 20 22 17 24
REMARK H PARENT 9 19 11 21 20 23 17 25
REMARK Flexibility Score: inf
ROOT
ATOM      1  C   UNL     1      17.815  16.417 161.950  1.00  0.00     0.138 A 
ATOM      2  C   UNL     1      16.835  17.337 161.554  1.00  0.00     0.100 A 
ATOM      3  C   UNL     1      15.550  17.250 162.090  1.00  0.00     0.197 A 
ATOM      4  O   UNL     1      14.708  18.123 161.757  1.00  0.00    -0.289 OA
ATOM      5  C   UNL     1      15.236  16.213 163.002  1.00  0.00     0.107 A 
ATOM      6  C   UNL     1      13.949  16.005 163.587  1.00  0.00     0.134 A 
ATOM      7  C   UNL     1      13.785  15.003 164.552  1.00  0.00     0.093 A 
ATOM      8  C   UNL     1      14.844  14.166 164.911  1.00  0.00     0.123 A 
ATOM      9  C   UNL     1      16.089  14.329 164.308  1.00  0.00     0.094 A 
ATOM     10  C   UNL     1      16.295  15.341 163.368  1.00  0.00     0.146 A 
ATOM     11  O   UNL     1      17.503  15.472 162.831  1.00  0.00    -0.456 OA
ENDROOT
BRANCH   1  12
ATOM     12  C   UNL     1      19.198  16.461 161.410  1.00  0.00     0.021 A 
ATOM     13  C   UNL     1      19.954  17.649 161.404  1.00  0.00     0.016 A 
ATOM     14  C   UNL     1      21.255  17.658 160.898  1.00  0.00     0.051 A 
ATOM     15  C   UNL     1      21.829  16.483 160.397  1.00  0.00     0.157 A 
ATOM     16  C   UNL     1      19.786  15.281 160.917  1.00  0.00     0.062 A 
ATOM     17  C   UNL     1      21.090  15.289 160.409  1.00  0.00     0.158 A 
BRANCH  15  18
ATOM     18  O   UNL     1      23.128  16.495 159.892  1.00  0.00    -0.504 OA
ATOM     19  H   UNL     1      23.309  16.527 158.895  1.00  0.00     0.293 HD
ENDBRANCH  15  18
BRANCH  17  20
ATOM     20  O   UNL     1      21.633  14.100 159.922  1.00  0.00    -0.504 OA
ATOM     21  H   UNL     1      21.060  13.288 159.725  1.00  0.00     0.293 HD
ENDBRANCH  17  20
ENDBRANCH   1  12
BRANCH   6  22
ATOM     22  O   UNL     1      12.806  16.731 163.243  1.00  0.00    -0.507 OA
ATOM     23  H   UNL     1      11.984  16.344 162.804  1.00  0.00     0.293 HD
ENDBRANCH   6  22
BRANCH   8  24
ATOM     24  O   UNL     1      14.666  13.162 165.861  1.00  0.00    -0.508 OA
ATOM     25  H   UNL     1      15.020  12.225 165.713  1.00  0.00     0.293 HD
ENDBRANCH   8  24
TORSDOF 5
ENDMDL
MODEL 4
REMARK VINA RESULT:    -5.773      4.974      7.558
REMARK INTER + INTRA:          -7.080
REMARK INTER:                  -6.795
REMARK INTRA:                  -0.285
REMARK UNBOUND:                -0.295
REMARK SMILES O=c1cc(-c2ccc(O)c(O)c2)oc2cc(O)cc(O)c12
REMARK SMILES IDX 4 1 3 2 2 3 1 4 21 5 19 6 18 7 16 8 15 9 14 10 13 11 5 12
REMARK SMILES IDX 6 13 7 14 8 15 12 16 10 17 9 18 11 20 20 22 17 24
REMARK H PARENT 9 19 11 21 20 23 17 25
REMARK Flexibility Score: inf
ROOT
ATOM      1  C   UNL     1      27.507   2.943 158.353  1.00  0.00     0.138 A 
ATOM      2  C   UNL     1      27.772   2.906 156.978  1.00  0.00     0.100 A 
ATOM      3  C   UNL     1      26.727   2.681 156.079  1.00  0.00     0.197 A 
ATOM      4  O   UNL     1      26.988   2.708 154.849  1.00  0.00    -0.289 OA
ATOM      5  C   UNL     1      25.417   2.457 156.565  1.00  0.00     0.107 A 
ATOM      6  C   UNL     1      24.280   2.184 155.744  1.00  0.00     0.134 A 
ATOM      7  C   UNL     1      23.014   2.076 156.334  1.00  0.00     0.093 A 
ATOM      8  C   UNL     1      22.851   2.176 157.718  1.00  0.00     0.123 A 
ATOM      9  C   UNL     1      23.962   2.392 158.531  1.00  0.00     0.094 A 
ATOM     10  C   UNL     1      25.233   2.538 157.971  1.00  0.00     0.146 A 
ATOM     11  O   UNL     1      26.261   2.761 158.782  1.00  0.00    -0.456 OA
ENDROOT
BRANCH   1  12
ATOM     12  C   UNL     1      28.578   3.176 159.354  1.00  0.00     0.021 A 
ATOM     13  C   UNL     1      28.525   2.611 160.643  1.00  0.00     0.016 A 
ATOM     14  C   UNL     1      29.553   2.841 161.560  1.00  0.00     0.051 A 
ATOM     15  C   UNL     1      30.655   3.629 161.207  1.00  0.00     0.157 A 
ATOM     16  C   UNL     1      29.696   3.957 159.002  1.00  0.00     0.062 A 
ATOM     17  C   UNL     1      30.725   4.188 159.921  1.00  0.00     0.158 A 
BRANCH  15  18
ATOM     18  O   UNL     1      31.678   3.857 162.125  1.00  0.00    -0.504 OA
ATOM     19  H   UNL     1      31.653   4.644 162.764  1.00  0.00     0.293 HD
ENDBRANCH  15  18
BRANCH  17  20
ATOM     20  O   UNL     1      31.811   4.975 159.536  1.00  0.00    -0.504 OA
ATOM     21  H   UNL     1      32.110   5.779 160.074  1.00  0.00     0.293 HD
ENDBRANCH  17  20
ENDBRANCH   1  12
BRANCH   6  22
ATOM     22  O   UNL     1      24.341   1.987 154.362  1.00  0.00    -0.507 OA
ATOM     23  H   UNL     1      24.993   1.379 153.891  1.00  0.00     0.293 HD
ENDBRANCH   6  22
BRANCH   8  24
ATOM     24  O   UNL     1      21.590   2.052 158.296  1.00  0.00    -0.508 OA
ATOM     25  H   UNL     1      20.927   1.356 157.977  1.00  0.00     0.293 HD
ENDBRANCH   8  24
TORSDOF 5
ENDMDL
MODEL 5
REMARK VINA RESULT:    -5.773     13.928     15.622
REMARK INTER + INTRA:          -7.080
REMARK INTER:                  -6.804
REMARK INTRA:                  -0.276
REMARK UNBOUND:                -0.295
REMARK SMILES O=c1cc(-c2ccc(O)c(O)c2)oc2cc(O)cc(O)c12
REMARK SMILES IDX 4 1 3 2 2 3 1 4 21 5 19 6 18 7 16 8 15 9 14 10 13 11 5 12
REMARK SMILES IDX 6 13 7 14 8 15 12 16 10 17 9 18 11 20 20 22 17 24
REMARK H PARENT 9 19 11 21 20 23 17 25
REMARK Flexibility Score: inf
ROOT
ATOM      1  C   UNL     1      18.448  15.994 162.231  1.00  0.00     0.138 A 
ATOM      2  C   UNL     1      18.347  14.819 162.987  1.00  0.00     0.100 A 
ATOM      3  C   UNL     1      17.143  14.508 163.622  1.00  0.00     0.197 A 
ATOM      4  O   UNL     1      17.068  13.420 164.248  1.00  0.00    -0.289 OA
ATOM      5  C   UNL     1      16.047  15.398 163.527  1.00  0.00     0.107 A 
ATOM      6  C   UNL     1      14.781  15.202 164.160  1.00  0.00     0.134 A 
ATOM      7  C   UNL     1      13.739  16.104 163.912  1.00  0.00     0.093 A 
ATOM      8  C   UNL     1      13.932  17.225 163.101  1.00  0.00     0.123 A 
ATOM      9  C   UNL     1      15.178  17.451 162.519  1.00  0.00     0.094 A 
ATOM     10  C   UNL     1      16.228  16.552 162.719  1.00  0.00     0.146 A 
ATOM     11  O   UNL     1      17.394  16.797 162.131  1.00  0.00    -0.456 OA
ENDROOT
BRANCH   1  12
ATOM     12  C   UNL     1      19.704  16.376 161.537  1.00  0.00     0.021 A 
ATOM     13  C   UNL     1      20.202  17.692 161.577  1.00  0.00     0.016 A 
ATOM     14  C   UNL     1      21.391  18.020 160.921  1.00  0.00     0.051 A 
ATOM     15  C   UNL     1      22.108  17.041 160.222  1.00  0.00     0.157 A 
ATOM     16  C   UNL     1      20.437  15.395 160.843  1.00  0.00     0.062 A 
ATOM     17  C   UNL     1      21.628  15.722 160.185  1.00  0.00     0.158 A 
BRANCH  15  18
ATOM     18  O   UNL     1      23.294  17.371 159.568  1.00  0.00    -0.504 OA
ATOM     19  H   UNL     1      23.644  16.819 158.793  1.00  0.00     0.293 HD
ENDBRANCH  15  18
BRANCH  17  20
ATOM     20  O   UNL     1      22.319  14.722 159.502  1.00  0.00    -0.504 OA
ATOM     21  H   UNL     1      22.189  13.739 159.710  1.00  0.00     0.293 HD
ENDBRANCH  17  20
ENDBRANCH   1  12
BRANCH   6  22
ATOM     22  O   UNL     1      14.504  14.161 165.051  1.00  0.00    -0.507 OA
ATOM     23  H   UNL     1      14.601  13.179 164.844  1.00  0.00     0.293 HD
ENDBRANCH   6  22
BRANCH   8  24
ATOM     24  O   UNL     1      12.894  18.125 162.873  1.00  0.00    -0.508 OA
ATOM     25  H   UNL     1      12.125  18.222 163.525  1.00  0.00     0.293 HD
ENDBRANCH   8  24
TORSDOF 5
ENDMDL
MODEL 6
REMARK VINA RESULT:    -5.683      2.759      7.752
REMARK INTER + INTRA:          -6.975
REMARK INTER:                  -6.702
REMARK INTRA:                  -0.273
REMARK UNBOUND:                -0.295
REMARK SMILES O=c1cc(-c2ccc(O)c(O)c2)oc2cc(O)cc(O)c12
REMARK SMILES IDX 4 1 3 2 2 3 1 4 21 5 19 6 18 7 16 8 15 9 14 10 13 11 5 12
REMARK SMILES IDX 6 13 7 14 8 15 12 16 10 17 9 18 11 20 20 22 17 24
REMARK H PARENT 9 19 11 21 20 23 17 25
REMARK Flexibility Score: inf
ROOT
ATOM      1  C   UNL     1      25.163   3.078 159.503  1.00  0.00     0.138 A 
ATOM      2  C   UNL     1      26.128   3.836 158.826  1.00  0.00     0.100 A 
ATOM      3  C   UNL     1      26.344   3.622 157.464  1.00  0.00     0.197 A 
ATOM      4  O   UNL     1      27.178   4.356 156.873  1.00  0.00    -0.289 OA
ATOM      5  C   UNL     1      25.614   2.617 156.785  1.00  0.00     0.107 A 
ATOM      6  C   UNL     1      25.774   2.287 155.404  1.00  0.00     0.134 A 
ATOM      7  C   UNL     1      24.924   1.339 154.820  1.00  0.00     0.093 A 
ATOM      8  C   UNL     1      23.959   0.670 155.576  1.00  0.00     0.123 A 
ATOM      9  C   UNL     1      23.829   0.951 156.935  1.00  0.00     0.094 A 
ATOM     10  C   UNL     1      24.638   1.914 157.540  1.00  0.00     0.146 A 
ATOM     11  O   UNL     1      24.468   2.163 158.835  1.00  0.00    -0.456 OA
ENDROOT
BRANCH   1  12
ATOM     12  C   UNL     1      24.894   3.262 160.951  1.00  0.00     0.021 A 
ATOM     13  C   UNL     1      25.842   2.913 161.932  1.00  0.00     0.016 A 
ATOM     14  C   UNL     1      25.563   3.106 163.287  1.00  0.00     0.051 A 
ATOM     15  C   UNL     1      24.340   3.656 163.688  1.00  0.00     0.157 A 
ATOM     16  C   UNL     1      23.671   3.826 161.361  1.00  0.00     0.062 A 
ATOM     17  C   UNL     1      23.391   4.019 162.718  1.00  0.00     0.158 A 
BRANCH  15  18
ATOM     18  O   UNL     1      24.065   3.846 165.041  1.00  0.00    -0.504 OA
ATOM     19  H   UNL     1      24.281   4.720 165.508  1.00  0.00     0.293 HD
ENDBRANCH  15  18
BRANCH  17  20
ATOM     20  O   UNL     1      22.164   4.574 163.083  1.00  0.00    -0.504 OA
ATOM     21  H   UNL     1      22.038   5.074 163.955  1.00  0.00     0.293 HD
ENDBRANCH  17  20
ENDBRANCH   1  12
BRANCH   6  22
ATOM     22  O   UNL     1      26.757   2.835 154.576  1.00  0.00    -0.507 OA
ATOM     23  H   UNL     1      26.905   3.821 154.427  1.00  0.00     0.293 HD
ENDBRANCH   6  22
BRANCH   8  24
ATOM     24  O   UNL     1      23.128  -0.281 154.988  1.00  0.00    -0.508 OA
ATOM     25  H   UNL     1      23.197  -0.507 154.003  1.00  0.00     0.293 HD
ENDBRANCH   8  24
TORSDOF 5
ENDMDL
MODEL 7
REMARK VINA RESULT:    -5.650      2.750      3.814
REMARK INTER + INTRA:          -6.936
REMARK INTER:                  -6.654
REMARK INTRA:                  -0.282
REMARK UNBOUND:                -0.295
REMARK SMILES O=c1cc(-c2ccc(O)c(O)c2)oc2cc(O)cc(O)c12
REMARK SMILES IDX 4 1 3 2 2 3 1 4 21 5 19 6 18 7 16 8 15 9 14 10 13 11 5 12
REMARK SMILES IDX 6 13 7 14 8 15 12 16 10 17 9 18 11 20 20 22 17 24
REMARK H PARENT 9 19 11 21 20 23 17 25
REMARK Flexibility Score: inf
ROOT
ATOM      1  C   UNL     1      24.962   2.853 159.855  1.00  0.00     0.138 A 
ATOM      2  C   UNL     1      26.126   2.514 160.557  1.00  0.00     0.100 A 
ATOM      3  C   UNL     1      26.204   2.768 161.928  1.00  0.00     0.197 A 
ATOM      4  O   UNL     1      27.240   2.403 162.540  1.00  0.00    -0.289 OA
ATOM      5  C   UNL     1      25.121   3.396 162.590  1.00  0.00     0.107 A 
ATOM      6  C   UNL     1      25.102   3.734 163.978  1.00  0.00     0.134 A 
ATOM      7  C   UNL     1      23.934   4.265 164.541  1.00  0.00     0.093 A 
ATOM      8  C   UNL     1      22.806   4.522 163.758  1.00  0.00     0.123 A 
ATOM      9  C   UNL     1      22.834   4.241 162.393  1.00  0.00     0.094 A 
ATOM     10  C   UNL     1      23.971   3.680 161.808  1.00  0.00     0.146 A 
ATOM     11  O   UNL     1      23.947   3.412 160.506  1.00  0.00    -0.456 OA
ENDROOT
BRANCH   1  12
ATOM     12  C   UNL     1      24.825   2.609 158.397  1.00  0.00     0.021 A 
ATOM     13  C   UNL     1      23.593   2.249 157.818  1.00  0.00     0.016 A 
ATOM     14  C   UNL     1      23.494   2.034 156.441  1.00  0.00     0.051 A 
ATOM     15  C   UNL     1      24.616   2.182 155.617  1.00  0.00     0.157 A 
ATOM     16  C   UNL     1      25.946   2.769 157.560  1.00  0.00     0.062 A 
ATOM     17  C   UNL     1      25.847   2.553 156.181  1.00  0.00     0.158 A 
BRANCH  15  18
ATOM     18  O   UNL     1      24.513   1.966 154.244  1.00  0.00    -0.504 OA
ATOM     19  H   UNL     1      23.671   1.585 153.829  1.00  0.00     0.293 HD
ENDBRANCH  15  18
BRANCH  17  20
ATOM     20  O   UNL     1      26.984   2.714 155.389  1.00  0.00    -0.504 OA
ATOM     21  H   UNL     1      27.154   2.141 154.571  1.00  0.00     0.293 HD
ENDBRANCH  17  20
ENDBRANCH   1  12
BRANCH   6  22
ATOM     22  O   UNL     1      26.197   3.593 164.834  1.00  0.00    -0.507 OA
ATOM     23  H   UNL     1      27.085   4.057 164.721  1.00  0.00     0.293 HD
ENDBRANCH   6  22
BRANCH   8  24
ATOM     24  O   UNL     1      21.655   5.064 164.325  1.00  0.00    -0.508 OA
ATOM     25  H   UNL     1      20.733   4.830 163.978  1.00  0.00     0.293 HD
ENDBRANCH   8  24
TORSDOF 5
ENDMDL
MODEL 8
REMARK VINA RESULT:    -5.553      2.202      7.152
REMARK INTER + INTRA:          -6.821
REMARK INTER:                  -6.530
REMARK INTRA:                  -0.292
REMARK UNBOUND:                -0.295
REMARK SMILES O=c1cc(-c2ccc(O)c(O)c2)oc2cc(O)cc(O)c12
REMARK SMILES IDX 4 1 3 2 2 3 1 4 21 5 19 6 18 7 16 8 15 9 14 10 13 11 5 12
REMARK SMILES IDX 6 13 7 14 8 15 12 16 10 17 9 18 11 20 20 22 17 24
REMARK H PARENT 9 19 11 21 20 23 17 25
REMARK Flexibility Score: inf
ROOT
ATOM      1  C   UNL     1      23.321   2.354 159.545  1.00  0.00     0.138 A 
ATOM      2  C   UNL     1      22.874   1.911 158.293  1.00  0.00     0.100 A 
ATOM      3  C   UNL     1      23.712   2.023 157.182  1.00  0.00     0.197 A 
ATOM      4  O   UNL     1      23.303   1.567 156.083  1.00  0.00    -0.289 OA
ATOM      5  C   UNL     1      24.991   2.615 157.321  1.00  0.00     0.107 A 
ATOM      6  C   UNL     1      25.917   2.813 156.252  1.00  0.00     0.134 A 
ATOM      7  C   UNL     1      27.192   3.321 156.530  1.00  0.00     0.093 A 
ATOM      8  C   UNL     1      27.555   3.690 157.828  1.00  0.00     0.123 A 
ATOM      9  C   UNL     1      26.640   3.547 158.869  1.00  0.00     0.094 A 
ATOM     10  C   UNL     1      25.373   3.012 158.630  1.00  0.00     0.146 A 
ATOM     11  O   UNL     1      24.538   2.877 159.655  1.00  0.00    -0.456 OA
ENDROOT
BRANCH   1  12
ATOM     12  C   UNL     1      22.472   2.262 160.759  1.00  0.00     0.021 A 
ATOM     13  C   UNL     1      21.778   1.082 161.090  1.00  0.00     0.016 A 
ATOM     14  C   UNL     1      20.993   1.022 162.245  1.00  0.00     0.051 A 
ATOM     15  C   UNL     1      20.893   2.132 163.092  1.00  0.00     0.157 A 
ATOM     16  C   UNL     1      22.377   3.369 161.624  1.00  0.00     0.062 A 
ATOM     17  C   UNL     1      21.591   3.310 162.780  1.00  0.00     0.158 A 
BRANCH  15  18
ATOM     18  O   UNL     1      20.109   2.069 164.243  1.00  0.00    -0.504 OA
ATOM     19  H   UNL     1      19.918   2.894 164.801  1.00  0.00     0.293 HD
ENDBRANCH  15  18
BRANCH  17  20
ATOM     20  O   UNL     1      21.517   4.432 163.605  1.00  0.00    -0.504 OA
ATOM     21  H   UNL     1      21.992   5.298 163.379  1.00  0.00     0.293 HD
ENDBRANCH  17  20
ENDBRANCH   1  12
BRANCH   6  22
ATOM     22  O   UNL     1      25.631   2.553 154.909  1.00  0.00    -0.507 OA
ATOM     23  H   UNL     1      25.399   3.252 154.220  1.00  0.00     0.293 HD
ENDBRANCH   6  22
BRANCH   8  24
ATOM     24  O   UNL     1      28.821   4.208 158.092  1.00  0.00    -0.508 OA
ATOM     25  H   UNL     1      29.612   3.604 158.281  1.00  0.00     0.293 HD
ENDBRANCH   8  24
TORSDOF 5
ENDMDL
MODEL 9
REMARK VINA RESULT:    -5.412      1.877      2.279
REMARK INTER + INTRA:          -6.656
REMARK INTER:                  -6.365
REMARK INTRA:                  -0.291
REMARK UNBOUND:                -0.295
REMARK SMILES O=c1cc(-c2ccc(O)c(O)c2)oc2cc(O)cc(O)c12
REMARK SMILES IDX 4 1 3 2 2 3 1 4 21 5 19 6 18 7 16 8 15 9 14 10 13 11 5 12
REMARK SMILES IDX 6 13 7 14 8 15 12 16 10 17 9 18 11 20 20 22 17 24
REMARK H PARENT 9 19 11 21 20 23 17 25
REMARK Flexibility Score: inf
ROOT
ATOM      1  C   UNL     1      24.025   2.555 159.114  1.00  0.00     0.138 A 
ATOM      2  C   UNL     1      22.734   2.012 159.154  1.00  0.00     0.100 A 
ATOM      3  C   UNL     1      21.997   2.069 160.338  1.00  0.00     0.197 A 
ATOM      4  O   UNL     1      20.822   1.621 160.326  1.00  0.00    -0.289 OA
ATOM      5  C   UNL     1      22.572   2.642 161.498  1.00  0.00     0.107 A 
ATOM      6  C   UNL     1      21.927   2.724 162.770  1.00  0.00     0.134 A 
ATOM      7  C   UNL     1      22.559   3.403 163.820  1.00  0.00     0.093 A 
ATOM      8  C   UNL     1      23.834   3.952 163.661  1.00  0.00     0.123 A 
ATOM      9  C   UNL     1      24.491   3.832 162.439  1.00  0.00     0.094 A 
ATOM     10  C   UNL     1      23.874   3.192 161.362  1.00  0.00     0.146 A 
ATOM     11  O   UNL     1      24.530   3.116 160.209  1.00  0.00    -0.456 OA
ENDROOT
BRANCH   1  12
ATOM     12  C   UNL     1      24.855   2.521 157.883  1.00  0.00     0.021 A 
ATOM     13  C   UNL     1      26.253   2.683 157.927  1.00  0.00     0.016 A 
ATOM     14  C   UNL     1      27.008   2.637 156.753  1.00  0.00     0.051 A 
ATOM     15  C   UNL     1      26.386   2.420 155.517  1.00  0.00     0.157 A 
ATOM     16  C   UNL     1      24.238   2.289 156.639  1.00  0.00     0.062 A 
ATOM     17  C   UNL     1      24.994   2.243 155.463  1.00  0.00     0.158 A 
BRANCH  15  18
ATOM     18  O   UNL     1      27.142   2.375 154.348  1.00  0.00    -0.504 OA
ATOM     19  H   UNL     1      27.989   2.923 154.242  1.00  0.00     0.293 HD
ENDBRANCH  15  18
BRANCH  17  20
ATOM     20  O   UNL     1      24.343   2.021 154.249  1.00  0.00    -0.504 OA
ATOM     21  H   UNL     1      24.551   1.218 153.667  1.00  0.00     0.293 HD
ENDBRANCH  17  20
ENDBRANCH   1  12
BRANCH   6  22
ATOM     22  O   UNL     1      20.690   2.143 163.061  1.00  0.00    -0.507 OA
ATOM     23  H   UNL     1      20.111   1.650 162.399  1.00  0.00     0.293 HD
ENDBRANCH   6  22
BRANCH   8  24
ATOM     24  O   UNL     1      24.460   4.611 164.717  1.00  0.00    -0.508 OA
ATOM     25  H   UNL     1      23.998   5.356 165.225  1.00  0.00     0.293 HD
ENDBRANCH   8  24
TORSDOF 5
ENDMDL
