MODEL 1
REMARK VINA RESULT:    -5.072      0.000      0.000
REMARK INTER + INTRA:          -5.698
REMARK INTER:                  -5.516
REMARK INTRA:                  -0.182
REMARK UNBOUND:                -0.182
REMARK SMILES Cc1ccc(C(C)C)c(O)c1
REMARK SMILES IDX 1 1 2 2 11 3 9 4 5 5 4 6 3 7 10 8 6 10 7 11 8 12
REMARK H PARENT 10 9
REMARK Flexibility Score: inf
ROOT
ATOM      1  C   UNL     1     -20.515  99.252  -6.533  1.00  0.00     0.044 C 
ATOM      2  C   UNL     1     -19.871  98.107  -5.807  1.00  0.00    -0.047 A 
ATOM      3  C   UNL     1     -18.485  98.083  -5.617  1.00  0.00     0.049 A 
ATOM      4  C   UNL     1     -17.864  96.999  -4.984  1.00  0.00     0.119 A 
ATOM      5  C   UNL     1     -18.651  95.925  -4.485  1.00  0.00    -0.004 A 
ATOM      6  C   UNL     1     -20.038  95.934  -4.747  1.00  0.00     0.008 A 
ATOM      7  C   UNL     1     -20.639  97.014  -5.396  1.00  0.00     0.004 A 
ENDROOT
BRANCH   4   8
ATOM      8  O   UNL     1     -16.470  97.022  -4.894  1.00  0.00    -0.508 OA
ATOM      9  H   UNL     1     -15.959  97.141  -4.031  1.00  0.00     0.293 HD
ENDBRANCH   4   8
BRANCH   5  10
ATOM     10  C   UNL     1     -18.016  94.744  -3.753  1.00  0.00     0.017 C 
ATOM     11  C   UNL     1     -17.543  93.690  -4.758  1.00  0.00     0.012 C 
ATOM     12  C   UNL     1     -18.943  94.114  -2.699  1.00  0.00     0.012 C 
ENDBRANCH   5  10
TORSDOF 2
ENDMDL
MODEL 2
REMARK VINA RESULT:    -5.052     16.650     18.385
REMARK INTER + INTRA:          -5.677
REMARK INTER:                  -5.489
REMARK INTRA:                  -0.188
REMARK UNBOUND:                -0.182
REMARK SMILES Cc1ccc(C(C)C)c(O)c1
REMARK SMILES IDX 1 1 2 2 11 3 9 4 5 5 4 6 3 7 10 8 6 10 7 11 8 12
REMARK H PARENT 10 9
REMARK Flexibility Score: inf
ROOT
ATOM      1  C   UNL     1     -28.463  90.705   7.634  1.00  0.00     0.044 C 
ATOM      2  C   UNL     1     -29.870  90.977   7.188  1.00  0.00    -0.047 A 
ATOM      3  C   UNL     1     -30.163  91.114   5.826  1.00  0.00     0.049 A 
ATOM      4  C   UNL     1     -31.462  91.417   5.397  1.00  0.00     0.119 A 
ATOM      5  C   UNL     1     -32.511  91.544   6.348  1.00  0.00    -0.004 A 
ATOM      6  C   UNL     1     -32.182  91.471   7.719  1.00  0.00     0.008 A 
ATOM      7  C   UNL     1     -30.880  91.187   8.131  1.00  0.00     0.004 A 
ENDROOT
BRANCH   4   8
ATOM      8  O   UNL     1     -31.656  91.602   4.025  1.00  0.00    -0.508 OA
ATOM      9  H   UNL     1     -32.443  92.093   3.625  1.00  0.00     0.293 HD
ENDBRANCH   4   8
BRANCH   5  10
ATOM     10  C   UNL     1     -33.947  91.832   5.917  1.00  0.00     0.017 C 
ATOM     11  C   UNL     1     -34.282  93.309   6.146  1.00  0.00     0.012 C 
ATOM     12  C   UNL     1     -34.981  90.927   6.607  1.00  0.00     0.012 C 
ENDBRANCH   5  10
TORSDOF 2
ENDMDL
MODEL 3
REMARK VINA RESULT:    -4.890     18.108     19.329
REMARK INTER + INTRA:          -5.500
REMARK INTER:                  -5.318
REMARK INTRA:                  -0.183
REMARK UNBOUND:                -0.182
REMARK SMILES Cc1ccc(C(C)C)c(O)c1
REMARK SMILES IDX 1 1 2 2 11 3 9 4 5 5 4 6 3 7 10 8 6 10 7 11 8 12
REMARK H PARENT 10 9
REMARK Flexibility Score: inf
ROOT
ATOM      1  C   UNL     1     -34.164  97.400   8.088  1.00  0.00     0.044 C 
ATOM      2  C   UNL     1     -33.871  95.993   7.656  1.00  0.00    -0.047 A 
ATOM      3  C   UNL     1     -34.919  95.114   7.363  1.00  0.00     0.049 A 
ATOM      4  C   UNL     1     -34.664  93.783   7.006  1.00  0.00     0.119 A 
ATOM      5  C   UNL     1     -33.322  93.325   6.893  1.00  0.00    -0.004 A 
ATOM      6  C   UNL     1     -32.282  94.207   7.258  1.00  0.00     0.008 A 
ATOM      7  C   UNL     1     -32.554  95.524   7.631  1.00  0.00     0.004 A 
ENDROOT
BRANCH   4   8
ATOM      8  O   UNL     1     -35.768  92.954   6.794  1.00  0.00    -0.508 OA
ATOM      9  H   UNL     1     -35.982  92.141   7.354  1.00  0.00     0.293 HD
ENDBRANCH   4   8
BRANCH   5  10
ATOM     10  C   UNL     1     -33.001  91.895   6.465  1.00  0.00     0.017 C 
ATOM     11  C   UNL     1     -32.162  91.197   7.539  1.00  0.00     0.012 C 
ATOM     12  C   UNL     1     -32.308  91.812   5.095  1.00  0.00     0.012 C 
ENDBRANCH   5  10
TORSDOF 2
ENDMDL
MODEL 4
REMARK VINA RESULT:    -4.665      2.992      4.693
REMARK INTER + INTRA:          -5.256
REMARK INTER:                  -5.066
REMARK INTRA:                  -0.189
REMARK UNBOUND:                -0.182
REMARK SMILES Cc1ccc(C(C)C)c(O)c1
REMARK SMILES IDX 1 1 2 2 11 3 9 4 5 5 4 6 3 7 10 8 6 10 7 11 8 12
REMARK H PARENT 10 9
REMARK Flexibility Score: inf
ROOT
ATOM      1  C   UNL     1     -21.754  91.383  -4.479  1.00  0.00     0.044 C 
ATOM      2  C   UNL     1     -20.577  92.271  -4.196  1.00  0.00    -0.047 A 
ATOM      3  C   UNL     1     -20.442  92.884  -2.946  1.00  0.00     0.049 A 
ATOM      4  C   UNL     1     -19.376  93.754  -2.683  1.00  0.00     0.119 A 
ATOM      5  C   UNL     1     -18.390  93.987  -3.680  1.00  0.00    -0.004 A 
ATOM      6  C   UNL     1     -18.581  93.415  -4.956  1.00  0.00     0.008 A 
ATOM      7  C   UNL     1     -19.659  92.565  -5.208  1.00  0.00     0.004 A 
ENDROOT
BRANCH   4   8
ATOM      8  O   UNL     1     -19.350  94.375  -1.432  1.00  0.00    -0.508 OA
ATOM      9  H   UNL     1     -19.460  93.888  -0.554  1.00  0.00     0.293 HD
ENDBRANCH   4   8
BRANCH   5  10
ATOM     10  C   UNL     1     -17.190  94.896  -3.418  1.00  0.00     0.017 C 
ATOM     11  C   UNL     1     -17.534  96.344  -3.778  1.00  0.00     0.012 C 
ATOM     12  C   UNL     1     -15.914  94.442  -4.148  1.00  0.00     0.012 C 
ENDBRANCH   5  10
TORSDOF 2
ENDMDL
MODEL 5
REMARK VINA RESULT:    -4.663     18.471     19.393
REMARK INTER + INTRA:          -5.253
REMARK INTER:                  -5.077
REMARK INTRA:                  -0.176
REMARK UNBOUND:                -0.182
REMARK SMILES Cc1ccc(C(C)C)c(O)c1
REMARK SMILES IDX 1 1 2 2 11 3 9 4 5 5 4 6 3 7 10 8 6 10 7 11 8 12
REMARK H PARENT 10 9
REMARK Flexibility Score: inf
ROOT
ATOM      1  C   UNL     1     -33.099  98.650   8.391  1.00  0.00     0.044 C 
ATOM      2  C   UNL     1     -33.348  97.207   8.063  1.00  0.00    -0.047 A 
ATOM      3  C   UNL     1     -32.276  96.353   7.779  1.00  0.00     0.049 A 
ATOM      4  C   UNL     1     -32.495  95.016   7.423  1.00  0.00     0.119 A 
ATOM      5  C   UNL     1     -33.820  94.500   7.390  1.00  0.00    -0.004 A 
ATOM      6  C   UNL     1     -34.891  95.393   7.611  1.00  0.00     0.008 A 
ATOM      7  C   UNL     1     -34.656  96.727   7.947  1.00  0.00     0.004 A 
ENDROOT
BRANCH   4   8
ATOM      8  O   UNL     1     -31.375  94.250   7.092  1.00  0.00    -0.508 OA
ATOM      9  H   UNL     1     -30.783  94.427   6.293  1.00  0.00     0.293 HD
ENDBRANCH   4   8
BRANCH   5  10
ATOM     10  C   UNL     1     -34.097  93.038   7.048  1.00  0.00     0.017 C 
ATOM     11  C   UNL     1     -34.145  92.850   5.529  1.00  0.00     0.012 C 
ATOM     12  C   UNL     1     -35.377  92.493   7.703  1.00  0.00     0.012 C 
ENDBRANCH   5  10
TORSDOF 2
ENDMDL
MODEL 6
REMARK VINA RESULT:    -4.659     17.363     18.209
REMARK INTER + INTRA:          -5.250
REMARK INTER:                  -5.059
REMARK INTRA:                  -0.190
REMARK UNBOUND:                -0.182
REMARK SMILES Cc1ccc(C(C)C)c(O)c1
REMARK SMILES IDX 1 1 2 2 11 3 9 4 5 5 4 6 3 7 10 8 6 10 7 11 8 12
REMARK H PARENT 10 9
REMARK Flexibility Score: inf
ROOT
ATOM      1  C   UNL     1     -32.342  98.289   6.890  1.00  0.00     0.044 C 
ATOM      2  C   UNL     1     -31.508  99.421   7.415  1.00  0.00    -0.047 A 
ATOM      3  C   UNL     1     -30.213  99.628   6.927  1.00  0.00     0.049 A 
ATOM      4  C   UNL     1     -29.405 100.649   7.442  1.00  0.00     0.119 A 
ATOM      5  C   UNL     1     -29.916 101.520   8.443  1.00  0.00    -0.004 A 
ATOM      6  C   UNL     1     -31.197 101.253   8.970  1.00  0.00     0.008 A 
ATOM      7  C   UNL     1     -31.983 100.219   8.460  1.00  0.00     0.004 A 
ENDROOT
BRANCH   4   8
ATOM      8  O   UNL     1     -28.102 100.746   6.946  1.00  0.00    -0.508 OA
ATOM      9  H   UNL     1     -27.281 100.849   7.525  1.00  0.00     0.293 HD
ENDBRANCH   4   8
BRANCH   5  10
ATOM     10  C   UNL     1     -29.081 102.672   8.999  1.00  0.00     0.017 C 
ATOM     11  C   UNL     1     -29.289 102.793  10.512  1.00  0.00     0.012 C 
ATOM     12  C   UNL     1     -29.358 104.015   8.303  1.00  0.00     0.012 C 
ENDBRANCH   5  10
TORSDOF 2
ENDMDL
MODEL 7
REMARK VINA RESULT:    -4.611      1.900      2.718
REMARK INTER + INTRA:          -5.197
REMARK INTER:                  -5.007
REMARK INTRA:                  -0.191
REMARK UNBOUND:                -0.182
REMARK SMILES Cc1ccc(C(C)C)c(O)c1
REMARK SMILES IDX 1 1 2 2 11 3 9 4 5 5 4 6 3 7 10 8 6 10 7 11 8 12
REMARK H PARENT 10 9
REMARK Flexibility Score: inf
ROOT
ATOM      1  C   UNL     1     -21.740  99.628  -6.970  1.00  0.00     0.044 C 
ATOM      2  C   UNL     1     -20.781  98.646  -6.364  1.00  0.00    -0.047 A 
ATOM      3  C   UNL     1     -21.257  97.475  -5.764  1.00  0.00     0.049 A 
ATOM      4  C   UNL     1     -20.378  96.572  -5.150  1.00  0.00     0.119 A 
ATOM      5  C   UNL     1     -18.978  96.820  -5.173  1.00  0.00    -0.004 A 
ATOM      6  C   UNL     1     -18.524  98.038  -5.722  1.00  0.00     0.008 A 
ATOM      7  C   UNL     1     -19.414  98.936  -6.312  1.00  0.00     0.004 A 
ENDROOT
BRANCH   4   8
ATOM      8  O   UNL     1     -20.941  95.461  -4.517  1.00  0.00    -0.508 OA
ATOM      9  H   UNL     1     -20.552  94.530  -4.554  1.00  0.00     0.293 HD
ENDBRANCH   4   8
BRANCH   5  10
ATOM     10  C   UNL     1     -17.985  95.840  -4.553  1.00  0.00     0.017 C 
ATOM     11  C   UNL     1     -17.722  96.208  -3.090  1.00  0.00     0.012 C 
ATOM     12  C   UNL     1     -16.664  95.738  -5.334  1.00  0.00     0.012 C 
ENDBRANCH   5  10
TORSDOF 2
ENDMDL
MODEL 8
REMARK VINA RESULT:    -4.590     17.558     18.416
REMARK INTER + INTRA:          -5.174
REMARK INTER:                  -4.992
REMARK INTRA:                  -0.182
REMARK UNBOUND:                -0.182
REMARK SMILES Cc1ccc(C(C)C)c(O)c1
REMARK SMILES IDX 1 1 2 2 11 3 9 4 5 5 4 6 3 7 10 8 6 10 7 11 8 12
REMARK H PARENT 10 9
REMARK Flexibility Score: inf
ROOT
ATOM      1  C   UNL     1     -29.724 102.038  10.755  1.00  0.00     0.044 C 
ATOM      2  C   UNL     1     -30.286 101.110   9.718  1.00  0.00    -0.047 A 
ATOM      3  C   UNL     1     -29.635 100.947   8.490  1.00  0.00     0.049 A 
ATOM      4  C   UNL     1     -30.174 100.122   7.494  1.00  0.00     0.119 A 
ATOM      5  C   UNL     1     -31.374  99.402   7.743  1.00  0.00    -0.004 A 
ATOM      6  C   UNL     1     -32.052  99.632   8.960  1.00  0.00     0.008 A 
ATOM      7  C   UNL     1     -31.512 100.472   9.935  1.00  0.00     0.004 A 
ENDROOT
BRANCH   4   8
ATOM      8  O   UNL     1     -29.496 100.066   6.274  1.00  0.00    -0.508 OA
ATOM      9  H   UNL     1     -28.493 100.137   6.178  1.00  0.00     0.293 HD
ENDBRANCH   4   8
BRANCH   5  10
ATOM     10  C   UNL     1     -31.971  98.460   6.699  1.00  0.00     0.017 C 
ATOM     11  C   UNL     1     -32.857  99.243   5.726  1.00  0.00     0.012 C 
ATOM     12  C   UNL     1     -32.746  97.284   7.315  1.00  0.00     0.012 C 
ENDBRANCH   5  10
TORSDOF 2
ENDMDL
MODEL 9
REMARK VINA RESULT:    -4.581      2.085      2.570
REMARK INTER + INTRA:          -5.165
REMARK INTER:                  -4.974
REMARK INTRA:                  -0.191
REMARK UNBOUND:                -0.182
REMARK SMILES Cc1ccc(C(C)C)c(O)c1
REMARK SMILES IDX 1 1 2 2 11 3 9 4 5 5 4 6 3 7 10 8 6 10 7 11 8 12
REMARK H PARENT 10 9
REMARK Flexibility Score: inf
ROOT
ATOM      1  C   UNL     1     -21.056  97.791  -5.924  1.00  0.00     0.044 C 
ATOM      2  C   UNL     1     -19.784  97.019  -6.118  1.00  0.00    -0.047 A 
ATOM      3  C   UNL     1     -18.681  97.258  -5.290  1.00  0.00     0.049 A 
ATOM      4  C   UNL     1     -17.471  96.580  -5.489  1.00  0.00     0.119 A 
ATOM      5  C   UNL     1     -17.368  95.603  -6.517  1.00  0.00    -0.004 A 
ATOM      6  C   UNL     1     -18.468  95.426  -7.384  1.00  0.00     0.008 A 
ATOM      7  C   UNL     1     -19.660  96.122  -7.183  1.00  0.00     0.004 A 
ENDROOT
BRANCH   4   8
ATOM      8  O   UNL     1     -16.400  96.925  -4.661  1.00  0.00    -0.508 OA
ATOM      9  H   UNL     1     -15.445  97.012  -4.976  1.00  0.00     0.293 HD
ENDBRANCH   4   8
BRANCH   5  10
ATOM     10  C   UNL     1     -16.080  94.813  -6.739  1.00  0.00     0.017 C 
ATOM     11  C   UNL     1     -15.959  94.402  -8.209  1.00  0.00     0.012 C 
ATOM     12  C   UNL     1     -15.953  93.587  -5.820  1.00  0.00     0.012 C 
ENDBRANCH   5  10
TORSDOF 2
ENDMDL
