MODEL 1
REMARK VINA RESULT:    -8.782      0.000      0.000
REMARK INTER + INTRA:         -10.073
REMARK INTER:                  -9.552
REMARK INTRA:                  -0.522
REMARK UNBOUND:                -0.522
REMARK SMILES C=C(C)[C@H]1CC[C@@]2(C)CC[C@]3(C)[C@@H](CC[C@H]4[C@]5(C)CC[C@H](O)C(C)(C)[C@H]5CC[C@]43C)[C@H]12
REMARK SMILES IDX 4 1 5 2 6 3 7 4 31 5 13 6 14 7 15 8 16 9 17 10 19 11 20 12
REMARK SMILES IDX 21 13 23 14 26 15 27 16 28 17 29 18 11 19 10 20 9 21 12 22
REMARK SMILES IDX 30 23 24 24 25 25 18 26 8 27 2 28 3 29 1 30 22 31
REMARK H PARENT 22 32
REMARK Flexibility Score: inf
ROOT
ATOM      1  C   UNL     1      -4.010  25.611  49.206  1.00  0.00     0.018 C 
ATOM      2  C   UNL     1      -3.451  26.780  50.054  1.00  0.00     0.009 C 
ATOM      3  C   UNL     1      -1.939  26.541  50.180  1.00  0.00     0.008 C 
ATOM      4  C   UNL     1      -1.599  25.577  49.031  1.00  0.00    -0.029 C 
ATOM      5  C   UNL     1      -2.814  24.641  49.056  1.00  0.00     0.006 C 
ATOM      6  C   UNL     1      -2.803  23.574  47.895  1.00  0.00    -0.000 C 
ATOM      7  C   UNL     1      -3.859  22.486  48.179  1.00  0.00     0.005 C 
ATOM      8  C   UNL     1      -3.313  21.450  49.145  1.00  0.00     0.005 C 
ATOM      9  C   UNL     1      -2.292  20.511  48.439  1.00  0.00     0.002 C 
ATOM     10  C   UNL     1      -2.880  19.055  48.006  1.00  0.00    -0.026 C 
ATOM     11  C   UNL     1      -2.263  17.956  48.926  1.00  0.00     0.010 C 
ATOM     12  C   UNL     1      -2.641  16.522  48.505  1.00  0.00     0.033 C 
ATOM     13  C   UNL     1      -2.197  16.201  47.060  1.00  0.00     0.120 C 
ATOM     14  C   UNL     1      -2.742  17.228  46.005  1.00  0.00    -0.006 C 
ATOM     15  C   UNL     1      -2.462  18.696  46.537  1.00  0.00     0.003 C 
ATOM     16  C   UNL     1      -2.841  19.851  45.608  1.00  0.00     0.005 C 
ATOM     17  C   UNL     1      -1.976  21.098  45.881  1.00  0.00     0.008 C 
ATOM     18  C   UNL     1      -1.410  21.316  47.348  1.00  0.00    -0.024 C 
ATOM     19  C   UNL     1      -1.344  22.932  47.631  1.00  0.00    -0.024 C 
ATOM     20  C   UNL     1      -0.406  23.249  48.864  1.00  0.00     0.008 C 
ATOM     21  C   UNL     1      -0.310  24.744  49.294  1.00  0.00     0.007 C 
ATOM     22  C   UNL     1      -0.688  23.635  46.378  1.00  0.00     0.012 C 
ATOM     23  C   UNL     1       0.066  20.745  47.409  1.00  0.00     0.012 C 
ATOM     24  C   UNL     1      -1.954  16.998  44.675  1.00  0.00     0.014 C 
ATOM     25  C   UNL     1      -4.239  16.938  45.677  1.00  0.00     0.014 C 
ATOM     26  C   UNL     1      -4.437  18.993  48.185  1.00  0.00     0.012 C 
ATOM     27  C   UNL     1      -1.494  26.432  47.719  1.00  0.00     0.011 C 
ENDROOT
BRANCH   1  28
ATOM     28  C   UNL     1      -5.249  25.010  49.856  1.00  0.00    -0.077 C 
ATOM     29  C   UNL     1      -6.626  25.233  49.278  1.00  0.00     0.039 C 
ATOM     30  C   UNL     1      -5.130  24.246  50.954  1.00  0.00     0.008 C 
ENDBRANCH   1  28
BRANCH  13  31
ATOM     31  O   UNL     1      -0.786  16.173  47.025  1.00  0.00    -0.393 OA
ATOM     32  H   UNL     1      -0.464  16.571  47.875  1.00  0.00     0.210 HD
ENDBRANCH  13  31
TORSDOF 2
ENDMDL
MODEL 2
REMARK VINA RESULT:    -7.643      1.535      2.412
REMARK INTER + INTRA:          -8.834
REMARK INTER:                  -8.234
REMARK INTRA:                  -0.600
REMARK UNBOUND:                -0.522
REMARK SMILES C=C(C)[C@H]1CC[C@@]2(C)CC[C@]3(C)[C@@H](CC[C@H]4[C@]5(C)CC[C@H](O)C(C)(C)[C@H]5CC[C@]43C)[C@H]12
REMARK SMILES IDX 4 1 5 2 6 3 7 4 31 5 13 6 14 7 15 8 16 9 17 10 19 11 20 12
REMARK SMILES IDX 21 13 23 14 26 15 27 16 28 17 29 18 11 19 10 20 9 21 12 22
REMARK SMILES IDX 30 23 24 24 25 25 18 26 8 27 2 28 3 29 1 30 22 31
REMARK H PARENT 22 32
REMARK Flexibility Score: inf
ROOT
ATOM      1  C   UNL     1      -4.636  27.323  48.242  1.00  0.00     0.018 C 
ATOM      2  C   UNL     1      -4.820  28.486  49.247  1.00  0.00     0.009 C 
ATOM      3  C   UNL     1      -3.960  28.142  50.472  1.00  0.00     0.008 C 
ATOM      4  C   UNL     1      -2.950  27.101  49.961  1.00  0.00    -0.029 C 
ATOM      5  C   UNL     1      -3.832  26.261  49.029  1.00  0.00     0.006 C 
ATOM      6  C   UNL     1      -3.034  25.141  48.256  1.00  0.00    -0.000 C 
ATOM      7  C   UNL     1      -4.023  24.150  47.609  1.00  0.00     0.005 C 
ATOM      8  C   UNL     1      -4.492  23.123  48.624  1.00  0.00     0.005 C 
ATOM      9  C   UNL     1      -3.377  22.078  48.919  1.00  0.00     0.002 C 
ATOM     10  C   UNL     1      -3.551  20.652  48.153  1.00  0.00    -0.026 C 
ATOM     11  C   UNL     1      -3.944  19.555  49.191  1.00  0.00     0.010 C 
ATOM     12  C   UNL     1      -3.990  18.134  48.593  1.00  0.00     0.033 C 
ATOM     13  C   UNL     1      -2.633  17.712  47.985  1.00  0.00     0.120 C 
ATOM     14  C   UNL     1      -2.097  18.725  46.912  1.00  0.00    -0.006 C 
ATOM     15  C   UNL     1      -2.196  20.192  47.509  1.00  0.00     0.003 C 
ATOM     16  C   UNL     1      -1.637  21.327  46.647  1.00  0.00     0.005 C 
ATOM     17  C   UNL     1      -1.181  22.517  47.514  1.00  0.00     0.008 C 
ATOM     18  C   UNL     1      -1.911  22.762  48.902  1.00  0.00    -0.024 C 
ATOM     19  C   UNL     1      -1.947  24.381  49.178  1.00  0.00    -0.024 C 
ATOM     20  C   UNL     1      -2.251  24.686  50.699  1.00  0.00     0.008 C 
ATOM     21  C   UNL     1      -2.389  26.188  51.090  1.00  0.00     0.007 C 
ATOM     22  C   UNL     1      -0.513  24.972  48.882  1.00  0.00     0.012 C 
ATOM     23  C   UNL     1      -1.054  22.086  50.049  1.00  0.00     0.012 C 
ATOM     24  C   UNL     1      -0.598  18.374  46.643  1.00  0.00     0.014 C 
ATOM     25  C   UNL     1      -2.838  18.532  45.554  1.00  0.00     0.014 C 
ATOM     26  C   UNL     1      -4.696  20.714  47.084  1.00  0.00     0.012 C 
ATOM     27  C   UNL     1      -1.814  27.882  49.210  1.00  0.00     0.011 C 
ENDROOT
BRANCH   1  28
ATOM     28  C   UNL     1      -5.980  26.847  47.705  1.00  0.00    -0.077 C 
ATOM     29  C   UNL     1      -6.256  26.784  46.223  1.00  0.00     0.039 C 
ATOM     30  C   UNL     1      -6.942  26.454  48.556  1.00  0.00     0.008 C 
ENDBRANCH   1  28
BRANCH  13  31
ATOM     31  O   UNL     1      -1.699  17.577  49.035  1.00  0.00    -0.393 OA
ATOM     32  H   UNL     1      -1.334  16.656  48.987  1.00  0.00     0.210 HD
ENDBRANCH  13  31
TORSDOF 2
ENDMDL
MODEL 3
REMARK VINA RESULT:    -7.604      4.728      7.899
REMARK INTER + INTRA:          -8.792
REMARK INTER:                  -8.192
REMARK INTRA:                  -0.601
REMARK UNBOUND:                -0.522
REMARK SMILES C=C(C)[C@H]1CC[C@@]2(C)CC[C@]3(C)[C@@H](CC[C@H]4[C@]5(C)CC[C@H](O)C(C)(C)[C@H]5CC[C@]43C)[C@H]12
REMARK SMILES IDX 4 1 5 2 6 3 7 4 31 5 13 6 14 7 15 8 16 9 17 10 19 11 20 12
REMARK SMILES IDX 21 13 23 14 26 15 27 16 28 17 29 18 11 19 10 20 9 21 12 22
REMARK SMILES IDX 30 23 24 24 25 25 18 26 8 27 2 28 3 29 1 30 22 31
REMARK H PARENT 22 32
REMARK Flexibility Score: inf
ROOT
ATOM      1  C   UNL     1      -9.085  29.763  45.489  1.00  0.00     0.018 C 
ATOM      2  C   UNL     1      -9.782  31.145  45.521  1.00  0.00     0.009 C 
ATOM      3  C   UNL     1      -8.879  32.068  46.354  1.00  0.00     0.008 C 
ATOM      4  C   UNL     1      -7.504  31.378  46.347  1.00  0.00    -0.029 C 
ATOM      5  C   UNL     1      -7.907  29.905  46.483  1.00  0.00     0.006 C 
ATOM      6  C   UNL     1      -6.683  28.914  46.405  1.00  0.00    -0.000 C 
ATOM      7  C   UNL     1      -7.120  27.509  46.871  1.00  0.00     0.005 C 
ATOM      8  C   UNL     1      -7.103  27.420  48.386  1.00  0.00     0.005 C 
ATOM      9  C   UNL     1      -5.646  27.329  48.924  1.00  0.00     0.002 C 
ATOM     10  C   UNL     1      -5.157  25.832  49.338  1.00  0.00    -0.026 C 
ATOM     11  C   UNL     1      -5.042  25.738  50.891  1.00  0.00     0.010 C 
ATOM     12  C   UNL     1      -4.444  24.404  51.382  1.00  0.00     0.033 C 
ATOM     13  C   UNL     1      -3.030  24.152  50.810  1.00  0.00     0.120 C 
ATOM     14  C   UNL     1      -2.980  24.214  49.242  1.00  0.00    -0.006 C 
ATOM     15  C   UNL     1      -3.728  25.530  48.765  1.00  0.00     0.003 C 
ATOM     16  C   UNL     1      -3.715  25.824  47.263  1.00  0.00     0.005 C 
ATOM     17  C   UNL     1      -3.848  27.335  46.987  1.00  0.00     0.008 C 
ATOM     18  C   UNL     1      -4.634  28.227  48.038  1.00  0.00    -0.024 C 
ATOM     19  C   UNL     1      -5.387  29.434  47.217  1.00  0.00    -0.024 C 
ATOM     20  C   UNL     1      -5.820  30.597  48.197  1.00  0.00     0.008 C 
ATOM     21  C   UNL     1      -6.616  31.777  47.562  1.00  0.00     0.007 C 
ATOM     22  C   UNL     1      -4.358  30.067  46.200  1.00  0.00     0.012 C 
ATOM     23  C   UNL     1      -3.586  28.885  49.026  1.00  0.00     0.012 C 
ATOM     24  C   UNL     1      -1.476  24.291  48.824  1.00  0.00     0.014 C 
ATOM     25  C   UNL     1      -3.536  22.897  48.621  1.00  0.00     0.014 C 
ATOM     26  C   UNL     1      -6.193  24.747  48.882  1.00  0.00     0.012 C 
ATOM     27  C   UNL     1      -6.819  31.716  44.976  1.00  0.00     0.011 C 
ENDROOT
BRANCH   1  28
ATOM     28  C   UNL     1     -10.070  28.647  45.813  1.00  0.00    -0.077 C 
ATOM     29  C   UNL     1     -10.365  27.547  44.822  1.00  0.00     0.039 C 
ATOM     30  C   UNL     1     -10.682  28.616  47.008  1.00  0.00     0.008 C 
ENDBRANCH   1  28
BRANCH  13  31
ATOM     31  O   UNL     1      -2.151  25.109  51.362  1.00  0.00    -0.393 OA
ATOM     32  H   UNL     1      -1.352  25.146  50.775  1.00  0.00     0.210 HD
ENDBRANCH  13  31
TORSDOF 2
ENDMDL
MODEL 4
REMARK VINA RESULT:    -7.579      1.825      4.309
REMARK INTER + INTRA:          -8.765
REMARK INTER:                  -8.162
REMARK INTRA:                  -0.603
REMARK UNBOUND:                -0.522
REMARK SMILES C=C(C)[C@H]1CC[C@@]2(C)CC[C@]3(C)[C@@H](CC[C@H]4[C@]5(C)CC[C@H](O)C(C)(C)[C@H]5CC[C@]43C)[C@H]12
REMARK SMILES IDX 4 1 5 2 6 3 7 4 31 5 13 6 14 7 15 8 16 9 17 10 19 11 20 12
REMARK SMILES IDX 21 13 23 14 26 15 27 16 28 17 29 18 11 19 10 20 9 21 12 22
REMARK SMILES IDX 30 23 24 24 25 25 18 26 8 27 2 28 3 29 1 30 22 31
REMARK H PARENT 22 32
REMARK Flexibility Score: inf
ROOT
ATOM      1  C   UNL     1      -1.575  27.487  47.310  1.00  0.00     0.018 C 
ATOM      2  C   UNL     1      -2.171  28.839  46.846  1.00  0.00     0.009 C 
ATOM      3  C   UNL     1      -3.682  28.614  46.682  1.00  0.00     0.008 C 
ATOM      4  C   UNL     1      -3.980  27.351  47.508  1.00  0.00    -0.029 C 
ATOM      5  C   UNL     1      -2.752  26.490  47.193  1.00  0.00     0.006 C 
ATOM      6  C   UNL     1      -2.719  25.132  47.995  1.00  0.00    -0.000 C 
ATOM      7  C   UNL     1      -1.652  24.196  47.391  1.00  0.00     0.005 C 
ATOM      8  C   UNL     1      -2.203  23.471  46.177  1.00  0.00     0.005 C 
ATOM      9  C   UNL     1      -3.193  22.347  46.598  1.00  0.00     0.002 C 
ATOM     10  C   UNL     1      -2.573  20.841  46.581  1.00  0.00    -0.026 C 
ATOM     11  C   UNL     1      -3.193  20.042  45.394  1.00  0.00     0.010 C 
ATOM     12  C   UNL     1      -2.782  18.555  45.375  1.00  0.00     0.033 C 
ATOM     13  C   UNL     1      -3.189  17.821  46.673  1.00  0.00     0.120 C 
ATOM     14  C   UNL     1      -2.636  18.511  47.970  1.00  0.00    -0.006 C 
ATOM     15  C   UNL     1      -2.952  20.064  47.890  1.00  0.00     0.003 C 
ATOM     16  C   UNL     1      -2.570  20.909  49.107  1.00  0.00     0.005 C 
ATOM     17  C   UNL     1      -3.461  22.163  49.221  1.00  0.00     0.008 C 
ATOM     18  C   UNL     1      -4.063  22.783  47.890  1.00  0.00    -0.024 C 
ATOM     19  C   UNL     1      -4.162  24.410  48.087  1.00  0.00    -0.024 C 
ATOM     20  C   UNL     1      -5.132  25.049  47.015  1.00  0.00     0.008 C 
ATOM     21  C   UNL     1      -5.262  26.602  47.037  1.00  0.00     0.007 C 
ATOM     22  C   UNL     1      -4.800  24.707  49.501  1.00  0.00     0.012 C 
ATOM     23  C   UNL     1      -5.531  22.222  47.691  1.00  0.00     0.012 C 
ATOM     24  C   UNL     1      -3.391  17.890  49.190  1.00  0.00     0.014 C 
ATOM     25  C   UNL     1      -1.129  18.171  48.175  1.00  0.00     0.014 C 
ATOM     26  C   UNL     1      -1.020  20.867  46.366  1.00  0.00     0.012 C 
ATOM     27  C   UNL     1      -4.069  27.789  49.013  1.00  0.00     0.011 C 
ENDROOT
BRANCH   1  28
ATOM     28  C   UNL     1      -0.341  27.126  46.493  1.00  0.00    -0.077 C 
ATOM     29  C   UNL     1       1.001  26.910  47.150  1.00  0.00     0.039 C 
ATOM     30  C   UNL     1      -0.436  26.974  45.162  1.00  0.00     0.008 C 
ENDBRANCH   1  28
BRANCH  13  31
ATOM     31  O   UNL     1      -4.598  17.754  46.722  1.00  0.00    -0.393 OA
ATOM     32  H   UNL     1      -4.879  18.125  47.598  1.00  0.00     0.210 HD
ENDBRANCH  13  31
TORSDOF 2
ENDMDL
MODEL 5
REMARK VINA RESULT:    -7.467      2.994      7.917
REMARK INTER + INTRA:          -8.644
REMARK INTER:                  -8.041
REMARK INTRA:                  -0.603
REMARK UNBOUND:                -0.522
REMARK SMILES C=C(C)[C@H]1CC[C@@]2(C)CC[C@]3(C)[C@@H](CC[C@H]4[C@]5(C)CC[C@H](O)C(C)(C)[C@H]5CC[C@]43C)[C@H]12
REMARK SMILES IDX 4 1 5 2 6 3 7 4 31 5 13 6 14 7 15 8 16 9 17 10 19 11 20 12
REMARK SMILES IDX 21 13 23 14 26 15 27 16 28 17 29 18 11 19 10 20 9 21 12 22
REMARK SMILES IDX 30 23 24 24 25 25 18 26 8 27 2 28 3 29 1 30 22 31
REMARK H PARENT 22 32
REMARK Flexibility Score: inf
ROOT
ATOM      1  C   UNL     1      -0.231  20.371  46.630  1.00  0.00     0.018 C 
ATOM      2  C   UNL     1       0.055  18.949  47.170  1.00  0.00     0.009 C 
ATOM      3  C   UNL     1      -1.103  18.602  48.118  1.00  0.00     0.008 C 
ATOM      4  C   UNL     1      -2.233  19.569  47.723  1.00  0.00    -0.029 C 
ATOM      5  C   UNL     1      -1.445  20.857  47.457  1.00  0.00     0.006 C 
ATOM      6  C   UNL     1      -2.343  22.039  46.924  1.00  0.00    -0.000 C 
ATOM      7  C   UNL     1      -1.557  23.364  46.996  1.00  0.00     0.005 C 
ATOM      8  C   UNL     1      -1.616  23.945  48.397  1.00  0.00     0.005 C 
ATOM      9  C   UNL     1      -3.014  24.564  48.687  1.00  0.00     0.002 C 
ATOM     10  C   UNL     1      -3.088  26.186  48.560  1.00  0.00    -0.026 C 
ATOM     11  C   UNL     1      -3.242  26.807  49.983  1.00  0.00     0.010 C 
ATOM     12  C   UNL     1      -3.469  28.332  49.964  1.00  0.00     0.033 C 
ATOM     13  C   UNL     1      -4.732  28.725  49.163  1.00  0.00     0.120 C 
ATOM     14  C   UNL     1      -4.727  28.168  47.695  1.00  0.00    -0.006 C 
ATOM     15  C   UNL     1      -4.351  26.627  47.741  1.00  0.00     0.003 C 
ATOM     16  C   UNL     1      -4.378  25.871  46.411  1.00  0.00     0.005 C 
ATOM     17  C   UNL     1      -4.656  24.369  46.625  1.00  0.00     0.008 C 
ATOM     18  C   UNL     1      -4.193  23.705  47.990  1.00  0.00    -0.024 C 
ATOM     19  C   UNL     1      -3.767  22.150  47.679  1.00  0.00    -0.024 C 
ATOM     20  C   UNL     1      -3.716  21.303  49.013  1.00  0.00     0.008 C 
ATOM     21  C   UNL     1      -3.250  19.822  48.875  1.00  0.00     0.007 C 
ATOM     22  C   UNL     1      -4.884  21.494  46.776  1.00  0.00     0.012 C 
ATOM     23  C   UNL     1      -5.425  23.687  48.985  1.00  0.00     0.012 C 
ATOM     24  C   UNL     1      -6.174  28.333  47.127  1.00  0.00     0.014 C 
ATOM     25  C   UNL     1      -3.802  29.029  46.783  1.00  0.00     0.014 C 
ATOM     26  C   UNL     1      -1.773  26.770  47.936  1.00  0.00     0.012 C 
ATOM     27  C   UNL     1      -2.923  18.982  46.441  1.00  0.00     0.011 C 
ENDROOT
BRANCH   1  28
ATOM     28  C   UNL     1       1.008  21.251  46.727  1.00  0.00    -0.077 C 
ATOM     29  C   UNL     1       1.625  21.878  45.500  1.00  0.00     0.039 C 
ATOM     30  C   UNL     1       1.564  21.501  47.924  1.00  0.00     0.008 C 
ENDBRANCH   1  28
BRANCH  13  31
ATOM     31  O   UNL     1      -5.864  28.250  49.859  1.00  0.00    -0.393 OA
ATOM     32  H   UNL     1      -5.566  28.008  50.774  1.00  0.00     0.210 HD
ENDBRANCH  13  31
TORSDOF 2
ENDMDL
MODEL 6
REMARK VINA RESULT:    -7.184      4.008      9.223
REMARK INTER + INTRA:          -8.336
REMARK INTER:                  -7.734
REMARK INTRA:                  -0.602
REMARK UNBOUND:                -0.522
REMARK SMILES C=C(C)[C@H]1CC[C@@]2(C)CC[C@]3(C)[C@@H](CC[C@H]4[C@]5(C)CC[C@H](O)C(C)(C)[C@H]5CC[C@]43C)[C@H]12
REMARK SMILES IDX 4 1 5 2 6 3 7 4 31 5 13 6 14 7 15 8 16 9 17 10 19 11 20 12
REMARK SMILES IDX 21 13 23 14 26 15 27 16 28 17 29 18 11 19 10 20 9 21 12 22
REMARK SMILES IDX 30 23 24 24 25 25 18 26 8 27 2 28 3 29 1 30 22 31
REMARK H PARENT 22 32
REMARK Flexibility Score: inf
ROOT
ATOM      1  C   UNL     1      -2.662  22.700  46.281  1.00  0.00     0.018 C 
ATOM      2  C   UNL     1      -2.315  21.269  46.761  1.00  0.00     0.009 C 
ATOM      3  C   UNL     1      -2.769  21.181  48.226  1.00  0.00     0.008 C 
ATOM      4  C   UNL     1      -3.781  22.327  48.391  1.00  0.00    -0.029 C 
ATOM      5  C   UNL     1      -3.117  23.435  47.564  1.00  0.00     0.006 C 
ATOM      6  C   UNL     1      -3.991  24.743  47.458  1.00  0.00    -0.000 C 
ATOM      7  C   UNL     1      -3.132  25.899  46.905  1.00  0.00     0.005 C 
ATOM      8  C   UNL     1      -2.310  26.531  48.013  1.00  0.00     0.005 C 
ATOM      9  C   UNL     1      -3.201  27.412  48.937  1.00  0.00     0.002 C 
ATOM     10  C   UNL     1      -3.114  29.013  48.654  1.00  0.00    -0.026 C 
ATOM     11  C   UNL     1      -2.352  29.704  49.827  1.00  0.00     0.010 C 
ATOM     12  C   UNL     1      -2.342  31.243  49.730  1.00  0.00     0.033 C 
ATOM     13  C   UNL     1      -3.770  31.836  49.710  1.00  0.00     0.120 C 
ATOM     14  C   UNL     1      -4.671  31.235  48.573  1.00  0.00    -0.006 C 
ATOM     15  C   UNL     1      -4.546  29.654  48.613  1.00  0.00     0.003 C 
ATOM     16  C   UNL     1      -5.421  28.868  47.634  1.00  0.00     0.005 C 
ATOM     17  C   UNL     1      -5.728  27.454  48.167  1.00  0.00     0.008 C 
ATOM     18  C   UNL     1      -4.670  26.765  49.128  1.00  0.00    -0.024 C 
ATOM     19  C   UNL     1      -4.708  25.147  48.848  1.00  0.00    -0.024 C 
ATOM     20  C   UNL     1      -4.026  24.354  50.034  1.00  0.00     0.008 C 
ATOM     21  C   UNL     1      -3.924  22.808  49.865  1.00  0.00     0.007 C 
ATOM     22  C   UNL     1      -6.216  24.680  48.807  1.00  0.00     0.012 C 
ATOM     23  C   UNL     1      -5.113  27.015  50.628  1.00  0.00     0.012 C 
ATOM     24  C   UNL     1      -6.147  31.647  48.878  1.00  0.00     0.014 C 
ATOM     25  C   UNL     1      -4.318  31.874  47.196  1.00  0.00     0.014 C 
ATOM     26  C   UNL     1      -2.318  29.317  47.337  1.00  0.00     0.012 C 
ATOM     27  C   UNL     1      -5.147  21.834  47.794  1.00  0.00     0.011 C 
ENDROOT
BRANCH   1  28
ATOM     28  C   UNL     1      -1.480  23.335  45.560  1.00  0.00    -0.077 C 
ATOM     29  C   UNL     1      -1.614  23.877  44.158  1.00  0.00     0.039 C 
ATOM     30  C   UNL     1      -0.292  23.440  46.178  1.00  0.00     0.008 C 
ENDBRANCH   1  28
BRANCH  13  31
ATOM     31  O   UNL     1      -4.362  31.608  50.971  1.00  0.00    -0.393 OA
ATOM     32  H   UNL     1      -4.583  32.495  51.356  1.00  0.00     0.210 HD
ENDBRANCH  13  31
TORSDOF 2
ENDMDL
MODEL 7
REMARK VINA RESULT:    -7.184      3.009      8.105
REMARK INTER + INTRA:          -8.336
REMARK INTER:                  -8.298
REMARK INTRA:                  -0.038
REMARK UNBOUND:                -0.522
REMARK SMILES C=C(C)[C@H]1CC[C@@]2(C)CC[C@]3(C)[C@@H](CC[C@H]4[C@]5(C)CC[C@H](O)C(C)(C)[C@H]5CC[C@]43C)[C@H]12
REMARK SMILES IDX 4 1 5 2 6 3 7 4 31 5 13 6 14 7 15 8 16 9 17 10 19 11 20 12
REMARK SMILES IDX 21 13 23 14 26 15 27 16 28 17 29 18 11 19 10 20 9 21 12 22
REMARK SMILES IDX 30 23 24 24 25 25 18 26 8 27 2 28 3 29 1 30 22 31
REMARK H PARENT 22 32
REMARK Flexibility Score: inf
ROOT
ATOM      1  C   UNL     1      -0.524  20.600  46.787  1.00  0.00     0.018 C 
ATOM      2  C   UNL     1      -0.918  19.145  46.431  1.00  0.00     0.009 C 
ATOM      3  C   UNL     1      -2.308  18.910  47.042  1.00  0.00     0.008 C 
ATOM      4  C   UNL     1      -2.875  20.320  47.277  1.00  0.00    -0.029 C 
ATOM      5  C   UNL     1      -1.628  21.067  47.765  1.00  0.00     0.006 C 
ATOM      6  C   UNL     1      -1.875  22.606  48.001  1.00  0.00    -0.000 C 
ATOM      7  C   UNL     1      -0.693  23.208  48.790  1.00  0.00     0.005 C 
ATOM      8  C   UNL     1      -0.856  22.948  50.276  1.00  0.00     0.005 C 
ATOM      9  C   UNL     1      -1.951  23.869  50.888  1.00  0.00     0.002 C 
ATOM     10  C   UNL     1      -1.388  25.168  51.694  1.00  0.00    -0.026 C 
ATOM     11  C   UNL     1      -1.626  24.968  53.223  1.00  0.00     0.010 C 
ATOM     12  C   UNL     1      -1.262  26.207  54.067  1.00  0.00     0.033 C 
ATOM     13  C   UNL     1      -2.067  27.458  53.646  1.00  0.00     0.120 C 
ATOM     14  C   UNL     1      -1.929  27.793  52.118  1.00  0.00    -0.006 C 
ATOM     15  C   UNL     1      -2.171  26.464  51.285  1.00  0.00     0.003 C 
ATOM     16  C   UNL     1      -2.168  26.595  49.761  1.00  0.00     0.005 C 
ATOM     17  C   UNL     1      -3.023  25.495  49.101  1.00  0.00     0.008 C 
ATOM     18  C   UNL     1      -3.169  24.104  49.850  1.00  0.00    -0.024 C 
ATOM     19  C   UNL     1      -3.289  22.924  48.714  1.00  0.00    -0.024 C 
ATOM     20  C   UNL     1      -3.866  21.593  49.342  1.00  0.00     0.008 C 
ATOM     21  C   UNL     1      -3.963  20.363  48.390  1.00  0.00     0.007 C 
ATOM     22  C   UNL     1      -4.328  23.388  47.618  1.00  0.00     0.012 C 
ATOM     23  C   UNL     1      -4.514  24.120  50.686  1.00  0.00     0.012 C 
ATOM     24  C   UNL     1      -3.038  28.836  51.765  1.00  0.00     0.014 C 
ATOM     25  C   UNL     1      -0.567  28.494  51.829  1.00  0.00     0.014 C 
ATOM     26  C   UNL     1       0.155  25.345  51.482  1.00  0.00     0.012 C 
ATOM     27  C   UNL     1      -3.417  20.842  45.899  1.00  0.00     0.011 C 
ENDROOT
BRANCH   1  28
ATOM     28  C   UNL     1       0.894  20.661  47.338  1.00  0.00    -0.077 C 
ATOM     29  C   UNL     1       1.681  21.950  47.341  1.00  0.00     0.039 C 
ATOM     30  C   UNL     1       1.464  19.560  47.854  1.00  0.00     0.008 C 
ENDBRANCH   1  28
BRANCH  13  31
ATOM     31  O   UNL     1      -3.423  27.245  53.975  1.00  0.00    -0.393 OA
ATOM     32  H   UNL     1      -3.774  28.099  54.337  1.00  0.00     0.210 HD
ENDBRANCH  13  31
TORSDOF 2
ENDMDL
MODEL 8
REMARK VINA RESULT:    -7.013      2.040      4.443
REMARK INTER + INTRA:          -8.150
REMARK INTER:                  -7.559
REMARK INTRA:                  -0.591
REMARK UNBOUND:                -0.522
REMARK SMILES C=C(C)[C@H]1CC[C@@]2(C)CC[C@]3(C)[C@@H](CC[C@H]4[C@]5(C)CC[C@H](O)C(C)(C)[C@H]5CC[C@]43C)[C@H]12
REMARK SMILES IDX 4 1 5 2 6 3 7 4 31 5 13 6 14 7 15 8 16 9 17 10 19 11 20 12
REMARK SMILES IDX 21 13 23 14 26 15 27 16 28 17 29 18 11 19 10 20 9 21 12 22
REMARK SMILES IDX 30 23 24 24 25 25 18 26 8 27 2 28 3 29 1 30 22 31
REMARK H PARENT 22 32
REMARK Flexibility Score: inf
ROOT
ATOM      1  C   UNL     1      -3.146  28.531  51.046  1.00  0.00     0.018 C 
ATOM      2  C   UNL     1      -3.019  30.034  50.693  1.00  0.00     0.009 C 
ATOM      3  C   UNL     1      -3.271  30.148  49.182  1.00  0.00     0.008 C 
ATOM      4  C   UNL     1      -4.007  28.850  48.809  1.00  0.00    -0.029 C 
ATOM      5  C   UNL     1      -3.264  27.825  49.674  1.00  0.00     0.006 C 
ATOM      6  C   UNL     1      -3.872  26.373  49.583  1.00  0.00    -0.000 C 
ATOM      7  C   UNL     1      -2.891  25.357  50.204  1.00  0.00     0.005 C 
ATOM      8  C   UNL     1      -1.814  24.975  49.205  1.00  0.00     0.005 C 
ATOM      9  C   UNL     1      -2.377  24.017  48.115  1.00  0.00     0.002 C 
ATOM     10  C   UNL     1      -2.022  22.443  48.331  1.00  0.00    -0.026 C 
ATOM     11  C   UNL     1      -0.982  21.997  47.257  1.00  0.00     0.010 C 
ATOM     12  C   UNL     1      -0.687  20.484  47.280  1.00  0.00     0.033 C 
ATOM     13  C   UNL     1      -1.960  19.637  47.052  1.00  0.00     0.120 C 
ATOM     14  C   UNL     1      -3.112  19.972  48.065  1.00  0.00    -0.006 C 
ATOM     15  C   UNL     1      -3.293  21.548  48.122  1.00  0.00     0.003 C 
ATOM     16  C   UNL     1      -4.434  22.080  48.991  1.00  0.00     0.005 C 
ATOM     17  C   UNL     1      -4.931  23.449  48.486  1.00  0.00     0.008 C 
ATOM     18  C   UNL     1      -3.903  24.394  47.733  1.00  0.00    -0.024 C 
ATOM     19  C   UNL     1      -4.294  25.951  48.081  1.00  0.00    -0.024 C 
ATOM     20  C   UNL     1      -3.619  26.944  47.053  1.00  0.00     0.008 C 
ATOM     21  C   UNL     1      -3.844  28.465  47.309  1.00  0.00     0.007 C 
ATOM     22  C   UNL     1      -5.854  26.126  47.913  1.00  0.00     0.012 C 
ATOM     23  C   UNL     1      -4.072  24.182  46.173  1.00  0.00     0.012 C 
ATOM     24  C   UNL     1      -4.422  19.318  47.519  1.00  0.00     0.014 C 
ATOM     25  C   UNL     1      -2.840  19.306  49.448  1.00  0.00     0.014 C 
ATOM     26  C   UNL     1      -1.376  22.192  49.738  1.00  0.00     0.012 C 
ATOM     27  C   UNL     1      -5.512  29.035  49.214  1.00  0.00     0.011 C 
ENDROOT
BRANCH   1  28
ATOM     28  C   UNL     1      -1.976  28.073  51.908  1.00  0.00    -0.077 C 
ATOM     29  C   UNL     1      -2.188  27.569  53.315  1.00  0.00     0.039 C 
ATOM     30  C   UNL     1      -0.728  28.093  51.413  1.00  0.00     0.008 C 
ENDBRANCH   1  28
BRANCH  13  31
ATOM     31  O   UNL     1      -2.402  19.847  45.728  1.00  0.00    -0.393 OA
ATOM     32  H   UNL     1      -2.586  20.818  45.631  1.00  0.00     0.210 HD
ENDBRANCH  13  31
TORSDOF 2
ENDMDL
MODEL 9
REMARK VINA RESULT:    -7.002      3.282      6.125
REMARK INTER + INTRA:          -8.137
REMARK INTER:                  -7.535
REMARK INTRA:                  -0.602
REMARK UNBOUND:                -0.522
REMARK SMILES C=C(C)[C@H]1CC[C@@]2(C)CC[C@]3(C)[C@@H](CC[C@H]4[C@]5(C)CC[C@H](O)C(C)(C)[C@H]5CC[C@]43C)[C@H]12
REMARK SMILES IDX 4 1 5 2 6 3 7 4 31 5 13 6 14 7 15 8 16 9 17 10 19 11 20 12
REMARK SMILES IDX 21 13 23 14 26 15 27 16 28 17 29 18 11 19 10 20 9 21 12 22
REMARK SMILES IDX 30 23 24 24 25 25 18 26 8 27 2 28 3 29 1 30 22 31
REMARK H PARENT 22 32
REMARK Flexibility Score: inf
ROOT
ATOM      1  C   UNL     1      -3.874  30.628  49.783  1.00  0.00     0.018 C 
ATOM      2  C   UNL     1      -3.955  32.078  49.244  1.00  0.00     0.009 C 
ATOM      3  C   UNL     1      -4.537  31.982  47.826  1.00  0.00     0.008 C 
ATOM      4  C   UNL     1      -5.225  30.607  47.778  1.00  0.00    -0.029 C 
ATOM      5  C   UNL     1      -4.228  29.746  48.562  1.00  0.00     0.006 C 
ATOM      6  C   UNL     1      -4.717  28.262  48.774  1.00  0.00    -0.000 C 
ATOM      7  C   UNL     1      -3.542  27.392  49.268  1.00  0.00     0.005 C 
ATOM      8  C   UNL     1      -2.680  26.947  48.102  1.00  0.00     0.005 C 
ATOM      9  C   UNL     1      -3.384  25.827  47.282  1.00  0.00     0.002 C 
ATOM     10  C   UNL     1      -2.858  24.316  47.588  1.00  0.00    -0.026 C 
ATOM     11  C   UNL     1      -2.043  23.796  46.363  1.00  0.00     0.010 C 
ATOM     12  C   UNL     1      -1.624  22.317  46.490  1.00  0.00     0.033 C 
ATOM     13  C   UNL     1      -2.840  21.377  46.653  1.00  0.00     0.120 C 
ATOM     14  C   UNL     1      -3.768  21.773  47.856  1.00  0.00    -0.006 C 
ATOM     15  C   UNL     1      -4.064  23.330  47.773  1.00  0.00     0.003 C 
ATOM     16  C   UNL     1      -5.029  23.904  48.813  1.00  0.00     0.005 C 
ATOM     17  C   UNL     1      -5.739  25.166  48.282  1.00  0.00     0.008 C 
ATOM     18  C   UNL     1      -4.982  26.064  47.215  1.00  0.00    -0.024 C 
ATOM     19  C   UNL     1      -5.418  27.627  47.464  1.00  0.00    -0.024 C 
ATOM     20  C   UNL     1      -5.069  28.517  46.205  1.00  0.00     0.008 C 
ATOM     21  C   UNL     1      -5.360  30.043  46.333  1.00  0.00     0.007 C 
ATOM     22  C   UNL     1      -6.986  27.689  47.635  1.00  0.00     0.012 C 
ATOM     23  C   UNL     1      -5.468  25.643  45.767  1.00  0.00     0.012 C 
ATOM     24  C   UNL     1      -5.105  20.980  47.696  1.00  0.00     0.014 C 
ATOM     25  C   UNL     1      -3.146  21.308  49.207  1.00  0.00     0.014 C 
ATOM     26  C   UNL     1      -1.903  24.285  48.831  1.00  0.00     0.012 C 
ATOM     27  C   UNL     1      -6.617  30.756  48.489  1.00  0.00     0.011 C 
ENDROOT
BRANCH   1  28
ATOM     28  C   UNL     1      -2.511  30.352  50.404  1.00  0.00    -0.077 C 
ATOM     29  C   UNL     1      -2.381  29.854  51.823  1.00  0.00     0.039 C 
ATOM     30  C   UNL     1      -1.394  30.532  49.681  1.00  0.00     0.008 C 
ENDBRANCH   1  28
BRANCH  13  31
ATOM     31  O   UNL     1      -3.575  21.390  45.447  1.00  0.00    -0.393 OA
ATOM     32  H   UNL     1      -4.087  20.540  45.408  1.00  0.00     0.210 HD
ENDBRANCH  13  31
TORSDOF 2
ENDMDL
