MODEL 1
REMARK VINA RESULT:    -3.963      0.000      0.000
REMARK INTER + INTRA:          -5.739
REMARK INTER:                  -5.354
REMARK INTRA:                  -0.385
REMARK UNBOUND:                -0.385
REMARK SMILES [NH3+]CCCC[C@H]([NH3+])C(=O)[O-]
REMARK SMILES IDX 4 1 3 2 2 3 1 4 5 8 6 9 7 10 8 14 9 15 10 16
REMARK H PARENT 1 5 1 6 1 7 7 11 7 12 7 13
REMARK Flexibility Score: inf
ROOT
ATOM      1  C   UNL     1     155.796 151.613 164.032  1.00  0.00     0.012 C 
ENDROOT
BRANCH   1   2
ATOM      2  C   UNL     1     155.953 150.091 163.902  1.00  0.00     0.061 C 
BRANCH   2   3
ATOM      3  C   UNL     1     154.700 149.458 163.284  1.00  0.00     0.258 C 
BRANCH   3   4
ATOM      4  N   UNL     1     153.652 149.284 164.289  1.00  0.00    -0.358 N 
ATOM      5  H   UNL     1     153.479 148.263 164.431  1.00  0.00     0.344 HD
ATOM      6  H   UNL     1     152.765 149.735 163.966  1.00  0.00     0.344 HD
ATOM      7  H   UNL     1     153.952 149.707 165.199  1.00  0.00     0.344 HD
ENDBRANCH   3   4
ENDBRANCH   2   3
ENDBRANCH   1   2
BRANCH   1   8
ATOM      8  C   UNL     1     155.583 152.083 165.485  1.00  0.00     0.072 C 
BRANCH   8   9
ATOM      9  C   UNL     1     154.290 152.910 165.699  1.00  0.00     0.227 C 
BRANCH   9  10
ATOM     10  N   UNL     1     154.623 154.311 165.981  1.00  0.00    -0.350 N 
ATOM     11  H   UNL     1     153.846 154.760 166.520  1.00  0.00     0.345 HD
ATOM     12  H   UNL     1     154.740 154.837 165.085  1.00  0.00     0.345 HD
ATOM     13  H   UNL     1     155.508 154.374 166.535  1.00  0.00     0.345 HD
ENDBRANCH   9  10
BRANCH   9  14
ATOM     14  C   UNL     1     153.457 152.356 166.826  1.00  0.00     0.099 C 
ATOM     15  O   UNL     1     153.336 153.003 167.899  1.00  0.00    -0.544 OA
ATOM     16  O   UNL     1     152.853 151.109 166.706  1.00  0.00    -0.544 OA
ENDBRANCH   9  14
ENDBRANCH   8   9
ENDBRANCH   1   8
TORSDOF 7
ENDMDL
MODEL 2
REMARK VINA RESULT:    -3.899     14.794     15.659
REMARK INTER + INTRA:          -5.651
REMARK INTER:                  -5.156
REMARK INTRA:                  -0.495
REMARK UNBOUND:                -0.385
REMARK SMILES [NH3+]CCCC[C@H]([NH3+])C(=O)[O-]
REMARK SMILES IDX 4 1 3 2 2 3 1 4 5 8 6 9 7 10 8 14 9 15 10 16
REMARK H PARENT 1 5 1 6 1 7 7 11 7 12 7 13
REMARK Flexibility Score: inf
ROOT
ATOM      1  C   UNL     1     165.934 156.356 158.305  1.00  0.00     0.012 C 
ENDROOT
BRANCH   1   2
ATOM      2  C   UNL     1     166.889 155.940 157.177  1.00  0.00     0.061 C 
BRANCH   2   3
ATOM      3  C   UNL     1     167.705 157.139 156.676  1.00  0.00     0.258 C 
BRANCH   3   4
ATOM      4  N   UNL     1     167.170 157.645 155.412  1.00  0.00    -0.358 N 
ATOM      5  H   UNL     1     166.206 157.264 155.271  1.00  0.00     0.344 HD
ATOM      6  H   UNL     1     167.775 157.335 154.616  1.00  0.00     0.344 HD
ATOM      7  H   UNL     1     167.121 158.690 155.434  1.00  0.00     0.344 HD
ENDBRANCH   3   4
ENDBRANCH   2   3
ENDBRANCH   1   2
BRANCH   1   8
ATOM      8  C   UNL     1     166.207 157.775 158.844  1.00  0.00     0.072 C 
BRANCH   8   9
ATOM      9  C   UNL     1     165.024 158.759 158.665  1.00  0.00     0.227 C 
BRANCH   9  10
ATOM     10  N   UNL     1     163.974 158.149 157.842  1.00  0.00    -0.350 N 
ATOM     11  H   UNL     1     163.351 158.893 157.450  1.00  0.00     0.345 HD
ATOM     12  H   UNL     1     163.386 157.512 158.427  1.00  0.00     0.345 HD
ATOM     13  H   UNL     1     164.394 157.603 157.055  1.00  0.00     0.345 HD
ENDBRANCH   9  10
BRANCH   9  14
ATOM     14  C   UNL     1     165.469 160.052 158.033  1.00  0.00     0.099 C 
ATOM     15  O   UNL     1     165.877 160.065 156.842  1.00  0.00    -0.544 OA
ATOM     16  O   UNL     1     165.473 161.230 158.771  1.00  0.00    -0.544 OA
ENDBRANCH   9  14
ENDBRANCH   8   9
ENDBRANCH   1   8
TORSDOF 7
ENDMDL
MODEL 3
REMARK VINA RESULT:    -3.888     14.766     15.680
REMARK INTER + INTRA:          -5.637
REMARK INTER:                  -5.219
REMARK INTRA:                  -0.418
REMARK UNBOUND:                -0.385
REMARK SMILES [NH3+]CCCC[C@H]([NH3+])C(=O)[O-]
REMARK SMILES IDX 4 1 3 2 2 3 1 4 5 8 6 9 7 10 8 14 9 15 10 16
REMARK H PARENT 1 5 1 6 1 7 7 11 7 12 7 13
REMARK Flexibility Score: inf
ROOT
ATOM      1  C   UNL     1     165.879 158.652 156.919  1.00  0.00     0.012 C 
ENDROOT
BRANCH   1   2
ATOM      2  C   UNL     1     167.011 159.175 157.815  1.00  0.00     0.061 C 
BRANCH   2   3
ATOM      3  C   UNL     1     167.790 158.017 158.452  1.00  0.00     0.258 C 
BRANCH   3   4
ATOM      4  N   UNL     1     167.010 157.386 159.517  1.00  0.00    -0.358 N 
ATOM      5  H   UNL     1     166.611 156.487 159.162  1.00  0.00     0.344 HD
ATOM      6  H   UNL     1     166.225 158.013 159.807  1.00  0.00     0.344 HD
ATOM      7  H   UNL     1     167.624 157.183 160.340  1.00  0.00     0.344 HD
ENDBRANCH   3   4
ENDBRANCH   2   3
ENDBRANCH   1   2
BRANCH   1   8
ATOM      8  C   UNL     1     166.266 157.390 156.123  1.00  0.00     0.072 C 
BRANCH   8   9
ATOM      9  C   UNL     1     165.259 156.221 156.260  1.00  0.00     0.227 C 
BRANCH   9  10
ATOM     10  N   UNL     1     164.262 156.526 157.293  1.00  0.00    -0.350 N 
ATOM     11  H   UNL     1     163.753 155.653 157.566  1.00  0.00     0.345 HD
ATOM     12  H   UNL     1     163.560 157.206 156.922  1.00  0.00     0.345 HD
ATOM     13  H   UNL     1     164.722 156.934 158.139  1.00  0.00     0.345 HD
ENDBRANCH   9  10
BRANCH   9  14
ATOM     14  C   UNL     1     165.952 154.927 156.599  1.00  0.00     0.099 C 
ATOM     15  O   UNL     1     165.501 153.836 156.160  1.00  0.00    -0.544 OA
ATOM     16  O   UNL     1     167.066 154.923 157.430  1.00  0.00    -0.544 OA
ENDBRANCH   9  14
ENDBRANCH   8   9
ENDBRANCH   1   8
TORSDOF 7
ENDMDL
MODEL 4
REMARK VINA RESULT:    -3.886     15.209     16.282
REMARK INTER + INTRA:          -5.634
REMARK INTER:                  -5.085
REMARK INTRA:                  -0.549
REMARK UNBOUND:                -0.385
REMARK SMILES [NH3+]CCCC[C@H]([NH3+])C(=O)[O-]
REMARK SMILES IDX 4 1 3 2 2 3 1 4 5 8 6 9 7 10 8 14 9 15 10 16
REMARK H PARENT 1 5 1 6 1 7 7 11 7 12 7 13
REMARK Flexibility Score: inf
ROOT
ATOM      1  C   UNL     1     167.063 159.049 155.905  1.00  0.00     0.012 C 
ENDROOT
BRANCH   1   2
ATOM      2  C   UNL     1     167.346 159.709 157.263  1.00  0.00     0.061 C 
BRANCH   2   3
ATOM      3  C   UNL     1     166.042 160.136 157.950  1.00  0.00     0.258 C 
BRANCH   3   4
ATOM      4  N   UNL     1     165.834 159.386 159.189  1.00  0.00    -0.358 N 
ATOM      5  H   UNL     1     166.231 159.930 159.989  1.00  0.00     0.344 HD
ATOM      6  H   UNL     1     166.320 158.461 159.135  1.00  0.00     0.344 HD
ATOM      7  H   UNL     1     164.811 159.239 159.353  1.00  0.00     0.344 HD
ENDBRANCH   3   4
ENDBRANCH   2   3
ENDBRANCH   1   2
BRANCH   1   8
ATOM      8  C   UNL     1     167.573 157.597 155.815  1.00  0.00     0.072 C 
BRANCH   8   9
ATOM      9  C   UNL     1     166.513 156.530 156.187  1.00  0.00     0.227 C 
BRANCH   9  10
ATOM     10  N   UNL     1     165.164 157.103 156.111  1.00  0.00    -0.350 N 
ATOM     11  H   UNL     1     164.579 156.742 156.900  1.00  0.00     0.345 HD
ATOM     12  H   UNL     1     164.707 156.820 155.214  1.00  0.00     0.345 HD
ATOM     13  H   UNL     1     165.205 158.147 156.162  1.00  0.00     0.345 HD
ENDBRANCH   9  10
BRANCH   9  14
ATOM     14  C   UNL     1     166.745 155.976 157.568  1.00  0.00     0.099 C 
ATOM     15  O   UNL     1     167.605 155.073 157.750  1.00  0.00    -0.544 OA
ATOM     16  O   UNL     1     165.984 156.422 158.643  1.00  0.00    -0.544 OA
ENDBRANCH   9  14
ENDBRANCH   8   9
ENDBRANCH   1   8
TORSDOF 7
ENDMDL
MODEL 5
REMARK VINA RESULT:    -3.882     15.782     16.759
REMARK INTER + INTRA:          -5.629
REMARK INTER:                  -5.523
REMARK INTRA:                  -0.106
REMARK UNBOUND:                -0.385
REMARK SMILES [NH3+]CCCC[C@H]([NH3+])C(=O)[O-]
REMARK SMILES IDX 4 1 3 2 2 3 1 4 5 8 6 9 7 10 8 14 9 15 10 16
REMARK H PARENT 1 5 1 6 1 7 7 11 7 12 7 13
REMARK Flexibility Score: inf
ROOT
ATOM      1  C   UNL     1     166.665 158.174 156.134  1.00  0.00     0.012 C 
ENDROOT
BRANCH   1   2
ATOM      2  C   UNL     1     167.900 158.702 155.389  1.00  0.00     0.061 C 
BRANCH   2   3
ATOM      3  C   UNL     1     167.817 160.222 155.194  1.00  0.00     0.258 C 
BRANCH   3   4
ATOM      4  N   UNL     1     168.125 160.589 153.812  1.00  0.00    -0.358 N 
ATOM      5  H   UNL     1     167.276 161.014 153.373  1.00  0.00     0.344 HD
ATOM      6  H   UNL     1     168.397 159.739 153.266  1.00  0.00     0.344 HD
ATOM      7  H   UNL     1     168.904 161.288 153.790  1.00  0.00     0.344 HD
ENDBRANCH   3   4
ENDBRANCH   2   3
ENDBRANCH   1   2
BRANCH   1   8
ATOM      8  C   UNL     1     166.699 156.651 156.367  1.00  0.00     0.072 C 
BRANCH   8   9
ATOM      9  C   UNL     1     166.193 156.213 157.764  1.00  0.00     0.227 C 
BRANCH   9  10
ATOM     10  N   UNL     1     165.389 157.279 158.373  1.00  0.00    -0.350 N 
ATOM     11  H   UNL     1     164.773 157.718 157.649  1.00  0.00     0.345 HD
ATOM     12  H   UNL     1     166.016 158.022 158.758  1.00  0.00     0.345 HD
ATOM     13  H   UNL     1     164.795 156.897 159.144  1.00  0.00     0.345 HD
ENDBRANCH   9  10
BRANCH   9  14
ATOM     14  C   UNL     1     167.333 155.858 158.682  1.00  0.00     0.099 C 
ATOM     15  O   UNL     1     167.711 156.674 159.564  1.00  0.00    -0.544 OA
ATOM     16  O   UNL     1     168.004 154.649 158.536  1.00  0.00    -0.544 OA
ENDBRANCH   9  14
ENDBRANCH   8   9
ENDBRANCH   1   8
TORSDOF 7
ENDMDL
MODEL 6
REMARK VINA RESULT:    -3.862     15.273     16.050
REMARK INTER + INTRA:          -5.602
REMARK INTER:                  -5.010
REMARK INTRA:                  -0.591
REMARK UNBOUND:                -0.385
REMARK SMILES [NH3+]CCCC[C@H]([NH3+])C(=O)[O-]
REMARK SMILES IDX 4 1 3 2 2 3 1 4 5 8 6 9 7 10 8 14 9 15 10 16
REMARK H PARENT 1 5 1 6 1 7 7 11 7 12 7 13
REMARK Flexibility Score: inf
ROOT
ATOM      1  C   UNL     1     166.857 155.231 158.215  1.00  0.00     0.012 C 
ENDROOT
BRANCH   1   2
ATOM      2  C   UNL     1     165.917 154.856 157.060  1.00  0.00     0.061 C 
BRANCH   2   3
ATOM      3  C   UNL     1     164.894 155.970 156.798  1.00  0.00     0.258 C 
BRANCH   3   4
ATOM      4  N   UNL     1     165.094 156.564 155.477  1.00  0.00    -0.358 N 
ATOM      5  H   UNL     1     164.493 157.416 155.390  1.00  0.00     0.344 HD
ATOM      6  H   UNL     1     164.824 155.882 154.731  1.00  0.00     0.344 HD
ATOM      7  H   UNL     1     166.096 156.843 155.356  1.00  0.00     0.344 HD
ENDBRANCH   3   4
ENDBRANCH   2   3
ENDBRANCH   1   2
BRANCH   1   8
ATOM      8  C   UNL     1     168.061 156.084 157.768  1.00  0.00     0.072 C 
BRANCH   8   9
ATOM      9  C   UNL     1     168.023 157.547 158.275  1.00  0.00     0.227 C 
BRANCH   9  10
ATOM     10  N   UNL     1     167.043 157.685 159.360  1.00  0.00    -0.350 N 
ATOM     11  H   UNL     1     167.402 157.220 160.225  1.00  0.00     0.345 HD
ATOM     12  H   UNL     1     166.146 157.221 159.091  1.00  0.00     0.345 HD
ATOM     13  H   UNL     1     166.861 158.695 159.563  1.00  0.00     0.345 HD
ENDBRANCH   9  10
BRANCH   9  14
ATOM     14  C   UNL     1     167.684 158.510 157.168  1.00  0.00     0.099 C 
ATOM     15  O   UNL     1     167.639 158.109 155.974  1.00  0.00    -0.544 OA
ATOM     16  O   UNL     1     167.462 159.854 157.447  1.00  0.00    -0.544 OA
ENDBRANCH   9  14
ENDBRANCH   8   9
ENDBRANCH   1   8
TORSDOF 7
ENDMDL
MODEL 7
REMARK VINA RESULT:    -3.845     12.379     13.831
REMARK INTER + INTRA:          -5.579
REMARK INTER:                  -5.383
REMARK INTRA:                  -0.195
REMARK UNBOUND:                -0.385
REMARK SMILES [NH3+]CCCC[C@H]([NH3+])C(=O)[O-]
REMARK SMILES IDX 4 1 3 2 2 3 1 4 5 8 6 9 7 10 8 14 9 15 10 16
REMARK H PARENT 1 5 1 6 1 7 7 11 7 12 7 13
REMARK Flexibility Score: inf
ROOT
ATOM      1  C   UNL     1     160.130 164.909 163.886  1.00  0.00     0.012 C 
ENDROOT
BRANCH   1   2
ATOM      2  C   UNL     1     159.897 165.488 162.482  1.00  0.00     0.061 C 
BRANCH   2   3
ATOM      3  C   UNL     1     158.896 166.650 162.525  1.00  0.00     0.258 C 
BRANCH   3   4
ATOM      4  N   UNL     1     157.618 166.218 163.090  1.00  0.00    -0.358 N 
ATOM      5  H   UNL     1     157.397 166.805 163.927  1.00  0.00     0.344 HD
ATOM      6  H   UNL     1     157.676 165.216 163.386  1.00  0.00     0.344 HD
ATOM      7  H   UNL     1     156.854 166.335 162.384  1.00  0.00     0.344 HD
ENDBRANCH   3   4
ENDBRANCH   2   3
ENDBRANCH   1   2
BRANCH   1   8
ATOM      8  C   UNL     1     159.862 163.394 163.972  1.00  0.00     0.072 C 
BRANCH   8   9
ATOM      9  C   UNL     1     159.060 162.964 165.226  1.00  0.00     0.227 C 
BRANCH   9  10
ATOM     10  N   UNL     1     158.336 164.111 165.786  1.00  0.00    -0.350 N 
ATOM     11  H   UNL     1     157.903 163.846 166.701  1.00  0.00     0.345 HD
ATOM     12  H   UNL     1     157.569 164.401 165.137  1.00  0.00     0.345 HD
ATOM     13  H   UNL     1     158.985 164.918 165.934  1.00  0.00     0.345 HD
ENDBRANCH   9  10
BRANCH   9  14
ATOM     14  C   UNL     1     159.955 162.371 166.282  1.00  0.00     0.099 C 
ATOM     15  O   UNL     1     159.627 161.300 166.858  1.00  0.00    -0.544 OA
ATOM     16  O   UNL     1     161.124 163.021 166.659  1.00  0.00    -0.544 OA
ENDBRANCH   9  14
ENDBRANCH   8   9
ENDBRANCH   1   8
TORSDOF 7
ENDMDL
MODEL 8
REMARK VINA RESULT:    -3.822     14.609     15.455
REMARK INTER + INTRA:          -5.548
REMARK INTER:                  -5.384
REMARK INTRA:                  -0.164
REMARK UNBOUND:                -0.385
REMARK SMILES [NH3+]CCCC[C@H]([NH3+])C(=O)[O-]
REMARK SMILES IDX 4 1 3 2 2 3 1 4 5 8 6 9 7 10 8 14 9 15 10 16
REMARK H PARENT 1 5 1 6 1 7 7 11 7 12 7 13
REMARK Flexibility Score: inf
ROOT
ATOM      1  C   UNL     1     166.176 159.580 156.978  1.00  0.00     0.012 C 
ENDROOT
BRANCH   1   2
ATOM      2  C   UNL     1     167.579 159.510 156.357  1.00  0.00     0.061 C 
BRANCH   2   3
ATOM      3  C   UNL     1     167.679 158.353 155.353  1.00  0.00     0.258 C 
BRANCH   3   4
ATOM      4  N   UNL     1     166.769 157.267 155.714  1.00  0.00    -0.358 N 
ATOM      5  H   UNL     1     165.783 157.599 155.618  1.00  0.00     0.344 HD
ATOM      6  H   UNL     1     166.933 156.975 156.705  1.00  0.00     0.344 HD
ATOM      7  H   UNL     1     166.915 156.449 155.076  1.00  0.00     0.344 HD
ENDBRANCH   3   4
ENDBRANCH   2   3
ENDBRANCH   1   2
BRANCH   1   8
ATOM      8  C   UNL     1     166.177 159.394 158.508  1.00  0.00     0.072 C 
BRANCH   8   9
ATOM      9  C   UNL     1     164.841 158.857 159.080  1.00  0.00     0.227 C 
BRANCH   9  10
ATOM     10  N   UNL     1     163.958 158.421 157.992  1.00  0.00    -0.350 N 
ATOM     11  H   UNL     1     163.000 158.228 158.366  1.00  0.00     0.345 HD
ATOM     12  H   UNL     1     164.324 157.539 157.568  1.00  0.00     0.345 HD
ATOM     13  H   UNL     1     163.896 159.159 157.253  1.00  0.00     0.345 HD
ENDBRANCH   9  10
BRANCH   9  14
ATOM     14  C   UNL     1     164.136 159.896 159.913  1.00  0.00     0.099 C 
ATOM     15  O   UNL     1     163.567 159.564 160.986  1.00  0.00    -0.544 OA
ATOM     16  O   UNL     1     164.072 161.216 159.484  1.00  0.00    -0.544 OA
ENDBRANCH   9  14
ENDBRANCH   8   9
ENDBRANCH   1   8
TORSDOF 7
ENDMDL
MODEL 9
REMARK VINA RESULT:    -3.779     15.371     16.281
REMARK INTER + INTRA:          -5.489
REMARK INTER:                  -4.923
REMARK INTRA:                  -0.566
REMARK UNBOUND:                -0.385
REMARK SMILES [NH3+]CCCC[C@H]([NH3+])C(=O)[O-]
REMARK SMILES IDX 4 1 3 2 2 3 1 4 5 8 6 9 7 10 8 14 9 15 10 16
REMARK H PARENT 1 5 1 6 1 7 7 11 7 12 7 13
REMARK Flexibility Score: inf
ROOT
ATOM      1  C   UNL     1     166.052 155.820 156.619  1.00  0.00     0.012 C 
ENDROOT
BRANCH   1   2
ATOM      2  C   UNL     1     166.295 155.244 158.022  1.00  0.00     0.061 C 
BRANCH   2   3
ATOM      3  C   UNL     1     167.745 155.474 158.468  1.00  0.00     0.258 C 
BRANCH   3   4
ATOM      4  N   UNL     1     167.795 156.278 159.689  1.00  0.00    -0.358 N 
ATOM      5  H   UNL     1     167.744 157.291 159.435  1.00  0.00     0.344 HD
ATOM      6  H   UNL     1     168.692 156.102 160.199  1.00  0.00     0.344 HD
ATOM      7  H   UNL     1     166.984 156.043 160.308  1.00  0.00     0.344 HD
ENDBRANCH   3   4
ENDBRANCH   2   3
ENDBRANCH   1   2
BRANCH   1   8
ATOM      8  C   UNL     1     165.517 157.266 156.639  1.00  0.00     0.072 C 
BRANCH   8   9
ATOM      9  C   UNL     1     166.512 158.316 156.085  1.00  0.00     0.227 C 
BRANCH   9  10
ATOM     10  N   UNL     1     167.611 157.653 155.375  1.00  0.00    -0.350 N 
ATOM     11  H   UNL     1     168.355 157.370 156.055  1.00  0.00     0.345 HD
ATOM     12  H   UNL     1     168.039 158.311 154.684  1.00  0.00     0.345 HD
ATOM     13  H   UNL     1     167.264 156.804 154.873  1.00  0.00     0.345 HD
ENDBRANCH   9  10
BRANCH   9  14
ATOM     14  C   UNL     1     167.073 159.182 157.183  1.00  0.00     0.099 C 
ATOM     15  O   UNL     1     166.897 158.866 158.389  1.00  0.00    -0.544 OA
ATOM     16  O   UNL     1     167.750 160.357 156.875  1.00  0.00    -0.544 OA
ENDBRANCH   9  14
ENDBRANCH   8   9
ENDBRANCH   1   8
TORSDOF 7
ENDMDL
