MODEL 1
REMARK VINA RESULT:    -4.097      0.000      0.000
REMARK INTER + INTRA:          -4.456
REMARK INTER:                  -4.456
REMARK INTRA:                   0.000
REMARK UNBOUND:                 0.000
REMARK SMILES Cc1cc(O)c2c(c1)C(=O)c1cc(O)cc(O)c1C2=O
REMARK SMILES IDX 1 1 2 2 8 3 7 4 6 5 4 6 3 7 19 8 20 9 18 10 11 11 9 12 10 13
REMARK SMILES IDX 12 14 13 15 15 16 16 17 5 18 17 20 14 22
REMARK H PARENT 5 19 17 21 14 23
REMARK Flexibility Score: inf
ROOT
ATOM      1  C   UNL     1       8.751   8.655  23.125  1.00  0.00     0.044 C 
ATOM      2  C   UNL     1       8.741  10.130  22.855  1.00  0.00    -0.047 A 
ATOM      3  C   UNL     1       7.542  10.849  22.917  1.00  0.00     0.016 A 
ATOM      4  C   UNL     1       7.518  12.226  22.639  1.00  0.00     0.038 A 
ATOM      5  C   UNL     1       8.712  12.895  22.293  1.00  0.00     0.076 A 
ATOM      6  C   UNL     1       9.909  12.145  22.150  1.00  0.00     0.127 A 
ATOM      7  C   UNL     1       9.912  10.779  22.452  1.00  0.00     0.050 A 
ATOM      8  C   UNL     1       8.675  14.373  22.152  1.00  0.00     0.201 C 
ATOM      9  O   UNL     1       9.702  15.055  22.414  1.00  0.00    -0.288 OA
ATOM     10  C   UNL     1       7.383  15.057  21.885  1.00  0.00     0.076 A 
ATOM     11  C   UNL     1       6.189  14.383  22.229  1.00  0.00     0.041 A 
ATOM     12  C   UNL     1       6.242  12.979  22.699  1.00  0.00     0.194 C 
ATOM     13  O   UNL     1       5.196  12.415  23.125  1.00  0.00    -0.289 OA
ATOM     14  C   UNL     1       4.956  15.048  22.121  1.00  0.00     0.059 A 
ATOM     15  C   UNL     1       4.897  16.363  21.661  1.00  0.00     0.120 A 
ATOM     16  C   UNL     1       6.070  17.019  21.281  1.00  0.00     0.093 A 
ATOM     17  C   UNL     1       7.308  16.373  21.360  1.00  0.00     0.131 A 
ENDROOT
BRANCH   6  18
ATOM     18  O   UNL     1      11.099  12.704  21.679  1.00  0.00    -0.507 OA
ATOM     19  H   UNL     1      11.776  13.158  22.276  1.00  0.00     0.293 HD
ENDBRANCH   6  18
BRANCH  17  20
ATOM     20  O   UNL     1       8.425  17.059  20.877  1.00  0.00    -0.507 OA
ATOM     21  H   UNL     1       9.096  17.524  21.473  1.00  0.00     0.293 HD
ENDBRANCH  17  20
BRANCH  15  22
ATOM     22  O   UNL     1       3.664  17.006  21.574  1.00  0.00    -0.508 OA
ATOM     23  H   UNL     1       3.029  16.834  20.804  1.00  0.00     0.293 HD
ENDBRANCH  15  22
TORSDOF 3
ENDMDL
MODEL 2
REMARK VINA RESULT:    -3.822      1.684      6.025
REMARK INTER + INTRA:          -4.158
REMARK INTER:                  -4.158
REMARK INTRA:                   0.000
REMARK UNBOUND:                 0.000
REMARK SMILES Cc1cc(O)c2c(c1)C(=O)c1cc(O)cc(O)c1C2=O
REMARK SMILES IDX 1 1 2 2 8 3 7 4 6 5 4 6 3 7 19 8 20 9 18 10 11 11 9 12 10 13
REMARK SMILES IDX 12 14 13 15 15 16 16 17 5 18 17 20 14 22
REMARK H PARENT 5 19 17 21 14 23
REMARK Flexibility Score: inf
ROOT
ATOM      1  C   UNL     1       9.879  18.414  20.329  1.00  0.00     0.044 C 
ATOM      2  C   UNL     1       9.060  17.280  20.872  1.00  0.00    -0.047 A 
ATOM      3  C   UNL     1       9.678  16.080  21.240  1.00  0.00     0.016 A 
ATOM      4  C   UNL     1       8.916  15.002  21.723  1.00  0.00     0.038 A 
ATOM      5  C   UNL     1       7.515  15.127  21.840  1.00  0.00     0.076 A 
ATOM      6  C   UNL     1       6.886  16.316  21.386  1.00  0.00     0.127 A 
ATOM      7  C   UNL     1       7.667  17.383  20.928  1.00  0.00     0.050 A 
ATOM      8  C   UNL     1       6.762  14.025  22.492  1.00  0.00     0.201 C 
ATOM      9  O   UNL     1       5.701  14.278  23.125  1.00  0.00    -0.288 OA
ATOM     10  C   UNL     1       7.355  12.665  22.558  1.00  0.00     0.076 A 
ATOM     11  C   UNL     1       8.758  12.542  22.437  1.00  0.00     0.041 A 
ATOM     12  C   UNL     1       9.577  13.730  22.104  1.00  0.00     0.194 C 
ATOM     13  O   UNL     1      10.837  13.654  22.118  1.00  0.00    -0.289 OA
ATOM     14  C   UNL     1       9.369  11.291  22.630  1.00  0.00     0.059 A 
ATOM     15  C   UNL     1       8.602  10.165  22.924  1.00  0.00     0.120 A 
ATOM     16  C   UNL     1       7.211  10.273  23.005  1.00  0.00     0.093 A 
ATOM     17  C   UNL     1       6.577  11.502  22.797  1.00  0.00     0.131 A 
ENDROOT
BRANCH   6  18
ATOM     18  O   UNL     1       5.498  16.467  21.339  1.00  0.00    -0.507 OA
ATOM     19  H   UNL     1       4.943  16.261  20.520  1.00  0.00     0.293 HD
ENDBRANCH   6  18
BRANCH  17  20
ATOM     20  O   UNL     1       5.180  11.515  22.802  1.00  0.00    -0.507 OA
ATOM     21  H   UNL     1       4.613  10.681  22.740  1.00  0.00     0.293 HD
ENDBRANCH  17  20
BRANCH  15  22
ATOM     22  O   UNL     1       9.231   8.938  23.125  1.00  0.00    -0.508 OA
ATOM     23  H   UNL     1       8.703   8.076  23.192  1.00  0.00     0.293 HD
ENDBRANCH  15  22
TORSDOF 3
ENDMDL
MODEL 3
REMARK VINA RESULT:    -3.623      4.207      7.188
REMARK INTER + INTRA:          -3.940
REMARK INTER:                  -3.940
REMARK INTRA:                   0.000
REMARK UNBOUND:                 0.000
REMARK SMILES Cc1cc(O)c2c(c1)C(=O)c1cc(O)cc(O)c1C2=O
REMARK SMILES IDX 1 1 2 2 8 3 7 4 6 5 4 6 3 7 19 8 20 9 18 10 11 11 9 12 10 13
REMARK SMILES IDX 12 14 13 15 15 16 16 17 5 18 17 20 14 22
REMARK H PARENT 5 19 17 21 14 23
REMARK Flexibility Score: inf
ROOT
ATOM      1  C   UNL     1      10.897  16.553  20.503  1.00  0.00     0.044 C 
ATOM      2  C   UNL     1      10.811  15.107  20.116  1.00  0.00    -0.047 A 
ATOM      3  C   UNL     1      10.708  14.119  21.102  1.00  0.00     0.016 A 
ATOM      4  C   UNL     1      10.656  12.760  20.751  1.00  0.00     0.038 A 
ATOM      5  C   UNL     1      10.707  12.382  19.391  1.00  0.00     0.076 A 
ATOM      6  C   UNL     1      10.896  13.382  18.402  1.00  0.00     0.127 A 
ATOM      7  C   UNL     1      10.925  14.730  18.774  1.00  0.00     0.050 A 
ATOM      8  C   UNL     1      10.499  10.951  19.051  1.00  0.00     0.201 C 
ATOM      9  O   UNL     1       9.977  10.638  17.947  1.00  0.00    -0.288 OA
ATOM     10  C   UNL     1      10.732   9.906  20.081  1.00  0.00     0.076 A 
ATOM     11  C   UNL     1      10.683  10.288  21.441  1.00  0.00     0.041 A 
ATOM     12  C   UNL     1      10.554  11.719  21.802  1.00  0.00     0.194 C 
ATOM     13  O   UNL     1      10.385  12.054  23.007  1.00  0.00    -0.289 OA
ATOM     14  C   UNL     1      10.761   9.307  22.445  1.00  0.00     0.059 A 
ATOM     15  C   UNL     1      10.902   7.961  22.113  1.00  0.00     0.120 A 
ATOM     16  C   UNL     1      10.991   7.582  20.771  1.00  0.00     0.093 A 
ATOM     17  C   UNL     1      10.937   8.541  19.753  1.00  0.00     0.131 A 
ENDROOT
BRANCH   6  18
ATOM     18  O   UNL     1      11.095  13.081  17.052  1.00  0.00    -0.507 OA
ATOM     19  H   UNL     1      10.344  12.850  16.416  1.00  0.00     0.293 HD
ENDBRANCH   6  18
BRANCH  17  20
ATOM     20  O   UNL     1      11.125   8.098  18.441  1.00  0.00    -0.507 OA
ATOM     21  H   UNL     1      11.955   7.615  18.128  1.00  0.00     0.293 HD
ENDBRANCH  17  20
BRANCH  15  22
ATOM     22  O   UNL     1      10.964   7.006  23.125  1.00  0.00    -0.508 OA
ATOM     23  H   UNL     1      11.573   6.199  23.056  1.00  0.00     0.293 HD
ENDBRANCH  15  22
TORSDOF 3
ENDMDL
MODEL 4
REMARK VINA RESULT:    -3.313      1.453      5.499
REMARK INTER + INTRA:          -3.603
REMARK INTER:                  -3.603
REMARK INTRA:                   0.000
REMARK UNBOUND:                 0.000
REMARK SMILES Cc1cc(O)c2c(c1)C(=O)c1cc(O)cc(O)c1C2=O
REMARK SMILES IDX 1 1 2 2 8 3 7 4 6 5 4 6 3 7 19 8 20 9 18 10 11 11 9 12 10 13
REMARK SMILES IDX 12 14 13 15 15 16 16 17 5 18 17 20 14 22
REMARK H PARENT 5 19 17 21 14 23
REMARK Flexibility Score: inf
ROOT
ATOM      1  C   UNL     1       3.178  16.057  23.124  1.00  0.00     0.044 C 
ATOM      2  C   UNL     1       4.517  15.490  22.753  1.00  0.00    -0.047 A 
ATOM      3  C   UNL     1       4.770  14.123  22.909  1.00  0.00     0.016 A 
ATOM      4  C   UNL     1       6.029  13.587  22.591  1.00  0.00     0.038 A 
ATOM      5  C   UNL     1       7.052  14.434  22.110  1.00  0.00     0.076 A 
ATOM      6  C   UNL     1       6.816  15.831  22.035  1.00  0.00     0.127 A 
ATOM      7  C   UNL     1       5.548  16.338  22.337  1.00  0.00     0.050 A 
ATOM      8  C   UNL     1       8.318  13.812  21.644  1.00  0.00     0.201 C 
ATOM      9  O   UNL     1       8.990  14.362  20.730  1.00  0.00    -0.288 OA
ATOM     10  C   UNL     1       8.693  12.455  22.120  1.00  0.00     0.076 A 
ATOM     11  C   UNL     1       7.667  11.611  22.604  1.00  0.00     0.041 A 
ATOM     12  C   UNL     1       6.292  12.139  22.765  1.00  0.00     0.194 C 
ATOM     13  O   UNL     1       5.349  11.359  23.077  1.00  0.00    -0.289 OA
ATOM     14  C   UNL     1       7.958  10.276  22.934  1.00  0.00     0.059 A 
ATOM     15  C   UNL     1       9.253   9.779  22.804  1.00  0.00     0.120 A 
ATOM     16  C   UNL     1      10.279  10.620  22.364  1.00  0.00     0.093 A 
ATOM     17  C   UNL     1      10.020  11.958  22.049  1.00  0.00     0.131 A 
ENDROOT
BRANCH   6  18
ATOM     18  O   UNL     1       7.815  16.749  21.702  1.00  0.00    -0.507 OA
ATOM     19  H   UNL     1       7.962  17.098  20.764  1.00  0.00     0.293 HD
ENDBRANCH   6  18
BRANCH  17  20
ATOM     20  O   UNL     1      11.110  12.762  21.705  1.00  0.00    -0.507 OA
ATOM     21  H   UNL     1      11.020  13.684  21.301  1.00  0.00     0.293 HD
ENDBRANCH  17  20
BRANCH  15  22
ATOM     22  O   UNL     1       9.515   8.449  23.124  1.00  0.00    -0.508 OA
ATOM     23  H   UNL     1      10.046   8.197  23.950  1.00  0.00     0.293 HD
ENDBRANCH  15  22
TORSDOF 3
ENDMDL
MODEL 5
REMARK VINA RESULT:    -2.322     10.671     14.880
REMARK INTER + INTRA:          -2.525
REMARK INTER:                  -2.525
REMARK INTRA:                   0.000
REMARK UNBOUND:                 0.000
REMARK SMILES Cc1cc(O)c2c(c1)C(=O)c1cc(O)cc(O)c1C2=O
REMARK SMILES IDX 1 1 2 2 8 3 7 4 6 5 4 6 3 7 19 8 20 9 18 10 11 11 9 12 10 13
REMARK SMILES IDX 12 14 13 15 15 16 16 17 5 18 17 20 14 22
REMARK H PARENT 5 19 17 21 14 23
REMARK Flexibility Score: inf
ROOT
ATOM      1  C   UNL     1      -8.890  21.489  23.121  1.00  0.00     0.044 C 
ATOM      2  C   UNL     1      -8.195  20.191  22.840  1.00  0.00    -0.047 A 
ATOM      3  C   UNL     1      -6.799  20.111  22.907  1.00  0.00     0.016 A 
ATOM      4  C   UNL     1      -6.136  18.906  22.618  1.00  0.00     0.038 A 
ATOM      5  C   UNL     1      -6.881  17.763  22.256  1.00  0.00     0.076 A 
ATOM      6  C   UNL     1      -8.288  17.873  22.107  1.00  0.00     0.127 A 
ATOM      7  C   UNL     1      -8.928  19.076  22.420  1.00  0.00     0.050 A 
ATOM      8  C   UNL     1      -6.160  16.473  22.103  1.00  0.00     0.201 C 
ATOM      9  O   UNL     1      -6.754  15.389  22.351  1.00  0.00    -0.288 OA
ATOM     10  C   UNL     1      -4.697  16.472  21.844  1.00  0.00     0.076 A 
ATOM     11  C   UNL     1      -3.955  17.619  22.204  1.00  0.00     0.041 A 
ATOM     12  C   UNL     1      -4.657  18.832  22.685  1.00  0.00     0.194 C 
ATOM     13  O   UNL     1      -3.995  19.812  23.125  1.00  0.00    -0.289 OA
ATOM     14  C   UNL     1      -2.553  17.604  22.102  1.00  0.00     0.059 A 
ATOM     15  C   UNL     1      -1.888  16.473  21.633  1.00  0.00     0.120 A 
ATOM     16  C   UNL     1      -2.620  15.351  21.236  1.00  0.00     0.093 A 
ATOM     17  C   UNL     1      -4.016  15.347  21.309  1.00  0.00     0.131 A 
ENDROOT
BRANCH   6  18
ATOM     18  O   UNL     1      -9.080  16.830  21.621  1.00  0.00    -0.507 OA
ATOM     19  H   UNL     1      -9.299  16.705  20.642  1.00  0.00     0.293 HD
ENDBRANCH   6  18
BRANCH  17  20
ATOM     20  O   UNL     1      -4.685  14.226  20.810  1.00  0.00    -0.507 OA
ATOM     21  H   UNL     1      -5.553  13.877  21.191  1.00  0.00     0.293 HD
ENDBRANCH  17  20
BRANCH  15  22
ATOM     22  O   UNL     1      -0.497  16.477  21.553  1.00  0.00    -0.508 OA
ATOM     23  H   UNL     1      -0.007  15.986  20.815  1.00  0.00     0.293 HD
ENDBRANCH  15  22
TORSDOF 3
ENDMDL
MODEL 6
REMARK VINA RESULT:    -2.204     12.396     14.877
REMARK INTER + INTRA:          -2.397
REMARK INTER:                  -2.397
REMARK INTRA:                   0.000
REMARK UNBOUND:                 0.000
REMARK SMILES Cc1cc(O)c2c(c1)C(=O)c1cc(O)cc(O)c1C2=O
REMARK SMILES IDX 1 1 2 2 8 3 7 4 6 5 4 6 3 7 19 8 20 9 18 10 11 11 9 12 10 13
REMARK SMILES IDX 12 14 13 15 15 16 16 17 5 18 17 20 14 22
REMARK H PARENT 5 19 17 21 14 23
REMARK Flexibility Score: inf
ROOT
ATOM      1  C   UNL     1      -6.283  14.064  21.724  1.00  0.00     0.044 C 
ATOM      2  C   UNL     1      -5.924  15.502  21.951  1.00  0.00    -0.047 A 
ATOM      3  C   UNL     1      -6.918  16.434  22.270  1.00  0.00     0.016 A 
ATOM      4  C   UNL     1      -6.596  17.788  22.457  1.00  0.00     0.038 A 
ATOM      5  C   UNL     1      -5.257  18.218  22.324  1.00  0.00     0.076 A 
ATOM      6  C   UNL     1      -4.268  17.285  21.918  1.00  0.00     0.127 A 
ATOM      7  C   UNL     1      -4.609  15.938  21.757  1.00  0.00     0.050 A 
ATOM      8  C   UNL     1      -4.932  19.624  22.675  1.00  0.00     0.201 C 
ATOM      9  O   UNL     1      -3.790  19.911  23.124  1.00  0.00    -0.288 OA
ATOM     10  C   UNL     1      -6.005  20.652  22.674  1.00  0.00     0.076 A 
ATOM     11  C   UNL     1      -7.344  20.219  22.804  1.00  0.00     0.041 A 
ATOM     12  C   UNL     1      -7.656  18.771  22.787  1.00  0.00     0.194 C 
ATOM     13  O   UNL     1      -8.831  18.375  23.028  1.00  0.00    -0.289 OA
ATOM     14  C   UNL     1      -8.374  21.165  22.944  1.00  0.00     0.059 A 
ATOM     15  C   UNL     1      -8.089  22.530  22.941  1.00  0.00     0.120 A 
ATOM     16  C   UNL     1      -6.771  22.964  22.772  1.00  0.00     0.093 A 
ATOM     17  C   UNL     1      -5.732  22.043  22.610  1.00  0.00     0.131 A 
ENDROOT
BRANCH   6  18
ATOM     18  O   UNL     1      -2.952  17.655  21.631  1.00  0.00    -0.507 OA
ATOM     19  H   UNL     1      -2.675  18.602  21.411  1.00  0.00     0.293 HD
ENDBRANCH   6  18
BRANCH  17  20
ATOM     20  O   UNL     1      -4.455  22.552  22.354  1.00  0.00    -0.507 OA
ATOM     21  H   UNL     1      -3.774  22.742  23.076  1.00  0.00     0.293 HD
ENDBRANCH  17  20
BRANCH  15  22
ATOM     22  O   UNL     1      -9.125  23.449  23.095  1.00  0.00    -0.508 OA
ATOM     23  H   UNL     1      -9.865  23.305  23.771  1.00  0.00     0.293 HD
ENDBRANCH  15  22
TORSDOF 3
ENDMDL
MODEL 7
REMARK VINA RESULT:    -1.898      2.218      5.394
REMARK INTER + INTRA:          -2.065
REMARK INTER:                  -2.065
REMARK INTRA:                   0.000
REMARK UNBOUND:                 0.000
REMARK SMILES Cc1cc(O)c2c(c1)C(=O)c1cc(O)cc(O)c1C2=O
REMARK SMILES IDX 1 1 2 2 8 3 7 4 6 5 4 6 3 7 19 8 20 9 18 10 11 11 9 12 10 13
REMARK SMILES IDX 12 14 13 15 15 16 16 17 5 18 17 20 14 22
REMARK H PARENT 5 19 17 21 14 23
REMARK Flexibility Score: inf
ROOT
ATOM      1  C   UNL     1       1.917  15.926  23.075  1.00  0.00     0.044 C 
ATOM      2  C   UNL     1       3.260  15.287  22.879  1.00  0.00    -0.047 A 
ATOM      3  C   UNL     1       4.325  16.032  22.362  1.00  0.00     0.016 A 
ATOM      4  C   UNL     1       5.580  15.436  22.148  1.00  0.00     0.038 A 
ATOM      5  C   UNL     1       5.771  14.071  22.456  1.00  0.00     0.076 A 
ATOM      6  C   UNL     1       4.665  13.300  22.900  1.00  0.00     0.127 A 
ATOM      7  C   UNL     1       3.432  13.921  23.125  1.00  0.00     0.050 A 
ATOM      8  C   UNL     1       7.144  13.514  22.359  1.00  0.00     0.201 C 
ATOM      9  O   UNL     1       7.493  12.567  23.114  1.00  0.00    -0.288 OA
ATOM     10  C   UNL     1       8.157  14.193  21.509  1.00  0.00     0.076 A 
ATOM     11  C   UNL     1       7.962  15.558  21.200  1.00  0.00     0.041 A 
ATOM     12  C   UNL     1       6.701  16.231  21.593  1.00  0.00     0.194 C 
ATOM     13  O   UNL     1       6.573  17.476  21.431  1.00  0.00    -0.289 OA
ATOM     14  C   UNL     1       8.962  16.269  20.516  1.00  0.00     0.059 A 
ATOM     15  C   UNL     1      10.141  15.637  20.126  1.00  0.00     0.120 A 
ATOM     16  C   UNL     1      10.323  14.278  20.394  1.00  0.00     0.093 A 
ATOM     17  C   UNL     1       9.334  13.543  21.054  1.00  0.00     0.131 A 
ENDROOT
BRANCH   6  18
ATOM     18  O   UNL     1       4.736  11.919  23.095  1.00  0.00    -0.507 OA
ATOM     19  H   UNL     1       3.935  11.305  23.035  1.00  0.00     0.293 HD
ENDBRANCH   6  18
BRANCH  17  20
ATOM     20  O   UNL     1       9.545  12.169  21.206  1.00  0.00    -0.507 OA
ATOM     21  H   UNL     1      10.168  11.631  20.619  1.00  0.00     0.293 HD
ENDBRANCH  17  20
BRANCH  15  22
ATOM     22  O   UNL     1      11.125  16.367  19.461  1.00  0.00    -0.508 OA
ATOM     23  H   UNL     1      10.906  17.221  18.962  1.00  0.00     0.293 HD
ENDBRANCH  15  22
TORSDOF 3
ENDMDL
MODEL 8
REMARK VINA RESULT:    -1.294      9.488     12.820
REMARK INTER + INTRA:          -1.408
REMARK INTER:                  -1.408
REMARK INTRA:                   0.000
REMARK UNBOUND:                 0.000
REMARK SMILES Cc1cc(O)c2c(c1)C(=O)c1cc(O)cc(O)c1C2=O
REMARK SMILES IDX 1 1 2 2 8 3 7 4 6 5 4 6 3 7 19 8 20 9 18 10 11 11 9 12 10 13
REMARK SMILES IDX 12 14 13 15 15 16 16 17 5 18 17 20 14 22
REMARK H PARENT 5 19 17 21 14 23
REMARK Flexibility Score: inf
ROOT
ATOM      1  C   UNL     1       0.745  15.856  21.623  1.00  0.00     0.044 C 
ATOM      2  C   UNL     1      -0.602  16.489  21.809  1.00  0.00    -0.047 A 
ATOM      3  C   UNL     1      -1.761  15.708  21.744  1.00  0.00     0.016 A 
ATOM      4  C   UNL     1      -3.029  16.296  21.888  1.00  0.00     0.038 A 
ATOM      5  C   UNL     1      -3.139  17.688  22.102  1.00  0.00     0.076 A 
ATOM      6  C   UNL     1      -1.965  18.485  22.082  1.00  0.00     0.127 A 
ATOM      7  C   UNL     1      -0.713  17.875  21.957  1.00  0.00     0.050 A 
ATOM      8  C   UNL     1      -4.482  18.250  22.398  1.00  0.00     0.201 C 
ATOM      9  O   UNL     1      -4.587  19.274  23.125  1.00  0.00    -0.288 OA
ATOM     10  C   UNL     1      -5.701  17.501  21.997  1.00  0.00     0.076 A 
ATOM     11  C   UNL     1      -5.587  16.108  21.781  1.00  0.00     0.041 A 
ATOM     12  C   UNL     1      -4.253  15.463  21.811  1.00  0.00     0.194 C 
ATOM     13  O   UNL     1      -4.158  14.206  21.743  1.00  0.00    -0.289 OA
ATOM     14  C   UNL     1      -6.740  15.343  21.534  1.00  0.00     0.059 A 
ATOM     15  C   UNL     1      -7.995  15.947  21.486  1.00  0.00     0.120 A 
ATOM     16  C   UNL     1      -8.108  17.329  21.658  1.00  0.00     0.093 A 
ATOM     17  C   UNL     1      -6.974  18.116  21.884  1.00  0.00     0.131 A 
ENDROOT
BRANCH   6  18
ATOM     18  O   UNL     1      -1.999  19.880  22.148  1.00  0.00    -0.507 OA
ATOM     19  H   UNL     1      -2.008  20.398  23.016  1.00  0.00     0.293 HD
ENDBRANCH   6  18
BRANCH  17  20
ATOM     20  O   UNL     1      -7.154  19.500  21.956  1.00  0.00    -0.507 OA
ATOM     21  H   UNL     1      -6.552  20.166  21.493  1.00  0.00     0.293 HD
ENDBRANCH  17  20
BRANCH  15  22
ATOM     22  O   UNL     1      -9.125  15.166  21.253  1.00  0.00    -0.508 OA
ATOM     23  H   UNL     1     -10.025  15.404  21.652  1.00  0.00     0.293 HD
ENDBRANCH  15  22
TORSDOF 3
ENDMDL
MODEL 9
REMARK VINA RESULT:    -1.271      1.862      3.605
REMARK INTER + INTRA:          -1.383
REMARK INTER:                  -1.383
REMARK INTRA:                   0.000
REMARK UNBOUND:                 0.000
REMARK SMILES Cc1cc(O)c2c(c1)C(=O)c1cc(O)cc(O)c1C2=O
REMARK SMILES IDX 1 1 2 2 8 3 7 4 6 5 4 6 3 7 19 8 20 9 18 10 11 11 9 12 10 13
REMARK SMILES IDX 12 14 13 15 15 16 16 17 5 18 17 20 14 22
REMARK H PARENT 5 19 17 21 14 23
REMARK Flexibility Score: inf
ROOT
ATOM      1  C   UNL     1       3.187  11.417  23.125  1.00  0.00     0.044 C 
ATOM      2  C   UNL     1       4.575  11.956  22.944  1.00  0.00    -0.047 A 
ATOM      3  C   UNL     1       4.771  13.305  22.630  1.00  0.00     0.016 A 
ATOM      4  C   UNL     1       6.066  13.813  22.431  1.00  0.00     0.038 A 
ATOM      5  C   UNL     1       7.183  12.958  22.548  1.00  0.00     0.076 A 
ATOM      6  C   UNL     1       6.973  11.574  22.783  1.00  0.00     0.127 A 
ATOM      7  C   UNL     1       5.676  11.095  22.998  1.00  0.00     0.050 A 
ATOM      8  C   UNL     1       8.540  13.559  22.479  1.00  0.00     0.201 C 
ATOM      9  O   UNL     1       9.494  13.030  23.110  1.00  0.00    -0.288 OA
ATOM     10  C   UNL     1       8.729  14.879  21.823  1.00  0.00     0.076 A 
ATOM     11  C   UNL     1       7.609  15.732  21.705  1.00  0.00     0.041 A 
ATOM     12  C   UNL     1       6.264  15.243  22.092  1.00  0.00     0.194 C 
ATOM     13  O   UNL     1       5.283  16.037  22.107  1.00  0.00    -0.289 OA
ATOM     14  C   UNL     1       7.774  17.039  21.217  1.00  0.00     0.059 A 
ATOM     15  C   UNL     1       9.033  17.499  20.833  1.00  0.00     0.120 A 
ATOM     16  C   UNL     1      10.137  16.646  20.910  1.00  0.00     0.093 A 
ATOM     17  C   UNL     1       9.995  15.334  21.372  1.00  0.00     0.131 A 
ENDROOT
BRANCH   6  18
ATOM     18  O   UNL     1       8.012  10.640  22.775  1.00  0.00    -0.507 OA
ATOM     19  H   UNL     1       7.886   9.664  23.009  1.00  0.00     0.293 HD
ENDBRANCH   6  18
BRANCH  17  20
ATOM     20  O   UNL     1      11.125  14.512  21.335  1.00  0.00    -0.507 OA
ATOM     21  H   UNL     1      11.661  14.336  20.496  1.00  0.00     0.293 HD
ENDBRANCH  17  20
BRANCH  15  22
ATOM     22  O   UNL     1       9.175  18.803  20.364  1.00  0.00    -0.508 OA
ATOM     23  H   UNL     1       8.645  19.570  20.760  1.00  0.00     0.293 HD
ENDBRANCH  15  22
TORSDOF 3
ENDMDL
