MODEL 1
REMARK VINA RESULT:    -3.930      0.000      0.000
REMARK INTER + INTRA:          -6.393
REMARK INTER:                  -5.767
REMARK INTRA:                  -0.625
REMARK UNBOUND:                -0.625
REMARK SMILES O=C([O-])CCCCCCCC(=O)[O-]
REMARK SMILES IDX 7 1 6 2 5 3 4 4 2 5 1 6 3 7 8 8 9 9 10 10 11 11 12 12 13 13
REMARK H PARENT
REMARK Flexibility Score: inf
ROOT
ATOM      1  C   UNL     1      10.468 -26.784 -27.883  1.00  0.00     0.000 C 
ENDROOT
BRANCH   1   2
ATOM      2  C   UNL     1      10.923 -25.315 -27.897  1.00  0.00     0.000 C 
BRANCH   2   3
ATOM      3  C   UNL     1      11.363 -24.844 -29.294  1.00  0.00     0.006 C 
BRANCH   3   4
ATOM      4  C   UNL     1      10.170 -24.633 -30.235  1.00  0.00     0.053 C 
BRANCH   4   5
ATOM      5  C   UNL     1      10.381 -25.298 -31.560  1.00  0.00     0.041 C 
ATOM      6  O   UNL     1      11.049 -26.363 -31.636  1.00  0.00    -0.550 OA
ATOM      7  O   UNL     1       9.815 -24.758 -32.708  1.00  0.00    -0.550 OA
ENDBRANCH   4   5
ENDBRANCH   3   4
ENDBRANCH   2   3
ENDBRANCH   1   2
BRANCH   1   8
ATOM      8  C   UNL     1       9.038 -26.954 -27.340  1.00  0.00     0.000 C 
BRANCH   8   9
ATOM      9  C   UNL     1       8.123 -27.711 -28.314  1.00  0.00     0.006 C 
BRANCH   9  10
ATOM     10  C   UNL     1       8.905 -28.478 -29.389  1.00  0.00     0.053 C 
BRANCH  10  11
ATOM     11  C   UNL     1       8.324 -29.843 -29.584  1.00  0.00     0.041 C 
ATOM     12  O   UNL     1       7.311 -30.001 -30.314  1.00  0.00    -0.550 OA
ATOM     13  O   UNL     1       8.872 -30.933 -28.919  1.00  0.00    -0.550 OA
ENDBRANCH  10  11
ENDBRANCH   9  10
ENDBRANCH   8   9
ENDBRANCH   1   8
TORSDOF 8
ENDMDL
MODEL 2
REMARK VINA RESULT:    -3.796      0.715      4.972
REMARK INTER + INTRA:          -6.196
REMARK INTER:                  -5.558
REMARK INTRA:                  -0.638
REMARK UNBOUND:                -0.625
REMARK SMILES O=C([O-])CCCCCCCC(=O)[O-]
REMARK SMILES IDX 7 1 6 2 5 3 4 4 2 5 1 6 3 7 8 8 9 9 10 10 11 11 12 12 13 13
REMARK H PARENT
REMARK Flexibility Score: inf
ROOT
ATOM      1  C   UNL     1      10.083 -27.125 -27.448  1.00  0.00     0.000 C 
ENDROOT
BRANCH   1   2
ATOM      2  C   UNL     1       8.562 -27.334 -27.369  1.00  0.00     0.000 C 
BRANCH   2   3
ATOM      3  C   UNL     1       7.977 -27.933 -28.660  1.00  0.00     0.006 C 
BRANCH   3   4
ATOM      4  C   UNL     1       8.965 -28.875 -29.359  1.00  0.00     0.053 C 
BRANCH   4   5
ATOM      5  C   UNL     1       8.757 -30.302 -28.951  1.00  0.00     0.041 C 
ATOM      6  O   UNL     1       9.370 -30.773 -27.956  1.00  0.00    -0.550 OA
ATOM      7  O   UNL     1       7.865 -31.103 -29.651  1.00  0.00    -0.550 OA
ENDBRANCH   4   5
ENDBRANCH   3   4
ENDBRANCH   2   3
ENDBRANCH   1   2
BRANCH   1   8
ATOM      8  C   UNL     1      10.468 -25.645 -27.619  1.00  0.00     0.000 C 
BRANCH   8   9
ATOM      9  C   UNL     1      10.975 -25.328 -29.035  1.00  0.00     0.006 C 
BRANCH   9  10
ATOM     10  C   UNL     1       9.834 -25.109 -30.038  1.00  0.00     0.053 C 
BRANCH  10  11
ATOM     11  C   UNL     1      10.326 -25.303 -31.438  1.00  0.00     0.041 C 
ATOM     12  O   UNL     1      11.327 -26.033 -31.662  1.00  0.00    -0.550 OA
ATOM     13  O   UNL     1       9.710 -24.637 -32.490  1.00  0.00    -0.550 OA
ENDBRANCH  10  11
ENDBRANCH   9  10
ENDBRANCH   8   9
ENDBRANCH   1   8
TORSDOF 8
ENDMDL
MODEL 3
REMARK VINA RESULT:    -3.741      1.860      5.653
REMARK INTER + INTRA:          -6.115
REMARK INTER:                  -5.636
REMARK INTRA:                  -0.480
REMARK UNBOUND:                -0.625
REMARK SMILES O=C([O-])CCCCCCCC(=O)[O-]
REMARK SMILES IDX 7 1 6 2 5 3 4 4 2 5 1 6 3 7 8 8 9 9 10 10 11 11 12 12 13 13
REMARK H PARENT
REMARK Flexibility Score: inf
ROOT
ATOM      1  C   UNL     1      10.850 -26.907 -30.351  1.00  0.00     0.000 C 
ENDROOT
BRANCH   1   2
ATOM      2  C   UNL     1       9.753 -26.159 -29.576  1.00  0.00     0.000 C 
BRANCH   2   3
ATOM      3  C   UNL     1       9.361 -26.869 -28.268  1.00  0.00     0.006 C 
BRANCH   3   4
ATOM      4  C   UNL     1       8.174 -27.821 -28.462  1.00  0.00     0.053 C 
BRANCH   4   5
ATOM      5  C   UNL     1       8.611 -29.158 -28.977  1.00  0.00     0.041 C 
ATOM      6  O   UNL     1       8.126 -29.615 -30.045  1.00  0.00    -0.550 OA
ATOM      7  O   UNL     1       9.575 -29.886 -28.292  1.00  0.00    -0.550 OA
ENDBRANCH   4   5
ENDBRANCH   3   4
ENDBRANCH   2   3
ENDBRANCH   1   2
BRANCH   1   8
ATOM      8  C   UNL     1      10.970 -26.433 -31.810  1.00  0.00     0.000 C 
BRANCH   8   9
ATOM      9  C   UNL     1      10.262 -25.092 -32.056  1.00  0.00     0.006 C 
BRANCH   9  10
ATOM     10  C   UNL     1      11.242 -23.948 -32.347  1.00  0.00     0.053 C 
BRANCH  10  11
ATOM     11  C   UNL     1      11.501 -23.153 -31.106  1.00  0.00     0.041 C 
ATOM     12  O   UNL     1      10.991 -22.011 -30.968  1.00  0.00    -0.550 OA
ATOM     13  O   UNL     1      12.346 -23.654 -30.123  1.00  0.00    -0.550 OA
ENDBRANCH  10  11
ENDBRANCH   9  10
ENDBRANCH   8   9
ENDBRANCH   1   8
TORSDOF 8
ENDMDL
MODEL 4
REMARK VINA RESULT:    -3.726      1.935      2.619
REMARK INTER + INTRA:          -6.094
REMARK INTER:                  -5.623
REMARK INTRA:                  -0.471
REMARK UNBOUND:                -0.625
REMARK SMILES O=C([O-])CCCCCCCC(=O)[O-]
REMARK SMILES IDX 7 1 6 2 5 3 4 4 2 5 1 6 3 7 8 8 9 9 10 10 11 11 12 12 13 13
REMARK H PARENT
REMARK Flexibility Score: inf
ROOT
ATOM      1  C   UNL     1      10.891 -26.730 -30.279  1.00  0.00     0.000 C 
ENDROOT
BRANCH   1   2
ATOM      2  C   UNL     1      11.013 -26.401 -31.776  1.00  0.00     0.000 C 
BRANCH   2   3
ATOM      3  C   UNL     1      10.374 -25.049 -32.140  1.00  0.00     0.006 C 
BRANCH   3   4
ATOM      4  C   UNL     1      11.427 -23.962 -32.387  1.00  0.00     0.053 C 
BRANCH   4   5
ATOM      5  C   UNL     1      11.686 -23.147 -31.157  1.00  0.00     0.041 C 
ATOM      6  O   UNL     1      12.506 -23.550 -30.291  1.00  0.00    -0.550 OA
ATOM      7  O   UNL     1      11.043 -21.928 -30.982  1.00  0.00    -0.550 OA
ENDBRANCH   4   5
ENDBRANCH   3   4
ENDBRANCH   2   3
ENDBRANCH   1   2
BRANCH   1   8
ATOM      8  C   UNL     1       9.701 -26.018 -29.611  1.00  0.00     0.000 C 
BRANCH   8   9
ATOM      9  C   UNL     1       9.495 -26.454 -28.152  1.00  0.00     0.006 C 
BRANCH   9  10
ATOM     10  C   UNL     1       8.315 -27.420 -27.983  1.00  0.00     0.053 C 
BRANCH  10  11
ATOM     11  C   UNL     1       8.620 -28.735 -28.629  1.00  0.00     0.041 C 
ATOM     12  O   UNL     1       7.949 -29.125 -29.619  1.00  0.00    -0.550 OA
ATOM     13  O   UNL     1       9.613 -29.553 -28.105  1.00  0.00    -0.550 OA
ENDBRANCH  10  11
ENDBRANCH   9  10
ENDBRANCH   8   9
ENDBRANCH   1   8
TORSDOF 8
ENDMDL
MODEL 5
REMARK VINA RESULT:    -3.717      2.590      5.661
REMARK INTER + INTRA:          -6.081
REMARK INTER:                  -5.462
REMARK INTRA:                  -0.619
REMARK UNBOUND:                -0.625
REMARK SMILES O=C([O-])CCCCCCCC(=O)[O-]
REMARK SMILES IDX 7 1 6 2 5 3 4 4 2 5 1 6 3 7 8 8 9 9 10 10 11 11 12 12 13 13
REMARK H PARENT
REMARK Flexibility Score: inf
ROOT
ATOM      1  C   UNL     1      10.325 -27.816 -29.781  1.00  0.00     0.000 C 
ENDROOT
BRANCH   1   2
ATOM      2  C   UNL     1       8.836 -27.978 -29.433  1.00  0.00     0.000 C 
BRANCH   2   3
ATOM      3  C   UNL     1       8.610 -28.390 -27.968  1.00  0.00     0.006 C 
BRANCH   3   4
ATOM      4  C   UNL     1       8.319 -27.182 -27.068  1.00  0.00     0.053 C 
BRANCH   4   5
ATOM      5  C   UNL     1       9.522 -26.778 -26.272  1.00  0.00     0.041 C 
ATOM      6  O   UNL     1       9.523 -25.695 -25.629  1.00  0.00    -0.550 OA
ATOM      7  O   UNL     1      10.633 -27.611 -26.217  1.00  0.00    -0.550 OA
ENDBRANCH   4   5
ENDBRANCH   3   4
ENDBRANCH   2   3
ENDBRANCH   1   2
BRANCH   1   8
ATOM      8  C   UNL     1      10.630 -26.472 -30.464  1.00  0.00     0.000 C 
BRANCH   8   9
ATOM      9  C   UNL     1       9.882 -25.297 -29.815  1.00  0.00     0.006 C 
BRANCH   9  10
ATOM     10  C   UNL     1       9.534 -24.188 -30.817  1.00  0.00     0.053 C 
BRANCH  10  11
ATOM     11  C   UNL     1      10.780 -23.528 -31.318  1.00  0.00     0.041 C 
ATOM     12  O   UNL     1      11.580 -22.990 -30.510  1.00  0.00    -0.550 OA
ATOM     13  O   UNL     1      11.032 -23.463 -32.683  1.00  0.00    -0.550 OA
ENDBRANCH  10  11
ENDBRANCH   9  10
ENDBRANCH   8   9
ENDBRANCH   1   8
TORSDOF 8
ENDMDL
MODEL 6
REMARK VINA RESULT:    -3.691      2.794      3.586
REMARK INTER + INTRA:          -6.042
REMARK INTER:                  -5.455
REMARK INTRA:                  -0.587
REMARK UNBOUND:                -0.625
REMARK SMILES O=C([O-])CCCCCCCC(=O)[O-]
REMARK SMILES IDX 7 1 6 2 5 3 4 4 2 5 1 6 3 7 8 8 9 9 10 10 11 11 12 12 13 13
REMARK H PARENT
REMARK Flexibility Score: inf
ROOT
ATOM      1  C   UNL     1      10.526 -27.650 -30.013  1.00  0.00     0.000 C 
ENDROOT
BRANCH   1   2
ATOM      2  C   UNL     1      10.626 -26.592 -31.125  1.00  0.00     0.000 C 
BRANCH   2   3
ATOM      3  C   UNL     1       9.949 -25.264 -30.742  1.00  0.00     0.006 C 
BRANCH   3   4
ATOM      4  C   UNL     1      10.779 -24.463 -29.731  1.00  0.00     0.053 C 
BRANCH   4   5
ATOM      5  C   UNL     1      11.865 -23.677 -30.400  1.00  0.00     0.041 C 
ATOM      6  O   UNL     1      11.736 -23.309 -31.597  1.00  0.00    -0.550 OA
ATOM      7  O   UNL     1      13.007 -23.327 -29.691  1.00  0.00    -0.550 OA
ENDBRANCH   4   5
ENDBRANCH   3   4
ENDBRANCH   2   3
ENDBRANCH   1   2
BRANCH   1   8
ATOM      8  C   UNL     1       9.077 -27.893 -29.556  1.00  0.00     0.000 C 
BRANCH   8   9
ATOM      9  C   UNL     1       8.984 -28.286 -28.074  1.00  0.00     0.006 C 
BRANCH   9  10
ATOM     10  C   UNL     1       8.406 -27.165 -27.198  1.00  0.00     0.053 C 
BRANCH  10  11
ATOM     11  C   UNL     1       9.466 -26.601 -26.306  1.00  0.00     0.041 C 
ATOM     12  O   UNL     1       9.151 -25.867 -25.333  1.00  0.00    -0.550 OA
ATOM     13  O   UNL     1      10.807 -26.844 -26.579  1.00  0.00    -0.550 OA
ENDBRANCH  10  11
ENDBRANCH   9  10
ENDBRANCH   8   9
ENDBRANCH   1   8
TORSDOF 8
ENDMDL
MODEL 7
REMARK VINA RESULT:    -3.659      2.816      5.874
REMARK INTER + INTRA:          -5.995
REMARK INTER:                  -5.535
REMARK INTRA:                  -0.461
REMARK UNBOUND:                -0.625
REMARK SMILES O=C([O-])CCCCCCCC(=O)[O-]
REMARK SMILES IDX 7 1 6 2 5 3 4 4 2 5 1 6 3 7 8 8 9 9 10 10 11 11 12 12 13 13
REMARK H PARENT
REMARK Flexibility Score: inf
ROOT
ATOM      1  C   UNL     1      10.825 -26.944 -30.292  1.00  0.00     0.000 C 
ENDROOT
BRANCH   1   2
ATOM      2  C   UNL     1       9.516 -26.489 -29.627  1.00  0.00     0.000 C 
BRANCH   2   3
ATOM      3  C   UNL     1       8.731 -27.657 -29.002  1.00  0.00     0.006 C 
BRANCH   3   4
ATOM      4  C   UNL     1       8.295 -27.354 -27.563  1.00  0.00     0.053 C 
BRANCH   4   5
ATOM      5  C   UNL     1       9.460 -27.000 -26.691  1.00  0.00     0.041 C 
ATOM      6  O   UNL     1      10.426 -27.798 -26.569  1.00  0.00    -0.550 OA
ATOM      7  O   UNL     1       9.492 -25.776 -26.035  1.00  0.00    -0.550 OA
ENDBRANCH   4   5
ENDBRANCH   3   4
ENDBRANCH   2   3
ENDBRANCH   1   2
BRANCH   1   8
ATOM      8  C   UNL     1      10.948 -26.460 -31.748  1.00  0.00     0.000 C 
BRANCH   8   9
ATOM      9  C   UNL     1      10.436 -25.024 -31.938  1.00  0.00     0.006 C 
BRANCH   9  10
ATOM     10  C   UNL     1      11.487 -24.096 -32.561  1.00  0.00     0.053 C 
BRANCH  10  11
ATOM     11  C   UNL     1      12.253 -23.382 -31.491  1.00  0.00     0.041 C 
ATOM     12  O   UNL     1      13.225 -22.643 -31.795  1.00  0.00    -0.550 OA
ATOM     13  O   UNL     1      11.924 -23.574 -30.155  1.00  0.00    -0.550 OA
ENDBRANCH  10  11
ENDBRANCH   9  10
ENDBRANCH   8   9
ENDBRANCH   1   8
TORSDOF 8
ENDMDL
MODEL 8
REMARK VINA RESULT:    -3.625      1.968      2.685
REMARK INTER + INTRA:          -5.945
REMARK INTER:                  -5.362
REMARK INTRA:                  -0.583
REMARK UNBOUND:                -0.625
REMARK SMILES O=C([O-])CCCCCCCC(=O)[O-]
REMARK SMILES IDX 7 1 6 2 5 3 4 4 2 5 1 6 3 7 8 8 9 9 10 10 11 11 12 12 13 13
REMARK H PARENT
REMARK Flexibility Score: inf
ROOT
ATOM      1  C   UNL     1      10.906 -24.882 -29.308  1.00  0.00     0.000 C 
ENDROOT
BRANCH   1   2
ATOM      2  C   UNL     1       9.647 -25.059 -30.173  1.00  0.00     0.000 C 
BRANCH   2   3
ATOM      3  C   UNL     1       9.808 -24.467 -31.584  1.00  0.00     0.006 C 
BRANCH   3   4
ATOM      4  C   UNL     1      11.226 -24.664 -32.134  1.00  0.00     0.053 C 
BRANCH   4   5
ATOM      5  C   UNL     1      11.793 -23.391 -32.683  1.00  0.00     0.041 C 
ATOM      6  O   UNL     1      12.641 -23.423 -33.612  1.00  0.00    -0.550 OA
ATOM      7  O   UNL     1      11.363 -22.167 -32.186  1.00  0.00    -0.550 OA
ENDBRANCH   4   5
ENDBRANCH   3   4
ENDBRANCH   2   3
ENDBRANCH   1   2
BRANCH   1   8
ATOM      8  C   UNL     1      11.488 -26.224 -28.830  1.00  0.00     0.000 C 
BRANCH   8   9
ATOM      9  C   UNL     1      10.923 -27.423 -29.607  1.00  0.00     0.006 C 
BRANCH   9  10
ATOM     10  C   UNL     1      10.258 -28.462 -28.695  1.00  0.00     0.053 C 
BRANCH  10  11
ATOM     11  C   UNL     1       8.780 -28.491 -28.927  1.00  0.00     0.041 C 
ATOM     12  O   UNL     1       8.291 -29.255 -29.799  1.00  0.00    -0.550 OA
ATOM     13  O   UNL     1       7.948 -27.637 -28.214  1.00  0.00    -0.550 OA
ENDBRANCH  10  11
ENDBRANCH   9  10
ENDBRANCH   8   9
ENDBRANCH   1   8
TORSDOF 8
ENDMDL
MODEL 9
REMARK VINA RESULT:    -3.613      1.961      6.041
REMARK INTER + INTRA:          -5.928
REMARK INTER:                  -5.525
REMARK INTRA:                  -0.402
REMARK UNBOUND:                -0.625
REMARK SMILES O=C([O-])CCCCCCCC(=O)[O-]
REMARK SMILES IDX 7 1 6 2 5 3 4 4 2 5 1 6 3 7 8 8 9 9 10 10 11 11 12 12 13 13
REMARK H PARENT
REMARK Flexibility Score: inf
ROOT
ATOM      1  C   UNL     1      10.369 -24.522 -29.918  1.00  0.00     0.000 C 
ENDROOT
BRANCH   1   2
ATOM      2  C   UNL     1      10.152 -25.704 -28.959  1.00  0.00     0.000 C 
BRANCH   2   3
ATOM      3  C   UNL     1       9.673 -26.975 -29.681  1.00  0.00     0.006 C 
BRANCH   3   4
ATOM      4  C   UNL     1       8.592 -27.718 -28.887  1.00  0.00     0.053 C 
BRANCH   4   5
ATOM      5  C   UNL     1       8.647 -29.197 -29.118  1.00  0.00     0.041 C 
ATOM      6  O   UNL     1       9.365 -29.927 -28.384  1.00  0.00    -0.550 OA
ATOM      7  O   UNL     1       7.885 -29.773 -30.126  1.00  0.00    -0.550 OA
ENDBRANCH   4   5
ENDBRANCH   3   4
ENDBRANCH   2   3
ENDBRANCH   1   2
BRANCH   1   8
ATOM      8  C   UNL     1       9.438 -24.576 -31.142  1.00  0.00     0.000 C 
BRANCH   8   9
ATOM      9  C   UNL     1      10.208 -24.547 -32.471  1.00  0.00     0.006 C 
BRANCH   9  10
ATOM     10  C   UNL     1      11.674 -24.128 -32.298  1.00  0.00     0.053 C 
BRANCH  10  11
ATOM     11  C   UNL     1      12.127 -23.316 -33.470  1.00  0.00     0.041 C 
ATOM     12  O   UNL     1      13.278 -23.483 -33.950  1.00  0.00    -0.550 OA
ATOM     13  O   UNL     1      11.295 -22.338 -34.002  1.00  0.00    -0.550 OA
ENDBRANCH  10  11
ENDBRANCH   9  10
ENDBRANCH   8   9
ENDBRANCH   1   8
TORSDOF 8
ENDMDL
