MODEL 1
REMARK VINA RESULT:    -3.828      0.000      0.000
REMARK INTER + INTRA:          -6.237
REMARK INTER:                  -5.618
REMARK INTRA:                  -0.619
REMARK UNBOUND:                -0.619
REMARK SMILES O=C([O-])CCCCCCCC(=O)[O-]
REMARK SMILES IDX 7 1 6 2 5 3 4 4 2 5 1 6 3 7 8 8 9 9 10 10 11 11 12 12 13 13
REMARK H PARENT
REMARK Flexibility Score: inf
ROOT
ATOM      1  C   UNL     1      -4.129  34.895  -0.503  1.00  0.00     0.000 C 
ENDROOT
BRANCH   1   2
ATOM      2  C   UNL     1      -3.882  36.228  -1.224  1.00  0.00     0.000 C 
BRANCH   2   3
ATOM      3  C   UNL     1      -4.438  37.434  -0.446  1.00  0.00     0.006 C 
BRANCH   3   4
ATOM      4  C   UNL     1      -5.702  38.011  -1.099  1.00  0.00     0.053 C 
BRANCH   4   5
ATOM      5  C   UNL     1      -6.921  37.771  -0.262  1.00  0.00     0.041 C 
ATOM      6  O   UNL     1      -6.833  37.756   0.994  1.00  0.00    -0.550 OA
ATOM      7  O   UNL     1      -8.158  37.592  -0.868  1.00  0.00    -0.550 OA
ENDBRANCH   4   5
ENDBRANCH   3   4
ENDBRANCH   2   3
ENDBRANCH   1   2
BRANCH   1   8
ATOM      8  C   UNL     1      -4.205  35.049   1.023  1.00  0.00     0.000 C 
BRANCH   8   9
ATOM      9  C   UNL     1      -5.135  33.993   1.637  1.00  0.00     0.006 C 
BRANCH   9  10
ATOM     10  C   UNL     1      -6.584  34.484   1.740  1.00  0.00     0.053 C 
BRANCH  10  11
ATOM     11  C   UNL     1      -7.524  33.609   0.969  1.00  0.00     0.041 C 
ATOM     12  O   UNL     1      -8.431  34.119   0.261  1.00  0.00    -0.550 OA
ATOM     13  O   UNL     1      -7.377  32.228   1.008  1.00  0.00    -0.550 OA
ENDBRANCH  10  11
ENDBRANCH   9  10
ENDBRANCH   8   9
ENDBRANCH   1   8
TORSDOF 8
ENDMDL
MODEL 2
REMARK VINA RESULT:    -3.812     19.552     20.522
REMARK INTER + INTRA:          -6.214
REMARK INTER:                  -6.196
REMARK INTRA:                  -0.018
REMARK UNBOUND:                -0.619
REMARK SMILES O=C([O-])CCCCCCCC(=O)[O-]
REMARK SMILES IDX 7 1 6 2 5 3 4 4 2 5 1 6 3 7 8 8 9 9 10 10 11 11 12 12 13 13
REMARK H PARENT
REMARK Flexibility Score: inf
ROOT
ATOM      1  C   UNL     1     -23.300  25.369  -2.738  1.00  0.00     0.000 C 
ENDROOT
BRANCH   1   2
ATOM      2  C   UNL     1     -21.879  24.791  -2.809  1.00  0.00     0.000 C 
BRANCH   2   3
ATOM      3  C   UNL     1     -21.855  23.259  -2.671  1.00  0.00     0.006 C 
BRANCH   3   4
ATOM      4  C   UNL     1     -20.677  22.627  -3.427  1.00  0.00     0.053 C 
BRANCH   4   5
ATOM      5  C   UNL     1     -20.422  21.219  -2.985  1.00  0.00     0.041 C 
ATOM      6  O   UNL     1     -20.070  20.347  -3.822  1.00  0.00    -0.550 OA
ATOM      7  O   UNL     1     -20.545  20.875  -1.644  1.00  0.00    -0.550 OA
ENDBRANCH   4   5
ENDBRANCH   3   4
ENDBRANCH   2   3
ENDBRANCH   1   2
BRANCH   1   8
ATOM      8  C   UNL     1     -23.711  26.099  -4.026  1.00  0.00     0.000 C 
BRANCH   8   9
ATOM      9  C   UNL     1     -22.517  26.246  -4.979  1.00  0.00     0.006 C 
BRANCH   9  10
ATOM     10  C   UNL     1     -22.511  25.173  -6.074  1.00  0.00     0.053 C 
BRANCH  10  11
ATOM     11  C   UNL     1     -21.126  24.901  -6.578  1.00  0.00     0.041 C 
ATOM     12  O   UNL     1     -20.648  25.583  -7.521  1.00  0.00    -0.550 OA
ATOM     13  O   UNL     1     -20.352  23.914  -5.981  1.00  0.00    -0.550 OA
ENDBRANCH  10  11
ENDBRANCH   9  10
ENDBRANCH   8   9
ENDBRANCH   1   8
TORSDOF 8
ENDMDL
MODEL 3
REMARK VINA RESULT:    -3.806      1.450      1.789
REMARK INTER + INTRA:          -6.205
REMARK INTER:                  -5.707
REMARK INTRA:                  -0.498
REMARK UNBOUND:                -0.619
REMARK SMILES O=C([O-])CCCCCCCC(=O)[O-]
REMARK SMILES IDX 7 1 6 2 5 3 4 4 2 5 1 6 3 7 8 8 9 9 10 10 11 11 12 12 13 13
REMARK H PARENT
REMARK Flexibility Score: inf
ROOT
ATOM      1  C   UNL     1      -4.510  37.011   0.857  1.00  0.00     0.000 C 
ENDROOT
BRANCH   1   2
ATOM      2  C   UNL     1      -4.996  37.040  -0.599  1.00  0.00     0.000 C 
BRANCH   2   3
ATOM      3  C   UNL     1      -6.069  38.115  -0.844  1.00  0.00     0.006 C 
BRANCH   3   4
ATOM      4  C   UNL     1      -7.458  37.667  -0.366  1.00  0.00     0.053 C 
BRANCH   4   5
ATOM      5  C   UNL     1      -8.458  37.665  -1.480  1.00  0.00     0.041 C 
ATOM      6  O   UNL     1      -8.104  37.972  -2.649  1.00  0.00    -0.550 OA
ATOM      7  O   UNL     1      -9.775  37.297  -1.236  1.00  0.00    -0.550 OA
ENDBRANCH   4   5
ENDBRANCH   3   4
ENDBRANCH   2   3
ENDBRANCH   1   2
BRANCH   1   8
ATOM      8  C   UNL     1      -4.233  35.587   1.364  1.00  0.00     0.000 C 
BRANCH   8   9
ATOM      9  C   UNL     1      -5.536  34.892   1.786  1.00  0.00     0.006 C 
BRANCH   9  10
ATOM     10  C   UNL     1      -5.759  33.572   1.038  1.00  0.00     0.053 C 
BRANCH  10  11
ATOM     11  C   UNL     1      -7.211  33.209   0.972  1.00  0.00     0.041 C 
ATOM     12  O   UNL     1      -8.047  34.020   0.494  1.00  0.00    -0.550 OA
ATOM     13  O   UNL     1      -7.636  31.961   1.410  1.00  0.00    -0.550 OA
ENDBRANCH  10  11
ENDBRANCH   9  10
ENDBRANCH   8   9
ENDBRANCH   1   8
TORSDOF 8
ENDMDL
MODEL 4
REMARK VINA RESULT:    -3.781     19.521     20.136
REMARK INTER + INTRA:          -6.168
REMARK INTER:                  -6.242
REMARK INTRA:                   0.074
REMARK UNBOUND:                -0.619
REMARK SMILES O=C([O-])CCCCCCCC(=O)[O-]
REMARK SMILES IDX 7 1 6 2 5 3 4 4 2 5 1 6 3 7 8 8 9 9 10 10 11 11 12 12 13 13
REMARK H PARENT
REMARK Flexibility Score: inf
ROOT
ATOM      1  C   UNL     1     -23.323  25.325  -2.758  1.00  0.00     0.000 C 
ENDROOT
BRANCH   1   2
ATOM      2  C   UNL     1     -23.686  26.109  -4.028  1.00  0.00     0.000 C 
BRANCH   2   3
ATOM      3  C   UNL     1     -22.495  26.261  -4.990  1.00  0.00     0.006 C 
BRANCH   3   4
ATOM      4  C   UNL     1     -22.459  25.149  -6.048  1.00  0.00     0.053 C 
BRANCH   4   5
ATOM      5  C   UNL     1     -21.063  24.857  -6.504  1.00  0.00     0.041 C 
ATOM      6  O   UNL     1     -20.395  23.941  -5.955  1.00  0.00    -0.550 OA
ATOM      7  O   UNL     1     -20.507  25.576  -7.555  1.00  0.00    -0.550 OA
ENDBRANCH   4   5
ENDBRANCH   3   4
ENDBRANCH   2   3
ENDBRANCH   1   2
BRANCH   1   8
ATOM      8  C   UNL     1     -21.878  24.805  -2.772  1.00  0.00     0.000 C 
BRANCH   8   9
ATOM      9  C   UNL     1     -21.844  23.273  -2.686  1.00  0.00     0.006 C 
BRANCH   9  10
ATOM     10  C   UNL     1     -20.688  22.670  -3.494  1.00  0.00     0.053 C 
BRANCH  10  11
ATOM     11  C   UNL     1     -20.380  21.269  -3.064  1.00  0.00     0.041 C 
ATOM     12  O   UNL     1     -19.903  20.443  -3.886  1.00  0.00    -0.550 OA
ATOM     13  O   UNL     1     -20.591  20.884  -1.746  1.00  0.00    -0.550 OA
ENDBRANCH  10  11
ENDBRANCH   9  10
ENDBRANCH   8   9
ENDBRANCH   1   8
TORSDOF 8
ENDMDL
MODEL 5
REMARK VINA RESULT:    -3.750      1.928      2.844
REMARK INTER + INTRA:          -6.122
REMARK INTER:                  -5.621
REMARK INTRA:                  -0.502
REMARK UNBOUND:                -0.619
REMARK SMILES O=C([O-])CCCCCCCC(=O)[O-]
REMARK SMILES IDX 7 1 6 2 5 3 4 4 2 5 1 6 3 7 8 8 9 9 10 10 11 11 12 12 13 13
REMARK H PARENT
REMARK Flexibility Score: inf
ROOT
ATOM      1  C   UNL     1      -5.785  34.235   0.738  1.00  0.00     0.000 C 
ENDROOT
BRANCH   1   2
ATOM      2  C   UNL     1      -5.134  35.504   1.311  1.00  0.00     0.000 C 
BRANCH   2   3
ATOM      3  C   UNL     1      -6.168  36.512   1.841  1.00  0.00     0.006 C 
BRANCH   3   4
ATOM      4  C   UNL     1      -6.096  37.857   1.106  1.00  0.00     0.053 C 
BRANCH   4   5
ATOM      5  C   UNL     1      -6.655  37.766  -0.280  1.00  0.00     0.041 C 
ATOM      6  O   UNL     1      -7.843  37.389  -0.460  1.00  0.00    -0.550 OA
ATOM      7  O   UNL     1      -5.875  38.125  -1.373  1.00  0.00    -0.550 OA
ENDBRANCH   4   5
ENDBRANCH   3   4
ENDBRANCH   2   3
ENDBRANCH   1   2
BRANCH   1   8
ATOM      8  C   UNL     1      -7.295  34.166   1.011  1.00  0.00     0.000 C 
BRANCH   8   9
ATOM      9  C   UNL     1      -7.805  32.721   0.920  1.00  0.00     0.006 C 
BRANCH   9  10
ATOM     10  C   UNL     1      -6.780  31.709   1.448  1.00  0.00     0.053 C 
BRANCH  10  11
ATOM     11  C   UNL     1      -7.382  30.348   1.621  1.00  0.00     0.041 C 
ATOM     12  O   UNL     1      -7.622  29.628   0.617  1.00  0.00    -0.550 OA
ATOM     13  O   UNL     1      -7.646  29.863   2.896  1.00  0.00    -0.550 OA
ENDBRANCH  10  11
ENDBRANCH   9  10
ENDBRANCH   8   9
ENDBRANCH   1   8
TORSDOF 8
ENDMDL
MODEL 6
REMARK VINA RESULT:    -3.747      1.459      4.387
REMARK INTER + INTRA:          -6.118
REMARK INTER:                  -5.570
REMARK INTRA:                  -0.548
REMARK UNBOUND:                -0.619
REMARK SMILES O=C([O-])CCCCCCCC(=O)[O-]
REMARK SMILES IDX 7 1 6 2 5 3 4 4 2 5 1 6 3 7 8 8 9 9 10 10 11 11 12 12 13 13
REMARK H PARENT
REMARK Flexibility Score: inf
ROOT
ATOM      1  C   UNL     1      -5.181  36.209   1.727  1.00  0.00     0.000 C 
ENDROOT
BRANCH   1   2
ATOM      2  C   UNL     1      -4.420  35.468   0.617  1.00  0.00     0.000 C 
BRANCH   2   3
ATOM      3  C   UNL     1      -4.967  34.052   0.368  1.00  0.00     0.006 C 
BRANCH   3   4
ATOM      4  C   UNL     1      -5.852  33.561   1.522  1.00  0.00     0.053 C 
BRANCH   4   5
ATOM      5  C   UNL     1      -7.177  33.060   1.035  1.00  0.00     0.041 C 
ATOM      6  O   UNL     1      -7.573  31.907   1.351  1.00  0.00    -0.550 OA
ATOM      7  O   UNL     1      -7.988  33.876   0.256  1.00  0.00    -0.550 OA
ENDBRANCH   4   5
ENDBRANCH   3   4
ENDBRANCH   2   3
ENDBRANCH   1   2
BRANCH   1   8
ATOM      8  C   UNL     1      -5.345  37.709   1.438  1.00  0.00     0.000 C 
BRANCH   8   9
ATOM      9  C   UNL     1      -5.983  37.936   0.060  1.00  0.00     0.006 C 
BRANCH   9  10
ATOM     10  C   UNL     1      -7.446  37.477   0.014  1.00  0.00     0.053 C 
BRANCH  10  11
ATOM     11  C   UNL     1      -8.069  37.740  -1.322  1.00  0.00     0.041 C 
ATOM     12  O   UNL     1      -9.315  37.642  -1.472  1.00  0.00    -0.550 OA
ATOM     13  O   UNL     1      -7.275  38.125  -2.395  1.00  0.00    -0.550 OA
ENDBRANCH  10  11
ENDBRANCH   9  10
ENDBRANCH   8   9
ENDBRANCH   1   8
TORSDOF 8
ENDMDL
MODEL 7
REMARK VINA RESULT:    -3.708      0.304      4.215
REMARK INTER + INTRA:          -6.062
REMARK INTER:                  -5.537
REMARK INTRA:                  -0.524
REMARK UNBOUND:                -0.619
REMARK SMILES O=C([O-])CCCCCCCC(=O)[O-]
REMARK SMILES IDX 7 1 6 2 5 3 4 4 2 5 1 6 3 7 8 8 9 9 10 10 11 11 12 12 13 13
REMARK H PARENT
REMARK Flexibility Score: inf
ROOT
ATOM      1  C   UNL     1      -4.544  34.756  -0.371  1.00  0.00     0.000 C 
ENDROOT
BRANCH   1   2
ATOM      2  C   UNL     1      -4.048  34.357   1.027  1.00  0.00     0.000 C 
BRANCH   2   3
ATOM      3  C   UNL     1      -5.147  33.703   1.881  1.00  0.00     0.006 C 
BRANCH   3   4
ATOM      4  C   UNL     1      -6.507  34.393   1.703  1.00  0.00     0.053 C 
BRANCH   4   5
ATOM      5  C   UNL     1      -7.493  33.511   1.001  1.00  0.00     0.041 C 
ATOM      6  O   UNL     1      -8.389  34.016   0.275  1.00  0.00    -0.550 OA
ATOM      7  O   UNL     1      -7.405  32.130   1.125  1.00  0.00    -0.550 OA
ENDBRANCH   4   5
ENDBRANCH   3   4
ENDBRANCH   2   3
ENDBRANCH   1   2
BRANCH   1   8
ATOM      8  C   UNL     1      -3.875  36.035  -0.897  1.00  0.00     0.000 C 
BRANCH   8   9
ATOM      9  C   UNL     1      -4.467  37.282  -0.224  1.00  0.00     0.006 C 
BRANCH   9  10
ATOM     10  C   UNL     1      -5.656  37.855  -1.006  1.00  0.00     0.053 C 
BRANCH  10  11
ATOM     11  C   UNL     1      -6.926  37.787  -0.216  1.00  0.00     0.041 C 
ATOM     12  O   UNL     1      -6.896  37.841   1.041  1.00  0.00    -0.550 OA
ATOM     13  O   UNL     1      -8.148  37.696  -0.872  1.00  0.00    -0.550 OA
ENDBRANCH  10  11
ENDBRANCH   9  10
ENDBRANCH   8   9
ENDBRANCH   1   8
TORSDOF 8
ENDMDL
MODEL 8
REMARK VINA RESULT:    -3.629     14.792     16.233
REMARK INTER + INTRA:          -5.945
REMARK INTER:                  -5.711
REMARK INTRA:                  -0.234
REMARK UNBOUND:                -0.619
REMARK SMILES O=C([O-])CCCCCCCC(=O)[O-]
REMARK SMILES IDX 7 1 6 2 5 3 4 4 2 5 1 6 3 7 8 8 9 9 10 10 11 11 12 12 13 13
REMARK H PARENT
REMARK Flexibility Score: inf
ROOT
ATOM      1  C   UNL     1     -18.170  33.119  -9.989  1.00  0.00     0.000 C 
ENDROOT
BRANCH   1   2
ATOM      2  C   UNL     1     -18.997  34.079  -9.120  1.00  0.00     0.000 C 
BRANCH   2   3
ATOM      3  C   UNL     1     -20.126  33.364  -8.357  1.00  0.00     0.006 C 
BRANCH   3   4
ATOM      4  C   UNL     1     -21.072  34.352  -7.661  1.00  0.00     0.053 C 
BRANCH   4   5
ATOM      5  C   UNL     1     -22.433  33.765  -7.447  1.00  0.00     0.041 C 
ATOM      6  O   UNL     1     -22.570  32.719  -6.759  1.00  0.00    -0.550 OA
ATOM      7  O   UNL     1     -23.554  34.387  -7.983  1.00  0.00    -0.550 OA
ENDBRANCH   4   5
ENDBRANCH   3   4
ENDBRANCH   2   3
ENDBRANCH   1   2
BRANCH   1   8
ATOM      8  C   UNL     1     -17.444  33.834 -11.139  1.00  0.00     0.000 C 
BRANCH   8   9
ATOM      9  C   UNL     1     -15.936  33.548 -11.099  1.00  0.00     0.006 C 
BRANCH   9  10
ATOM     10  C   UNL     1     -15.292  34.002  -9.784  1.00  0.00     0.053 C 
BRANCH  10  11
ATOM     11  C   UNL     1     -14.074  34.841 -10.022  1.00  0.00     0.041 C 
ATOM     12  O   UNL     1     -13.703  35.102 -11.196  1.00  0.00    -0.550 OA
ATOM     13  O   UNL     1     -13.368  35.361  -8.945  1.00  0.00    -0.550 OA
ENDBRANCH  10  11
ENDBRANCH   9  10
ENDBRANCH   8   9
ENDBRANCH   1   8
TORSDOF 8
ENDMDL
MODEL 9
REMARK VINA RESULT:    -3.619     14.908     16.086
REMARK INTER + INTRA:          -5.931
REMARK INTER:                  -5.713
REMARK INTRA:                  -0.218
REMARK UNBOUND:                -0.619
REMARK SMILES O=C([O-])CCCCCCCC(=O)[O-]
REMARK SMILES IDX 7 1 6 2 5 3 4 4 2 5 1 6 3 7 8 8 9 9 10 10 11 11 12 12 13 13
REMARK H PARENT
REMARK Flexibility Score: inf
ROOT
ATOM      1  C   UNL     1     -18.279  33.090 -10.024  1.00  0.00     0.000 C 
ENDROOT
BRANCH   1   2
ATOM      2  C   UNL     1     -17.512  33.783 -11.161  1.00  0.00     0.000 C 
BRANCH   2   3
ATOM      3  C   UNL     1     -16.019  33.413 -11.180  1.00  0.00     0.006 C 
BRANCH   3   4
ATOM      4  C   UNL     1     -15.254  34.030 -10.000  1.00  0.00     0.053 C 
BRANCH   4   5
ATOM      5  C   UNL     1     -14.046  34.791 -10.456  1.00  0.00     0.041 C 
ATOM      6  O   UNL     1     -13.697  34.759 -11.665  1.00  0.00    -0.550 OA
ATOM      7  O   UNL     1     -13.323  35.558  -9.551  1.00  0.00    -0.550 OA
ENDBRANCH   4   5
ENDBRANCH   3   4
ENDBRANCH   2   3
ENDBRANCH   1   2
BRANCH   1   8
ATOM      8  C   UNL     1     -19.034  34.081  -9.126  1.00  0.00     0.000 C 
BRANCH   8   9
ATOM      9  C   UNL     1     -20.165  33.377  -8.362  1.00  0.00     0.006 C 
BRANCH   9  10
ATOM     10  C   UNL     1     -21.080  34.370  -7.634  1.00  0.00     0.053 C 
BRANCH  10  11
ATOM     11  C   UNL     1     -22.455  33.811  -7.430  1.00  0.00     0.041 C 
ATOM     12  O   UNL     1     -22.622  32.772  -6.740  1.00  0.00    -0.550 OA
ATOM     13  O   UNL     1     -23.556  34.459  -7.975  1.00  0.00    -0.550 OA
ENDBRANCH  10  11
ENDBRANCH   9  10
ENDBRANCH   8   9
ENDBRANCH   1   8
TORSDOF 8
ENDMDL
