MODEL 1
REMARK VINA RESULT:    10.943      0.000      0.000
REMARK INTER + INTRA:          19.161
REMARK INTER:                  16.061
REMARK INTRA:                   3.099
REMARK UNBOUND:                 3.099
REMARK SMILES C=C1CC=CC(C)(C)CC=C(C)CCC1
REMARK SMILES IDX 2 1 1 2 15 3 14 4 13 5 11 6 12 7 10 8 3 10 4 11 5 12 6 13
REMARK SMILES IDX 7 14 8 15 9 16
REMARK H PARENT
REMARK Flexibility Score: 60.00
ROOT
ATOM      1  C   UNL     1      -1.876   5.503 -12.018  1.00  0.00    -0.074 C 
ATOM      2  C   UNL     1      -2.705   4.902 -12.890  1.00  0.00     0.008 C 
ENDROOT
BRANCH   1   3
ATOM      3  C   UNL     1      -2.463   6.285 -10.852  1.00  0.00     0.031 C 
BRANCH   3   4
ATOM      4  C   UNL     1      -1.763   6.004  -9.513  1.00  0.00     0.009 C 
BRANCH   4   5
ATOM      5  C   UNL     1      -2.055   7.064  -8.431  1.00  0.00     0.030 C 
BRANCH   5   6
ATOM      6  C   UNL     1      -0.790   7.439  -7.672  1.00  0.00    -0.077 C 
ATOM      7  C   UNL     1      -0.716   8.785  -7.000  1.00  0.00     0.039 C 
ATOM      8  C   UNL     1       0.272   6.603  -7.550  1.00  0.00    -0.027 CG0
ATOM      9  G   UNL     1       0.376   5.239  -8.197  1.00  0.00     0.000 G0
ENDBRANCH   5   6
ENDBRANCH   4   5
ENDBRANCH   3   4
ENDBRANCH   1   3
BRANCH   1  10
ATOM     10  C   UNL     1      -0.376   5.252 -12.070  1.00  0.00     0.057 C 
BRANCH  10  11
ATOM     11  C   UNL     1       0.488   6.338 -11.450  1.00  0.00    -0.026 C 
ATOM     12  C   UNL     1       1.261   6.286 -10.337  1.00  0.00    -0.024 C 
BRANCH  12  13
ATOM     13  C   UNL     1       1.451   5.135  -9.339  1.00  0.00    -0.014 C 
ATOM     14  C   UNL     1       2.855   5.289  -8.703  1.00  0.00     0.016 C 
ATOM     15  C   UNL     1       1.436   3.769 -10.069  1.00  0.00     0.016 C 
BRANCH  13  16
ATOM     16  C   UNL     1       0.390   5.251  -8.201  1.00  0.00     0.038 CG0
ATOM     17  G   UNL     1       0.288   6.620  -7.564  1.00  0.00     0.000 G0
ENDBRANCH  13  16
ENDBRANCH  12  13
ENDBRANCH  10  11
ENDBRANCH   1  10
TORSDOF 0
ENDMDL
MODEL 2
REMARK VINA RESULT:    11.346      1.560      4.635
REMARK INTER + INTRA:          19.752
REMARK INTER:                  16.663
REMARK INTRA:                   3.089
REMARK UNBOUND:                 3.099
REMARK SMILES C=C1CC=CC(C)(C)CC=C(C)CCC1
REMARK SMILES IDX 2 1 1 2 15 3 14 4 13 5 11 6 12 7 10 8 3 10 4 11 5 12 6 13
REMARK SMILES IDX 7 14 8 15 9 16
REMARK H PARENT
REMARK Flexibility Score: 60.00
ROOT
ATOM      1  C   UNL     1      -0.753   7.412  -7.766  1.00  0.00    -0.074 C 
ATOM      2  C   UNL     1      -1.625   8.194  -7.103  1.00  0.00     0.008 C 
ENDROOT
BRANCH   1   3
ATOM      3  C   UNL     1       0.365   6.726  -6.995  1.00  0.00     0.031 C 
BRANCH   3   4
ATOM      4  C   UNL     1       1.104   5.656  -7.813  1.00  0.00     0.009 C 
BRANCH   4   5
ATOM      5  C   UNL     1       1.181   5.975  -9.320  1.00  0.00     0.030 C 
BRANCH   5   6
ATOM      6  C   UNL     1       1.118   4.705 -10.156  1.00  0.00    -0.077 C 
ATOM      7  C   UNL     1       1.815   3.468  -9.652  1.00  0.00     0.039 C 
ATOM      8  C   UNL     1       0.439   4.625 -11.327  1.00  0.00    -0.027 CG0
ATOM      9  G   UNL     1      -0.277   5.781 -11.991  1.00  0.00     0.000 G0
ENDBRANCH   5   6
ENDBRANCH   4   5
ENDBRANCH   3   4
ENDBRANCH   1   3
BRANCH   1  10
ATOM     10  C   UNL     1      -0.983   7.054  -9.227  1.00  0.00     0.057 C 
BRANCH  10  11
ATOM     11  C   UNL     1      -2.055   6.007  -9.480  1.00  0.00    -0.026 C 
ATOM     12  C   UNL     1      -2.399   5.397 -10.641  1.00  0.00    -0.024 C 
BRANCH  12  13
ATOM     13  C   UNL     1      -1.849   5.622 -12.057  1.00  0.00    -0.014 C 
ATOM     14  C   UNL     1      -2.441   6.952 -12.586  1.00  0.00     0.016 C 
ATOM     15  C   UNL     1      -2.328   4.504 -13.016  1.00  0.00     0.016 C 
BRANCH  13  16
ATOM     16  C   UNL     1      -0.297   5.776 -11.995  1.00  0.00     0.038 CG0
ATOM     17  G   UNL     1       0.429   4.622 -11.337  1.00  0.00     0.000 G0
ENDBRANCH  13  16
ENDBRANCH  12  13
ENDBRANCH  10  11
ENDBRANCH   1  10
TORSDOF 0
ENDMDL
MODEL 3
REMARK VINA RESULT:    11.789      1.433      3.825
REMARK INTER + INTRA:          20.402
REMARK INTER:                  18.592
REMARK INTRA:                   1.809
REMARK UNBOUND:                 3.099
REMARK SMILES C=C1CC=CC(C)(C)CC=C(C)CCC1
REMARK SMILES IDX 2 1 1 2 15 3 14 4 13 5 11 6 12 7 10 8 3 10 4 11 5 12 6 13
REMARK SMILES IDX 7 14 8 15 9 16
REMARK H PARENT
REMARK Flexibility Score: 60.00
ROOT
ATOM      1  C   UNL     1       1.171   5.306  -9.819  1.00  0.00    -0.074 C 
ATOM      2  C   UNL     1       1.264   4.001 -10.135  1.00  0.00     0.008 C 
ENDROOT
BRANCH   1   3
ATOM      3  C   UNL     1       1.734   5.791  -8.491  1.00  0.00     0.031 C 
BRANCH   3   4
ATOM      4  C   UNL     1       0.652   6.222  -7.489  1.00  0.00     0.009 C 
BRANCH   4   5
ATOM      5  C   UNL     1      -0.748   5.663  -7.814  1.00  0.00     0.030 C 
BRANCH   5   6
ATOM      6  C   UNL     1      -1.623   6.720  -8.473  1.00  0.00    -0.077 C 
ATOM      7  C   UNL     1      -1.864   8.018  -7.749  1.00  0.00     0.039 C 
ATOM      8  C   UNL     1      -2.179   6.558  -9.700  1.00  0.00    -0.027 CG0
ATOM      9  G   UNL     1      -2.069   5.302 -10.538  1.00  0.00     0.000 G0
ENDBRANCH   5   6
ENDBRANCH   4   5
ENDBRANCH   3   4
ENDBRANCH   1   3
BRANCH   1  10
ATOM     10  C   UNL     1       0.691   6.324 -10.844  1.00  0.00     0.057 C 
BRANCH  10  11
ATOM     11  C   UNL     1       0.378   5.763 -12.221  1.00  0.00    -0.026 C 
ATOM     12  C   UNL     1      -0.825   5.449 -12.764  1.00  0.00    -0.024 C 
BRANCH  12  13
ATOM     13  C   UNL     1      -2.223   5.512 -12.132  1.00  0.00    -0.014 C 
ATOM     14  C   UNL     1      -3.058   4.347 -12.719  1.00  0.00     0.016 C 
ATOM     15  C   UNL     1      -2.943   6.825 -12.526  1.00  0.00     0.016 C 
BRANCH  13  16
ATOM     16  C   UNL     1      -2.108   5.295 -10.591  1.00  0.00     0.038 CG0
ATOM     17  G   UNL     1      -2.179   6.561  -9.764  1.00  0.00     0.000 G0
ENDBRANCH  13  16
ENDBRANCH  12  13
ENDBRANCH  10  11
ENDBRANCH   1  10
TORSDOF 0
ENDMDL
MODEL 4
REMARK VINA RESULT:    12.207      1.191      3.988
REMARK INTER + INTRA:          21.015
REMARK INTER:                  17.979
REMARK INTRA:                   3.036
REMARK UNBOUND:                 3.099
REMARK SMILES C=C1CC=CC(C)(C)CC=C(C)CCC1
REMARK SMILES IDX 2 1 1 2 15 3 14 4 13 5 11 6 12 7 10 8 3 10 4 11 5 12 6 13
REMARK SMILES IDX 7 14 8 15 9 16
REMARK H PARENT
REMARK Flexibility Score: 60.00
ROOT
ATOM      1  C   UNL     1      -1.516   7.744  -7.507  1.00  0.00    -0.074 C 
ATOM      2  C   UNL     1      -1.981   8.645  -6.622  1.00  0.00     0.008 C 
ENDROOT
BRANCH   1   3
ATOM      3  C   UNL     1      -2.486   7.090  -8.480  1.00  0.00     0.031 C 
BRANCH   3   4
ATOM      4  C   UNL     1      -1.837   6.004  -9.353  1.00  0.00     0.009 C 
BRANCH   4   5
ATOM      5  C   UNL     1      -2.372   5.975 -10.800  1.00  0.00     0.030 C 
BRANCH   5   6
ATOM      6  C   UNL     1      -1.283   5.566 -11.781  1.00  0.00    -0.077 C 
ATOM      7  C   UNL     1      -1.684   5.020 -13.126  1.00  0.00     0.039 C 
ATOM      8  C   UNL     1       0.040   5.693 -11.510  1.00  0.00    -0.027 CG0
ATOM      9  G   UNL     1       0.609   6.183 -10.195  1.00  0.00     0.000 G0
ENDBRANCH   5   6
ENDBRANCH   4   5
ENDBRANCH   3   4
ENDBRANCH   1   3
BRANCH   1  10
ATOM     10  C   UNL     1      -0.021   7.515  -7.674  1.00  0.00     0.057 C 
BRANCH  10  11
ATOM     11  C   UNL     1       0.484   6.153  -7.229  1.00  0.00    -0.026 C 
ATOM     12  C   UNL     1       1.143   5.208  -7.945  1.00  0.00    -0.024 C 
BRANCH  12  13
ATOM     13  C   UNL     1       1.526   5.208  -9.433  1.00  0.00    -0.014 C 
ATOM     14  C   UNL     1       1.265   3.785  -9.985  1.00  0.00     0.016 C 
ATOM     15  C   UNL     1       3.038   5.488  -9.609  1.00  0.00     0.016 C 
BRANCH  13  16
ATOM     16  C   UNL     1       0.607   6.203 -10.207  1.00  0.00     0.038 CG0
ATOM     17  G   UNL     1       0.057   5.675 -11.514  1.00  0.00     0.000 G0
ENDBRANCH  13  16
ENDBRANCH  12  13
ENDBRANCH  10  11
ENDBRANCH   1  10
TORSDOF 0
ENDMDL
MODEL 5
REMARK VINA RESULT:    13.677      1.060      3.449
REMARK INTER + INTRA:          23.173
REMARK INTER:                  21.528
REMARK INTRA:                   1.645
REMARK UNBOUND:                 3.099
REMARK SMILES C=C1CC=CC(C)(C)CC=C(C)CCC1
REMARK SMILES IDX 2 1 1 2 15 3 14 4 13 5 11 6 12 7 10 8 3 10 4 11 5 12 6 13
REMARK SMILES IDX 7 14 8 15 9 16
REMARK H PARENT
REMARK Flexibility Score: 60.00
ROOT
ATOM      1  C   UNL     1      -2.006   5.807 -12.174  1.00  0.00    -0.074 C 
ATOM      2  C   UNL     1      -3.220   5.515 -12.676  1.00  0.00     0.008 C 
ENDROOT
BRANCH   1   3
ATOM      3  C   UNL     1      -0.763   5.430 -12.966  1.00  0.00     0.031 C 
BRANCH   3   4
ATOM      4  C   UNL     1       0.487   5.245 -12.093  1.00  0.00     0.009 C 
BRANCH   4   5
ATOM      5  C   UNL     1       0.266   4.303 -10.892  1.00  0.00     0.030 C 
BRANCH   5   6
ATOM      6  C   UNL     1       1.380   4.450  -9.865  1.00  0.00    -0.077 C 
ATOM      7  C   UNL     1       2.342   3.307  -9.667  1.00  0.00     0.039 C 
ATOM      8  C   UNL     1       1.565   5.577  -9.133  1.00  0.00    -0.027 CG0
ATOM      9  G   UNL     1       0.666   6.794  -9.180  1.00  0.00     0.000 G0
ENDBRANCH   5   6
ENDBRANCH   4   5
ENDBRANCH   3   4
ENDBRANCH   1   3
BRANCH   1  10
ATOM     10  C   UNL     1      -1.865   6.672 -10.930  1.00  0.00     0.057 C 
BRANCH  10  11
ATOM     11  C   UNL     1      -2.231   5.994  -9.620  1.00  0.00    -0.026 C 
ATOM     12  C   UNL     1      -1.632   6.094  -8.407  1.00  0.00    -0.024 C 
BRANCH  12  13
ATOM     13  C   UNL     1      -0.372   6.877  -8.007  1.00  0.00    -0.014 C 
ATOM     14  C   UNL     1       0.235   6.187  -6.761  1.00  0.00     0.016 C 
ATOM     15  C   UNL     1      -0.736   8.322  -7.589  1.00  0.00     0.016 C 
BRANCH  13  16
ATOM     16  C   UNL     1       0.676   6.800  -9.160  1.00  0.00     0.038 CG0
ATOM     17  G   UNL     1       1.557   5.570  -9.138  1.00  0.00     0.000 G0
ENDBRANCH  13  16
ENDBRANCH  12  13
ENDBRANCH  10  11
ENDBRANCH   1  10
TORSDOF 0
ENDMDL
