MODEL 1
REMARK VINA RESULT:    56.544      0.000      0.000
REMARK INTER + INTRA:          80.607
REMARK INTER:                  79.683
REMARK INTRA:                   0.924
REMARK UNBOUND:                 0.924
REMARK SMILES COc1ccc(-c2cc(=O)c3c(OC)c(OC)c(OC)c(OC)c3o2)cc1OC
REMARK SMILES IDX 7 1 8 2 9 3 10 4 11 5 24 6 25 7 21 8 18 9 15 10 12 11 6 12
REMARK SMILES IDX 3 13 27 14 4 15 26 16 5 17 2 18 1 19 28 20 29 21 22 22 23 23
REMARK SMILES IDX 13 24 14 25 19 26 20 27 16 28 17 29
REMARK H PARENT
REMARK Flexibility Score: inf
ROOT
ATOM      1  C   UNL     1       9.947  72.599   5.340  1.00  0.00     0.138 A 
ATOM      2  C   UNL     1       9.658  71.987   6.566  1.00  0.00     0.100 A 
ATOM      3  C   UNL     1       9.259  70.650   6.586  1.00  0.00     0.197 A 
ATOM      4  O   UNL     1       9.004  70.115   7.700  1.00  0.00    -0.289 OA
ATOM      5  C   UNL     1       9.153  69.929   5.374  1.00  0.00     0.115 A 
ATOM      6  C   UNL     1       9.479  70.614   4.182  1.00  0.00     0.188 A 
ATOM      7  O   UNL     1       9.853  71.891   4.220  1.00  0.00    -0.452 OA
ATOM      8  C   UNL     1       9.423  69.969   2.945  1.00  0.00     0.209 A 
ATOM      9  C   UNL     1       9.059  68.607   2.887  1.00  0.00     0.211 A 
ATOM     10  C   UNL     1       8.631  67.934   4.056  1.00  0.00     0.208 A 
ATOM     11  C   UNL     1       8.729  68.578   5.316  1.00  0.00     0.179 A 
ENDROOT
BRANCH   1  12
ATOM     12  C   UNL     1      10.378  74.018   5.253  1.00  0.00     0.021 A 
ATOM     13  C   UNL     1      11.253  76.697   5.083  1.00  0.00     0.160 A 
ATOM     14  C   UNL     1       9.898  76.391   4.884  1.00  0.00     0.161 A 
ATOM     15  C   UNL     1      12.166  75.661   5.352  1.00  0.00     0.051 A 
ATOM     16  C   UNL     1       9.467  75.052   4.967  1.00  0.00     0.062 A 
ATOM     17  C   UNL     1      11.732  74.338   5.431  1.00  0.00     0.016 A 
BRANCH  13  18
ATOM     18  O   UNL     1      11.652  78.041   5.002  1.00  0.00    -0.493 OA
ATOM     19  C   UNL     1      12.935  78.525   5.388  1.00  0.00     0.278 C 
ENDBRANCH  13  18
BRANCH  14  20
ATOM     20  O   UNL     1       9.014  77.444   4.605  1.00  0.00    -0.493 OA
ATOM     21  C   UNL     1       9.109  78.302   3.472  1.00  0.00     0.278 C 
ENDBRANCH  14  20
ENDBRANCH   1  12
BRANCH   8  22
ATOM     22  O   UNL     1       9.751  70.735   1.809  1.00  0.00    -0.490 OA
ATOM     23  C   UNL     1       9.089  70.694   0.550  1.00  0.00     0.278 C 
ENDBRANCH   8  22
BRANCH  11  24
ATOM     24  O   UNL     1       8.407  67.930   6.528  1.00  0.00    -0.492 OA
ATOM     25  C   UNL     1       9.151  66.909   7.181  1.00  0.00     0.278 C 
ENDBRANCH  11  24
BRANCH   9  26
ATOM     26  O   UNL     1       9.171  67.907   1.687  1.00  0.00    -0.490 OA
ATOM     27  C   UNL     1       9.188  66.485   1.667  1.00  0.00     0.279 C 
ENDBRANCH   9  26
BRANCH  10  28
ATOM     28  O   UNL     1       8.096  66.637   3.990  1.00  0.00    -0.490 OA
ATOM     29  C   UNL     1       6.713  66.314   4.115  1.00  0.00     0.278 C 
ENDBRANCH  10  28
TORSDOF 7
ENDMDL
MODEL 2
REMARK VINA RESULT:    57.983      0.978      1.824
REMARK INTER + INTRA:          82.635
REMARK INTER:                  81.311
REMARK INTRA:                   1.324
REMARK UNBOUND:                 0.924
REMARK SMILES COc1ccc(-c2cc(=O)c3c(OC)c(OC)c(OC)c(OC)c3o2)cc1OC
REMARK SMILES IDX 7 1 8 2 9 3 10 4 11 5 24 6 25 7 21 8 18 9 15 10 12 11 6 12
REMARK SMILES IDX 3 13 27 14 4 15 26 16 5 17 2 18 1 19 28 20 29 21 22 22 23 23
REMARK SMILES IDX 13 24 14 25 19 26 20 27 16 28 17 29
REMARK H PARENT
REMARK Flexibility Score: inf
ROOT
ATOM      1  C   UNL     1       9.575  73.223   5.388  1.00  0.00     0.138 A 
ATOM      2  C   UNL     1       9.577  72.726   6.699  1.00  0.00     0.100 A 
ATOM      3  C   UNL     1       9.421  71.357   6.912  1.00  0.00     0.197 A 
ATOM      4  O   UNL     1       9.426  70.928   8.098  1.00  0.00    -0.289 OA
ATOM      5  C   UNL     1       9.266  70.485   5.809  1.00  0.00     0.115 A 
ATOM      6  C   UNL     1       9.293  71.062   4.519  1.00  0.00     0.188 A 
ATOM      7  O   UNL     1       9.442  72.377   4.372  1.00  0.00    -0.452 OA
ATOM      8  C   UNL     1       9.169  70.271   3.375  1.00  0.00     0.209 A 
ATOM      9  C   UNL     1       9.040  68.872   3.510  1.00  0.00     0.211 A 
ATOM     10  C   UNL     1       8.909  68.288   4.791  1.00  0.00     0.208 A 
ATOM     11  C   UNL     1       9.077  69.088   5.951  1.00  0.00     0.179 A 
ENDROOT
BRANCH   1  12
ATOM     12  C   UNL     1       9.738  74.669   5.096  1.00  0.00     0.021 A 
ATOM     13  C   UNL     1       9.992  77.429   4.552  1.00  0.00     0.160 A 
ATOM     14  C   UNL     1      11.141  76.642   4.722  1.00  0.00     0.161 A 
ATOM     15  C   UNL     1       8.721  76.835   4.669  1.00  0.00     0.051 A 
ATOM     16  C   UNL     1      11.010  75.265   4.996  1.00  0.00     0.062 A 
ATOM     17  C   UNL     1       8.599  75.472   4.942  1.00  0.00     0.016 A 
BRANCH  13  18
ATOM     18  O   UNL     1      10.153  78.795   4.273  1.00  0.00    -0.493 OA
ATOM     19  C   UNL     1       9.203  79.803   4.603  1.00  0.00     0.278 C 
ENDBRANCH  13  18
BRANCH  14  20
ATOM     20  O   UNL     1      12.393  77.265   4.612  1.00  0.00    -0.493 OA
ATOM     21  C   UNL     1      12.928  78.181   5.564  1.00  0.00     0.278 C 
ENDBRANCH  14  20
ENDBRANCH   1  12
BRANCH   8  22
ATOM     22  O   UNL     1       9.192  70.934   2.133  1.00  0.00    -0.490 OA
ATOM     23  C   UNL     1       9.222  70.315   0.852  1.00  0.00     0.278 C 
ENDBRANCH   8  22
BRANCH  11  24
ATOM     24  O   UNL     1       9.051  68.551   7.256  1.00  0.00    -0.492 OA
ATOM     25  C   UNL     1       9.194  67.185   7.626  1.00  0.00     0.278 C 
ENDBRANCH  11  24
BRANCH   9  26
ATOM     26  O   UNL     1       9.096  68.057   2.380  1.00  0.00    -0.490 OA
ATOM     27  C   UNL     1      10.338  67.741   1.764  1.00  0.00     0.279 C 
ENDBRANCH   9  26
BRANCH  10  28
ATOM     28  O   UNL     1       8.601  66.926   4.939  1.00  0.00    -0.490 OA
ATOM     29  C   UNL     1       7.292  66.368   4.857  1.00  0.00     0.278 C 
ENDBRANCH  10  28
TORSDOF 7
ENDMDL
