MODEL 1
REMARK VINA RESULT:    -4.342      0.000      0.000
REMARK INTER + INTRA:          -6.093
REMARK INTER:                  -5.865
REMARK INTRA:                  -0.228
REMARK UNBOUND:                -0.228
REMARK SMILES CCCCCCCC(=O)[O-]
REMARK SMILES IDX 5 1 6 2 7 3 8 4 9 5 10 6 4 7 3 8 2 9 1 10
REMARK H PARENT
REMARK Flexibility Score: inf
ROOT
ATOM      1  C   UNL     1      20.447 -23.448  14.845  1.00  0.00     0.000 C 
ENDROOT
BRANCH   1   2
ATOM      2  C   UNL     1      20.717 -21.959  15.128  1.00  0.00     0.006 C 
BRANCH   2   3
ATOM      3  C   UNL     1      19.721 -21.028  14.426  1.00  0.00     0.053 C 
BRANCH   3   4
ATOM      4  C   UNL     1      20.034 -19.599  14.735  1.00  0.00     0.041 C 
ATOM      5  O   UNL     1      20.132 -19.215  15.931  1.00  0.00    -0.550 OA
ATOM      6  O   UNL     1      20.267 -18.699  13.703  1.00  0.00    -0.550 OA
ENDBRANCH   3   4
ENDBRANCH   2   3
ENDBRANCH   1   2
BRANCH   1   7
ATOM      7  C   UNL     1      19.748 -23.742  13.501  1.00  0.00     0.000 C 
BRANCH   7   8
ATOM      8  C   UNL     1      20.083 -25.108  12.878  1.00  0.00    -0.000 C 
BRANCH   8   9
ATOM      9  C   UNL     1      21.201 -25.847  13.625  1.00  0.00    -0.003 C 
ATOM     10  C   UNL     1      21.122 -27.352  13.386  1.00  0.00     0.004 C 
ENDBRANCH   8   9
ENDBRANCH   7   8
ENDBRANCH   1   7
TORSDOF 6
ENDMDL
MODEL 2
REMARK VINA RESULT:    -4.083      4.241      6.340
REMARK INTER + INTRA:          -5.743
REMARK INTER:                  -5.568
REMARK INTRA:                  -0.175
REMARK UNBOUND:                -0.228
REMARK SMILES CCCCCCCC(=O)[O-]
REMARK SMILES IDX 5 1 6 2 7 3 8 4 9 5 10 6 4 7 3 8 2 9 1 10
REMARK H PARENT
REMARK Flexibility Score: inf
ROOT
ATOM      1  C   UNL     1      19.972 -23.937  13.152  1.00  0.00     0.000 C 
ENDROOT
BRANCH   1   2
ATOM      2  C   UNL     1      20.229 -25.429  12.877  1.00  0.00     0.006 C 
BRANCH   2   3
ATOM      3  C   UNL     1      21.281 -26.035  13.814  1.00  0.00     0.053 C 
BRANCH   3   4
ATOM      4  C   UNL     1      21.455 -27.494  13.531  1.00  0.00     0.041 C 
ATOM      5  O   UNL     1      20.532 -28.146  12.976  1.00  0.00    -0.550 OA
ATOM      6  O   UNL     1      22.656 -28.123  13.833  1.00  0.00    -0.550 OA
ENDBRANCH   3   4
ENDBRANCH   2   3
ENDBRANCH   1   2
BRANCH   1   7
ATOM      7  C   UNL     1      20.141 -23.504  14.624  1.00  0.00     0.000 C 
BRANCH   7   8
ATOM      8  C   UNL     1      20.714 -22.090  14.826  1.00  0.00    -0.000 C 
BRANCH   8   9
ATOM      9  C   UNL     1      19.626 -21.010  14.892  1.00  0.00    -0.003 C 
ATOM     10  C   UNL     1      20.212 -19.622  14.648  1.00  0.00     0.004 C 
ENDBRANCH   8   9
ENDBRANCH   7   8
ENDBRANCH   1   7
TORSDOF 6
ENDMDL
MODEL 3
REMARK VINA RESULT:    -3.092     15.575     16.900
REMARK INTER + INTRA:          -4.405
REMARK INTER:                  -3.873
REMARK INTRA:                  -0.532
REMARK UNBOUND:                -0.228
REMARK SMILES CCCCCCCC(=O)[O-]
REMARK SMILES IDX 5 1 6 2 7 3 8 4 9 5 10 6 4 7 3 8 2 9 1 10
REMARK H PARENT
REMARK Flexibility Score: inf
ROOT
ATOM      1  C   UNL     1       8.058 -35.147  15.376  1.00  0.00     0.000 C 
ENDROOT
BRANCH   1   2
ATOM      2  C   UNL     1       6.965 -35.301  16.448  1.00  0.00     0.006 C 
BRANCH   2   3
ATOM      3  C   UNL     1       7.302 -34.567  17.752  1.00  0.00     0.053 C 
BRANCH   3   4
ATOM      4  C   UNL     1       7.432 -33.098  17.506  1.00  0.00     0.041 C 
ATOM      5  O   UNL     1       8.465 -32.481  17.878  1.00  0.00    -0.550 OA
ATOM      6  O   UNL     1       6.435 -32.417  16.819  1.00  0.00    -0.550 OA
ENDBRANCH   3   4
ENDBRANCH   2   3
ENDBRANCH   1   2
BRANCH   1   7
ATOM      7  C   UNL     1       7.593 -34.498  14.056  1.00  0.00     0.000 C 
BRANCH   7   8
ATOM      8  C   UNL     1       8.160 -33.093  13.786  1.00  0.00    -0.000 C 
BRANCH   8   9
ATOM      9  C   UNL     1       9.528 -32.865  14.443  1.00  0.00    -0.003 C 
ATOM     10  C   UNL     1      10.585 -32.504  13.404  1.00  0.00     0.004 C 
ENDBRANCH   8   9
ENDBRANCH   7   8
ENDBRANCH   1   7
TORSDOF 6
ENDMDL
MODEL 4
REMARK VINA RESULT:    -3.029     15.877     17.132
REMARK INTER + INTRA:          -4.320
REMARK INTER:                  -3.662
REMARK INTRA:                  -0.657
REMARK UNBOUND:                -0.228
REMARK SMILES CCCCCCCC(=O)[O-]
REMARK SMILES IDX 5 1 6 2 7 3 8 4 9 5 10 6 4 7 3 8 2 9 1 10
REMARK H PARENT
REMARK Flexibility Score: inf
ROOT
ATOM      1  C   UNL     1       6.085 -33.876  15.556  1.00  0.00     0.000 C 
ENDROOT
BRANCH   1   2
ATOM      2  C   UNL     1       6.827 -34.037  14.218  1.00  0.00     0.006 C 
BRANCH   2   3
ATOM      3  C   UNL     1       7.808 -32.891  13.939  1.00  0.00     0.053 C 
BRANCH   3   4
ATOM      4  C   UNL     1       9.207 -33.310  14.266  1.00  0.00     0.041 C 
ATOM      5  O   UNL     1      10.158 -32.494  14.147  1.00  0.00    -0.550 OA
ATOM      6  O   UNL     1       9.455 -34.588  14.751  1.00  0.00    -0.550 OA
ENDBRANCH   3   4
ENDBRANCH   2   3
ENDBRANCH   1   2
BRANCH   1   7
ATOM      7  C   UNL     1       6.428 -34.933  16.626  1.00  0.00     0.000 C 
BRANCH   7   8
ATOM      8  C   UNL     1       7.348 -34.441  17.758  1.00  0.00    -0.000 C 
BRANCH   8   9
ATOM      9  C   UNL     1       7.358 -32.912  17.896  1.00  0.00    -0.003 C 
ATOM     10  C   UNL     1       8.774 -32.358  17.772  1.00  0.00     0.004 C 
ENDBRANCH   8   9
ENDBRANCH   7   8
ENDBRANCH   1   7
TORSDOF 6
ENDMDL
MODEL 5
REMARK VINA RESULT:    -3.014     15.547     16.833
REMARK INTER + INTRA:          -4.299
REMARK INTER:                  -3.742
REMARK INTRA:                  -0.557
REMARK UNBOUND:                -0.228
REMARK SMILES CCCCCCCC(=O)[O-]
REMARK SMILES IDX 5 1 6 2 7 3 8 4 9 5 10 6 4 7 3 8 2 9 1 10
REMARK H PARENT
REMARK Flexibility Score: inf
ROOT
ATOM      1  C   UNL     1       8.004 -35.137  15.969  1.00  0.00     0.000 C 
ENDROOT
BRANCH   1   2
ATOM      2  C   UNL     1       6.658 -34.441  16.237  1.00  0.00     0.006 C 
BRANCH   2   3
ATOM      3  C   UNL     1       6.816 -32.960  16.605  1.00  0.00     0.053 C 
BRANCH   3   4
ATOM      4  C   UNL     1       7.713 -32.810  17.793  1.00  0.00     0.041 C 
ATOM      5  O   UNL     1       7.366 -33.270  18.912  1.00  0.00    -0.550 OA
ATOM      6  O   UNL     1       8.956 -32.206  17.654  1.00  0.00    -0.550 OA
ENDBRANCH   3   4
ENDBRANCH   2   3
ENDBRANCH   1   2
BRANCH   1   7
ATOM      7  C   UNL     1       8.395 -35.255  14.481  1.00  0.00     0.000 C 
BRANCH   7   8
ATOM      8  C   UNL     1       9.653 -34.467  14.074  1.00  0.00    -0.000 C 
BRANCH   8   9
ATOM      9  C   UNL     1       9.406 -32.955  13.980  1.00  0.00    -0.003 C 
ATOM     10  C   UNL     1       8.345 -32.634  12.932  1.00  0.00     0.004 C 
ENDBRANCH   8   9
ENDBRANCH   7   8
ENDBRANCH   1   7
TORSDOF 6
ENDMDL
MODEL 6
REMARK VINA RESULT:    -2.951     16.444     17.555
REMARK INTER + INTRA:          -4.213
REMARK INTER:                  -3.603
REMARK INTRA:                  -0.610
REMARK UNBOUND:                -0.228
REMARK SMILES CCCCCCCC(=O)[O-]
REMARK SMILES IDX 5 1 6 2 7 3 8 4 9 5 10 6 4 7 3 8 2 9 1 10
REMARK H PARENT
REMARK Flexibility Score: inf
ROOT
ATOM      1  C   UNL     1       8.864 -32.542  15.899  1.00  0.00     0.000 C 
ENDROOT
BRANCH   1   2
ATOM      2  C   UNL     1       7.477 -32.588  16.565  1.00  0.00     0.006 C 
BRANCH   2   3
ATOM      3  C   UNL     1       7.433 -33.517  17.784  1.00  0.00     0.053 C 
BRANCH   3   4
ATOM      4  C   UNL     1       7.021 -34.896  17.376  1.00  0.00     0.041 C 
ATOM      5  O   UNL     1       7.605 -35.901  17.859  1.00  0.00    -0.550 OA
ATOM      6  O   UNL     1       5.957 -35.073  16.500  1.00  0.00    -0.550 OA
ENDBRANCH   3   4
ENDBRANCH   2   3
ENDBRANCH   1   2
BRANCH   1   7
ATOM      7  C   UNL     1       8.884 -32.911  14.401  1.00  0.00     0.000 C 
BRANCH   7   8
ATOM      8  C   UNL     1       7.512 -33.265  13.799  1.00  0.00    -0.000 C 
BRANCH   8   9
ATOM      9  C   UNL     1       7.449 -34.701  13.261  1.00  0.00    -0.003 C 
ATOM     10  C   UNL     1       8.449 -35.602  13.980  1.00  0.00     0.004 C 
ENDBRANCH   8   9
ENDBRANCH   7   8
ENDBRANCH   1   7
TORSDOF 6
ENDMDL
MODEL 7
REMARK VINA RESULT:    -2.898     16.098     17.248
REMARK INTER + INTRA:          -4.142
REMARK INTER:                  -3.646
REMARK INTRA:                  -0.496
REMARK UNBOUND:                -0.228
REMARK SMILES CCCCCCCC(=O)[O-]
REMARK SMILES IDX 5 1 6 2 7 3 8 4 9 5 10 6 4 7 3 8 2 9 1 10
REMARK H PARENT
REMARK Flexibility Score: inf
ROOT
ATOM      1  C   UNL     1       8.444 -32.873  13.957  1.00  0.00     0.000 C 
ENDROOT
BRANCH   1   2
ATOM      2  C   UNL     1       8.769 -32.874  15.461  1.00  0.00     0.006 C 
BRANCH   2   3
ATOM      3  C   UNL     1       7.535 -32.632  16.338  1.00  0.00     0.053 C 
BRANCH   3   4
ATOM      4  C   UNL     1       7.866 -32.851  17.780  1.00  0.00     0.041 C 
ATOM      5  O   UNL     1       7.338 -33.802  18.415  1.00  0.00    -0.550 OA
ATOM      6  O   UNL     1       8.798 -32.038  18.411  1.00  0.00    -0.550 OA
ENDBRANCH   3   4
ENDBRANCH   2   3
ENDBRANCH   1   2
BRANCH   1   7
ATOM      7  C   UNL     1       7.072 -33.473  13.584  1.00  0.00     0.000 C 
BRANCH   7   8
ATOM      8  C   UNL     1       7.015 -35.010  13.571  1.00  0.00    -0.000 C 
BRANCH   8   9
ATOM      9  C   UNL     1       5.978 -35.578  14.549  1.00  0.00    -0.003 C 
ATOM     10  C   UNL     1       6.654 -36.208  15.764  1.00  0.00     0.004 C 
ENDBRANCH   8   9
ENDBRANCH   7   8
ENDBRANCH   1   7
TORSDOF 6
ENDMDL
