MODEL 1
REMARK VINA RESULT:    -4.481      0.000      0.000
REMARK INTER + INTRA:          -4.481
REMARK INTER:                  -4.481
REMARK INTRA:                   0.000
REMARK UNBOUND:                 0.000
REMARK SMILES CC1(C)O[C@]2(C)CC[C@H]1CC2
REMARK SMILES IDX 1 1 2 2 9 3 8 4 7 5 5 6 4 7 11 8 10 9 6 10 3 11
REMARK H PARENT
REMARK Flexibility Score: inf
ROOT
ATOM      1  C   UNL     1      23.222   1.593 102.994  1.00  0.00     0.042 C 
ATOM      2  C   UNL     1      22.176   2.691 103.284  1.00  0.00     0.066 C 
ATOM      3  C   UNL     1      22.821   3.872 104.108  1.00  0.00     0.021 C 
ATOM      4  C   UNL     1      21.746   4.963 104.324  1.00  0.00     0.009 C 
ATOM      5  C   UNL     1      21.110   5.328 102.961  1.00  0.00     0.035 C 
ATOM      6  C   UNL     1      21.824   4.546 101.820  1.00  0.00     0.066 C 
ATOM      7  O   UNL     1      21.646   3.145 102.029  1.00  0.00    -0.369 OA
ATOM      8  C   UNL     1      23.344   4.879 101.854  1.00  0.00     0.035 C 
ATOM      9  C   UNL     1      23.927   4.525 103.244  1.00  0.00     0.009 C 
ATOM     10  C   UNL     1      21.227   4.923 100.461  1.00  0.00     0.042 C 
ATOM     11  C   UNL     1      21.029   2.034 104.080  1.00  0.00     0.042 C 
ENDROOT
TORSDOF 0
ENDMDL
MODEL 2
REMARK VINA RESULT:    -4.453      1.385      3.217
REMARK INTER + INTRA:          -4.453
REMARK INTER:                  -4.453
REMARK INTRA:                   0.000
REMARK UNBOUND:                 0.000
REMARK SMILES CC1(C)O[C@]2(C)CC[C@H]1CC2
REMARK SMILES IDX 1 1 2 2 9 3 8 4 7 5 5 6 4 7 11 8 10 9 6 10 3 11
REMARK H PARENT
REMARK Flexibility Score: inf
ROOT
ATOM      1  C   UNL     1      24.723   3.165 103.002  1.00  0.00     0.042 C 
ATOM      2  C   UNL     1      23.618   4.232 102.837  1.00  0.00     0.066 C 
ATOM      3  C   UNL     1      22.336   3.607 102.163  1.00  0.00     0.021 C 
ATOM      4  C   UNL     1      21.248   4.703 102.071  1.00  0.00     0.009 C 
ATOM      5  C   UNL     1      21.060   5.353 103.463  1.00  0.00     0.035 C 
ATOM      6  C   UNL     1      21.957   4.628 104.508  1.00  0.00     0.066 C 
ATOM      7  O   UNL     1      23.328   4.777 104.133  1.00  0.00    -0.369 OA
ATOM      8  C   UNL     1      21.594   3.115 104.524  1.00  0.00     0.035 C 
ATOM      9  C   UNL     1      21.769   2.518 103.106  1.00  0.00     0.009 C 
ATOM     10  C   UNL     1      21.756   5.239 105.898  1.00  0.00     0.042 C 
ATOM     11  C   UNL     1      24.199   5.362 101.960  1.00  0.00     0.042 C 
ENDROOT
TORSDOF 0
ENDMDL
MODEL 3
REMARK VINA RESULT:    -3.795      1.169      3.101
REMARK INTER + INTRA:          -3.795
REMARK INTER:                  -3.795
REMARK INTRA:                   0.000
REMARK UNBOUND:                 0.000
REMARK SMILES CC1(C)O[C@]2(C)CC[C@H]1CC2
REMARK SMILES IDX 1 1 2 2 9 3 8 4 7 5 5 6 4 7 11 8 10 9 6 10 3 11
REMARK H PARENT
REMARK Flexibility Score: inf
ROOT
ATOM      1  C   UNL     1      22.642   6.003 101.159  1.00  0.00     0.042 C 
ATOM      2  C   UNL     1      22.040   4.765 101.859  1.00  0.00     0.066 C 
ATOM      3  C   UNL     1      23.165   3.712 102.195  1.00  0.00     0.021 C 
ATOM      4  C   UNL     1      22.515   2.521 102.939  1.00  0.00     0.009 C 
ATOM      5  C   UNL     1      21.680   3.056 104.127  1.00  0.00     0.035 C 
ATOM      6  C   UNL     1      21.848   4.600 104.234  1.00  0.00     0.066 C 
ATOM      7  O   UNL     1      21.355   5.209 103.040  1.00  0.00    -0.369 OA
ATOM      8  C   UNL     1      23.359   4.935 104.394  1.00  0.00     0.035 C 
ATOM      9  C   UNL     1      24.153   4.355 103.198  1.00  0.00     0.009 C 
ATOM     10  C   UNL     1      21.054   5.140 105.428  1.00  0.00     0.042 C 
ATOM     11  C   UNL     1      20.995   4.158 100.898  1.00  0.00     0.042 C 
ENDROOT
TORSDOF 0
ENDMDL
MODEL 4
REMARK VINA RESULT:    -3.753      1.200      2.537
REMARK INTER + INTRA:          -3.753
REMARK INTER:                  -3.753
REMARK INTRA:                   0.000
REMARK UNBOUND:                 0.000
REMARK SMILES CC1(C)O[C@]2(C)CC[C@H]1CC2
REMARK SMILES IDX 1 1 2 2 9 3 8 4 7 5 5 6 4 7 11 8 10 9 6 10 3 11
REMARK H PARENT
REMARK Flexibility Score: inf
ROOT
ATOM      1  C   UNL     1      20.592   3.791 105.075  1.00  0.00     0.042 C 
ATOM      2  C   UNL     1      21.843   4.386 104.393  1.00  0.00     0.066 C 
ATOM      3  C   UNL     1      22.791   3.240 103.867  1.00  0.00     0.021 C 
ATOM      4  C   UNL     1      23.996   3.892 103.149  1.00  0.00     0.009 C 
ATOM      5  C   UNL     1      23.478   4.907 102.102  1.00  0.00     0.035 C 
ATOM      6  C   UNL     1      21.923   4.866 102.054  1.00  0.00     0.066 C 
ATOM      7  O   UNL     1      21.404   5.245 103.330  1.00  0.00    -0.369 OA
ATOM      8  C   UNL     1      21.464   3.415 101.727  1.00  0.00     0.035 C 
ATOM      9  C   UNL     1      22.031   2.436 102.784  1.00  0.00     0.009 C 
ATOM     10  C   UNL     1      21.397   5.842 100.997  1.00  0.00     0.042 C 
ATOM     11  C   UNL     1      22.569   5.255 105.443  1.00  0.00     0.042 C 
ENDROOT
TORSDOF 0
ENDMDL
MODEL 5
REMARK VINA RESULT:    -3.748      8.569     10.201
REMARK INTER + INTRA:          -3.748
REMARK INTER:                  -3.748
REMARK INTRA:                   0.000
REMARK UNBOUND:                 0.000
REMARK SMILES CC1(C)O[C@]2(C)CC[C@H]1CC2
REMARK SMILES IDX 1 1 2 2 9 3 8 4 7 5 5 6 4 7 11 8 10 9 6 10 3 11
REMARK H PARENT
REMARK Flexibility Score: inf
ROOT
ATOM      1  C   UNL     1      29.620   3.579 104.490  1.00  0.00     0.042 C 
ATOM      2  C   UNL     1      30.753   4.626 104.431  1.00  0.00     0.066 C 
ATOM      3  C   UNL     1      31.720   4.472 105.668  1.00  0.00     0.021 C 
ATOM      4  C   UNL     1      32.862   5.507 105.529  1.00  0.00     0.009 C 
ATOM      5  C   UNL     1      33.498   5.379 104.124  1.00  0.00     0.035 C 
ATOM      6  C   UNL     1      32.843   4.195 103.355  1.00  0.00     0.066 C 
ATOM      7  O   UNL     1      31.449   4.459 103.186  1.00  0.00    -0.369 OA
ATOM      8  C   UNL     1      33.018   2.892 104.188  1.00  0.00     0.035 C 
ATOM      9  C   UNL     1      32.393   3.080 105.592  1.00  0.00     0.009 C 
ATOM     10  C   UNL     1      33.486   4.035 101.974  1.00  0.00     0.042 C 
ATOM     11  C   UNL     1      30.091   6.020 104.427  1.00  0.00     0.042 C 
ENDROOT
TORSDOF 0
ENDMDL
MODEL 6
REMARK VINA RESULT:    -3.663     11.905     13.582
REMARK INTER + INTRA:          -3.663
REMARK INTER:                  -3.663
REMARK INTRA:                   0.000
REMARK UNBOUND:                 0.000
REMARK SMILES CC1(C)O[C@]2(C)CC[C@H]1CC2
REMARK SMILES IDX 1 1 2 2 9 3 8 4 7 5 5 6 4 7 11 8 10 9 6 10 3 11
REMARK H PARENT
REMARK Flexibility Score: inf
ROOT
ATOM      1  C   UNL     1      28.532  -6.586  92.906  1.00  0.00     0.042 C 
ATOM      2  C   UNL     1      28.799  -5.481  93.951  1.00  0.00     0.066 C 
ATOM      3  C   UNL     1      28.458  -4.059  93.360  1.00  0.00     0.021 C 
ATOM      4  C   UNL     1      28.694  -3.000  94.464  1.00  0.00     0.009 C 
ATOM      5  C   UNL     1      27.939  -3.424  95.746  1.00  0.00     0.035 C 
ATOM      6  C   UNL     1      27.121  -4.719  95.472  1.00  0.00     0.066 C 
ATOM      7  O   UNL     1      28.017  -5.774  95.119  1.00  0.00    -0.369 OA
ATOM      8  C   UNL     1      26.146  -4.461  94.287  1.00  0.00     0.035 C 
ATOM      9  C   UNL     1      26.945  -4.012  93.038  1.00  0.00     0.009 C 
ATOM     10  C   UNL     1      26.340  -5.132  96.723  1.00  0.00     0.042 C 
ATOM     11  C   UNL     1      30.291  -5.567  94.339  1.00  0.00     0.042 C 
ENDROOT
TORSDOF 0
ENDMDL
MODEL 7
REMARK VINA RESULT:    -3.642      9.110     10.167
REMARK INTER + INTRA:          -3.642
REMARK INTER:                  -3.642
REMARK INTRA:                   0.000
REMARK UNBOUND:                 0.000
REMARK SMILES CC1(C)O[C@]2(C)CC[C@H]1CC2
REMARK SMILES IDX 1 1 2 2 9 3 8 4 7 5 5 6 4 7 11 8 10 9 6 10 3 11
REMARK H PARENT
REMARK Flexibility Score: inf
ROOT
ATOM      1  C   UNL     1      33.212   2.847 106.743  1.00  0.00     0.042 C 
ATOM      2  C   UNL     1      31.997   3.552 106.102  1.00  0.00     0.066 C 
ATOM      3  C   UNL     1      32.094   5.115 106.294  1.00  0.00     0.021 C 
ATOM      4  C   UNL     1      30.882   5.771 105.589  1.00  0.00     0.009 C 
ATOM      5  C   UNL     1      30.795   5.249 104.135  1.00  0.00     0.035 C 
ATOM      6  C   UNL     1      32.003   4.314 103.837  1.00  0.00     0.066 C 
ATOM      7  O   UNL     1      31.952   3.188 104.714  1.00  0.00    -0.369 OA
ATOM      8  C   UNL     1      33.324   5.098 104.091  1.00  0.00     0.035 C 
ATOM      9  C   UNL     1      33.350   5.623 105.547  1.00  0.00     0.009 C 
ATOM     10  C   UNL     1      31.949   3.817 102.390  1.00  0.00     0.042 C 
ATOM     11  C   UNL     1      30.730   2.996 106.786  1.00  0.00     0.042 C 
ENDROOT
TORSDOF 0
ENDMDL
MODEL 8
REMARK VINA RESULT:    -3.630      7.643      9.211
REMARK INTER + INTRA:          -3.630
REMARK INTER:                  -3.630
REMARK INTRA:                   0.000
REMARK UNBOUND:                 0.000
REMARK SMILES CC1(C)O[C@]2(C)CC[C@H]1CC2
REMARK SMILES IDX 1 1 2 2 9 3 8 4 7 5 5 6 4 7 11 8 10 9 6 10 3 11
REMARK H PARENT
REMARK Flexibility Score: inf
ROOT
ATOM      1  C   UNL     1      22.126  -5.696 103.140  1.00  0.00     0.042 C 
ATOM      2  C   UNL     1      21.798  -5.675 101.631  1.00  0.00     0.066 C 
ATOM      3  C   UNL     1      20.970  -4.386 101.257  1.00  0.00     0.021 C 
ATOM      4  C   UNL     1      20.716  -4.392  99.731  1.00  0.00     0.009 C 
ATOM      5  C   UNL     1      22.061  -4.597  98.992  1.00  0.00     0.035 C 
ATOM      6  C   UNL     1      23.227  -4.636 100.022  1.00  0.00     0.066 C 
ATOM      7  O   UNL     1      23.036  -5.742 100.905  1.00  0.00    -0.369 OA
ATOM      8  C   UNL     1      23.219  -3.317 100.846  1.00  0.00     0.035 C 
ATOM      9  C   UNL     1      21.846  -3.142 101.541  1.00  0.00     0.009 C 
ATOM     10  C   UNL     1      24.568  -4.806  99.301  1.00  0.00     0.042 C 
ATOM     11  C   UNL     1      20.990  -6.952 101.319  1.00  0.00     0.042 C 
ENDROOT
TORSDOF 0
ENDMDL
