MODEL 1
REMARK VINA RESULT:    -7.100      0.000      0.000
REMARK INTER + INTRA:          -9.412
REMARK INTER:                  -8.968
REMARK INTRA:                  -0.445
REMARK UNBOUND:                -0.445
REMARK SMILES Oc1ccc(CCc2cc(O)cc(O)c2)cc1
REMARK SMILES IDX 6 1 5 2 4 3 3 4 2 5 16 6 17 7 1 8 7 10 8 11 15 12 9 13 13 14
REMARK SMILES IDX 10 15 12 16 14 17 11 19
REMARK H PARENT 1 9 14 18 11 20
REMARK Flexibility Score: inf
ROOT
ATOM      1  C   UNL     1       4.207  -3.271  37.341  1.00  0.00     0.040 C 
ENDROOT
BRANCH   1   2
ATOM      2  C   UNL     1       5.075  -2.180  36.773  1.00  0.00    -0.047 A 
ATOM      3  C   UNL     1       4.666  -0.838  36.848  1.00  0.00     0.007 A 
ATOM      4  C   UNL     1       5.488   0.177  36.350  1.00  0.00     0.046 A 
ATOM      5  C   UNL     1       6.731  -0.137  35.783  1.00  0.00     0.115 A 
ATOM      6  C   UNL     1       6.327  -2.488  36.216  1.00  0.00     0.007 A 
ATOM      7  C   UNL     1       7.146  -1.471  35.719  1.00  0.00     0.046 A 
BRANCH   5   8
ATOM      8  O   UNL     1       7.557   0.867  35.284  1.00  0.00    -0.508 OA
ATOM      9  H   UNL     1       7.216   1.555  34.623  1.00  0.00     0.293 HD
ENDBRANCH   5   8
ENDBRANCH   1   2
BRANCH   1  10
ATOM     10  C   UNL     1       2.780  -2.763  37.566  1.00  0.00     0.040 C 
BRANCH  10  11
ATOM     11  C   UNL     1       2.489  -2.638  39.037  1.00  0.00    -0.040 A 
ATOM     12  C   UNL     1       2.764  -1.437  39.713  1.00  0.00     0.050 A 
ATOM     13  C   UNL     1       1.887  -3.699  39.733  1.00  0.00     0.050 A 
ATOM     14  C   UNL     1       2.462  -1.309  41.077  1.00  0.00     0.119 A 
ATOM     15  C   UNL     1       1.586  -3.572  41.093  1.00  0.00     0.119 A 
ATOM     16  C   UNL     1       1.878  -2.377  41.764  1.00  0.00     0.092 A 
BRANCH  14  17
ATOM     17  O   UNL     1       2.739  -0.125  41.756  1.00  0.00    -0.508 OA
ATOM     18  H   UNL     1       3.607   0.004  42.264  1.00  0.00     0.293 HD
ENDBRANCH  14  17
BRANCH  15  19
ATOM     19  O   UNL     1       0.996  -4.639  41.768  1.00  0.00    -0.508 OA
ATOM     20  H   UNL     1       0.169  -5.101  41.408  1.00  0.00     0.293 HD
ENDBRANCH  15  19
ENDBRANCH  10  11
ENDBRANCH   1  10
TORSDOF 6
ENDMDL
MODEL 2
REMARK VINA RESULT:    -7.088      0.186      2.041
REMARK INTER + INTRA:          -9.397
REMARK INTER:                  -8.871
REMARK INTRA:                  -0.526
REMARK UNBOUND:                -0.445
REMARK SMILES Oc1ccc(CCc2cc(O)cc(O)c2)cc1
REMARK SMILES IDX 6 1 5 2 4 3 3 4 2 5 16 6 17 7 1 8 7 10 8 11 15 12 9 13 13 14
REMARK SMILES IDX 10 15 12 16 14 17 11 19
REMARK H PARENT 1 9 14 18 11 20
REMARK Flexibility Score: inf
ROOT
ATOM      1  C   UNL     1       4.145  -3.033  37.304  1.00  0.00     0.040 C 
ENDROOT
BRANCH   1   2
ATOM      2  C   UNL     1       5.070  -1.988  36.739  1.00  0.00    -0.047 A 
ATOM      3  C   UNL     1       4.740  -0.626  36.830  1.00  0.00     0.007 A 
ATOM      4  C   UNL     1       5.615   0.345  36.334  1.00  0.00     0.046 A 
ATOM      5  C   UNL     1       6.832  -0.034  35.753  1.00  0.00     0.115 A 
ATOM      6  C   UNL     1       6.297  -2.363  36.167  1.00  0.00     0.007 A 
ATOM      7  C   UNL     1       7.170  -1.389  35.673  1.00  0.00     0.046 A 
BRANCH   5   8
ATOM      8  O   UNL     1       7.711   0.925  35.257  1.00  0.00    -0.508 OA
ATOM      9  H   UNL     1       7.536   1.402  34.380  1.00  0.00     0.293 HD
ENDBRANCH   5   8
ENDBRANCH   1   2
BRANCH   1  10
ATOM     10  C   UNL     1       2.744  -2.454  37.519  1.00  0.00     0.040 C 
BRANCH  10  11
ATOM     11  C   UNL     1       2.399  -2.436  38.984  1.00  0.00    -0.040 A 
ATOM     12  C   UNL     1       1.824  -3.565  39.589  1.00  0.00     0.050 A 
ATOM     13  C   UNL     1       2.702  -1.311  39.769  1.00  0.00     0.050 A 
ATOM     14  C   UNL     1       1.532  -3.561  40.961  1.00  0.00     0.119 A 
ATOM     15  C   UNL     1       2.412  -1.306  41.138  1.00  0.00     0.119 A 
ATOM     16  C   UNL     1       1.823  -2.431  41.731  1.00  0.00     0.092 A 
BRANCH  14  17
ATOM     17  O   UNL     1       0.954  -4.674  41.566  1.00  0.00    -0.508 OA
ATOM     18  H   UNL     1       1.211  -4.961  42.504  1.00  0.00     0.293 HD
ENDBRANCH  14  17
BRANCH  15  19
ATOM     19  O   UNL     1       2.713  -0.179  41.899  1.00  0.00    -0.508 OA
ATOM     20  H   UNL     1       2.535   0.757  41.554  1.00  0.00     0.293 HD
ENDBRANCH  15  19
ENDBRANCH  10  11
ENDBRANCH   1  10
TORSDOF 6
ENDMDL
MODEL 3
REMARK VINA RESULT:    -6.933      4.089      9.004
REMARK INTER + INTRA:          -9.201
REMARK INTER:                  -8.723
REMARK INTRA:                  -0.478
REMARK UNBOUND:                -0.445
REMARK SMILES Oc1ccc(CCc2cc(O)cc(O)c2)cc1
REMARK SMILES IDX 6 1 5 2 4 3 3 4 2 5 16 6 17 7 1 8 7 10 8 11 15 12 9 13 13 14
REMARK SMILES IDX 10 15 12 16 14 17 11 19
REMARK H PARENT 1 9 14 18 11 20
REMARK Flexibility Score: inf
ROOT
ATOM      1  C   UNL     1       8.057   1.117  35.650  1.00  0.00     0.040 C 
ENDROOT
BRANCH   1   2
ATOM      2  C   UNL     1       7.051   0.027  35.905  1.00  0.00    -0.047 A 
ATOM      3  C   UNL     1       7.396  -1.318  35.698  1.00  0.00     0.007 A 
ATOM      4  C   UNL     1       6.471  -2.332  35.968  1.00  0.00     0.046 A 
ATOM      5  C   UNL     1       5.197  -2.012  36.456  1.00  0.00     0.115 A 
ATOM      6  C   UNL     1       5.777   0.342  36.408  1.00  0.00     0.007 A 
ATOM      7  C   UNL     1       4.856  -0.674  36.676  1.00  0.00     0.046 A 
BRANCH   5   8
ATOM      8  O   UNL     1       4.269  -3.014  36.728  1.00  0.00    -0.508 OA
ATOM      9  H   UNL     1       3.418  -2.822  37.244  1.00  0.00     0.293 HD
ENDBRANCH   5   8
ENDBRANCH   1   2
BRANCH   1  10
ATOM     10  C   UNL     1       8.812   0.858  34.344  1.00  0.00     0.040 C 
BRANCH  10  11
ATOM     11  C   UNL     1      10.291   1.064  34.538  1.00  0.00    -0.040 A 
ATOM     12  C   UNL     1      10.771   2.256  35.105  1.00  0.00     0.050 A 
ATOM     13  C   UNL     1      11.197   0.042  34.209  1.00  0.00     0.050 A 
ATOM     14  C   UNL     1      12.145   2.435  35.317  1.00  0.00     0.119 A 
ATOM     15  C   UNL     1      12.569   0.220  34.420  1.00  0.00     0.119 A 
ATOM     16  C   UNL     1      13.041   1.419  34.971  1.00  0.00     0.092 A 
BRANCH  14  17
ATOM     17  O   UNL     1      12.629   3.618  35.871  1.00  0.00    -0.508 OA
ATOM     18  H   UNL     1      12.029   4.239  36.402  1.00  0.00     0.293 HD
ENDBRANCH  14  17
BRANCH  15  19
ATOM     19  O   UNL     1      13.454  -0.802  34.081  1.00  0.00    -0.508 OA
ATOM     20  H   UNL     1      13.249  -1.452  33.331  1.00  0.00     0.293 HD
ENDBRANCH  15  19
ENDBRANCH  10  11
ENDBRANCH   1  10
TORSDOF 6
ENDMDL
MODEL 4
REMARK VINA RESULT:    -6.907      3.163      5.152
REMARK INTER + INTRA:          -9.168
REMARK INTER:                  -8.777
REMARK INTRA:                  -0.392
REMARK UNBOUND:                -0.445
REMARK SMILES Oc1ccc(CCc2cc(O)cc(O)c2)cc1
REMARK SMILES IDX 6 1 5 2 4 3 3 4 2 5 16 6 17 7 1 8 7 10 8 11 15 12 9 13 13 14
REMARK SMILES IDX 10 15 12 16 14 17 11 19
REMARK H PARENT 1 9 14 18 11 20
REMARK Flexibility Score: inf
ROOT
ATOM      1  C   UNL     1       7.517   0.338  35.667  1.00  0.00     0.040 C 
ENDROOT
BRANCH   1   2
ATOM      2  C   UNL     1       8.953   0.402  35.220  1.00  0.00    -0.047 A 
ATOM      3  C   UNL     1       9.900   1.110  35.977  1.00  0.00     0.007 A 
ATOM      4  C   UNL     1      11.240   1.142  35.578  1.00  0.00     0.046 A 
ATOM      5  C   UNL     1      11.648   0.457  34.425  1.00  0.00     0.115 A 
ATOM      6  C   UNL     1       9.369  -0.294  34.073  1.00  0.00     0.007 A 
ATOM      7  C   UNL     1      10.709  -0.260  33.677  1.00  0.00     0.046 A 
BRANCH   5   8
ATOM      8  O   UNL     1      12.980   0.481  34.019  1.00  0.00    -0.508 OA
ATOM      9  H   UNL     1      13.260   0.158  33.100  1.00  0.00     0.293 HD
ENDBRANCH   5   8
ENDBRANCH   1   2
BRANCH   1  10
ATOM     10  C   UNL     1       6.993  -1.099  35.591  1.00  0.00     0.040 C 
BRANCH  10  11
ATOM     11  C   UNL     1       5.692  -1.228  36.336  1.00  0.00    -0.040 A 
ATOM     12  C   UNL     1       5.200  -2.496  36.688  1.00  0.00     0.050 A 
ATOM     13  C   UNL     1       4.989  -0.080  36.737  1.00  0.00     0.050 A 
ATOM     14  C   UNL     1       4.005  -2.615  37.411  1.00  0.00     0.119 A 
ATOM     15  C   UNL     1       3.796  -0.197  37.459  1.00  0.00     0.119 A 
ATOM     16  C   UNL     1       3.304  -1.466  37.792  1.00  0.00     0.092 A 
BRANCH  14  17
ATOM     17  O   UNL     1       3.506  -3.869  37.756  1.00  0.00    -0.508 OA
ATOM     18  H   UNL     1       2.765  -3.975  38.439  1.00  0.00     0.293 HD
ENDBRANCH  14  17
BRANCH  15  19
ATOM     19  O   UNL     1       3.109   0.953  37.842  1.00  0.00    -0.508 OA
ATOM     20  H   UNL     1       2.335   0.915  38.495  1.00  0.00     0.293 HD
ENDBRANCH  15  19
ENDBRANCH  10  11
ENDBRANCH   1  10
TORSDOF 6
ENDMDL
MODEL 5
REMARK VINA RESULT:    -6.899      4.082      9.173
REMARK INTER + INTRA:          -9.158
REMARK INTER:                  -8.684
REMARK INTRA:                  -0.475
REMARK UNBOUND:                -0.445
REMARK SMILES Oc1ccc(CCc2cc(O)cc(O)c2)cc1
REMARK SMILES IDX 6 1 5 2 4 3 3 4 2 5 16 6 17 7 1 8 7 10 8 11 15 12 9 13 13 14
REMARK SMILES IDX 10 15 12 16 14 17 11 19
REMARK H PARENT 1 9 14 18 11 20
REMARK Flexibility Score: inf
ROOT
ATOM      1  C   UNL     1       8.019   1.119  35.651  1.00  0.00     0.040 C 
ENDROOT
BRANCH   1   2
ATOM      2  C   UNL     1       7.017   0.027  35.911  1.00  0.00    -0.047 A 
ATOM      3  C   UNL     1       7.365  -1.318  35.709  1.00  0.00     0.007 A 
ATOM      4  C   UNL     1       6.444  -2.333  35.983  1.00  0.00     0.046 A 
ATOM      5  C   UNL     1       5.170  -2.015  36.472  1.00  0.00     0.115 A 
ATOM      6  C   UNL     1       5.743   0.340  36.413  1.00  0.00     0.007 A 
ATOM      7  C   UNL     1       4.824  -0.677  36.686  1.00  0.00     0.046 A 
BRANCH   5   8
ATOM      8  O   UNL     1       4.244  -3.018  36.748  1.00  0.00    -0.508 OA
ATOM      9  H   UNL     1       4.507  -3.858  37.250  1.00  0.00     0.293 HD
ENDBRANCH   5   8
ENDBRANCH   1   2
BRANCH   1  10
ATOM     10  C   UNL     1       8.814   0.828  34.374  1.00  0.00     0.040 C 
BRANCH  10  11
ATOM     11  C   UNL     1      10.287   1.025  34.612  1.00  0.00    -0.040 A 
ATOM     12  C   UNL     1      11.202   0.020  34.258  1.00  0.00     0.050 A 
ATOM     13  C   UNL     1      10.764   2.239  35.136  1.00  0.00     0.050 A 
ATOM     14  C   UNL     1      12.577   0.216  34.449  1.00  0.00     0.119 A 
ATOM     15  C   UNL     1      12.136   2.436  35.326  1.00  0.00     0.119 A 
ATOM     16  C   UNL     1      13.041   1.421  34.985  1.00  0.00     0.092 A 
BRANCH  14  17
ATOM     17  O   UNL     1      13.489  -0.780  34.108  1.00  0.00    -0.508 OA
ATOM     18  H   UNL     1      13.758  -0.945  33.145  1.00  0.00     0.293 HD
ENDBRANCH  14  17
BRANCH  15  19
ATOM     19  O   UNL     1      12.589   3.643  35.853  1.00  0.00    -0.508 OA
ATOM     20  H   UNL     1      12.788   3.748  36.841  1.00  0.00     0.293 HD
ENDBRANCH  15  19
ENDBRANCH  10  11
ENDBRANCH   1  10
TORSDOF 6
ENDMDL
MODEL 6
REMARK VINA RESULT:    -6.855      3.168      4.789
REMARK INTER + INTRA:          -9.103
REMARK INTER:                  -8.709
REMARK INTRA:                  -0.394
REMARK UNBOUND:                -0.445
REMARK SMILES Oc1ccc(CCc2cc(O)cc(O)c2)cc1
REMARK SMILES IDX 6 1 5 2 4 3 3 4 2 5 16 6 17 7 1 8 7 10 8 11 15 12 9 13 13 14
REMARK SMILES IDX 10 15 12 16 14 17 11 19
REMARK H PARENT 1 9 14 18 11 20
REMARK Flexibility Score: inf
ROOT
ATOM      1  C   UNL     1       7.509   0.381  35.628  1.00  0.00     0.040 C 
ENDROOT
BRANCH   1   2
ATOM      2  C   UNL     1       8.947   0.422  35.185  1.00  0.00    -0.047 A 
ATOM      3  C   UNL     1       9.903   1.116  35.945  1.00  0.00     0.007 A 
ATOM      4  C   UNL     1      11.244   1.126  35.551  1.00  0.00     0.046 A 
ATOM      5  C   UNL     1      11.645   0.434  34.400  1.00  0.00     0.115 A 
ATOM      6  C   UNL     1       9.356  -0.281  34.040  1.00  0.00     0.007 A 
ATOM      7  C   UNL     1      10.698  -0.269  33.649  1.00  0.00     0.046 A 
BRANCH   5   8
ATOM      8  O   UNL     1      12.979   0.437  33.998  1.00  0.00    -0.508 OA
ATOM      9  H   UNL     1      13.640   1.113  34.360  1.00  0.00     0.293 HD
ENDBRANCH   5   8
ENDBRANCH   1   2
BRANCH   1  10
ATOM     10  C   UNL     1       6.949  -1.040  35.508  1.00  0.00     0.040 C 
BRANCH  10  11
ATOM     11  C   UNL     1       5.700  -1.187  36.335  1.00  0.00    -0.040 A 
ATOM     12  C   UNL     1       4.980  -0.050  36.738  1.00  0.00     0.050 A 
ATOM     13  C   UNL     1       5.212  -2.463  36.659  1.00  0.00     0.050 A 
ATOM     14  C   UNL     1       3.798  -0.188  37.480  1.00  0.00     0.119 A 
ATOM     15  C   UNL     1       4.033  -2.602  37.400  1.00  0.00     0.119 A 
ATOM     16  C   UNL     1       3.329  -1.463  37.812  1.00  0.00     0.092 A 
BRANCH  14  17
ATOM     17  O   UNL     1       3.084   0.935  37.890  1.00  0.00    -0.508 OA
ATOM     18  H   UNL     1       2.676   1.578  37.221  1.00  0.00     0.293 HD
ENDBRANCH  14  17
BRANCH  15  19
ATOM     19  O   UNL     1       3.569  -3.877  37.718  1.00  0.00    -0.508 OA
ATOM     20  H   UNL     1       3.147  -4.477  37.019  1.00  0.00     0.293 HD
ENDBRANCH  15  19
ENDBRANCH  10  11
ENDBRANCH   1  10
TORSDOF 6
ENDMDL
MODEL 7
REMARK VINA RESULT:    -6.772      1.678      2.281
REMARK INTER + INTRA:          -8.998
REMARK INTER:                  -8.482
REMARK INTRA:                  -0.516
REMARK UNBOUND:                -0.445
REMARK SMILES Oc1ccc(CCc2cc(O)cc(O)c2)cc1
REMARK SMILES IDX 6 1 5 2 4 3 3 4 2 5 16 6 17 7 1 8 7 10 8 11 15 12 9 13 13 14
REMARK SMILES IDX 10 15 12 16 14 17 11 19
REMARK H PARENT 1 9 14 18 11 20
REMARK Flexibility Score: inf
ROOT
ATOM      1  C   UNL     1       4.291  -3.166  36.752  1.00  0.00     0.040 C 
ENDROOT
BRANCH   1   2
ATOM      2  C   UNL     1       5.233  -2.027  36.468  1.00  0.00    -0.047 A 
ATOM      3  C   UNL     1       6.513  -2.279  35.950  1.00  0.00     0.007 A 
ATOM      4  C   UNL     1       7.375  -1.218  35.656  1.00  0.00     0.046 A 
ATOM      5  C   UNL     1       6.962   0.104  35.866  1.00  0.00     0.115 A 
ATOM      6  C   UNL     1       4.819  -0.699  36.665  1.00  0.00     0.007 A 
ATOM      7  C   UNL     1       5.683   0.359  36.370  1.00  0.00     0.046 A 
BRANCH   5   8
ATOM      8  O   UNL     1       7.813   1.168  35.576  1.00  0.00    -0.508 OA
ATOM      9  H   UNL     1       7.454   2.093  35.370  1.00  0.00     0.293 HD
ENDBRANCH   5   8
ENDBRANCH   1   2
BRANCH   1  10
ATOM     10  C   UNL     1       4.217  -3.443  38.256  1.00  0.00     0.040 C 
BRANCH  10  11
ATOM     11  C   UNL     1       2.934  -2.905  38.831  1.00  0.00    -0.040 A 
ATOM     12  C   UNL     1       2.748  -2.857  40.222  1.00  0.00     0.050 A 
ATOM     13  C   UNL     1       1.938  -2.394  37.983  1.00  0.00     0.050 A 
ATOM     14  C   UNL     1       1.566  -2.326  40.759  1.00  0.00     0.119 A 
ATOM     15  C   UNL     1       0.759  -1.863  38.518  1.00  0.00     0.119 A 
ATOM     16  C   UNL     1       0.574  -1.833  39.907  1.00  0.00     0.092 A 
BRANCH  14  17
ATOM     17  O   UNL     1       1.371  -2.282  42.138  1.00  0.00    -0.508 OA
ATOM     18  H   UNL     1       1.180  -1.410  42.618  1.00  0.00     0.293 HD
ENDBRANCH  14  17
BRANCH  15  19
ATOM     19  O   UNL     1      -0.221  -1.367  37.660  1.00  0.00    -0.508 OA
ATOM     20  H   UNL     1      -0.118  -0.470  37.201  1.00  0.00     0.293 HD
ENDBRANCH  15  19
ENDBRANCH  10  11
ENDBRANCH   1  10
TORSDOF 6
ENDMDL
MODEL 8
REMARK VINA RESULT:    -6.752      1.684      2.227
REMARK INTER + INTRA:          -8.973
REMARK INTER:                  -8.473
REMARK INTRA:                  -0.499
REMARK UNBOUND:                -0.445
REMARK SMILES Oc1ccc(CCc2cc(O)cc(O)c2)cc1
REMARK SMILES IDX 6 1 5 2 4 3 3 4 2 5 16 6 17 7 1 8 7 10 8 11 15 12 9 13 13 14
REMARK SMILES IDX 10 15 12 16 14 17 11 19
REMARK H PARENT 1 9 14 18 11 20
REMARK Flexibility Score: inf
ROOT
ATOM      1  C   UNL     1       4.294  -3.156  36.770  1.00  0.00     0.040 C 
ENDROOT
BRANCH   1   2
ATOM      2  C   UNL     1       5.239  -2.023  36.477  1.00  0.00    -0.047 A 
ATOM      3  C   UNL     1       6.519  -2.283  35.962  1.00  0.00     0.007 A 
ATOM      4  C   UNL     1       7.384  -1.227  35.658  1.00  0.00     0.046 A 
ATOM      5  C   UNL     1       6.975   0.098  35.857  1.00  0.00     0.115 A 
ATOM      6  C   UNL     1       4.829  -0.692  36.662  1.00  0.00     0.007 A 
ATOM      7  C   UNL     1       5.696   0.361  36.358  1.00  0.00     0.046 A 
BRANCH   5   8
ATOM      8  O   UNL     1       7.829   1.157  35.558  1.00  0.00    -0.508 OA
ATOM      9  H   UNL     1       7.499   2.116  35.541  1.00  0.00     0.293 HD
ENDBRANCH   5   8
ENDBRANCH   1   2
BRANCH   1  10
ATOM     10  C   UNL     1       4.208  -3.411  38.278  1.00  0.00     0.040 C 
BRANCH  10  11
ATOM     11  C   UNL     1       2.936  -2.834  38.840  1.00  0.00    -0.040 A 
ATOM     12  C   UNL     1       1.938  -2.350  37.979  1.00  0.00     0.050 A 
ATOM     13  C   UNL     1       2.713  -2.829  40.227  1.00  0.00     0.050 A 
ATOM     14  C   UNL     1       0.739  -1.843  38.500  1.00  0.00     0.119 A 
ATOM     15  C   UNL     1       1.517  -2.324  40.749  1.00  0.00     0.119 A 
ATOM     16  C   UNL     1       0.532  -1.828  39.883  1.00  0.00     0.092 A 
BRANCH  14  17
ATOM     17  O   UNL     1      -0.252  -1.353  37.653  1.00  0.00    -0.508 OA
ATOM     18  H   UNL     1      -0.022  -0.880  36.786  1.00  0.00     0.293 HD
ENDBRANCH  14  17
BRANCH  15  19
ATOM     19  O   UNL     1       1.317  -2.321  42.127  1.00  0.00    -0.508 OA
ATOM     20  H   UNL     1       0.389  -2.393  42.528  1.00  0.00     0.293 HD
ENDBRANCH  15  19
ENDBRANCH  10  11
ENDBRANCH   1  10
TORSDOF 6
ENDMDL
MODEL 9
REMARK VINA RESULT:    -6.666      5.990     11.175
REMARK INTER + INTRA:          -8.864
REMARK INTER:                  -8.332
REMARK INTRA:                  -0.532
REMARK UNBOUND:                -0.445
REMARK SMILES Oc1ccc(CCc2cc(O)cc(O)c2)cc1
REMARK SMILES IDX 6 1 5 2 4 3 3 4 2 5 16 6 17 7 1 8 7 10 8 11 15 12 9 13 13 14
REMARK SMILES IDX 10 15 12 16 14 17 11 19
REMARK H PARENT 1 9 14 18 11 20
REMARK Flexibility Score: inf
ROOT
ATOM      1  C   UNL     1      11.542   0.307  34.366  1.00  0.00     0.040 C 
ENDROOT
BRANCH   1   2
ATOM      2  C   UNL     1      10.149   0.424  34.925  1.00  0.00    -0.047 A 
ATOM      3  C   UNL     1       9.909   1.196  36.073  1.00  0.00     0.007 A 
ATOM      4  C   UNL     1       8.610   1.332  36.571  1.00  0.00     0.046 A 
ATOM      5  C   UNL     1       7.537   0.707  35.921  1.00  0.00     0.115 A 
ATOM      6  C   UNL     1       9.069  -0.189  34.269  1.00  0.00     0.007 A 
ATOM      7  C   UNL     1       7.772  -0.052  34.770  1.00  0.00     0.046 A 
BRANCH   5   8
ATOM      8  O   UNL     1       6.239   0.835  36.409  1.00  0.00    -0.508 OA
ATOM      9  H   UNL     1       5.988   1.568  37.062  1.00  0.00     0.293 HD
ENDBRANCH   5   8
ENDBRANCH   1   2
BRANCH   1  10
ATOM     10  C   UNL     1      12.435   1.429  34.904  1.00  0.00     0.040 C 
BRANCH  10  11
ATOM     11  C   UNL     1      12.617   2.503  33.865  1.00  0.00    -0.040 A 
ATOM     12  C   UNL     1      11.506   3.207  33.373  1.00  0.00     0.050 A 
ATOM     13  C   UNL     1      13.904   2.849  33.423  1.00  0.00     0.050 A 
ATOM     14  C   UNL     1      11.678   4.230  32.430  1.00  0.00     0.119 A 
ATOM     15  C   UNL     1      14.078   3.870  32.482  1.00  0.00     0.119 A 
ATOM     16  C   UNL     1      12.962   4.557  31.984  1.00  0.00     0.092 A 
BRANCH  14  17
ATOM     17  O   UNL     1      10.580   4.927  31.931  1.00  0.00    -0.508 OA
ATOM     18  H   UNL     1       9.687   4.472  31.782  1.00  0.00     0.293 HD
ENDBRANCH  14  17
BRANCH  15  19
ATOM     19  O   UNL     1      15.362   4.195  32.050  1.00  0.00    -0.508 OA
ATOM     20  H   UNL     1      15.990   4.745  32.624  1.00  0.00     0.293 HD
ENDBRANCH  15  19
ENDBRANCH  10  11
ENDBRANCH   1  10
TORSDOF 6
ENDMDL
