MODEL 1
REMARK VINA RESULT:    -4.285      0.000      0.000
REMARK INTER + INTRA:          -9.881
REMARK INTER:                  -7.792
REMARK INTRA:                  -2.089
REMARK UNBOUND:                -2.089
REMARK SMILES CCCCCCCCCCCCCCCC(=O)[O-]
REMARK SMILES IDX 9 1 10 2 11 3 12 4 13 5 14 6 15 7 16 8 17 9 18 10 8 11 7 12
REMARK SMILES IDX 6 13 5 14 4 15 3 16 2 17 1 18
REMARK H PARENT
REMARK Flexibility Score: inf
ROOT
ATOM      1  C   UNL     1     -34.333  19.880 -29.494  1.00  0.00     0.000 C 
ENDROOT
BRANCH   1   2
ATOM      2  C   UNL     1     -35.316  21.070 -29.506  1.00  0.00     0.000 C 
BRANCH   2   3
ATOM      3  C   UNL     1     -36.156  21.165 -30.792  1.00  0.00     0.000 C 
BRANCH   3   4
ATOM      4  C   UNL     1     -37.614  21.572 -30.523  1.00  0.00     0.000 C 
BRANCH   4   5
ATOM      5  C   UNL     1     -37.806  22.182 -29.125  1.00  0.00     0.000 C 
BRANCH   5   6
ATOM      6  C   UNL     1     -39.269  22.567 -28.844  1.00  0.00     0.006 C 
BRANCH   6   7
ATOM      7  C   UNL     1     -40.196  22.215 -30.015  1.00  0.00     0.053 C 
BRANCH   7   8
ATOM      8  C   UNL     1     -41.471  23.000 -29.973  1.00  0.00     0.041 C 
ATOM      9  O   UNL     1     -42.358  22.815 -30.848  1.00  0.00    -0.550 OA
ATOM     10  O   UNL     1     -41.668  23.958 -28.987  1.00  0.00    -0.550 OA
ENDBRANCH   7   8
ENDBRANCH   6   7
ENDBRANCH   5   6
ENDBRANCH   4   5
ENDBRANCH   3   4
ENDBRANCH   2   3
ENDBRANCH   1   2
BRANCH   1  11
ATOM     11  C   UNL     1     -34.467  19.004 -30.749  1.00  0.00     0.000 C 
BRANCH  11  12
ATOM     12  C   UNL     1     -34.322  17.516 -30.398  1.00  0.00    -0.000 C 
BRANCH  12  13
ATOM     13  C   UNL     1     -35.556  16.687 -30.792  1.00  0.00    -0.000 C 
BRANCH  13  14
ATOM     14  C   UNL     1     -36.875  17.139 -30.139  1.00  0.00    -0.000 C 
BRANCH  14  15
ATOM     15  C   UNL     1     -36.750  17.451 -28.633  1.00  0.00    -0.000 C 
BRANCH  15  16
ATOM     16  C   UNL     1     -37.788  18.481 -28.161  1.00  0.00    -0.000 C 
BRANCH  16  17
ATOM     17  C   UNL     1     -38.904  18.652 -29.198  1.00  0.00    -0.003 C 
ATOM     18  C   UNL     1     -40.228  19.006 -28.530  1.00  0.00     0.004 C 
ENDBRANCH  16  17
ENDBRANCH  15  16
ENDBRANCH  14  15
ENDBRANCH  13  14
ENDBRANCH  12  13
ENDBRANCH  11  12
ENDBRANCH   1  11
TORSDOF 14
ENDMDL
MODEL 2
REMARK VINA RESULT:    -4.283      4.194      6.841
REMARK INTER + INTRA:          -9.877
REMARK INTER:                  -7.739
REMARK INTRA:                  -2.138
REMARK UNBOUND:                -2.089
REMARK SMILES CCCCCCCCCCCCCCCC(=O)[O-]
REMARK SMILES IDX 9 1 10 2 11 3 12 4 13 5 14 6 15 7 16 8 17 9 18 10 8 11 7 12
REMARK SMILES IDX 6 13 5 14 4 15 3 16 2 17 1 18
REMARK H PARENT
REMARK Flexibility Score: inf
ROOT
ATOM      1  C   UNL     1     -38.692  20.465 -29.247  1.00  0.00     0.000 C 
ENDROOT
BRANCH   1   2
ATOM      2  C   UNL     1     -38.434  18.959 -29.465  1.00  0.00     0.000 C 
BRANCH   2   3
ATOM      3  C   UNL     1     -37.660  18.292 -28.315  1.00  0.00     0.000 C 
BRANCH   3   4
ATOM      4  C   UNL     1     -36.746  17.152 -28.795  1.00  0.00     0.000 C 
BRANCH   4   5
ATOM      5  C   UNL     1     -37.019  16.754 -30.255  1.00  0.00     0.000 C 
BRANCH   5   6
ATOM      6  C   UNL     1     -36.206  15.523 -30.694  1.00  0.00     0.006 C 
BRANCH   6   7
ATOM      7  C   UNL     1     -36.418  14.325 -29.758  1.00  0.00     0.053 C 
BRANCH   7   8
ATOM      8  C   UNL     1     -36.800  13.088 -30.512  1.00  0.00     0.041 C 
ATOM      9  O   UNL     1     -37.992  12.680 -30.496  1.00  0.00    -0.550 OA
ATOM     10  O   UNL     1     -35.836  12.369 -31.207  1.00  0.00    -0.550 OA
ENDBRANCH   7   8
ENDBRANCH   6   7
ENDBRANCH   5   6
ENDBRANCH   4   5
ENDBRANCH   3   4
ENDBRANCH   2   3
ENDBRANCH   1   2
BRANCH   1  11
ATOM     11  C   UNL     1     -38.679  21.253 -30.565  1.00  0.00     0.000 C 
BRANCH  11  12
ATOM     12  C   UNL     1     -38.146  20.389 -31.717  1.00  0.00    -0.000 C 
BRANCH  12  13
ATOM     13  C   UNL     1     -36.801  20.890 -32.267  1.00  0.00    -0.000 C 
BRANCH  13  14
ATOM     14  C   UNL     1     -35.686  21.038 -31.215  1.00  0.00    -0.000 C 
BRANCH  14  15
ATOM     15  C   UNL     1     -35.007  19.705 -30.835  1.00  0.00    -0.000 C 
BRANCH  15  16
ATOM     16  C   UNL     1     -34.247  19.795 -29.503  1.00  0.00    -0.000 C 
BRANCH  16  17
ATOM     17  C   UNL     1     -34.932  20.775 -28.544  1.00  0.00    -0.003 C 
ATOM     18  C   UNL     1     -33.917  21.446 -27.624  1.00  0.00     0.004 C 
ENDBRANCH  16  17
ENDBRANCH  15  16
ENDBRANCH  14  15
ENDBRANCH  13  14
ENDBRANCH  12  13
ENDBRANCH  11  12
ENDBRANCH   1  11
TORSDOF 14
ENDMDL
MODEL 3
REMARK VINA RESULT:    -4.260     13.765     15.211
REMARK INTER + INTRA:          -9.837
REMARK INTER:                  -7.831
REMARK INTRA:                  -2.006
REMARK UNBOUND:                -2.089
REMARK SMILES CCCCCCCCCCCCCCCC(=O)[O-]
REMARK SMILES IDX 9 1 10 2 11 3 12 4 13 5 14 6 15 7 16 8 17 9 18 10 8 11 7 12
REMARK SMILES IDX 6 13 5 14 4 15 3 16 2 17 1 18
REMARK H PARENT
REMARK Flexibility Score: inf
ROOT
ATOM      1  C   UNL     1     -46.627   9.317 -30.251  1.00  0.00     0.000 C 
ENDROOT
BRANCH   1   2
ATOM      2  C   UNL     1     -48.054   9.733 -29.835  1.00  0.00     0.000 C 
BRANCH   2   3
ATOM      3  C   UNL     1     -48.103  11.020 -28.995  1.00  0.00     0.000 C 
BRANCH   3   4
ATOM      4  C   UNL     1     -49.043  12.084 -29.588  1.00  0.00     0.000 C 
BRANCH   4   5
ATOM      5  C   UNL     1     -49.580  11.687 -30.973  1.00  0.00     0.000 C 
BRANCH   5   6
ATOM      6  C   UNL     1     -50.850  12.465 -31.359  1.00  0.00     0.006 C 
BRANCH   6   7
ATOM      7  C   UNL     1     -51.093  13.671 -30.442  1.00  0.00     0.053 C 
BRANCH   7   8
ATOM      8  C   UNL     1     -50.832  14.968 -31.145  1.00  0.00     0.041 C 
ATOM      9  O   UNL     1     -51.424  16.018 -30.778  1.00  0.00    -0.550 OA
ATOM     10  O   UNL     1     -49.959  15.013 -32.225  1.00  0.00    -0.550 OA
ENDBRANCH   7   8
ENDBRANCH   6   7
ENDBRANCH   5   6
ENDBRANCH   4   5
ENDBRANCH   3   4
ENDBRANCH   2   3
ENDBRANCH   1   2
BRANCH   1  11
ATOM     11  C   UNL     1     -46.358   7.828 -29.992  1.00  0.00     0.000 C 
BRANCH  11  12
ATOM     12  C   UNL     1     -47.474   6.956 -30.588  1.00  0.00    -0.000 C 
BRANCH  12  13
ATOM     13  C   UNL     1     -47.053   6.255 -31.890  1.00  0.00    -0.000 C 
BRANCH  13  14
ATOM     14  C   UNL     1     -47.896   6.622 -33.125  1.00  0.00    -0.000 C 
BRANCH  14  15
ATOM     15  C   UNL     1     -47.783   8.106 -33.537  1.00  0.00    -0.000 C 
BRANCH  15  16
ATOM     16  C   UNL     1     -49.095   8.874 -33.315  1.00  0.00    -0.000 C 
BRANCH  16  17
ATOM     17  C   UNL     1     -50.247   7.916 -32.995  1.00  0.00    -0.003 C 
ATOM     18  C   UNL     1     -50.955   8.315 -31.705  1.00  0.00     0.004 C 
ENDBRANCH  16  17
ENDBRANCH  15  16
ENDBRANCH  14  15
ENDBRANCH  13  14
ENDBRANCH  12  13
ENDBRANCH  11  12
ENDBRANCH   1  11
TORSDOF 14
ENDMDL
MODEL 4
REMARK VINA RESULT:    -4.259      4.170      6.261
REMARK INTER + INTRA:          -9.834
REMARK INTER:                  -7.772
REMARK INTRA:                  -2.062
REMARK UNBOUND:                -2.089
REMARK SMILES CCCCCCCCCCCCCCCC(=O)[O-]
REMARK SMILES IDX 9 1 10 2 11 3 12 4 13 5 14 6 15 7 16 8 17 9 18 10 8 11 7 12
REMARK SMILES IDX 6 13 5 14 4 15 3 16 2 17 1 18
REMARK H PARENT
REMARK Flexibility Score: inf
ROOT
ATOM      1  C   UNL     1     -34.701  20.374 -29.572  1.00  0.00     0.000 C 
ENDROOT
BRANCH   1   2
ATOM      2  C   UNL     1     -35.458  19.444 -28.602  1.00  0.00     0.000 C 
BRANCH   2   3
ATOM      3  C   UNL     1     -35.387  17.957 -28.988  1.00  0.00     0.000 C 
BRANCH   3   4
ATOM      4  C   UNL     1     -34.874  17.737 -30.421  1.00  0.00     0.000 C 
BRANCH   4   5
ATOM      5  C   UNL     1     -35.282  16.368 -30.989  1.00  0.00     0.000 C 
BRANCH   5   6
ATOM      6  C   UNL     1     -36.616  15.862 -30.412  1.00  0.00     0.006 C 
BRANCH   6   7
ATOM      7  C   UNL     1     -36.438  14.594 -29.567  1.00  0.00     0.053 C 
BRANCH   7   8
ATOM      8  C   UNL     1     -36.706  13.352 -30.361  1.00  0.00     0.041 C 
ATOM      9  O   UNL     1     -35.783  12.817 -31.031  1.00  0.00    -0.550 OA
ATOM     10  O   UNL     1     -37.982  12.802 -30.387  1.00  0.00    -0.550 OA
ENDBRANCH   7   8
ENDBRANCH   6   7
ENDBRANCH   5   6
ENDBRANCH   4   5
ENDBRANCH   3   4
ENDBRANCH   2   3
ENDBRANCH   1   2
BRANCH   1  11
ATOM     11  C   UNL     1     -35.242  21.811 -29.541  1.00  0.00     0.000 C 
BRANCH  11  12
ATOM     12  C   UNL     1     -35.540  22.318 -30.959  1.00  0.00    -0.000 C 
BRANCH  12  13
ATOM     13  C   UNL     1     -35.828  21.179 -31.952  1.00  0.00    -0.000 C 
BRANCH  13  14
ATOM     14  C   UNL     1     -37.322  20.879 -32.178  1.00  0.00    -0.000 C 
BRANCH  14  15
ATOM     15  C   UNL     1     -37.837  19.655 -31.391  1.00  0.00    -0.000 C 
BRANCH  15  16
ATOM     16  C   UNL     1     -38.660  20.058 -30.158  1.00  0.00    -0.000 C 
BRANCH  16  17
ATOM     17  C   UNL     1     -38.998  18.835 -29.298  1.00  0.00    -0.003 C 
ATOM     18  C   UNL     1     -40.238  19.085 -28.446  1.00  0.00     0.004 C 
ENDBRANCH  16  17
ENDBRANCH  15  16
ENDBRANCH  14  15
ENDBRANCH  13  14
ENDBRANCH  12  13
ENDBRANCH  11  12
ENDBRANCH   1  11
TORSDOF 14
ENDMDL
MODEL 5
REMARK VINA RESULT:    -4.142     13.425     14.641
REMARK INTER + INTRA:          -9.621
REMARK INTER:                  -8.095
REMARK INTRA:                  -1.526
REMARK UNBOUND:                -2.089
REMARK SMILES CCCCCCCCCCCCCCCC(=O)[O-]
REMARK SMILES IDX 9 1 10 2 11 3 12 4 13 5 14 6 15 7 16 8 17 9 18 10 8 11 7 12
REMARK SMILES IDX 6 13 5 14 4 15 3 16 2 17 1 18
REMARK H PARENT
REMARK Flexibility Score: inf
ROOT
ATOM      1  C   UNL     1     -49.354  10.836 -29.338  1.00  0.00     0.000 C 
ENDROOT
BRANCH   1   2
ATOM      2  C   UNL     1     -48.979  12.273 -29.757  1.00  0.00     0.000 C 
BRANCH   2   3
ATOM      3  C   UNL     1     -49.729  12.769 -31.006  1.00  0.00     0.000 C 
BRANCH   3   4
ATOM      4  C   UNL     1     -49.299  14.180 -31.439  1.00  0.00     0.000 C 
BRANCH   4   5
ATOM      5  C   UNL     1     -50.435  14.956 -32.126  1.00  0.00     0.000 C 
BRANCH   5   6
ATOM      6  C   UNL     1     -50.727  16.303 -31.443  1.00  0.00     0.006 C 
BRANCH   6   7
ATOM      7  C   UNL     1     -52.085  16.308 -30.728  1.00  0.00     0.053 C 
BRANCH   7   8
ATOM      8  C   UNL     1     -51.944  16.039 -29.261  1.00  0.00     0.041 C 
ATOM      9  O   UNL     1     -51.874  14.855 -28.837  1.00  0.00    -0.550 OA
ATOM     10  O   UNL     1     -51.922  17.095 -28.358  1.00  0.00    -0.550 OA
ENDBRANCH   7   8
ENDBRANCH   6   7
ENDBRANCH   5   6
ENDBRANCH   4   5
ENDBRANCH   3   4
ENDBRANCH   2   3
ENDBRANCH   1   2
BRANCH   1  11
ATOM     11  C   UNL     1     -48.135  10.035 -28.857  1.00  0.00     0.000 C 
BRANCH  11  12
ATOM     12  C   UNL     1     -47.114   9.855 -29.990  1.00  0.00    -0.000 C 
BRANCH  12  13
ATOM     13  C   UNL     1     -46.689   8.390 -30.182  1.00  0.00    -0.000 C 
BRANCH  13  14
ATOM     14  C   UNL     1     -47.523   7.602 -31.210  1.00  0.00    -0.000 C 
BRANCH  14  15
ATOM     15  C   UNL     1     -47.347   8.094 -32.662  1.00  0.00    -0.000 C 
BRANCH  15  16
ATOM     16  C   UNL     1     -48.625   8.737 -33.221  1.00  0.00    -0.000 C 
BRANCH  16  17
ATOM     17  C   UNL     1     -49.806   8.536 -32.264  1.00  0.00    -0.003 C 
ATOM     18  C   UNL     1     -50.913   9.549 -32.533  1.00  0.00     0.004 C 
ENDBRANCH  16  17
ENDBRANCH  15  16
ENDBRANCH  14  15
ENDBRANCH  13  14
ENDBRANCH  12  13
ENDBRANCH  11  12
ENDBRANCH   1  11
TORSDOF 14
ENDMDL
MODEL 6
REMARK VINA RESULT:    -4.141     13.962     15.943
REMARK INTER + INTRA:          -9.620
REMARK INTER:                  -7.460
REMARK INTRA:                  -2.159
REMARK UNBOUND:                -2.089
REMARK SMILES CCCCCCCCCCCCCCCC(=O)[O-]
REMARK SMILES IDX 9 1 10 2 11 3 12 4 13 5 14 6 15 7 16 8 17 9 18 10 8 11 7 12
REMARK SMILES IDX 6 13 5 14 4 15 3 16 2 17 1 18
REMARK H PARENT
REMARK Flexibility Score: inf
ROOT
ATOM      1  C   UNL     1     -49.030   8.759 -33.337  1.00  0.00     0.000 C 
ENDROOT
BRANCH   1   2
ATOM      2  C   UNL     1     -50.200   7.793 -33.054  1.00  0.00     0.000 C 
BRANCH   2   3
ATOM      3  C   UNL     1     -50.976   8.121 -31.767  1.00  0.00     0.000 C 
BRANCH   3   4
ATOM      4  C   UNL     1     -51.633   9.510 -31.805  1.00  0.00     0.000 C 
BRANCH   4   5
ATOM      5  C   UNL     1     -52.198   9.931 -30.438  1.00  0.00     0.000 C 
BRANCH   5   6
ATOM      6  C   UNL     1     -51.631  11.277 -29.953  1.00  0.00     0.006 C 
BRANCH   6   7
ATOM      7  C   UNL     1     -51.034  12.102 -31.101  1.00  0.00     0.053 C 
BRANCH   7   8
ATOM      8  C   UNL     1     -50.391  13.361 -30.607  1.00  0.00     0.041 C 
ATOM      9  O   UNL     1     -49.207  13.639 -30.937  1.00  0.00    -0.550 OA
ATOM     10  O   UNL     1     -51.085  14.213 -29.758  1.00  0.00    -0.550 OA
ENDBRANCH   7   8
ENDBRANCH   6   7
ENDBRANCH   5   6
ENDBRANCH   4   5
ENDBRANCH   3   4
ENDBRANCH   2   3
ENDBRANCH   1   2
BRANCH   1  11
ATOM     11  C   UNL     1     -47.686   8.025 -33.454  1.00  0.00     0.000 C 
BRANCH  11  12
ATOM     12  C   UNL     1     -47.844   6.533 -33.123  1.00  0.00    -0.000 C 
BRANCH  12  13
ATOM     13  C   UNL     1     -47.078   6.119 -31.856  1.00  0.00    -0.000 C 
BRANCH  13  14
ATOM     14  C   UNL     1     -47.489   6.870 -30.575  1.00  0.00    -0.000 C 
BRANCH  14  15
ATOM     15  C   UNL     1     -46.351   7.706 -29.952  1.00  0.00    -0.000 C 
BRANCH  15  16
ATOM     16  C   UNL     1     -46.556   9.215 -30.156  1.00  0.00    -0.000 C 
BRANCH  16  17
ATOM     17  C   UNL     1     -48.010   9.615 -29.883  1.00  0.00    -0.003 C 
ATOM     18  C   UNL     1     -48.083  10.842 -28.979  1.00  0.00     0.004 C 
ENDBRANCH  16  17
ENDBRANCH  15  16
ENDBRANCH  14  15
ENDBRANCH  13  14
ENDBRANCH  12  13
ENDBRANCH  11  12
ENDBRANCH   1  11
TORSDOF 14
ENDMDL
MODEL 7
REMARK VINA RESULT:    -4.141     14.045     15.919
REMARK INTER + INTRA:          -9.618
REMARK INTER:                  -8.056
REMARK INTRA:                  -1.562
REMARK UNBOUND:                -2.089
REMARK SMILES CCCCCCCCCCCCCCCC(=O)[O-]
REMARK SMILES IDX 9 1 10 2 11 3 12 4 13 5 14 6 15 7 16 8 17 9 18 10 8 11 7 12
REMARK SMILES IDX 6 13 5 14 4 15 3 16 2 17 1 18
REMARK H PARENT
REMARK Flexibility Score: inf
ROOT
ATOM      1  C   UNL     1     -50.376  14.445 -31.867  1.00  0.00     0.000 C 
ENDROOT
BRANCH   1   2
ATOM      2  C   UNL     1     -49.616  13.653 -30.782  1.00  0.00     0.000 C 
BRANCH   2   3
ATOM      3  C   UNL     1     -49.792  12.129 -30.892  1.00  0.00     0.000 C 
BRANCH   3   4
ATOM      4  C   UNL     1     -49.650  11.413 -29.539  1.00  0.00     0.000 C 
BRANCH   4   5
ATOM      5  C   UNL     1     -48.184  11.129 -29.174  1.00  0.00     0.000 C 
BRANCH   5   6
ATOM      6  C   UNL     1     -47.826   9.636 -29.281  1.00  0.00     0.006 C 
BRANCH   6   7
ATOM      7  C   UNL     1     -46.905   9.345 -30.473  1.00  0.00     0.053 C 
BRANCH   7   8
ATOM      8  C   UNL     1     -47.616   8.600 -31.561  1.00  0.00     0.041 C 
ATOM      9  O   UNL     1     -48.855   8.755 -31.728  1.00  0.00    -0.550 OA
ATOM     10  O   UNL     1     -46.919   7.712 -32.370  1.00  0.00    -0.550 OA
ENDBRANCH   7   8
ENDBRANCH   6   7
ENDBRANCH   5   6
ENDBRANCH   4   5
ENDBRANCH   3   4
ENDBRANCH   2   3
ENDBRANCH   1   2
BRANCH   1  11
ATOM     11  C   UNL     1     -50.368  15.956 -31.594  1.00  0.00     0.000 C 
BRANCH  11  12
ATOM     12  C   UNL     1     -51.690  16.406 -30.954  1.00  0.00    -0.000 C 
BRANCH  12  13
ATOM     13  C   UNL     1     -51.483  17.340 -29.751  1.00  0.00    -0.000 C 
BRANCH  13  14
ATOM     14  C   UNL     1     -52.166  16.882 -28.449  1.00  0.00    -0.000 C 
BRANCH  14  15
ATOM     15  C   UNL     1     -52.181  15.350 -28.259  1.00  0.00    -0.000 C 
BRANCH  15  16
ATOM     16  C   UNL     1     -53.604  14.796 -28.095  1.00  0.00    -0.000 C 
BRANCH  16  17
ATOM     17  C   UNL     1     -53.667  13.314 -28.483  1.00  0.00    -0.003 C 
ATOM     18  C   UNL     1     -53.293  13.112 -29.948  1.00  0.00     0.004 C 
ENDBRANCH  16  17
ENDBRANCH  15  16
ENDBRANCH  14  15
ENDBRANCH  13  14
ENDBRANCH  12  13
ENDBRANCH  11  12
ENDBRANCH   1  11
TORSDOF 14
ENDMDL
MODEL 8
REMARK VINA RESULT:    -4.115     13.961     16.147
REMARK INTER + INTRA:          -9.571
REMARK INTER:                  -7.601
REMARK INTRA:                  -1.970
REMARK UNBOUND:                -2.089
REMARK SMILES CCCCCCCCCCCCCCCC(=O)[O-]
REMARK SMILES IDX 9 1 10 2 11 3 12 4 13 5 14 6 15 7 16 8 17 9 18 10 8 11 7 12
REMARK SMILES IDX 6 13 5 14 4 15 3 16 2 17 1 18
REMARK H PARENT
REMARK Flexibility Score: inf
ROOT
ATOM      1  C   UNL     1     -51.033  13.900 -31.687  1.00  0.00     0.000 C 
ENDROOT
BRANCH   1   2
ATOM      2  C   UNL     1     -49.619  13.603 -31.146  1.00  0.00     0.000 C 
BRANCH   2   3
ATOM      3  C   UNL     1     -49.613  12.990 -29.735  1.00  0.00     0.000 C 
BRANCH   3   4
ATOM      4  C   UNL     1     -48.750  11.721 -29.639  1.00  0.00     0.000 C 
BRANCH   4   5
ATOM      5  C   UNL     1     -49.565  10.437 -29.864  1.00  0.00     0.000 C 
BRANCH   5   6
ATOM      6  C   UNL     1     -49.420   9.887 -31.295  1.00  0.00     0.006 C 
BRANCH   6   7
ATOM      7  C   UNL     1     -48.828   8.472 -31.315  1.00  0.00     0.053 C 
BRANCH   7   8
ATOM      8  C   UNL     1     -47.356   8.486 -31.596  1.00  0.00     0.041 C 
ATOM      9  O   UNL     1     -46.905   7.935 -32.635  1.00  0.00    -0.550 OA
ATOM     10  O   UNL     1     -46.480   9.080 -30.697  1.00  0.00    -0.550 OA
ENDBRANCH   7   8
ENDBRANCH   6   7
ENDBRANCH   5   6
ENDBRANCH   4   5
ENDBRANCH   3   4
ENDBRANCH   2   3
ENDBRANCH   1   2
BRANCH   1  11
ATOM     11  C   UNL     1     -52.026  12.774 -31.365  1.00  0.00     0.000 C 
BRANCH  11  12
ATOM     12  C   UNL     1     -53.312  13.337 -30.741  1.00  0.00    -0.000 C 
BRANCH  12  13
ATOM     13  C   UNL     1     -53.294  13.302 -29.204  1.00  0.00    -0.000 C 
BRANCH  13  14
ATOM     14  C   UNL     1     -53.441  14.675 -28.523  1.00  0.00    -0.000 C 
BRANCH  14  15
ATOM     15  C   UNL     1     -52.096  15.378 -28.243  1.00  0.00    -0.000 C 
BRANCH  15  16
ATOM     16  C   UNL     1     -52.113  16.858 -28.654  1.00  0.00    -0.000 C 
BRANCH  16  17
ATOM     17  C   UNL     1     -52.212  17.005 -30.177  1.00  0.00    -0.003 C 
ATOM     18  C   UNL     1     -50.892  17.488 -30.770  1.00  0.00     0.004 C 
ENDBRANCH  16  17
ENDBRANCH  15  16
ENDBRANCH  14  15
ENDBRANCH  13  14
ENDBRANCH  12  13
ENDBRANCH  11  12
ENDBRANCH   1  11
TORSDOF 14
ENDMDL
MODEL 9
REMARK VINA RESULT:    -4.098     13.744     15.128
REMARK INTER + INTRA:          -9.541
REMARK INTER:                  -7.468
REMARK INTRA:                  -2.073
REMARK UNBOUND:                -2.089
REMARK SMILES CCCCCCCCCCCCCCCC(=O)[O-]
REMARK SMILES IDX 9 1 10 2 11 3 12 4 13 5 14 6 15 7 16 8 17 9 18 10 8 11 7 12
REMARK SMILES IDX 6 13 5 14 4 15 3 16 2 17 1 18
REMARK H PARENT
REMARK Flexibility Score: inf
ROOT
ATOM      1  C   UNL     1     -47.989  10.486 -29.307  1.00  0.00     0.000 C 
ENDROOT
BRANCH   1   2
ATOM      2  C   UNL     1     -49.334  11.234 -29.417  1.00  0.00     0.000 C 
BRANCH   2   3
ATOM      3  C   UNL     1     -49.417  12.184 -30.625  1.00  0.00     0.000 C 
BRANCH   3   4
ATOM      4  C   UNL     1     -50.851  12.356 -31.151  1.00  0.00     0.000 C 
BRANCH   4   5
ATOM      5  C   UNL     1     -51.815  12.874 -30.071  1.00  0.00     0.000 C 
BRANCH   5   6
ATOM      6  C   UNL     1     -51.456  14.290 -29.588  1.00  0.00     0.006 C 
BRANCH   6   7
ATOM      7  C   UNL     1     -52.036  15.379 -30.501  1.00  0.00     0.053 C 
BRANCH   7   8
ATOM      8  C   UNL     1     -50.962  16.227 -31.110  1.00  0.00     0.041 C 
ATOM      9  O   UNL     1     -51.021  17.482 -31.026  1.00  0.00    -0.550 OA
ATOM     10  O   UNL     1     -49.911  15.633 -31.798  1.00  0.00    -0.550 OA
ENDBRANCH   7   8
ENDBRANCH   6   7
ENDBRANCH   5   6
ENDBRANCH   4   5
ENDBRANCH   3   4
ENDBRANCH   2   3
ENDBRANCH   1   2
BRANCH   1  11
ATOM     11  C   UNL     1     -48.130   8.990 -29.627  1.00  0.00     0.000 C 
BRANCH  11  12
ATOM     12  C   UNL     1     -46.855   8.448 -30.291  1.00  0.00    -0.000 C 
BRANCH  12  13
ATOM     13  C   UNL     1     -46.922   8.483 -31.827  1.00  0.00    -0.000 C 
BRANCH  13  14
ATOM     14  C   UNL     1     -48.207   7.891 -32.434  1.00  0.00    -0.000 C 
BRANCH  14  15
ATOM     15  C   UNL     1     -48.950   8.857 -33.381  1.00  0.00    -0.000 C 
BRANCH  15  16
ATOM     16  C   UNL     1     -50.355   9.210 -32.870  1.00  0.00    -0.000 C 
BRANCH  16  17
ATOM     17  C   UNL     1     -50.889   8.122 -31.931  1.00  0.00    -0.003 C 
ATOM     18  C   UNL     1     -51.702   8.727 -30.792  1.00  0.00     0.004 C 
ENDBRANCH  16  17
ENDBRANCH  15  16
ENDBRANCH  14  15
ENDBRANCH  13  14
ENDBRANCH  12  13
ENDBRANCH  11  12
ENDBRANCH   1  11
TORSDOF 14
ENDMDL
