MODEL 1
REMARK VINA RESULT:    20.197      0.000      0.000
REMARK INTER + INTRA:          24.555
REMARK INTER:                  24.920
REMARK INTRA:                  -0.364
REMARK UNBOUND:                -0.364
REMARK SMILES CC(C)=CCC[C@@H](C)c1ccc(C)cc1
REMARK SMILES IDX 6 1 7 2 8 3 9 4 13 5 12 6 11 7 14 8 10 9 15 10 5 11 4 12
REMARK SMILES IDX 2 13 1 14 3 15
REMARK H PARENT
REMARK Flexibility Score: inf
ROOT
ATOM      1  C   UNL     1      51.727  -8.112   7.066  1.00  0.00     0.012 C 
ENDROOT
BRANCH   1   2
ATOM      2  C   UNL     1      50.232  -7.948   7.431  1.00  0.00     0.016 C 
ATOM      3  C   UNL     1      49.393  -9.058   6.785  1.00  0.00     0.013 C 
BRANCH   2   4
ATOM      4  C   UNL     1      50.010  -7.917   8.933  1.00  0.00    -0.045 A 
ATOM      5  C   UNL     1      49.423  -7.901  13.212  1.00  0.00     0.044 C 
ATOM      6  C   UNL     1      49.627  -7.875  11.727  1.00  0.00    -0.051 A 
ATOM      7  C   UNL     1      50.922  -7.918  11.190  1.00  0.00     0.004 A 
ATOM      8  C   UNL     1      48.524  -7.878  10.861  1.00  0.00     0.004 A 
ATOM      9  C   UNL     1      51.112  -7.933   9.806  1.00  0.00     0.004 A 
ATOM     10  C   UNL     1      48.712  -7.893   9.477  1.00  0.00     0.004 A 
ENDBRANCH   2   4
ENDBRANCH   1   2
BRANCH   1  11
ATOM     11  C   UNL     1      52.054  -9.457   6.390  1.00  0.00     0.028 C 
BRANCH  11  12
ATOM     12  C   UNL     1      52.109  -9.341   4.885  1.00  0.00    -0.028 C 
ATOM     13  C   UNL     1      52.595 -10.294   4.059  1.00  0.00    -0.080 C 
ATOM     14  C   UNL     1      53.197 -11.577   4.581  1.00  0.00     0.039 C 
ATOM     15  C   UNL     1      52.547 -10.046   2.574  1.00  0.00     0.039 C 
ENDBRANCH  11  12
ENDBRANCH   1  11
TORSDOF 4
ENDMDL
MODEL 2
REMARK VINA RESULT:    20.853      1.304      6.948
REMARK INTER + INTRA:          25.365
REMARK INTER:                  25.965
REMARK INTRA:                  -0.600
REMARK UNBOUND:                -0.364
REMARK SMILES CC(C)=CCC[C@@H](C)c1ccc(C)cc1
REMARK SMILES IDX 6 1 7 2 8 3 9 4 13 5 12 6 11 7 14 8 10 9 15 10 5 11 4 12
REMARK SMILES IDX 2 13 1 14 3 15
REMARK H PARENT
REMARK Flexibility Score: inf
ROOT
ATOM      1  C   UNL     1      50.475  -8.146   6.979  1.00  0.00     0.012 C 
ENDROOT
BRANCH   1   2
ATOM      2  C   UNL     1      50.018  -9.402   6.200  1.00  0.00     0.016 C 
ATOM      3  C   UNL     1      48.521  -9.320   5.871  1.00  0.00     0.013 C 
BRANCH   2   4
ATOM      4  C   UNL     1      50.830  -9.618   4.934  1.00  0.00    -0.045 A 
ATOM      5  C   UNL     1      53.202 -10.184   1.369  1.00  0.00     0.044 C 
ATOM      6  C   UNL     1      52.366 -10.016   2.603  1.00  0.00    -0.051 A 
ATOM      7  C   UNL     1      52.881 -10.368   3.859  1.00  0.00     0.004 A 
ATOM      8  C   UNL     1      51.090  -9.441   2.520  1.00  0.00     0.004 A 
ATOM      9  C   UNL     1      52.118 -10.177   5.014  1.00  0.00     0.004 A 
ATOM     10  C   UNL     1      50.326  -9.249   3.673  1.00  0.00     0.004 A 
ENDBRANCH   2   4
ENDBRANCH   1   2
BRANCH   1  11
ATOM     11  C   UNL     1      51.053  -8.459   8.371  1.00  0.00     0.028 C 
BRANCH  11  12
ATOM     12  C   UNL     1      50.200  -7.897   9.483  1.00  0.00    -0.028 C 
ATOM     13  C   UNL     1      49.673  -8.626  10.491  1.00  0.00    -0.080 C 
ATOM     14  C   UNL     1      49.845 -10.125  10.572  1.00  0.00     0.039 C 
ATOM     15  C   UNL     1      48.872  -7.913  11.549  1.00  0.00     0.039 C 
ENDBRANCH  11  12
ENDBRANCH   1  11
TORSDOF 4
ENDMDL
MODEL 3
REMARK VINA RESULT:    21.196      1.154      1.437
REMARK INTER + INTRA:          25.788
REMARK INTER:                  26.286
REMARK INTRA:                  -0.498
REMARK UNBOUND:                -0.364
REMARK SMILES CC(C)=CCC[C@@H](C)c1ccc(C)cc1
REMARK SMILES IDX 6 1 7 2 8 3 9 4 13 5 12 6 11 7 14 8 10 9 15 10 5 11 4 12
REMARK SMILES IDX 2 13 1 14 3 15
REMARK H PARENT
REMARK Flexibility Score: inf
ROOT
ATOM      1  C   UNL     1      51.122  -8.047   6.704  1.00  0.00     0.012 C 
ENDROOT
BRANCH   1   2
ATOM      2  C   UNL     1      49.746  -8.507   7.240  1.00  0.00     0.016 C 
ATOM      3  C   UNL     1      49.249  -9.736   6.468  1.00  0.00     0.013 C 
BRANCH   2   4
ATOM      4  C   UNL     1      49.779  -8.793   8.732  1.00  0.00    -0.045 A 
ATOM      5  C   UNL     1      49.786  -9.613  12.972  1.00  0.00     0.044 C 
ATOM      6  C   UNL     1      49.811  -9.342  11.498  1.00  0.00    -0.051 A 
ATOM      7  C   UNL     1      49.230 -10.252  10.602  1.00  0.00     0.004 A 
ATOM      8  C   UNL     1      50.354  -8.146  11.007  1.00  0.00     0.004 A 
ATOM      9  C   UNL     1      49.219  -9.982   9.231  1.00  0.00     0.004 A 
ATOM     10  C   UNL     1      50.344  -7.876   9.637  1.00  0.00     0.004 A 
ENDBRANCH   2   4
ENDBRANCH   1   2
BRANCH   1  11
ATOM     11  C   UNL     1      52.011  -9.203   6.208  1.00  0.00     0.028 C 
BRANCH  11  12
ATOM     12  C   UNL     1      52.116  -9.236   4.701  1.00  0.00    -0.028 C 
ATOM     13  C   UNL     1      52.612 -10.271   3.989  1.00  0.00    -0.080 C 
ATOM     14  C   UNL     1      53.176 -11.505   4.653  1.00  0.00     0.039 C 
ATOM     15  C   UNL     1      52.616 -10.169   2.486  1.00  0.00     0.039 C 
ENDBRANCH  11  12
ENDBRANCH   1  11
TORSDOF 4
ENDMDL
MODEL 4
REMARK VINA RESULT:    22.447     12.601     14.629
REMARK INTER + INTRA:          27.332
REMARK INTER:                  27.825
REMARK INTRA:                  -0.494
REMARK UNBOUND:                -0.364
REMARK SMILES CC(C)=CCC[C@@H](C)c1ccc(C)cc1
REMARK SMILES IDX 6 1 7 2 8 3 9 4 13 5 12 6 11 7 14 8 10 9 15 10 5 11 4 12
REMARK SMILES IDX 2 13 1 14 3 15
REMARK H PARENT
REMARK Flexibility Score: inf
ROOT
ATOM      1  C   UNL     1      46.841 -19.516  15.773  1.00  0.00     0.012 C 
ENDROOT
BRANCH   1   2
ATOM      2  C   UNL     1      47.896 -18.389  15.871  1.00  0.00     0.016 C 
ATOM      3  C   UNL     1      47.752 -17.627  17.195  1.00  0.00     0.013 C 
BRANCH   2   4
ATOM      4  C   UNL     1      49.312 -18.914  15.709  1.00  0.00    -0.045 A 
ATOM      5  C   UNL     1      53.348 -20.356  15.179  1.00  0.00     0.044 C 
ATOM      6  C   UNL     1      51.950 -19.859  15.394  1.00  0.00    -0.051 A 
ATOM      7  C   UNL     1      51.702 -18.486  15.534  1.00  0.00     0.004 A 
ATOM      8  C   UNL     1      50.871 -20.755  15.386  1.00  0.00     0.004 A 
ATOM      9  C   UNL     1      50.395 -18.017  15.696  1.00  0.00     0.004 A 
ATOM     10  C   UNL     1      49.565 -20.289  15.548  1.00  0.00     0.004 A 
ENDBRANCH   2   4
ENDBRANCH   1   2
BRANCH   1  11
ATOM     11  C   UNL     1      45.621 -19.148  14.906  1.00  0.00     0.028 C 
BRANCH  11  12
ATOM     12  C   UNL     1      44.315 -19.482  15.588  1.00  0.00    -0.028 C 
ATOM     13  C   UNL     1      43.376 -20.311  15.082  1.00  0.00    -0.080 C 
ATOM     14  C   UNL     1      43.522 -20.957  13.724  1.00  0.00     0.039 C 
ATOM     15  C   UNL     1      42.139 -20.576  15.900  1.00  0.00     0.039 C 
ENDBRANCH  11  12
ENDBRANCH   1  11
TORSDOF 4
ENDMDL
MODEL 5
REMARK VINA RESULT:    22.502     12.568     14.632
REMARK INTER + INTRA:          27.400
REMARK INTER:                  27.897
REMARK INTRA:                  -0.497
REMARK UNBOUND:                -0.364
REMARK SMILES CC(C)=CCC[C@@H](C)c1ccc(C)cc1
REMARK SMILES IDX 6 1 7 2 8 3 9 4 13 5 12 6 11 7 14 8 10 9 15 10 5 11 4 12
REMARK SMILES IDX 2 13 1 14 3 15
REMARK H PARENT
REMARK Flexibility Score: inf
ROOT
ATOM      1  C   UNL     1      46.851 -19.498  15.790  1.00  0.00     0.012 C 
ENDROOT
BRANCH   1   2
ATOM      2  C   UNL     1      47.893 -18.358  15.884  1.00  0.00     0.016 C 
ATOM      3  C   UNL     1      47.758 -17.612  17.218  1.00  0.00     0.013 C 
BRANCH   2   4
ATOM      4  C   UNL     1      49.313 -18.864  15.697  1.00  0.00    -0.045 A 
ATOM      5  C   UNL     1      53.342 -20.351  15.236  1.00  0.00     0.044 C 
ATOM      6  C   UNL     1      51.941 -19.832  15.365  1.00  0.00    -0.051 A 
ATOM      7  C   UNL     1      50.857 -20.721  15.393  1.00  0.00     0.004 A 
ATOM      8  C   UNL     1      51.708 -18.459  15.528  1.00  0.00     0.004 A 
ATOM      9  C   UNL     1      49.554 -20.241  15.552  1.00  0.00     0.004 A 
ATOM     10  C   UNL     1      50.406 -17.977  15.687  1.00  0.00     0.004 A 
ENDBRANCH   2   4
ENDBRANCH   1   2
BRANCH   1  11
ATOM     11  C   UNL     1      45.635 -19.152  14.910  1.00  0.00     0.028 C 
BRANCH  11  12
ATOM     12  C   UNL     1      44.326 -19.473  15.594  1.00  0.00    -0.028 C 
ATOM     13  C   UNL     1      43.380 -20.297  15.093  1.00  0.00    -0.080 C 
ATOM     14  C   UNL     1      43.520 -20.950  13.737  1.00  0.00     0.039 C 
ATOM     15  C   UNL     1      42.141 -20.548  15.913  1.00  0.00     0.039 C 
ENDBRANCH  11  12
ENDBRANCH   1  11
TORSDOF 4
ENDMDL
