MODEL 1
REMARK VINA RESULT:    -2.946      0.000      0.000
REMARK INTER + INTRA:          -3.504
REMARK INTER:                  -3.462
REMARK INTRA:                  -0.041
REMARK UNBOUND:                -0.041
REMARK SMILES CCCCC(=O)[O-]
REMARK SMILES IDX 4 1 5 2 6 3 7 4 3 5 2 6 1 7
REMARK H PARENT
REMARK Flexibility Score: inf
ROOT
ATOM      1  C   UNL     1      37.998  22.472  28.817  1.00  0.00     0.053 C 
ENDROOT
BRANCH   1   2
ATOM      2  C   UNL     1      38.904  23.163  27.843  1.00  0.00     0.041 C 
ATOM      3  O   UNL     1      39.944  22.587  27.427  1.00  0.00    -0.550 OA
ATOM      4  O   UNL     1      38.618  24.455  27.422  1.00  0.00    -0.550 OA
ENDBRANCH   1   2
BRANCH   1   5
ATOM      5  C   UNL     1      37.631  23.381  29.997  1.00  0.00     0.006 C 
BRANCH   5   6
ATOM      6  C   UNL     1      38.499  23.106  31.233  1.00  0.00    -0.003 C 
ATOM      7  C   UNL     1      37.679  22.470  32.351  1.00  0.00     0.004 C 
ENDBRANCH   5   6
ENDBRANCH   1   5
TORSDOF 3
ENDMDL
MODEL 2
REMARK VINA RESULT:    -2.938     15.357     16.138
REMARK INTER + INTRA:          -3.494
REMARK INTER:                  -3.439
REMARK INTRA:                  -0.055
REMARK UNBOUND:                -0.041
REMARK SMILES CCCCC(=O)[O-]
REMARK SMILES IDX 4 1 5 2 6 3 7 4 3 5 2 6 1 7
REMARK H PARENT
REMARK Flexibility Score: inf
ROOT
ATOM      1  C   UNL     1      28.215  34.169  22.018  1.00  0.00     0.053 C 
ENDROOT
BRANCH   1   2
ATOM      2  C   UNL     1      27.894  33.451  20.743  1.00  0.00     0.041 C 
ATOM      3  O   UNL     1      28.812  33.161  19.932  1.00  0.00    -0.550 OA
ATOM      4  O   UNL     1      26.578  33.133  20.435  1.00  0.00    -0.550 OA
ENDBRANCH   1   2
BRANCH   1   5
ATOM      5  C   UNL     1      28.357  33.198  23.198  1.00  0.00     0.006 C 
BRANCH   5   6
ATOM      6  C   UNL     1      29.580  32.283  23.053  1.00  0.00    -0.003 C 
ATOM      7  C   UNL     1      30.872  33.093  23.008  1.00  0.00     0.004 C 
ENDBRANCH   5   6
ENDBRANCH   1   5
TORSDOF 3
ENDMDL
MODEL 3
REMARK VINA RESULT:    -2.907     17.049     17.911
REMARK INTER + INTRA:          -3.459
REMARK INTER:                  -3.336
REMARK INTRA:                  -0.123
REMARK UNBOUND:                -0.041
REMARK SMILES CCCCC(=O)[O-]
REMARK SMILES IDX 4 1 5 2 6 3 7 4 3 5 2 6 1 7
REMARK H PARENT
REMARK Flexibility Score: inf
ROOT
ATOM      1  C   UNL     1      27.895  34.800  20.429  1.00  0.00     0.053 C 
ENDROOT
BRANCH   1   2
ATOM      2  C   UNL     1      28.539  33.517  20.860  1.00  0.00     0.041 C 
ATOM      3  O   UNL     1      28.343  33.069  22.020  1.00  0.00    -0.550 OA
ATOM      4  O   UNL     1      29.382  32.835  19.992  1.00  0.00    -0.550 OA
ENDBRANCH   1   2
BRANCH   1   5
ATOM      5  C   UNL     1      26.373  34.658  20.302  1.00  0.00     0.006 C 
BRANCH   5   6
ATOM      6  C   UNL     1      25.972  33.502  19.376  1.00  0.00    -0.003 C 
ATOM      7  C   UNL     1      24.875  32.648  20.005  1.00  0.00     0.004 C 
ENDBRANCH   5   6
ENDBRANCH   1   5
TORSDOF 3
ENDMDL
MODEL 4
REMARK VINA RESULT:    -2.889      1.951      2.724
REMARK INTER + INTRA:          -3.437
REMARK INTER:                  -3.332
REMARK INTRA:                  -0.105
REMARK UNBOUND:                -0.041
REMARK SMILES CCCCC(=O)[O-]
REMARK SMILES IDX 4 1 5 2 6 3 7 4 3 5 2 6 1 7
REMARK H PARENT
REMARK Flexibility Score: inf
ROOT
ATOM      1  C   UNL     1      37.975  23.767  29.659  1.00  0.00     0.053 C 
ENDROOT
BRANCH   1   2
ATOM      2  C   UNL     1      38.280  22.656  28.702  1.00  0.00     0.041 C 
ATOM      3  O   UNL     1      38.452  22.903  27.479  1.00  0.00    -0.550 OA
ATOM      4  O   UNL     1      38.343  21.345  29.154  1.00  0.00    -0.550 OA
ENDBRANCH   1   2
BRANCH   1   5
ATOM      5  C   UNL     1      39.006  23.842  30.793  1.00  0.00     0.006 C 
BRANCH   5   6
ATOM      6  C   UNL     1      40.430  24.074  30.269  1.00  0.00    -0.003 C 
ATOM      7  C   UNL     1      40.518  25.372  29.472  1.00  0.00     0.004 C 
ENDBRANCH   5   6
ENDBRANCH   1   5
TORSDOF 3
ENDMDL
MODEL 5
REMARK VINA RESULT:    -2.856     16.385     17.272
REMARK INTER + INTRA:          -3.398
REMARK INTER:                  -3.369
REMARK INTRA:                  -0.029
REMARK UNBOUND:                -0.041
REMARK SMILES CCCCC(=O)[O-]
REMARK SMILES IDX 4 1 5 2 6 3 7 4 3 5 2 6 1 7
REMARK H PARENT
REMARK Flexibility Score: inf
ROOT
ATOM      1  C   UNL     1      28.200  34.232  21.357  1.00  0.00     0.053 C 
ENDROOT
BRANCH   1   2
ATOM      2  C   UNL     1      28.789  33.537  22.547  1.00  0.00     0.041 C 
ATOM      3  O   UNL     1      28.042  33.111  23.466  1.00  0.00    -0.550 OA
ATOM      4  O   UNL     1      30.166  33.390  22.656  1.00  0.00    -0.550 OA
ENDBRANCH   1   2
BRANCH   1   5
ATOM      5  C   UNL     1      27.330  33.286  20.519  1.00  0.00     0.006 C 
BRANCH   5   6
ATOM      6  C   UNL     1      26.029  33.954  20.052  1.00  0.00    -0.003 C 
ATOM      7  C   UNL     1      24.883  32.948  19.998  1.00  0.00     0.004 C 
ENDBRANCH   5   6
ENDBRANCH   1   5
TORSDOF 3
ENDMDL
MODEL 6
REMARK VINA RESULT:    -2.850     16.564     17.339
REMARK INTER + INTRA:          -3.391
REMARK INTER:                  -3.372
REMARK INTRA:                  -0.019
REMARK UNBOUND:                -0.041
REMARK SMILES CCCCC(=O)[O-]
REMARK SMILES IDX 4 1 5 2 6 3 7 4 3 5 2 6 1 7
REMARK H PARENT
REMARK Flexibility Score: inf
ROOT
ATOM      1  C   UNL     1      27.744  33.231  20.668  1.00  0.00     0.053 C 
ENDROOT
BRANCH   1   2
ATOM      2  C   UNL     1      26.494  33.738  20.016  1.00  0.00     0.041 C 
ATOM      3  O   UNL     1      26.444  34.915  19.572  1.00  0.00    -0.550 OA
ATOM      4  O   UNL     1      25.374  32.921  19.929  1.00  0.00    -0.550 OA
ENDBRANCH   1   2
BRANCH   1   5
ATOM      5  C   UNL     1      28.137  34.080  21.884  1.00  0.00     0.006 C 
BRANCH   5   6
ATOM      6  C   UNL     1      28.428  33.220  23.123  1.00  0.00    -0.003 C 
ATOM      7  C   UNL     1      29.819  32.600  23.047  1.00  0.00     0.004 C 
ENDBRANCH   5   6
ENDBRANCH   1   5
TORSDOF 3
ENDMDL
MODEL 7
REMARK VINA RESULT:    -2.771     13.874     14.607
REMARK INTER + INTRA:          -3.299
REMARK INTER:                  -3.246
REMARK INTRA:                  -0.053
REMARK UNBOUND:                -0.041
REMARK SMILES CCCCC(=O)[O-]
REMARK SMILES IDX 4 1 5 2 6 3 7 4 3 5 2 6 1 7
REMARK H PARENT
REMARK Flexibility Score: inf
ROOT
ATOM      1  C   UNL     1      31.084  33.478  23.107  1.00  0.00     0.053 C 
ENDROOT
BRANCH   1   2
ATOM      2  C   UNL     1      32.066  33.272  21.994  1.00  0.00     0.041 C 
ATOM      3  O   UNL     1      33.182  32.737  22.226  1.00  0.00    -0.550 OA
ATOM      4  O   UNL     1      31.762  33.702  20.709  1.00  0.00    -0.550 OA
ENDBRANCH   1   2
BRANCH   1   5
ATOM      5  C   UNL     1      29.931  32.469  23.043  1.00  0.00     0.006 C 
BRANCH   5   6
ATOM      6  C   UNL     1      28.558  33.153  23.062  1.00  0.00    -0.003 C 
ATOM      7  C   UNL     1      28.609  34.468  23.833  1.00  0.00     0.004 C 
ENDBRANCH   5   6
ENDBRANCH   1   5
TORSDOF 3
ENDMDL
MODEL 8
REMARK VINA RESULT:    -2.721     10.312     11.148
REMARK INTER + INTRA:          -3.239
REMARK INTER:                  -3.220
REMARK INTRA:                  -0.019
REMARK UNBOUND:                -0.041
REMARK SMILES CCCCC(=O)[O-]
REMARK SMILES IDX 4 1 5 2 6 3 7 4 3 5 2 6 1 7
REMARK H PARENT
REMARK Flexibility Score: inf
ROOT
ATOM      1  C   UNL     1      36.226  32.511  33.055  1.00  0.00     0.053 C 
ENDROOT
BRANCH   1   2
ATOM      2  C   UNL     1      35.257  33.653  33.021  1.00  0.00     0.041 C 
ATOM      3  O   UNL     1      35.676  34.840  33.036  1.00  0.00    -0.550 OA
ATOM      4  O   UNL     1      33.890  33.407  33.006  1.00  0.00    -0.550 OA
ENDBRANCH   1   2
BRANCH   1   5
ATOM      5  C   UNL     1      37.565  32.881  32.405  1.00  0.00     0.006 C 
BRANCH   5   6
ATOM      6  C   UNL     1      38.448  31.651  32.151  1.00  0.00    -0.003 C 
ATOM      7  C   UNL     1      39.500  31.939  31.085  1.00  0.00     0.004 C 
ENDBRANCH   5   6
ENDBRANCH   1   5
TORSDOF 3
ENDMDL
MODEL 9
REMARK VINA RESULT:    -2.677     14.708     15.623
REMARK INTER + INTRA:          -3.188
REMARK INTER:                  -3.084
REMARK INTRA:                  -0.105
REMARK UNBOUND:                -0.041
REMARK SMILES CCCCC(=O)[O-]
REMARK SMILES IDX 4 1 5 2 6 3 7 4 3 5 2 6 1 7
REMARK H PARENT
REMARK Flexibility Score: inf
ROOT
ATOM      1  C   UNL     1      29.293  34.377  23.481  1.00  0.00     0.053 C 
ENDROOT
BRANCH   1   2
ATOM      2  C   UNL     1      30.772  34.143  23.423  1.00  0.00     0.041 C 
ATOM      3  O   UNL     1      31.224  33.046  23.000  1.00  0.00    -0.550 OA
ATOM      4  O   UNL     1      31.650  35.123  23.868  1.00  0.00    -0.550 OA
ENDBRANCH   1   2
BRANCH   1   5
ATOM      5  C   UNL     1      28.505  33.170  22.956  1.00  0.00     0.006 C 
BRANCH   5   6
ATOM      6  C   UNL     1      27.838  33.455  21.603  1.00  0.00    -0.003 C 
ATOM      7  C   UNL     1      28.768  33.102  20.446  1.00  0.00     0.004 C 
ENDBRANCH   5   6
ENDBRANCH   1   5
TORSDOF 3
ENDMDL
