MODEL 1
REMARK VINA RESULT:    -3.832      0.000      0.000
REMARK INTER + INTRA:          -6.088
REMARK INTER:                  -5.400
REMARK INTRA:                  -0.689
REMARK UNBOUND:                -0.689
REMARK SMILES CCCCCCCCC(=O)[O-]
REMARK SMILES IDX 6 1 7 2 8 3 9 4 10 5 11 6 5 7 4 8 3 9 2 10 1 11
REMARK H PARENT
REMARK Flexibility Score: inf
ROOT
ATOM      1  C   UNL     1       2.415  27.868  57.897  1.00  0.00     0.000 C 
ENDROOT
BRANCH   1   2
ATOM      2  C   UNL     1       1.801  29.171  57.354  1.00  0.00     0.006 C 
BRANCH   2   3
ATOM      3  C   UNL     1       0.339  29.004  56.922  1.00  0.00     0.053 C 
BRANCH   3   4
ATOM      4  C   UNL     1       0.254  28.756  55.449  1.00  0.00     0.041 C 
ATOM      5  O   UNL     1       0.698  27.683  54.962  1.00  0.00    -0.550 OA
ATOM      6  O   UNL     1      -0.270  29.729  54.609  1.00  0.00    -0.550 OA
ENDBRANCH   3   4
ENDBRANCH   2   3
ENDBRANCH   1   2
BRANCH   1   7
ATOM      7  C   UNL     1       3.877  27.614  57.477  1.00  0.00     0.000 C 
BRANCH   7   8
ATOM      8  C   UNL     1       4.687  28.879  57.131  1.00  0.00    -0.000 C 
BRANCH   8   9
ATOM      9  C   UNL     1       5.165  28.968  55.668  1.00  0.00    -0.000 C 
BRANCH   9  10
ATOM     10  C   UNL     1       4.210  28.342  54.637  1.00  0.00    -0.003 C 
ATOM     11  C   UNL     1       3.499  29.384  53.775  1.00  0.00     0.004 C 
ENDBRANCH   9  10
ENDBRANCH   8   9
ENDBRANCH   7   8
ENDBRANCH   1   7
TORSDOF 7
ENDMDL
MODEL 2
REMARK VINA RESULT:    -3.816      2.751      4.827
REMARK INTER + INTRA:          -6.067
REMARK INTER:                  -5.661
REMARK INTRA:                  -0.406
REMARK UNBOUND:                -0.689
REMARK SMILES CCCCCCCCC(=O)[O-]
REMARK SMILES IDX 6 1 7 2 8 3 9 4 10 5 11 6 5 7 4 8 3 9 2 10 1 11
REMARK H PARENT
REMARK Flexibility Score: inf
ROOT
ATOM      1  C   UNL     1       3.480  28.082  54.899  1.00  0.00     0.000 C 
ENDROOT
BRANCH   1   2
ATOM      2  C   UNL     1       4.309  27.773  56.159  1.00  0.00     0.006 C 
BRANCH   2   3
ATOM      3  C   UNL     1       3.523  27.996  57.457  1.00  0.00     0.053 C 
BRANCH   3   4
ATOM      4  C   UNL     1       3.956  27.019  58.504  1.00  0.00     0.041 C 
ATOM      5  O   UNL     1       3.105  26.298  59.087  1.00  0.00    -0.550 OA
ATOM      6  O   UNL     1       5.294  26.940  58.870  1.00  0.00    -0.550 OA
ENDBRANCH   3   4
ENDBRANCH   2   3
ENDBRANCH   1   2
BRANCH   1   7
ATOM      7  C   UNL     1       1.955  28.124  55.117  1.00  0.00     0.000 C 
BRANCH   7   8
ATOM      8  C   UNL     1       1.277  29.456  54.739  1.00  0.00    -0.000 C 
BRANCH   8   9
ATOM      9  C   UNL     1      -0.072  29.723  55.437  1.00  0.00    -0.000 C 
BRANCH   9  10
ATOM     10  C   UNL     1      -0.131  29.296  56.914  1.00  0.00    -0.003 C 
ATOM     11  C   UNL     1      -1.055  30.178  57.752  1.00  0.00     0.004 C 
ENDBRANCH   9  10
ENDBRANCH   8   9
ENDBRANCH   7   8
ENDBRANCH   1   7
TORSDOF 7
ENDMDL
MODEL 3
REMARK VINA RESULT:    -3.727      2.083      3.817
REMARK INTER + INTRA:          -5.941
REMARK INTER:                  -5.248
REMARK INTRA:                  -0.693
REMARK UNBOUND:                -0.689
REMARK SMILES CCCCCCCCC(=O)[O-]
REMARK SMILES IDX 6 1 7 2 8 3 9 4 10 5 11 6 5 7 4 8 3 9 2 10 1 11
REMARK H PARENT
REMARK Flexibility Score: inf
ROOT
ATOM      1  C   UNL     1       4.133  27.744  57.199  1.00  0.00     0.000 C 
ENDROOT
BRANCH   1   2
ATOM      2  C   UNL     1       4.258  28.675  55.979  1.00  0.00     0.006 C 
BRANCH   2   3
ATOM      3  C   UNL     1       3.956  27.963  54.654  1.00  0.00     0.053 C 
BRANCH   3   4
ATOM      4  C   UNL     1       4.273  28.856  53.497  1.00  0.00     0.041 C 
ATOM      5  O   UNL     1       4.288  30.106  53.647  1.00  0.00    -0.550 OA
ATOM      6  O   UNL     1       4.503  28.310  52.241  1.00  0.00    -0.550 OA
ENDBRANCH   3   4
ENDBRANCH   2   3
ENDBRANCH   1   2
BRANCH   1   7
ATOM      7  C   UNL     1       2.752  27.750  57.883  1.00  0.00     0.000 C 
BRANCH   7   8
ATOM      8  C   UNL     1       1.808  28.885  57.440  1.00  0.00    -0.000 C 
BRANCH   8   9
ATOM      9  C   UNL     1       0.458  28.422  56.857  1.00  0.00    -0.000 C 
BRANCH   9  10
ATOM     10  C   UNL     1       0.337  28.546  55.329  1.00  0.00    -0.003 C 
ATOM     11  C   UNL     1       0.701  29.938  54.813  1.00  0.00     0.004 C 
ENDBRANCH   9  10
ENDBRANCH   8   9
ENDBRANCH   7   8
ENDBRANCH   1   7
TORSDOF 7
ENDMDL
MODEL 4
REMARK VINA RESULT:    -3.588      1.466      2.137
REMARK INTER + INTRA:          -5.745
REMARK INTER:                  -5.381
REMARK INTRA:                  -0.364
REMARK UNBOUND:                -0.689
REMARK SMILES CCCCCCCCC(=O)[O-]
REMARK SMILES IDX 6 1 7 2 8 3 9 4 10 5 11 6 5 7 4 8 3 9 2 10 1 11
REMARK H PARENT
REMARK Flexibility Score: inf
ROOT
ATOM      1  C   UNL     1       1.653  29.158  57.549  1.00  0.00     0.000 C 
ENDROOT
BRANCH   1   2
ATOM      2  C   UNL     1       0.187  28.706  57.421  1.00  0.00     0.006 C 
BRANCH   2   3
ATOM      3  C   UNL     1      -0.649  29.642  56.539  1.00  0.00     0.053 C 
BRANCH   3   4
ATOM      4  C   UNL     1      -0.212  29.542  55.111  1.00  0.00     0.041 C 
ATOM      5  O   UNL     1       0.099  30.580  54.470  1.00  0.00    -0.550 OA
ATOM      6  O   UNL     1      -0.196  28.308  54.474  1.00  0.00    -0.550 OA
ENDBRANCH   3   4
ENDBRANCH   2   3
ENDBRANCH   1   2
BRANCH   1   7
ATOM      7  C   UNL     1       2.684  28.216  56.895  1.00  0.00     0.000 C 
BRANCH   7   8
ATOM      8  C   UNL     1       3.645  27.516  57.876  1.00  0.00    -0.000 C 
BRANCH   8   9
ATOM      9  C   UNL     1       5.128  27.528  57.457  1.00  0.00    -0.000 C 
BRANCH   9  10
ATOM     10  C   UNL     1       5.750  28.928  57.319  1.00  0.00    -0.003 C 
ATOM     11  C   UNL     1       6.020  29.320  55.867  1.00  0.00     0.004 C 
ENDBRANCH   9  10
ENDBRANCH   8   9
ENDBRANCH   7   8
ENDBRANCH   1   7
TORSDOF 7
ENDMDL
MODEL 5
REMARK VINA RESULT:    -3.580      1.286      2.928
REMARK INTER + INTRA:          -5.734
REMARK INTER:                  -5.171
REMARK INTRA:                  -0.563
REMARK UNBOUND:                -0.689
REMARK SMILES CCCCCCCCC(=O)[O-]
REMARK SMILES IDX 6 1 7 2 8 3 9 4 10 5 11 6 5 7 4 8 3 9 2 10 1 11
REMARK H PARENT
REMARK Flexibility Score: inf
ROOT
ATOM      1  C   UNL     1       2.703  29.131  54.389  1.00  0.00     0.000 C 
ENDROOT
BRANCH   1   2
ATOM      2  C   UNL     1       1.688  28.178  55.047  1.00  0.00     0.006 C 
BRANCH   2   3
ATOM      3  C   UNL     1       1.139  28.718  56.374  1.00  0.00     0.053 C 
BRANCH   3   4
ATOM      4  C   UNL     1      -0.207  29.337  56.170  1.00  0.00     0.041 C 
ATOM      5  O   UNL     1      -0.829  29.835  57.144  1.00  0.00    -0.550 OA
ATOM      6  O   UNL     1      -0.796  29.319  54.912  1.00  0.00    -0.550 OA
ENDBRANCH   3   4
ENDBRANCH   2   3
ENDBRANCH   1   2
BRANCH   1   7
ATOM      7  C   UNL     1       4.155  28.614  54.360  1.00  0.00     0.000 C 
BRANCH   7   8
ATOM      8  C   UNL     1       4.906  28.703  55.703  1.00  0.00    -0.000 C 
BRANCH   8   9
ATOM      9  C   UNL     1       4.829  27.436  56.579  1.00  0.00    -0.000 C 
BRANCH   9  10
ATOM     10  C   UNL     1       4.670  27.701  58.086  1.00  0.00    -0.003 C 
ATOM     11  C   UNL     1       3.570  26.857  58.727  1.00  0.00     0.004 C 
ENDBRANCH   9  10
ENDBRANCH   8   9
ENDBRANCH   7   8
ENDBRANCH   1   7
TORSDOF 7
ENDMDL
MODEL 6
REMARK VINA RESULT:    -3.566      2.587      3.603
REMARK INTER + INTRA:          -5.715
REMARK INTER:                  -5.232
REMARK INTRA:                  -0.483
REMARK UNBOUND:                -0.689
REMARK SMILES CCCCCCCCC(=O)[O-]
REMARK SMILES IDX 6 1 7 2 8 3 9 4 10 5 11 6 5 7 4 8 3 9 2 10 1 11
REMARK H PARENT
REMARK Flexibility Score: inf
ROOT
ATOM      1  C   UNL     1       1.160  28.461  56.346  1.00  0.00     0.000 C 
ENDROOT
BRANCH   1   2
ATOM      2  C   UNL     1       2.240  28.855  57.370  1.00  0.00     0.006 C 
BRANCH   2   3
ATOM      3  C   UNL     1       3.112  27.669  57.799  1.00  0.00     0.053 C 
BRANCH   3   4
ATOM      4  C   UNL     1       4.552  27.945  57.502  1.00  0.00     0.041 C 
ATOM      5  O   UNL     1       5.394  27.010  57.526  1.00  0.00    -0.550 OA
ATOM      6  O   UNL     1       4.972  29.244  57.246  1.00  0.00    -0.550 OA
ENDBRANCH   3   4
ENDBRANCH   2   3
ENDBRANCH   1   2
BRANCH   1   7
ATOM      7  C   UNL     1       1.692  28.113  54.941  1.00  0.00     0.000 C 
BRANCH   7   8
ATOM      8  C   UNL     1       2.758  29.079  54.388  1.00  0.00    -0.000 C 
BRANCH   8   9
ATOM      9  C   UNL     1       4.063  28.409  53.916  1.00  0.00    -0.000 C 
BRANCH   9  10
ATOM     10  C   UNL     1       4.657  28.992  52.621  1.00  0.00    -0.003 C 
ATOM     11  C   UNL     1       4.750  27.964  51.494  1.00  0.00     0.004 C 
ENDBRANCH   9  10
ENDBRANCH   8   9
ENDBRANCH   7   8
ENDBRANCH   1   7
TORSDOF 7
ENDMDL
MODEL 7
REMARK VINA RESULT:    -3.516      2.445      4.835
REMARK INTER + INTRA:          -5.643
REMARK INTER:                  -5.087
REMARK INTRA:                  -0.556
REMARK UNBOUND:                -0.689
REMARK SMILES CCCCCCCCC(=O)[O-]
REMARK SMILES IDX 6 1 7 2 8 3 9 4 10 5 11 6 5 7 4 8 3 9 2 10 1 11
REMARK H PARENT
REMARK Flexibility Score: inf
ROOT
ATOM      1  C   UNL     1       3.150  29.350  53.800  1.00  0.00     0.000 C 
ENDROOT
BRANCH   1   2
ATOM      2  C   UNL     1       4.279  28.475  54.374  1.00  0.00     0.006 C 
BRANCH   2   3
ATOM      3  C   UNL     1       5.217  29.251  55.307  1.00  0.00     0.053 C 
BRANCH   3   4
ATOM      4  C   UNL     1       5.219  28.640  56.672  1.00  0.00     0.041 C 
ATOM      5  O   UNL     1       5.730  29.259  57.642  1.00  0.00    -0.550 OA
ATOM      6  O   UNL     1       4.702  27.366  56.864  1.00  0.00    -0.550 OA
ENDBRANCH   3   4
ENDBRANCH   2   3
ENDBRANCH   1   2
BRANCH   1   7
ATOM      7  C   UNL     1       1.921  29.511  54.717  1.00  0.00     0.000 C 
BRANCH   7   8
ATOM      8  C   UNL     1       1.390  28.203  55.335  1.00  0.00    -0.000 C 
BRANCH   8   9
ATOM      9  C   UNL     1       1.255  28.214  56.870  1.00  0.00    -0.000 C 
BRANCH   9  10
ATOM     10  C   UNL     1       0.699  29.521  57.461  1.00  0.00    -0.003 C 
ATOM     11  C   UNL     1      -0.802  29.688  57.230  1.00  0.00     0.004 C 
ENDBRANCH   9  10
ENDBRANCH   8   9
ENDBRANCH   7   8
ENDBRANCH   1   7
TORSDOF 7
ENDMDL
MODEL 8
REMARK VINA RESULT:    -3.429      2.799      4.762
REMARK INTER + INTRA:          -5.521
REMARK INTER:                  -5.171
REMARK INTRA:                  -0.350
REMARK UNBOUND:                -0.689
REMARK SMILES CCCCCCCCC(=O)[O-]
REMARK SMILES IDX 6 1 7 2 8 3 9 4 10 5 11 6 5 7 4 8 3 9 2 10 1 11
REMARK H PARENT
REMARK Flexibility Score: inf
ROOT
ATOM      1  C   UNL     1       2.986  28.475  54.954  1.00  0.00     0.000 C 
ENDROOT
BRANCH   1   2
ATOM      2  C   UNL     1       3.984  28.404  53.783  1.00  0.00     0.006 C 
BRANCH   2   3
ATOM      3  C   UNL     1       3.968  29.665  52.911  1.00  0.00     0.053 C 
BRANCH   3   4
ATOM      4  C   UNL     1       5.043  30.612  53.343  1.00  0.00     0.041 C 
ATOM      5  O   UNL     1       5.097  31.772  52.857  1.00  0.00    -0.550 OA
ATOM      6  O   UNL     1       6.013  30.197  54.246  1.00  0.00    -0.550 OA
ENDBRANCH   3   4
ENDBRANCH   2   3
ENDBRANCH   1   2
BRANCH   1   7
ATOM      7  C   UNL     1       3.623  28.413  56.357  1.00  0.00     0.000 C 
BRANCH   7   8
ATOM      8  C   UNL     1       2.641  28.118  57.507  1.00  0.00    -0.000 C 
BRANCH   8   9
ATOM      9  C   UNL     1       1.150  28.277  57.150  1.00  0.00    -0.000 C 
BRANCH   9  10
ATOM     10  C   UNL     1       0.509  29.592  57.627  1.00  0.00    -0.003 C 
ATOM     11  C   UNL     1      -0.939  29.750  57.165  1.00  0.00     0.004 C 
ENDBRANCH   9  10
ENDBRANCH   8   9
ENDBRANCH   7   8
ENDBRANCH   1   7
TORSDOF 7
ENDMDL
MODEL 9
REMARK VINA RESULT:    -3.326      1.590      2.200
REMARK INTER + INTRA:          -5.376
REMARK INTER:                  -5.109
REMARK INTRA:                  -0.267
REMARK UNBOUND:                -0.689
REMARK SMILES CCCCCCCCC(=O)[O-]
REMARK SMILES IDX 6 1 7 2 8 3 9 4 10 5 11 6 5 7 4 8 3 9 2 10 1 11
REMARK H PARENT
REMARK Flexibility Score: inf
ROOT
ATOM      1  C   UNL     1       3.148  28.194  57.147  1.00  0.00     0.000 C 
ENDROOT
BRANCH   1   2
ATOM      2  C   UNL     1       1.730  28.439  56.600  1.00  0.00     0.006 C 
BRANCH   2   3
ATOM      3  C   UNL     1       0.872  29.300  57.535  1.00  0.00     0.053 C 
BRANCH   3   4
ATOM      4  C   UNL     1      -0.419  29.662  56.873  1.00  0.00     0.041 C 
ATOM      5  O   UNL     1      -1.325  30.244  57.526  1.00  0.00    -0.550 OA
ATOM      6  O   UNL     1      -0.643  29.314  55.547  1.00  0.00    -0.550 OA
ENDBRANCH   3   4
ENDBRANCH   2   3
ENDBRANCH   1   2
BRANCH   1   7
ATOM      7  C   UNL     1       4.278  28.319  56.106  1.00  0.00     0.000 C 
BRANCH   7   8
ATOM      8  C   UNL     1       3.842  28.119  54.641  1.00  0.00    -0.000 C 
BRANCH   8   9
ATOM      9  C   UNL     1       3.940  29.376  53.754  1.00  0.00    -0.000 C 
BRANCH   9  10
ATOM     10  C   UNL     1       4.991  29.296  52.634  1.00  0.00    -0.003 C 
ATOM     11  C   UNL     1       4.769  28.114  51.691  1.00  0.00     0.004 C 
ENDBRANCH   9  10
ENDBRANCH   8   9
ENDBRANCH   7   8
ENDBRANCH   1   7
TORSDOF 7
ENDMDL
