MODEL 1
REMARK VINA RESULT:    -3.051      0.000      0.000
REMARK INTER + INTRA:          -3.051
REMARK INTER:                  -3.051
REMARK INTRA:                   0.000
REMARK UNBOUND:                 0.000
REMARK SMILES CC(=O)[O-]
REMARK SMILES IDX 1 1 2 2 3 3 4 4
REMARK H PARENT
REMARK Flexibility Score: inf
ROOT
ATOM      1  C   UNL     1     -17.062  33.239  -0.498  1.00  0.00     0.063 C 
ATOM      2  C   UNL     1     -16.285  33.126   0.770  1.00  0.00     0.038 C 
ATOM      3  O   UNL     1     -15.963  34.163   1.407  1.00  0.00    -0.550 OA
ATOM      4  O   UNL     1     -15.867  31.881   1.222  1.00  0.00    -0.550 OA
ENDROOT
TORSDOF 0
ENDMDL
MODEL 2
REMARK VINA RESULT:    -2.900      3.876      4.226
REMARK INTER + INTRA:          -2.900
REMARK INTER:                  -2.900
REMARK INTRA:                   0.000
REMARK UNBOUND:                 0.000
REMARK SMILES CC(=O)[O-]
REMARK SMILES IDX 1 1 2 2 3 3 4 4
REMARK H PARENT
REMARK Flexibility Score: inf
ROOT
ATOM      1  C   UNL     1     -18.095  32.235  -1.090  1.00  0.00     0.063 C 
ATOM      2  C   UNL     1     -18.272  31.005  -1.914  1.00  0.00     0.038 C 
ATOM      3  O   UNL     1     -18.318  31.088  -3.170  1.00  0.00    -0.550 OA
ATOM      4  O   UNL     1     -18.441  29.772  -1.297  1.00  0.00    -0.550 OA
ENDROOT
TORSDOF 0
ENDMDL
MODEL 3
REMARK VINA RESULT:    -2.826      1.366      1.758
REMARK INTER + INTRA:          -2.826
REMARK INTER:                  -2.826
REMARK INTRA:                   0.000
REMARK UNBOUND:                 0.000
REMARK SMILES CC(=O)[O-]
REMARK SMILES IDX 1 1 2 2 3 3 4 4
REMARK H PARENT
REMARK Flexibility Score: inf
ROOT
ATOM      1  C   UNL     1     -16.272  31.731   1.170  1.00  0.00     0.063 C 
ATOM      2  C   UNL     1     -16.379  33.140   0.693  1.00  0.00     0.038 C 
ATOM      3  O   UNL     1     -15.970  34.085   1.416  1.00  0.00    -0.550 OA
ATOM      4  O   UNL     1     -16.980  33.416  -0.529  1.00  0.00    -0.550 OA
ENDROOT
TORSDOF 0
ENDMDL
MODEL 4
REMARK VINA RESULT:    -2.814      1.354      2.007
REMARK INTER + INTRA:          -2.814
REMARK INTER:                  -2.814
REMARK INTRA:                   0.000
REMARK UNBOUND:                 0.000
REMARK SMILES CC(=O)[O-]
REMARK SMILES IDX 1 1 2 2 3 3 4 4
REMARK H PARENT
REMARK Flexibility Score: inf
ROOT
ATOM      1  C   UNL     1     -16.254  31.686   1.170  1.00  0.00     0.063 C 
ATOM      2  C   UNL     1     -16.428  33.089   0.695  1.00  0.00     0.038 C 
ATOM      3  O   UNL     1     -16.985  33.317  -0.411  1.00  0.00    -0.550 OA
ATOM      4  O   UNL     1     -15.929  34.145   1.447  1.00  0.00    -0.550 OA
ENDROOT
TORSDOF 0
ENDMDL
MODEL 5
REMARK VINA RESULT:    -2.759     13.095     13.630
REMARK INTER + INTRA:          -2.759
REMARK INTER:                  -2.759
REMARK INTRA:                   0.000
REMARK UNBOUND:                 0.000
REMARK SMILES CC(=O)[O-]
REMARK SMILES IDX 1 1 2 2 3 3 4 4
REMARK H PARENT
REMARK Flexibility Score: inf
ROOT
ATOM      1  C   UNL     1     -27.004  24.734  -5.112  1.00  0.00     0.063 C 
ATOM      2  C   UNL     1     -25.561  24.860  -4.757  1.00  0.00     0.038 C 
ATOM      3  O   UNL     1     -25.145  25.885  -4.157  1.00  0.00    -0.550 OA
ATOM      4  O   UNL     1     -24.662  23.871  -5.137  1.00  0.00    -0.550 OA
ENDROOT
TORSDOF 0
ENDMDL
MODEL 6
REMARK VINA RESULT:    -2.507      4.681      5.341
REMARK INTER + INTRA:          -2.507
REMARK INTER:                  -2.507
REMARK INTRA:                   0.000
REMARK UNBOUND:                 0.000
REMARK SMILES CC(=O)[O-]
REMARK SMILES IDX 1 1 2 2 3 3 4 4
REMARK H PARENT
REMARK Flexibility Score: inf
ROOT
ATOM      1  C   UNL     1     -16.279  29.068   0.432  1.00  0.00     0.063 C 
ATOM      2  C   UNL     1     -17.384  28.496  -0.390  1.00  0.00     0.038 C 
ATOM      3  O   UNL     1     -17.533  27.249  -0.466  1.00  0.00    -0.550 OA
ATOM      4  O   UNL     1     -18.218  29.337  -1.116  1.00  0.00    -0.550 OA
ENDROOT
TORSDOF 0
ENDMDL
MODEL 7
REMARK VINA RESULT:    -2.470     13.027     13.570
REMARK INTER + INTRA:          -2.470
REMARK INTER:                  -2.470
REMARK INTRA:                   0.000
REMARK UNBOUND:                 0.000
REMARK SMILES CC(=O)[O-]
REMARK SMILES IDX 1 1 2 2 3 3 4 4
REMARK H PARENT
REMARK Flexibility Score: inf
ROOT
ATOM      1  C   UNL     1     -25.315  25.087  -4.593  1.00  0.00     0.063 C 
ATOM      2  C   UNL     1     -25.687  24.275  -3.399  1.00  0.00     0.038 C 
ATOM      3  O   UNL     1     -25.628  24.780  -2.248  1.00  0.00    -0.550 OA
ATOM      4  O   UNL     1     -26.048  22.941  -3.550  1.00  0.00    -0.550 OA
ENDROOT
TORSDOF 0
ENDMDL
MODEL 8
REMARK VINA RESULT:    -2.463      8.407      8.900
REMARK INTER + INTRA:          -2.463
REMARK INTER:                  -2.463
REMARK INTRA:                   0.000
REMARK UNBOUND:                 0.000
REMARK SMILES CC(=O)[O-]
REMARK SMILES IDX 1 1 2 2 3 3 4 4
REMARK H PARENT
REMARK Flexibility Score: inf
ROOT
ATOM      1  C   UNL     1      -8.309  37.611   2.705  1.00  0.00     0.063 C 
ATOM      2  C   UNL     1      -9.608  38.286   2.989  1.00  0.00     0.038 C 
ATOM      3  O   UNL     1      -9.801  39.470   2.607  1.00  0.00    -0.550 OA
ATOM      4  O   UNL     1     -10.589  37.628   3.721  1.00  0.00    -0.550 OA
ENDROOT
TORSDOF 0
ENDMDL
MODEL 9
REMARK VINA RESULT:    -2.439      4.478      4.938
REMARK INTER + INTRA:          -2.439
REMARK INTER:                  -2.439
REMARK INTRA:                   0.000
REMARK UNBOUND:                 0.000
REMARK SMILES CC(=O)[O-]
REMARK SMILES IDX 1 1 2 2 3 3 4 4
REMARK H PARENT
REMARK Flexibility Score: inf
ROOT
ATOM      1  C   UNL     1     -16.812  27.211  -0.227  1.00  0.00     0.063 C 
ATOM      2  C   UNL     1     -17.003  28.690  -0.239  1.00  0.00     0.038 C 
ATOM      3  O   UNL     1     -16.267  29.427   0.468  1.00  0.00    -0.550 OA
ATOM      4  O   UNL     1     -18.029  29.253  -0.988  1.00  0.00    -0.550 OA
ENDROOT
TORSDOF 0
ENDMDL
