MODEL 1
REMARK VINA RESULT:    -3.199      0.000      0.000
REMARK INTER + INTRA:          -3.480
REMARK INTER:                  -3.480
REMARK INTRA:                   0.000
REMARK UNBOUND:                 0.000
REMARK SMILES [NH3+]CC(=O)[O-]
REMARK SMILES IDX 2 1 1 2 3 6 4 7 5 8
REMARK H PARENT 1 3 1 4 1 5
REMARK Flexibility Score: inf
ROOT
ATOM      1  C   UNL     1     -27.706  57.080  13.532  1.00  0.00     0.312 C 
ENDROOT
BRANCH   1   2
ATOM      2  N   UNL     1     -26.972  57.144  14.794  1.00  0.00    -0.353 N 
ATOM      3  H   UNL     1     -26.725  58.140  14.996  1.00  0.00     0.344 HD
ATOM      4  H   UNL     1     -27.566  56.777  15.574  1.00  0.00     0.344 HD
ATOM      5  H   UNL     1     -26.091  56.584  14.727  1.00  0.00     0.344 HD
ENDBRANCH   1   2
BRANCH   1   6
ATOM      6  C   UNL     1     -28.586  58.282  13.371  1.00  0.00     0.096 C 
ATOM      7  O   UNL     1     -28.861  58.716  12.222  1.00  0.00    -0.544 OA
ATOM      8  O   UNL     1     -29.058  58.953  14.492  1.00  0.00    -0.544 OA
ENDBRANCH   1   6
TORSDOF 2
ENDMDL
MODEL 2
REMARK VINA RESULT:    -3.020     12.065     12.212
REMARK INTER + INTRA:          -3.285
REMARK INTER:                  -3.285
REMARK INTRA:                   0.000
REMARK UNBOUND:                 0.000
REMARK SMILES [NH3+]CC(=O)[O-]
REMARK SMILES IDX 2 1 1 2 3 6 4 7 5 8
REMARK H PARENT 1 3 1 4 1 5
REMARK Flexibility Score: inf
ROOT
ATOM      1  C   UNL     1     -17.608  62.396  10.524  1.00  0.00     0.312 C 
ENDROOT
BRANCH   1   2
ATOM      2  N   UNL     1     -18.895  61.802  10.885  1.00  0.00    -0.353 N 
ATOM      3  H   UNL     1     -19.074  60.976  10.270  1.00  0.00     0.344 HD
ATOM      4  H   UNL     1     -18.877  61.485  11.882  1.00  0.00     0.344 HD
ATOM      5  H   UNL     1     -19.663  62.499  10.749  1.00  0.00     0.344 HD
ENDBRANCH   1   2
BRANCH   1   6
ATOM      6  C   UNL     1     -17.389  63.675  11.274  1.00  0.00     0.096 C 
ATOM      7  O   UNL     1     -17.115  63.649  12.502  1.00  0.00    -0.544 OA
ATOM      8  O   UNL     1     -17.537  64.895  10.626  1.00  0.00    -0.544 OA
ENDBRANCH   1   6
TORSDOF 2
ENDMDL
MODEL 3
REMARK VINA RESULT:    -2.918     12.179     12.398
REMARK INTER + INTRA:          -3.174
REMARK INTER:                  -3.174
REMARK INTRA:                   0.000
REMARK UNBOUND:                 0.000
REMARK SMILES [NH3+]CC(=O)[O-]
REMARK SMILES IDX 2 1 1 2 3 6 4 7 5 8
REMARK H PARENT 1 3 1 4 1 5
REMARK Flexibility Score: inf
ROOT
ATOM      1  C   UNL     1     -17.624  63.833  11.175  1.00  0.00     0.312 C 
ENDROOT
BRANCH   1   2
ATOM      2  N   UNL     1     -16.275  64.204  11.598  1.00  0.00    -0.353 N 
ATOM      3  H   UNL     1     -15.591  63.520  11.202  1.00  0.00     0.344 HD
ATOM      4  H   UNL     1     -16.039  65.161  11.245  1.00  0.00     0.344 HD
ATOM      5  H   UNL     1     -16.207  64.185  12.641  1.00  0.00     0.344 HD
ENDBRANCH   1   2
BRANCH   1   6
ATOM      6  C   UNL     1     -17.669  62.395  10.756  1.00  0.00     0.096 C 
ATOM      7  O   UNL     1     -17.523  61.482  11.610  1.00  0.00    -0.544 OA
ATOM      8  O   UNL     1     -17.821  62.066   9.415  1.00  0.00    -0.544 OA
ENDBRANCH   1   6
TORSDOF 2
ENDMDL
MODEL 4
REMARK VINA RESULT:    -2.857     18.270     18.679
REMARK INTER + INTRA:          -3.107
REMARK INTER:                  -3.107
REMARK INTRA:                   0.000
REMARK UNBOUND:                 0.000
REMARK SMILES [NH3+]CC(=O)[O-]
REMARK SMILES IDX 2 1 1 2 3 6 4 7 5 8
REMARK H PARENT 1 3 1 4 1 5
REMARK Flexibility Score: inf
ROOT
ATOM      1  C   UNL     1     -21.731  68.420  -0.776  1.00  0.00     0.312 C 
ENDROOT
BRANCH   1   2
ATOM      2  N   UNL     1     -23.113  67.948  -0.709  1.00  0.00    -0.353 N 
ATOM      3  H   UNL     1     -23.191  67.225   0.041  1.00  0.00     0.344 HD
ATOM      4  H   UNL     1     -23.754  68.744  -0.482  1.00  0.00     0.344 HD
ATOM      5  H   UNL     1     -23.391  67.520  -1.622  1.00  0.00     0.344 HD
ENDBRANCH   1   2
BRANCH   1   6
ATOM      6  C   UNL     1     -21.382  69.207   0.450  1.00  0.00     0.096 C 
ATOM      7  O   UNL     1     -21.228  68.622   1.554  1.00  0.00    -0.544 OA
ATOM      8  O   UNL     1     -21.277  70.590   0.382  1.00  0.00    -0.544 OA
ENDBRANCH   1   6
TORSDOF 2
ENDMDL
MODEL 5
REMARK VINA RESULT:    -2.851      2.744      3.146
REMARK INTER + INTRA:          -3.101
REMARK INTER:                  -3.101
REMARK INTRA:                   0.000
REMARK UNBOUND:                 0.000
REMARK SMILES [NH3+]CC(=O)[O-]
REMARK SMILES IDX 2 1 1 2 3 6 4 7 5 8
REMARK H PARENT 1 3 1 4 1 5
REMARK Flexibility Score: inf
ROOT
ATOM      1  C   UNL     1     -28.003  57.777  13.473  1.00  0.00     0.312 C 
ENDROOT
BRANCH   1   2
ATOM      2  N   UNL     1     -29.066  57.374  12.554  1.00  0.00    -0.353 N 
ATOM      3  H   UNL     1     -29.174  56.335  12.590  1.00  0.00     0.344 HD
ATOM      4  H   UNL     1     -29.971  57.819  12.835  1.00  0.00     0.344 HD
ATOM      5  H   UNL     1     -28.823  57.655  11.576  1.00  0.00     0.344 HD
ENDBRANCH   1   2
BRANCH   1   6
ATOM      6  C   UNL     1     -27.216  56.585  13.925  1.00  0.00     0.096 C 
ATOM      7  O   UNL     1     -26.381  56.695  14.860  1.00  0.00    -0.544 OA
ATOM      8  O   UNL     1     -27.369  55.365  13.277  1.00  0.00    -0.544 OA
ENDBRANCH   1   6
TORSDOF 2
ENDMDL
MODEL 6
REMARK VINA RESULT:    -2.830     18.211     18.527
REMARK INTER + INTRA:          -3.079
REMARK INTER:                  -3.079
REMARK INTRA:                   0.000
REMARK UNBOUND:                 0.000
REMARK SMILES [NH3+]CC(=O)[O-]
REMARK SMILES IDX 2 1 1 2 3 6 4 7 5 8
REMARK H PARENT 1 3 1 4 1 5
REMARK Flexibility Score: inf
ROOT
ATOM      1  C   UNL     1     -28.569  68.107  -1.596  1.00  0.00     0.312 C 
ENDROOT
BRANCH   1   2
ATOM      2  N   UNL     1     -28.367  68.180  -0.150  1.00  0.00    -0.353 N 
ATOM      3  H   UNL     1     -29.279  68.009   0.332  1.00  0.00     0.344 HD
ATOM      4  H   UNL     1     -27.680  67.452   0.154  1.00  0.00     0.344 HD
ATOM      5  H   UNL     1     -28.017  69.130   0.116  1.00  0.00     0.344 HD
ENDBRANCH   1   2
BRANCH   1   6
ATOM      6  C   UNL     1     -27.281  67.791  -2.294  1.00  0.00     0.096 C 
ATOM      7  O   UNL     1     -26.995  66.601  -2.586  1.00  0.00    -0.544 OA
ATOM      8  O   UNL     1     -26.376  68.806  -2.574  1.00  0.00    -0.544 OA
ENDBRANCH   1   6
TORSDOF 2
ENDMDL
MODEL 7
REMARK VINA RESULT:    -2.822     19.454     19.520
REMARK INTER + INTRA:          -3.069
REMARK INTER:                  -3.069
REMARK INTRA:                   0.000
REMARK UNBOUND:                 0.000
REMARK SMILES [NH3+]CC(=O)[O-]
REMARK SMILES IDX 2 1 1 2 3 6 4 7 5 8
REMARK H PARENT 1 3 1 4 1 5
REMARK Flexibility Score: inf
ROOT
ATOM      1  C   UNL     1     -21.342  68.656  -1.085  1.00  0.00     0.312 C 
ENDROOT
BRANCH   1   2
ATOM      2  N   UNL     1     -22.615  68.094  -0.635  1.00  0.00    -0.353 N 
ATOM      3  H   UNL     1     -22.437  67.175  -0.171  1.00  0.00     0.344 HD
ATOM      4  H   UNL     1     -23.069  68.739   0.053  1.00  0.00     0.344 HD
ATOM      5  H   UNL     1     -23.251  67.944  -1.451  1.00  0.00     0.344 HD
ENDBRANCH   1   2
BRANCH   1   6
ATOM      6  C   UNL     1     -20.464  67.584  -1.654  1.00  0.00     0.096 C 
ATOM      7  O   UNL     1     -20.931  66.751  -2.473  1.00  0.00    -0.544 OA
ATOM      8  O   UNL     1     -19.143  67.476  -1.238  1.00  0.00    -0.544 OA
ENDBRANCH   1   6
TORSDOF 2
ENDMDL
MODEL 8
REMARK VINA RESULT:    -2.782     19.838     19.888
REMARK INTER + INTRA:          -3.026
REMARK INTER:                  -3.026
REMARK INTRA:                   0.000
REMARK UNBOUND:                 0.000
REMARK SMILES [NH3+]CC(=O)[O-]
REMARK SMILES IDX 2 1 1 2 3 6 4 7 5 8
REMARK H PARENT 1 3 1 4 1 5
REMARK Flexibility Score: inf
ROOT
ATOM      1  C   UNL     1     -19.190  67.756  -0.866  1.00  0.00     0.312 C 
ENDROOT
BRANCH   1   2
ATOM      2  N   UNL     1     -18.621  69.102  -0.906  1.00  0.00    -0.353 N 
ATOM      3  H   UNL     1     -17.594  69.045  -0.719  1.00  0.00     0.344 HD
ATOM      4  H   UNL     1     -18.771  69.527  -1.850  1.00  0.00     0.344 HD
ATOM      5  H   UNL     1     -19.065  69.702  -0.173  1.00  0.00     0.344 HD
ENDBRANCH   1   2
BRANCH   1   6
ATOM      6  C   UNL     1     -20.518  67.723  -1.558  1.00  0.00     0.096 C 
ATOM      7  O   UNL     1     -20.763  66.837  -2.418  1.00  0.00    -0.544 OA
ATOM      8  O   UNL     1     -21.466  68.703  -1.290  1.00  0.00    -0.544 OA
ENDBRANCH   1   6
TORSDOF 2
ENDMDL
MODEL 9
REMARK VINA RESULT:    -2.699     18.913     19.296
REMARK INTER + INTRA:          -2.935
REMARK INTER:                  -2.935
REMARK INTRA:                   0.000
REMARK UNBOUND:                 0.000
REMARK SMILES [NH3+]CC(=O)[O-]
REMARK SMILES IDX 2 1 1 2 3 6 4 7 5 8
REMARK H PARENT 1 3 1 4 1 5
REMARK Flexibility Score: inf
ROOT
ATOM      1  C   UNL     1     -19.784  68.172  -0.136  1.00  0.00     0.312 C 
ENDROOT
BRANCH   1   2
ATOM      2  N   UNL     1     -18.746  68.959  -0.802  1.00  0.00    -0.353 N 
ATOM      3  H   UNL     1     -18.176  68.327  -1.410  1.00  0.00     0.344 HD
ATOM      4  H   UNL     1     -19.184  69.699  -1.399  1.00  0.00     0.344 HD
ATOM      5  H   UNL     1     -18.120  69.402  -0.092  1.00  0.00     0.344 HD
ENDBRANCH   1   2
BRANCH   1   6
ATOM      6  C   UNL     1     -21.020  68.994   0.068  1.00  0.00     0.096 C 
ATOM      7  O   UNL     1     -22.121  68.434   0.308  1.00  0.00    -0.544 OA
ATOM      8  O   UNL     1     -20.963  70.377  -0.059  1.00  0.00    -0.544 OA
ENDBRANCH   1   6
TORSDOF 2
ENDMDL
