MODEL 1
REMARK VINA RESULT:    -5.207      0.000      0.000
REMARK INTER + INTRA:         -12.066
REMARK INTER:                 -10.077
REMARK INTRA:                  -1.989
REMARK UNBOUND:                -1.989
REMARK SMILES CCCCCCCCCCCCCCCCCC(=O)[O-]
REMARK SMILES IDX 10 1 11 2 12 3 13 4 14 5 15 6 16 7 17 8 18 9 19 10 20 11
REMARK SMILES IDX 9 12 8 13 7 14 6 15 5 16 4 17 3 18 2 19 1 20
REMARK H PARENT
REMARK Flexibility Score: inf
ROOT
ATOM      1  C   UNL     1       0.115  45.553   8.164  1.00  0.00     0.000 C 
ENDROOT
BRANCH   1   2
ATOM      2  C   UNL     1       0.191  45.517   9.698  1.00  0.00     0.000 C 
BRANCH   2   3
ATOM      3  C   UNL     1       1.128  44.411  10.216  1.00  0.00     0.000 C 
BRANCH   3   4
ATOM      4  C   UNL     1       1.947  43.756   9.092  1.00  0.00     0.000 C 
BRANCH   4   5
ATOM      5  C   UNL     1       2.749  42.540   9.577  1.00  0.00     0.000 C 
BRANCH   5   6
ATOM      6  C   UNL     1       3.979  42.980  10.380  1.00  0.00     0.000 C 
BRANCH   6   7
ATOM      7  C   UNL     1       3.830  42.619  11.864  1.00  0.00     0.006 C 
BRANCH   7   8
ATOM      8  C   UNL     1       2.843  41.461  12.049  1.00  0.00     0.053 C 
BRANCH   8   9
ATOM      9  C   UNL     1       3.559  40.225  12.489  1.00  0.00     0.041 C 
ATOM     10  O   UNL     1       2.939  39.132  12.579  1.00  0.00    -0.550 OA
ATOM     11  O   UNL     1       4.901  40.286  12.843  1.00  0.00    -0.550 OA
ENDBRANCH   8   9
ENDBRANCH   7   8
ENDBRANCH   6   7
ENDBRANCH   5   6
ENDBRANCH   4   5
ENDBRANCH   3   4
ENDBRANCH   2   3
ENDBRANCH   1   2
BRANCH   1  12
ATOM     12  C   UNL     1       0.225  46.981   7.603  1.00  0.00     0.000 C 
BRANCH  12  13
ATOM     13  C   UNL     1       1.104  47.891   8.478  1.00  0.00    -0.000 C 
BRANCH  13  14
ATOM     14  C   UNL     1       2.326  48.434   7.720  1.00  0.00    -0.000 C 
BRANCH  14  15
ATOM     15  C   UNL     1       3.619  47.667   8.046  1.00  0.00    -0.000 C 
BRANCH  15  16
ATOM     16  C   UNL     1       3.562  46.909   9.390  1.00  0.00    -0.000 C 
BRANCH  16  17
ATOM     17  C   UNL     1       4.952  46.767  10.035  1.00  0.00    -0.000 C 
BRANCH  17  18
ATOM     18  C   UNL     1       6.070  47.375   9.174  1.00  0.00    -0.000 C 
BRANCH  18  19
ATOM     19  C   UNL     1       6.679  48.637   9.801  1.00  0.00    -0.003 C 
ATOM     20  C   UNL     1       6.566  49.829   8.852  1.00  0.00     0.004 C 
ENDBRANCH  18  19
ENDBRANCH  17  18
ENDBRANCH  16  17
ENDBRANCH  15  16
ENDBRANCH  14  15
ENDBRANCH  13  14
ENDBRANCH  12  13
ENDBRANCH   1  12
TORSDOF 16
ENDMDL
MODEL 2
REMARK VINA RESULT:    -5.091      3.001      6.312
REMARK INTER + INTRA:         -11.840
REMARK INTER:                  -9.725
REMARK INTRA:                  -2.116
REMARK UNBOUND:                -1.989
REMARK SMILES CCCCCCCCCCCCCCCCCC(=O)[O-]
REMARK SMILES IDX 10 1 11 2 12 3 13 4 14 5 15 6 16 7 17 8 18 9 19 10 20 11
REMARK SMILES IDX 9 12 8 13 7 14 6 15 5 16 4 17 3 18 2 19 1 20
REMARK H PARENT
REMARK Flexibility Score: inf
ROOT
ATOM      1  C   UNL     1       0.100  45.449   8.125  1.00  0.00     0.000 C 
ENDROOT
BRANCH   1   2
ATOM      2  C   UNL     1      -0.235  46.846   7.581  1.00  0.00     0.000 C 
BRANCH   2   3
ATOM      3  C   UNL     1       0.299  47.973   8.483  1.00  0.00     0.000 C 
BRANCH   3   4
ATOM      4  C   UNL     1       1.366  48.832   7.785  1.00  0.00     0.000 C 
BRANCH   4   5
ATOM      5  C   UNL     1       2.709  48.102   7.640  1.00  0.00     0.000 C 
BRANCH   5   6
ATOM      6  C   UNL     1       3.137  47.472   8.971  1.00  0.00     0.000 C 
BRANCH   6   7
ATOM      7  C   UNL     1       4.409  46.631   8.802  1.00  0.00     0.006 C 
BRANCH   7   8
ATOM      8  C   UNL     1       5.404  46.909   9.934  1.00  0.00     0.053 C 
BRANCH   8   9
ATOM      9  C   UNL     1       6.522  47.777   9.449  1.00  0.00     0.041 C 
ATOM     10  O   UNL     1       6.275  48.910   8.956  1.00  0.00    -0.550 OA
ATOM     11  O   UNL     1       7.832  47.319   9.501  1.00  0.00    -0.550 OA
ENDBRANCH   8   9
ENDBRANCH   7   8
ENDBRANCH   6   7
ENDBRANCH   5   6
ENDBRANCH   4   5
ENDBRANCH   3   4
ENDBRANCH   2   3
ENDBRANCH   1   2
BRANCH   1  12
ATOM     12  C   UNL     1       0.254  45.435   9.656  1.00  0.00     0.000 C 
BRANCH  12  13
ATOM     13  C   UNL     1       1.214  44.335  10.139  1.00  0.00    -0.000 C 
BRANCH  13  14
ATOM     14  C   UNL     1       1.993  43.684   8.984  1.00  0.00    -0.000 C 
BRANCH  14  15
ATOM     15  C   UNL     1       3.286  42.994   9.451  1.00  0.00    -0.000 C 
BRANCH  15  16
ATOM     16  C   UNL     1       3.890  43.620  10.727  1.00  0.00    -0.000 C 
BRANCH  16  17
ATOM     17  C   UNL     1       3.909  42.628  11.905  1.00  0.00    -0.000 C 
BRANCH  17  18
ATOM     18  C   UNL     1       2.853  41.521  11.765  1.00  0.00    -0.000 C 
BRANCH  18  19
ATOM     19  C   UNL     1       3.207  40.260  12.566  1.00  0.00    -0.003 C 
ATOM     20  C   UNL     1       4.698  40.219  12.891  1.00  0.00     0.004 C 
ENDBRANCH  18  19
ENDBRANCH  17  18
ENDBRANCH  16  17
ENDBRANCH  15  16
ENDBRANCH  14  15
ENDBRANCH  13  14
ENDBRANCH  12  13
ENDBRANCH   1  12
TORSDOF 16
ENDMDL
MODEL 3
REMARK VINA RESULT:    -5.041      1.027      1.691
REMARK INTER + INTRA:         -11.745
REMARK INTER:                  -9.592
REMARK INTRA:                  -2.153
REMARK UNBOUND:                -1.989
REMARK SMILES CCCCCCCCCCCCCCCCCC(=O)[O-]
REMARK SMILES IDX 10 1 11 2 12 3 13 4 14 5 15 6 16 7 17 8 18 9 19 10 20 11
REMARK SMILES IDX 9 12 8 13 7 14 6 15 5 16 4 17 3 18 2 19 1 20
REMARK H PARENT
REMARK Flexibility Score: inf
ROOT
ATOM      1  C   UNL     1      -0.405  45.455   8.139  1.00  0.00     0.000 C 
ENDROOT
BRANCH   1   2
ATOM      2  C   UNL     1       0.671  44.393   7.865  1.00  0.00     0.000 C 
BRANCH   2   3
ATOM      3  C   UNL     1       1.468  44.022   9.128  1.00  0.00     0.000 C 
BRANCH   3   4
ATOM      4  C   UNL     1       1.046  44.844  10.356  1.00  0.00     0.000 C 
BRANCH   4   5
ATOM      5  C   UNL     1       1.684  44.333  11.657  1.00  0.00     0.000 C 
BRANCH   5   6
ATOM      6  C   UNL     1       3.140  44.798  11.772  1.00  0.00     0.000 C 
BRANCH   6   7
ATOM      7  C   UNL     1       4.044  43.667  12.278  1.00  0.00     0.006 C 
BRANCH   7   8
ATOM      8  C   UNL     1       3.973  42.451  11.348  1.00  0.00     0.053 C 
BRANCH   8   9
ATOM      9  C   UNL     1       3.749  41.200  12.136  1.00  0.00     0.041 C 
ATOM     10  O   UNL     1       2.577  40.825  12.410  1.00  0.00    -0.550 OA
ATOM     11  O   UNL     1       4.832  40.470  12.607  1.00  0.00    -0.550 OA
ENDBRANCH   8   9
ENDBRANCH   7   8
ENDBRANCH   6   7
ENDBRANCH   5   6
ENDBRANCH   4   5
ENDBRANCH   3   4
ENDBRANCH   2   3
ENDBRANCH   1   2
BRANCH   1  12
ATOM     12  C   UNL     1      -0.232  46.707   7.263  1.00  0.00     0.000 C 
BRANCH  12  13
ATOM     13  C   UNL     1      -0.209  48.004   8.089  1.00  0.00    -0.000 C 
BRANCH  13  14
ATOM     14  C   UNL     1       1.175  48.293   8.694  1.00  0.00    -0.000 C 
BRANCH  14  15
ATOM     15  C   UNL     1       2.202  48.746   7.642  1.00  0.00    -0.000 C 
BRANCH  15  16
ATOM     16  C   UNL     1       3.559  48.018   7.755  1.00  0.00    -0.000 C 
BRANCH  16  17
ATOM     17  C   UNL     1       3.595  47.044   8.947  1.00  0.00    -0.000 C 
BRANCH  17  18
ATOM     18  C   UNL     1       5.025  46.738   9.420  1.00  0.00    -0.000 C 
BRANCH  18  19
ATOM     19  C   UNL     1       5.960  47.950   9.298  1.00  0.00    -0.003 C 
ATOM     20  C   UNL     1       7.420  47.532   9.458  1.00  0.00     0.004 C 
ENDBRANCH  18  19
ENDBRANCH  17  18
ENDBRANCH  16  17
ENDBRANCH  15  16
ENDBRANCH  14  15
ENDBRANCH  13  14
ENDBRANCH  12  13
ENDBRANCH   1  12
TORSDOF 16
ENDMDL
MODEL 4
REMARK VINA RESULT:    -4.991      3.048      6.373
REMARK INTER + INTRA:         -11.647
REMARK INTER:                  -9.833
REMARK INTRA:                  -1.814
REMARK UNBOUND:                -1.989
REMARK SMILES CCCCCCCCCCCCCCCCCC(=O)[O-]
REMARK SMILES IDX 10 1 11 2 12 3 13 4 14 5 15 6 16 7 17 8 18 9 19 10 20 11
REMARK SMILES IDX 9 12 8 13 7 14 6 15 5 16 4 17 3 18 2 19 1 20
REMARK H PARENT
REMARK Flexibility Score: inf
ROOT
ATOM      1  C   UNL     1       0.128  44.965   7.884  1.00  0.00     0.000 C 
ENDROOT
BRANCH   1   2
ATOM      2  C   UNL     1      -0.519  46.260   8.400  1.00  0.00     0.000 C 
BRANCH   2   3
ATOM      3  C   UNL     1      -0.144  47.486   7.549  1.00  0.00     0.000 C 
BRANCH   3   4
ATOM      4  C   UNL     1       0.897  48.385   8.234  1.00  0.00     0.000 C 
BRANCH   4   5
ATOM      5  C   UNL     1       2.340  47.941   7.949  1.00  0.00     0.000 C 
BRANCH   5   6
ATOM      6  C   UNL     1       2.956  47.262   9.178  1.00  0.00     0.000 C 
BRANCH   6   7
ATOM      7  C   UNL     1       4.270  46.556   8.819  1.00  0.00     0.006 C 
BRANCH   7   8
ATOM      8  C   UNL     1       5.309  46.733   9.932  1.00  0.00     0.053 C 
BRANCH   8   9
ATOM      9  C   UNL     1       6.383  47.681   9.502  1.00  0.00     0.041 C 
ATOM     10  O   UNL     1       7.593  47.335   9.559  1.00  0.00    -0.550 OA
ATOM     11  O   UNL     1       6.052  48.962   9.081  1.00  0.00    -0.550 OA
ENDBRANCH   8   9
ENDBRANCH   7   8
ENDBRANCH   6   7
ENDBRANCH   5   6
ENDBRANCH   4   5
ENDBRANCH   3   4
ENDBRANCH   2   3
ENDBRANCH   1   2
BRANCH   1  12
ATOM     12  C   UNL     1       1.018  44.290   8.941  1.00  0.00     0.000 C 
BRANCH  12  13
ATOM     13  C   UNL     1       0.666  44.728  10.373  1.00  0.00    -0.000 C 
BRANCH  13  14
ATOM     14  C   UNL     1       1.512  44.006  11.434  1.00  0.00    -0.000 C 
BRANCH  14  15
ATOM     15  C   UNL     1       2.829  44.736  11.746  1.00  0.00    -0.000 C 
BRANCH  15  16
ATOM     16  C   UNL     1       3.991  43.783  12.102  1.00  0.00    -0.000 C 
BRANCH  16  17
ATOM     17  C   UNL     1       3.983  42.512  11.234  1.00  0.00    -0.000 C 
BRANCH  17  18
ATOM     18  C   UNL     1       3.402  41.295  11.969  1.00  0.00    -0.000 C 
BRANCH  18  19
ATOM     19  C   UNL     1       4.481  40.448  12.658  1.00  0.00    -0.003 C 
ATOM     20  C   UNL     1       3.953  39.054  12.992  1.00  0.00     0.004 C 
ENDBRANCH  18  19
ENDBRANCH  17  18
ENDBRANCH  16  17
ENDBRANCH  15  16
ENDBRANCH  14  15
ENDBRANCH  13  14
ENDBRANCH  12  13
ENDBRANCH   1  12
TORSDOF 16
ENDMDL
MODEL 5
REMARK VINA RESULT:    -4.875      1.263      4.155
REMARK INTER + INTRA:         -11.424
REMARK INTER:                  -9.497
REMARK INTRA:                  -1.927
REMARK UNBOUND:                -1.989
REMARK SMILES CCCCCCCCCCCCCCCCCC(=O)[O-]
REMARK SMILES IDX 10 1 11 2 12 3 13 4 14 5 15 6 16 7 17 8 18 9 19 10 20 11
REMARK SMILES IDX 9 12 8 13 7 14 6 15 5 16 4 17 3 18 2 19 1 20
REMARK H PARENT
REMARK Flexibility Score: inf
ROOT
ATOM      1  C   UNL     1       5.424  47.363   9.336  1.00  0.00     0.000 C 
ENDROOT
BRANCH   1   2
ATOM      2  C   UNL     1       4.612  46.071   9.513  1.00  0.00     0.000 C 
BRANCH   2   3
ATOM      3  C   UNL     1       3.952  45.975  10.900  1.00  0.00     0.000 C 
BRANCH   3   4
ATOM      4  C   UNL     1       4.262  44.649  11.611  1.00  0.00     0.000 C 
BRANCH   4   5
ATOM      5  C   UNL     1       3.053  44.095  12.381  1.00  0.00     0.000 C 
BRANCH   5   6
ATOM      6  C   UNL     1       2.271  43.091  11.525  1.00  0.00     0.000 C 
BRANCH   6   7
ATOM      7  C   UNL     1       3.050  41.779  11.362  1.00  0.00     0.006 C 
BRANCH   7   8
ATOM      8  C   UNL     1       2.658  40.771  12.448  1.00  0.00     0.053 C 
BRANCH   8   9
ATOM      9  C   UNL     1       3.787  39.830  12.722  1.00  0.00     0.041 C 
ATOM     10  O   UNL     1       4.954  40.274  12.892  1.00  0.00    -0.550 OA
ATOM     11  O   UNL     1       3.561  38.460  12.748  1.00  0.00    -0.550 OA
ENDBRANCH   8   9
ENDBRANCH   7   8
ENDBRANCH   6   7
ENDBRANCH   5   6
ENDBRANCH   4   5
ENDBRANCH   3   4
ENDBRANCH   2   3
ENDBRANCH   1   2
BRANCH   1  12
ATOM     12  C   UNL     1       4.751  48.354   8.370  1.00  0.00     0.000 C 
BRANCH  12  13
ATOM     13  C   UNL     1       3.569  47.725   7.614  1.00  0.00    -0.000 C 
BRANCH  13  14
ATOM     14  C   UNL     1       2.275  48.542   7.761  1.00  0.00    -0.000 C 
BRANCH  14  15
ATOM     15  C   UNL     1       1.431  48.110   8.973  1.00  0.00    -0.000 C 
BRANCH  15  16
ATOM     16  C   UNL     1      -0.077  48.000   8.664  1.00  0.00    -0.000 C 
BRANCH  16  17
ATOM     17  C   UNL     1      -0.644  46.617   9.033  1.00  0.00    -0.000 C 
BRANCH  17  18
ATOM     18  C   UNL     1       0.432  45.658   9.564  1.00  0.00    -0.000 C 
BRANCH  18  19
ATOM     19  C   UNL     1       0.847  44.603   8.529  1.00  0.00    -0.003 C 
ATOM     20  C   UNL     1       0.001  44.715   7.263  1.00  0.00     0.004 C 
ENDBRANCH  18  19
ENDBRANCH  17  18
ENDBRANCH  16  17
ENDBRANCH  15  16
ENDBRANCH  14  15
ENDBRANCH  13  14
ENDBRANCH  12  13
ENDBRANCH   1  12
TORSDOF 16
ENDMDL
MODEL 6
REMARK VINA RESULT:    -4.830      1.216      4.119
REMARK INTER + INTRA:         -11.335
REMARK INTER:                  -9.186
REMARK INTRA:                  -2.149
REMARK UNBOUND:                -1.989
REMARK SMILES CCCCCCCCCCCCCCCCCC(=O)[O-]
REMARK SMILES IDX 10 1 11 2 12 3 13 4 14 5 15 6 16 7 17 8 18 9 19 10 20 11
REMARK SMILES IDX 9 12 8 13 7 14 6 15 5 16 4 17 3 18 2 19 1 20
REMARK H PARENT
REMARK Flexibility Score: inf
ROOT
ATOM      1  C   UNL     1       3.551  47.455   8.475  1.00  0.00     0.000 C 
ENDROOT
BRANCH   1   2
ATOM      2  C   UNL     1       4.985  47.687   8.976  1.00  0.00     0.000 C 
BRANCH   2   3
ATOM      3  C   UNL     1       5.510  46.515   9.824  1.00  0.00     0.000 C 
BRANCH   3   4
ATOM      4  C   UNL     1       4.474  45.390   9.983  1.00  0.00     0.000 C 
BRANCH   4   5
ATOM      5  C   UNL     1       3.827  45.376  11.376  1.00  0.00     0.000 C 
BRANCH   5   6
ATOM      6  C   UNL     1       4.092  44.044  12.089  1.00  0.00     0.000 C 
BRANCH   6   7
ATOM      7  C   UNL     1       4.107  42.877  11.093  1.00  0.00     0.006 C 
BRANCH   7   8
ATOM      8  C   UNL     1       2.943  41.916  11.356  1.00  0.00     0.053 C 
BRANCH   8   9
ATOM      9  C   UNL     1       3.376  40.800  12.253  1.00  0.00     0.041 C 
ATOM     10  O   UNL     1       2.518  40.051  12.791  1.00  0.00    -0.550 OA
ATOM     11  O   UNL     1       4.724  40.613  12.531  1.00  0.00    -0.550 OA
ENDBRANCH   8   9
ENDBRANCH   7   8
ENDBRANCH   6   7
ENDBRANCH   5   6
ENDBRANCH   4   5
ENDBRANCH   3   4
ENDBRANCH   2   3
ENDBRANCH   1   2
BRANCH   1  12
ATOM     12  C   UNL     1       3.177  48.387   7.309  1.00  0.00     0.000 C 
BRANCH  12  13
ATOM     13  C   UNL     1       1.865  49.147   7.562  1.00  0.00    -0.000 C 
BRANCH  13  14
ATOM     14  C   UNL     1       0.990  48.472   8.632  1.00  0.00    -0.000 C 
BRANCH  14  15
ATOM     15  C   UNL     1      -0.435  48.174   8.135  1.00  0.00    -0.000 C 
BRANCH  15  16
ATOM     16  C   UNL     1      -0.816  46.680   8.222  1.00  0.00    -0.000 C 
BRANCH  16  17
ATOM     17  C   UNL     1       0.371  45.760   7.882  1.00  0.00    -0.000 C 
BRANCH  17  18
ATOM     18  C   UNL     1       0.812  44.897   9.074  1.00  0.00    -0.000 C 
BRANCH  18  19
ATOM     19  C   UNL     1       0.233  45.389  10.408  1.00  0.00    -0.003 C 
ATOM     20  C   UNL     1       0.365  44.320  11.490  1.00  0.00     0.004 C 
ENDBRANCH  18  19
ENDBRANCH  17  18
ENDBRANCH  16  17
ENDBRANCH  15  16
ENDBRANCH  14  15
ENDBRANCH  13  14
ENDBRANCH  12  13
ENDBRANCH   1  12
TORSDOF 16
ENDMDL
MODEL 7
REMARK VINA RESULT:    -4.702      3.620      5.793
REMARK INTER + INTRA:         -11.088
REMARK INTER:                  -9.080
REMARK INTRA:                  -2.009
REMARK UNBOUND:                -1.989
REMARK SMILES CCCCCCCCCCCCCCCCCC(=O)[O-]
REMARK SMILES IDX 10 1 11 2 12 3 13 4 14 5 15 6 16 7 17 8 18 9 19 10 20 11
REMARK SMILES IDX 9 12 8 13 7 14 6 15 5 16 4 17 3 18 2 19 1 20
REMARK H PARENT
REMARK Flexibility Score: inf
ROOT
ATOM      1  C   UNL     1       1.828  42.495  12.134  1.00  0.00     0.000 C 
ENDROOT
BRANCH   1   2
ATOM      2  C   UNL     1       1.453  43.981  12.020  1.00  0.00     0.000 C 
BRANCH   2   3
ATOM      3  C   UNL     1      -0.068  44.199  11.925  1.00  0.00     0.000 C 
BRANCH   3   4
ATOM      4  C   UNL     1      -0.449  45.241  10.862  1.00  0.00     0.000 C 
BRANCH   4   5
ATOM      5  C   UNL     1       0.729  45.613   9.950  1.00  0.00     0.000 C 
BRANCH   5   6
ATOM      6  C   UNL     1       0.480  45.137   8.513  1.00  0.00     0.000 C 
BRANCH   6   7
ATOM      7  C   UNL     1       0.329  46.326   7.555  1.00  0.00     0.006 C 
BRANCH   7   8
ATOM      8  C   UNL     1       0.146  47.635   8.331  1.00  0.00     0.053 C 
BRANCH   8   9
ATOM      9  C   UNL     1       1.131  48.661   7.871  1.00  0.00     0.041 C 
ATOM     10  O   UNL     1       2.307  48.320   7.573  1.00  0.00    -0.550 OA
ATOM     11  O   UNL     1       0.767  50.000   7.812  1.00  0.00    -0.550 OA
ENDBRANCH   8   9
ENDBRANCH   7   8
ENDBRANCH   6   7
ENDBRANCH   5   6
ENDBRANCH   4   5
ENDBRANCH   3   4
ENDBRANCH   2   3
ENDBRANCH   1   2
BRANCH   1  12
ATOM     12  C   UNL     1       3.017  42.117  11.232  1.00  0.00     0.000 C 
BRANCH  12  13
ATOM     13  C   UNL     1       2.737  42.393   9.745  1.00  0.00    -0.000 C 
BRANCH  13  14
ATOM     14  C   UNL     1       3.832  43.251   9.090  1.00  0.00    -0.000 C 
BRANCH  14  15
ATOM     15  C   UNL     1       4.222  44.472   9.942  1.00  0.00    -0.000 C 
BRANCH  15  16
ATOM     16  C   UNL     1       4.209  45.800   9.154  1.00  0.00    -0.000 C 
BRANCH  16  17
ATOM     17  C   UNL     1       4.930  46.929   9.913  1.00  0.00    -0.000 C 
BRANCH  17  18
ATOM     18  C   UNL     1       5.376  48.073   8.990  1.00  0.00    -0.000 C 
BRANCH  18  19
ATOM     19  C   UNL     1       6.812  48.537   9.274  1.00  0.00    -0.003 C 
ATOM     20  C   UNL     1       7.724  47.348   9.568  1.00  0.00     0.004 C 
ENDBRANCH  18  19
ENDBRANCH  17  18
ENDBRANCH  16  17
ENDBRANCH  15  16
ENDBRANCH  14  15
ENDBRANCH  13  14
ENDBRANCH  12  13
ENDBRANCH   1  12
TORSDOF 16
ENDMDL
MODEL 8
REMARK VINA RESULT:    -4.660      2.400      6.666
REMARK INTER + INTRA:         -11.007
REMARK INTER:                  -9.213
REMARK INTRA:                  -1.795
REMARK UNBOUND:                -1.989
REMARK SMILES CCCCCCCCCCCCCCCCCC(=O)[O-]
REMARK SMILES IDX 10 1 11 2 12 3 13 4 14 5 15 6 16 7 17 8 18 9 19 10 20 11
REMARK SMILES IDX 9 12 8 13 7 14 6 15 5 16 4 17 3 18 2 19 1 20
REMARK H PARENT
REMARK Flexibility Score: inf
ROOT
ATOM      1  C   UNL     1       0.438  44.694   8.286  1.00  0.00     0.000 C 
ENDROOT
BRANCH   1   2
ATOM      2  C   UNL     1      -0.153  45.840   7.450  1.00  0.00     0.000 C 
BRANCH   2   3
ATOM      3  C   UNL     1      -0.810  46.926   8.321  1.00  0.00     0.000 C 
BRANCH   3   4
ATOM      4  C   UNL     1      -0.186  48.314   8.105  1.00  0.00     0.000 C 
BRANCH   4   5
ATOM      5  C   UNL     1       1.209  48.438   8.736  1.00  0.00     0.000 C 
BRANCH   5   6
ATOM      6  C   UNL     1       2.288  48.585   7.656  1.00  0.00     0.000 C 
BRANCH   6   7
ATOM      7  C   UNL     1       3.536  47.764   8.005  1.00  0.00     0.006 C 
BRANCH   7   8
ATOM      8  C   UNL     1       3.356  47.034   9.341  1.00  0.00     0.053 C 
BRANCH   8   9
ATOM      9  C   UNL     1       4.676  46.564   9.864  1.00  0.00     0.041 C 
ATOM     10  O   UNL     1       5.747  46.978   9.345  1.00  0.00    -0.550 OA
ATOM     11  O   UNL     1       4.725  45.634  10.894  1.00  0.00    -0.550 OA
ENDBRANCH   8   9
ENDBRANCH   7   8
ENDBRANCH   6   7
ENDBRANCH   5   6
ENDBRANCH   4   5
ENDBRANCH   3   4
ENDBRANCH   2   3
ENDBRANCH   1   2
BRANCH   1  12
ATOM     12  C   UNL     1       0.505  45.032   9.785  1.00  0.00     0.000 C 
BRANCH  12  13
ATOM     13  C   UNL     1       1.457  44.103  10.556  1.00  0.00    -0.000 C 
BRANCH  13  14
ATOM     14  C   UNL     1       2.378  43.300   9.622  1.00  0.00    -0.000 C 
BRANCH  14  15
ATOM     15  C   UNL     1       3.002  42.073  10.311  1.00  0.00    -0.000 C 
BRANCH  15  16
ATOM     16  C   UNL     1       3.748  42.416  11.618  1.00  0.00    -0.000 C 
BRANCH  16  17
ATOM     17  C   UNL     1       4.161  41.154  12.397  1.00  0.00    -0.000 C 
BRANCH  17  18
ATOM     18  C   UNL     1       3.024  40.126  12.505  1.00  0.00    -0.000 C 
BRANCH  18  19
ATOM     19  C   UNL     1       3.531  38.716  12.838  1.00  0.00    -0.003 C 
ATOM     20  C   UNL     1       2.651  37.650  12.190  1.00  0.00     0.004 C 
ENDBRANCH  18  19
ENDBRANCH  17  18
ENDBRANCH  16  17
ENDBRANCH  15  16
ENDBRANCH  14  15
ENDBRANCH  13  14
ENDBRANCH  12  13
ENDBRANCH   1  12
TORSDOF 16
ENDMDL
MODEL 9
REMARK VINA RESULT:    -4.614      3.074      6.945
REMARK INTER + INTRA:         -10.918
REMARK INTER:                  -9.807
REMARK INTRA:                  -1.110
REMARK UNBOUND:                -1.989
REMARK SMILES CCCCCCCCCCCCCCCCCC(=O)[O-]
REMARK SMILES IDX 10 1 11 2 12 3 13 4 14 5 15 6 16 7 17 8 18 9 19 10 20 11
REMARK SMILES IDX 9 12 8 13 7 14 6 15 5 16 4 17 3 18 2 19 1 20
REMARK H PARENT
REMARK Flexibility Score: inf
ROOT
ATOM      1  C   UNL     1       1.313  44.142   9.600  1.00  0.00     0.000 C 
ENDROOT
BRANCH   1   2
ATOM      2  C   UNL     1       0.662  44.919   8.446  1.00  0.00     0.000 C 
BRANCH   2   3
ATOM      3  C   UNL     1       0.293  46.361   8.840  1.00  0.00     0.000 C 
BRANCH   3   4
ATOM      4  C   UNL     1       0.504  47.360   7.692  1.00  0.00     0.000 C 
BRANCH   4   5
ATOM      5  C   UNL     1       1.878  48.044   7.749  1.00  0.00     0.000 C 
BRANCH   5   6
ATOM      6  C   UNL     1       2.758  47.415   8.836  1.00  0.00     0.000 C 
BRANCH   6   7
ATOM      7  C   UNL     1       4.230  47.384   8.408  1.00  0.00     0.006 C 
BRANCH   7   8
ATOM      8  C   UNL     1       5.151  47.221   9.621  1.00  0.00     0.053 C 
BRANCH   8   9
ATOM      9  C   UNL     1       6.438  47.952   9.406  1.00  0.00     0.041 C 
ATOM     10  O   UNL     1       6.428  49.167   9.074  1.00  0.00    -0.550 OA
ATOM     11  O   UNL     1       7.648  47.282   9.528  1.00  0.00    -0.550 OA
ENDBRANCH   8   9
ENDBRANCH   7   8
ENDBRANCH   6   7
ENDBRANCH   5   6
ENDBRANCH   4   5
ENDBRANCH   3   4
ENDBRANCH   2   3
ENDBRANCH   1   2
BRANCH   1  12
ATOM     12  C   UNL     1       0.909  44.690  10.980  1.00  0.00     0.000 C 
BRANCH  12  13
ATOM     13  C   UNL     1       1.912  44.307  12.081  1.00  0.00    -0.000 C 
BRANCH  13  14
ATOM     14  C   UNL     1       3.355  44.697  11.723  1.00  0.00    -0.000 C 
BRANCH  14  15
ATOM     15  C   UNL     1       4.365  43.571  12.007  1.00  0.00    -0.000 C 
BRANCH  15  16
ATOM     16  C   UNL     1       4.099  42.287  11.191  1.00  0.00    -0.000 C 
BRANCH  16  17
ATOM     17  C   UNL     1       3.051  41.382  11.862  1.00  0.00    -0.000 C 
BRANCH  17  18
ATOM     18  C   UNL     1       3.669  40.123  12.489  1.00  0.00    -0.000 C 
BRANCH  18  19
ATOM     19  C   UNL     1       2.611  39.100  12.927  1.00  0.00    -0.003 C 
ATOM     20  C   UNL     1       2.828  37.757  12.232  1.00  0.00     0.004 C 
ENDBRANCH  18  19
ENDBRANCH  17  18
ENDBRANCH  16  17
ENDBRANCH  15  16
ENDBRANCH  14  15
ENDBRANCH  13  14
ENDBRANCH  12  13
ENDBRANCH   1  12
TORSDOF 16
ENDMDL
