MODEL 1
REMARK VINA RESULT:     0.306      0.000      0.000
REMARK INTER + INTRA:          -1.126
REMARK INTER:                   0.808
REMARK INTRA:                  -1.934
REMARK UNBOUND:                -1.934
REMARK SMILES CCCCCCCCCCCCCCCCCCCCCCCCCCCCCC(=O)[O-]
REMARK SMILES IDX 16 1 17 2 18 3 19 4 20 5 21 6 22 7 23 8 24 9 25 10 26 11
REMARK SMILES IDX 27 12 28 13 29 14 30 15 31 16 32 17 15 18 14 19 13 20 12 21
REMARK SMILES IDX 11 22 10 23 9 24 8 25 7 26 6 27 5 28 4 29 3 30 2 31 1 32
REMARK H PARENT
REMARK Flexibility Score: inf
ROOT
ATOM      1  C   UNL     1      -8.484  37.850  -2.217  1.00  0.00     0.000 C 
ENDROOT
BRANCH   1   2
ATOM      2  C   UNL     1      -7.083  38.080  -1.619  1.00  0.00     0.000 C 
BRANCH   2   3
ATOM      3  C   UNL     1      -5.961  38.021  -2.672  1.00  0.00     0.000 C 
BRANCH   3   4
ATOM      4  C   UNL     1      -4.531  38.125  -2.109  1.00  0.00     0.000 C 
BRANCH   4   5
ATOM      5  C   UNL     1      -3.888  36.751  -1.849  1.00  0.00     0.000 C 
BRANCH   5   6
ATOM      6  C   UNL     1      -3.995  36.327  -0.374  1.00  0.00     0.000 C 
BRANCH   6   7
ATOM      7  C   UNL     1      -3.915  37.524   0.589  1.00  0.00     0.000 C 
BRANCH   7   8
ATOM      8  C   UNL     1      -4.856  37.368   1.802  1.00  0.00     0.000 C 
BRANCH   8   9
ATOM      9  C   UNL     1      -6.347  37.514   1.453  1.00  0.00     0.000 C 
BRANCH   9  10
ATOM     10  C   UNL     1      -7.066  36.165   1.315  1.00  0.00     0.000 C 
BRANCH  10  11
ATOM     11  C   UNL     1      -6.418  35.060   2.166  1.00  0.00     0.000 C 
BRANCH  11  12
ATOM     12  C   UNL     1      -5.943  33.844   1.337  1.00  0.00     0.000 C 
BRANCH  12  13
ATOM     13  C   UNL     1      -6.980  32.705   1.272  1.00  0.00     0.006 C 
BRANCH  13  14
ATOM     14  C   UNL     1      -6.366  31.303   1.418  1.00  0.00     0.053 C 
BRANCH  14  15
ATOM     15  C   UNL     1      -7.414  30.234   1.481  1.00  0.00     0.041 C 
ATOM     16  O   UNL     1      -7.850  29.834   2.593  1.00  0.00    -0.550 OA
ATOM     17  O   UNL     1      -7.902  29.667   0.309  1.00  0.00    -0.550 OA
ENDBRANCH  14  15
ENDBRANCH  13  14
ENDBRANCH  12  13
ENDBRANCH  11  12
ENDBRANCH  10  11
ENDBRANCH   9  10
ENDBRANCH   8   9
ENDBRANCH   7   8
ENDBRANCH   6   7
ENDBRANCH   5   6
ENDBRANCH   4   5
ENDBRANCH   3   4
ENDBRANCH   2   3
ENDBRANCH   1   2
BRANCH   1  18
ATOM     18  C   UNL     1      -9.546  37.609  -1.131  1.00  0.00     0.000 C 
BRANCH  18  19
ATOM     19  C   UNL     1     -10.228  36.227  -1.229  1.00  0.00     0.000 C 
BRANCH  19  20
ATOM     20  C   UNL     1     -11.550  36.238  -2.024  1.00  0.00     0.000 C 
BRANCH  20  21
ATOM     21  C   UNL     1     -11.366  36.327  -3.555  1.00  0.00     0.000 C 
BRANCH  21  22
ATOM     22  C   UNL     1     -12.562  35.771  -4.358  1.00  0.00     0.000 C 
BRANCH  22  23
ATOM     23  C   UNL     1     -12.825  36.527  -5.672  1.00  0.00     0.000 C 
BRANCH  23  24
ATOM     24  C   UNL     1     -13.116  35.583  -6.850  1.00  0.00    -0.000 C 
BRANCH  24  25
ATOM     25  C   UNL     1     -12.982  36.278  -8.215  1.00  0.00    -0.000 C 
BRANCH  25  26
ATOM     26  C   UNL     1     -13.702  35.507  -9.337  1.00  0.00    -0.000 C 
BRANCH  26  27
ATOM     27  C   UNL     1     -14.628  34.402  -8.801  1.00  0.00    -0.000 C 
BRANCH  27  28
ATOM     28  C   UNL     1     -15.541  33.747  -9.857  1.00  0.00    -0.000 C 
BRANCH  28  29
ATOM     29  C   UNL     1     -17.048  33.868  -9.544  1.00  0.00    -0.000 C 
BRANCH  29  30
ATOM     30  C   UNL     1     -17.877  34.210 -10.795  1.00  0.00    -0.000 C 
BRANCH  30  31
ATOM     31  C   UNL     1     -17.726  33.158 -11.906  1.00  0.00    -0.003 C 
ATOM     32  C   UNL     1     -18.332  33.616 -13.233  1.00  0.00     0.004 C 
ENDBRANCH  30  31
ENDBRANCH  29  30
ENDBRANCH  28  29
ENDBRANCH  27  28
ENDBRANCH  26  27
ENDBRANCH  25  26
ENDBRANCH  24  25
ENDBRANCH  23  24
ENDBRANCH  22  23
ENDBRANCH  21  22
ENDBRANCH  20  21
ENDBRANCH  19  20
ENDBRANCH  18  19
ENDBRANCH   1  18
TORSDOF 28
ENDMDL
MODEL 2
REMARK VINA RESULT:     0.473      2.215      5.054
REMARK INTER + INTRA:          -0.686
REMARK INTER:                   0.875
REMARK INTRA:                  -1.561
REMARK UNBOUND:                -1.934
REMARK SMILES CCCCCCCCCCCCCCCCCCCCCCCCCCCCCC(=O)[O-]
REMARK SMILES IDX 16 1 17 2 18 3 19 4 20 5 21 6 22 7 23 8 24 9 25 10 26 11
REMARK SMILES IDX 27 12 28 13 29 14 30 15 31 16 32 17 15 18 14 19 13 20 12 21
REMARK SMILES IDX 11 22 10 23 9 24 8 25 7 26 6 27 5 28 4 29 3 30 2 31 1 32
REMARK H PARENT
REMARK Flexibility Score: inf
ROOT
ATOM      1  C   UNL     1     -12.337  35.893  -5.434  1.00  0.00     0.000 C 
ENDROOT
BRANCH   1   2
ATOM      2  C   UNL     1     -12.500  35.882  -3.903  1.00  0.00     0.000 C 
BRANCH   2   3
ATOM      3  C   UNL     1     -11.210  36.269  -3.157  1.00  0.00     0.000 C 
BRANCH   3   4
ATOM      4  C   UNL     1     -11.349  36.385  -1.628  1.00  0.00     0.000 C 
BRANCH   4   5
ATOM      5  C   UNL     1      -9.991  36.437  -0.904  1.00  0.00     0.000 C 
BRANCH   5   6
ATOM      6  C   UNL     1      -9.166  37.674  -1.299  1.00  0.00     0.000 C 
BRANCH   6   7
ATOM      7  C   UNL     1      -8.013  37.950  -0.319  1.00  0.00     0.000 C 
BRANCH   7   8
ATOM      8  C   UNL     1      -6.628  37.761  -0.971  1.00  0.00     0.000 C 
BRANCH   8   9
ATOM      9  C   UNL     1      -5.585  37.120  -0.039  1.00  0.00     0.000 C 
BRANCH   9  10
ATOM     10  C   UNL     1      -6.084  36.967   1.404  1.00  0.00     0.000 C 
BRANCH  10  11
ATOM     11  C   UNL     1      -6.626  35.557   1.696  1.00  0.00     0.000 C 
BRANCH  11  12
ATOM     12  C   UNL     1      -6.192  34.503   0.651  1.00  0.00     0.000 C 
BRANCH  12  13
ATOM     13  C   UNL     1      -7.116  33.270   0.606  1.00  0.00     0.006 C 
BRANCH  13  14
ATOM     14  C   UNL     1      -6.840  32.253   1.727  1.00  0.00     0.053 C 
BRANCH  14  15
ATOM     15  C   UNL     1      -7.284  30.871   1.354  1.00  0.00     0.041 C 
ATOM     16  O   UNL     1      -7.132  29.914   2.160  1.00  0.00    -0.550 OA
ATOM     17  O   UNL     1      -7.853  30.635   0.108  1.00  0.00    -0.550 OA
ENDBRANCH  14  15
ENDBRANCH  13  14
ENDBRANCH  12  13
ENDBRANCH  11  12
ENDBRANCH  10  11
ENDBRANCH   9  10
ENDBRANCH   8   9
ENDBRANCH   7   8
ENDBRANCH   6   7
ENDBRANCH   5   6
ENDBRANCH   4   5
ENDBRANCH   3   4
ENDBRANCH   2   3
ENDBRANCH   1   2
BRANCH   1  18
ATOM     18  C   UNL     1     -13.650  36.249  -6.154  1.00  0.00     0.000 C 
BRANCH  18  19
ATOM     19  C   UNL     1     -13.902  35.414  -7.428  1.00  0.00     0.000 C 
BRANCH  19  20
ATOM     20  C   UNL     1     -12.962  35.762  -8.601  1.00  0.00     0.000 C 
BRANCH  20  21
ATOM     21  C   UNL     1     -13.390  35.153  -9.955  1.00  0.00     0.000 C 
BRANCH  21  22
ATOM     22  C   UNL     1     -14.709  34.353  -9.886  1.00  0.00     0.000 C 
BRANCH  22  23
ATOM     23  C   UNL     1     -15.269  33.972 -11.267  1.00  0.00     0.000 C 
BRANCH  23  24
ATOM     24  C   UNL     1     -16.575  33.166 -11.175  1.00  0.00    -0.000 C 
BRANCH  24  25
ATOM     25  C   UNL     1     -17.794  33.951 -11.686  1.00  0.00    -0.000 C 
BRANCH  25  26
ATOM     26  C   UNL     1     -18.816  34.235 -10.570  1.00  0.00    -0.000 C 
BRANCH  26  27
ATOM     27  C   UNL     1     -18.733  33.225  -9.413  1.00  0.00    -0.000 C 
BRANCH  27  28
ATOM     28  C   UNL     1     -19.237  33.746  -8.053  1.00  0.00    -0.000 C 
BRANCH  28  29
ATOM     29  C   UNL     1     -20.699  34.240  -8.074  1.00  0.00    -0.000 C 
BRANCH  29  30
ATOM     30  C   UNL     1     -21.699  33.112  -7.759  1.00  0.00    -0.000 C 
BRANCH  30  31
ATOM     31  C   UNL     1     -22.969  33.629  -7.065  1.00  0.00    -0.003 C 
ATOM     32  C   UNL     1     -23.816  34.518  -7.977  1.00  0.00     0.004 C 
ENDBRANCH  30  31
ENDBRANCH  29  30
ENDBRANCH  28  29
ENDBRANCH  27  28
ENDBRANCH  26  27
ENDBRANCH  25  26
ENDBRANCH  24  25
ENDBRANCH  23  24
ENDBRANCH  22  23
ENDBRANCH  21  22
ENDBRANCH  20  21
ENDBRANCH  19  20
ENDBRANCH  18  19
ENDBRANCH   1  18
TORSDOF 28
ENDMDL
MODEL 3
REMARK VINA RESULT:     0.652      4.763     13.992
REMARK INTER + INTRA:          -0.214
REMARK INTER:                   0.840
REMARK INTRA:                  -1.055
REMARK UNBOUND:                -1.934
REMARK SMILES CCCCCCCCCCCCCCCCCCCCCCCCCCCCCC(=O)[O-]
REMARK SMILES IDX 16 1 17 2 18 3 19 4 20 5 21 6 22 7 23 8 24 9 25 10 26 11
REMARK SMILES IDX 27 12 28 13 29 14 30 15 31 16 32 17 15 18 14 19 13 20 12 21
REMARK SMILES IDX 11 22 10 23 9 24 8 25 7 26 6 27 5 28 4 29 3 30 2 31 1 32
REMARK H PARENT
REMARK Flexibility Score: inf
ROOT
ATOM      1  C   UNL     1     -12.572  35.625  -5.582  1.00  0.00     0.000 C 
ENDROOT
BRANCH   1   2
ATOM      2  C   UNL     1     -13.309  36.285  -6.762  1.00  0.00     0.000 C 
BRANCH   2   3
ATOM      3  C   UNL     1     -14.180  35.296  -7.558  1.00  0.00     0.000 C 
BRANCH   3   4
ATOM      4  C   UNL     1     -13.800  35.139  -9.042  1.00  0.00     0.000 C 
BRANCH   4   5
ATOM      5  C   UNL     1     -14.615  34.045  -9.757  1.00  0.00     0.000 C 
BRANCH   5   6
ATOM      6  C   UNL     1     -14.753  34.314 -11.266  1.00  0.00     0.000 C 
BRANCH   6   7
ATOM      7  C   UNL     1     -15.464  33.166 -12.004  1.00  0.00     0.000 C 
BRANCH   7   8
ATOM      8  C   UNL     1     -16.672  33.657 -12.830  1.00  0.00     0.000 C 
BRANCH   8   9
ATOM      9  C   UNL     1     -17.972  33.776 -12.016  1.00  0.00     0.000 C 
BRANCH   9  10
ATOM     10  C   UNL     1     -17.983  32.881 -10.769  1.00  0.00     0.000 C 
BRANCH  10  11
ATOM     11  C   UNL     1     -17.966  33.690  -9.461  1.00  0.00     0.000 C 
BRANCH  11  12
ATOM     12  C   UNL     1     -19.336  34.313  -9.105  1.00  0.00     0.000 C 
BRANCH  12  13
ATOM     13  C   UNL     1     -20.248  33.367  -8.299  1.00  0.00     0.006 C 
BRANCH  13  14
ATOM     14  C   UNL     1     -21.148  34.093  -7.286  1.00  0.00     0.053 C 
BRANCH  14  15
ATOM     15  C   UNL     1     -22.567  33.616  -7.351  1.00  0.00     0.041 C 
ATOM     16  O   UNL     1     -22.954  32.668  -6.616  1.00  0.00    -0.550 OA
ATOM     17  O   UNL     1     -23.462  34.208  -8.236  1.00  0.00    -0.550 OA
ENDBRANCH  14  15
ENDBRANCH  13  14
ENDBRANCH  12  13
ENDBRANCH  11  12
ENDBRANCH  10  11
ENDBRANCH   9  10
ENDBRANCH   8   9
ENDBRANCH   7   8
ENDBRANCH   6   7
ENDBRANCH   5   6
ENDBRANCH   4   5
ENDBRANCH   3   4
ENDBRANCH   2   3
ENDBRANCH   1   2
BRANCH   1  18
ATOM     18  C   UNL     1     -12.741  36.419  -4.275  1.00  0.00     0.000 C 
BRANCH  18  19
ATOM     19  C   UNL     1     -11.526  36.318  -3.328  1.00  0.00     0.000 C 
BRANCH  19  20
ATOM     20  C   UNL     1     -11.899  36.268  -1.833  1.00  0.00     0.000 C 
BRANCH  20  21
ATOM     21  C   UNL     1     -10.688  36.137  -0.883  1.00  0.00     0.000 C 
BRANCH  21  22
ATOM     22  C   UNL     1      -9.347  36.547  -1.529  1.00  0.00     0.000 C 
BRANCH  22  23
ATOM     23  C   UNL     1      -8.931  37.995  -1.218  1.00  0.00     0.000 C 
BRANCH  23  24
ATOM     24  C   UNL     1      -7.447  38.116  -0.833  1.00  0.00    -0.000 C 
BRANCH  24  25
ATOM     25  C   UNL     1      -7.013  37.062   0.199  1.00  0.00    -0.000 C 
BRANCH  25  26
ATOM     26  C   UNL     1      -5.875  37.565   1.106  1.00  0.00    -0.000 C 
BRANCH  26  27
ATOM     27  C   UNL     1      -4.662  36.620   1.120  1.00  0.00    -0.000 C 
BRANCH  27  28
ATOM     28  C   UNL     1      -4.844  35.310   0.327  1.00  0.00    -0.000 C 
BRANCH  28  29
ATOM     29  C   UNL     1      -4.068  34.111   0.911  1.00  0.00    -0.000 C 
BRANCH  29  30
ATOM     30  C   UNL     1      -4.938  33.254   1.848  1.00  0.00    -0.000 C 
BRANCH  30  31
ATOM     31  C   UNL     1      -6.228  32.767   1.170  1.00  0.00    -0.003 C 
ATOM     32  C   UNL     1      -7.316  33.842   1.140  1.00  0.00     0.004 C 
ENDBRANCH  30  31
ENDBRANCH  29  30
ENDBRANCH  28  29
ENDBRANCH  27  28
ENDBRANCH  26  27
ENDBRANCH  25  26
ENDBRANCH  24  25
ENDBRANCH  23  24
ENDBRANCH  22  23
ENDBRANCH  21  22
ENDBRANCH  20  21
ENDBRANCH  19  20
ENDBRANCH  18  19
ENDBRANCH   1  18
TORSDOF 28
ENDMDL
MODEL 4
REMARK VINA RESULT:     0.904      1.807      3.774
REMARK INTER + INTRA:           0.450
REMARK INTER:                   1.244
REMARK INTRA:                  -0.794
REMARK UNBOUND:                -1.934
REMARK SMILES CCCCCCCCCCCCCCCCCCCCCCCCCCCCCC(=O)[O-]
REMARK SMILES IDX 16 1 17 2 18 3 19 4 20 5 21 6 22 7 23 8 24 9 25 10 26 11
REMARK SMILES IDX 27 12 28 13 29 14 30 15 31 16 32 17 15 18 14 19 13 20 12 21
REMARK SMILES IDX 11 22 10 23 9 24 8 25 7 26 6 27 5 28 4 29 3 30 2 31 1 32
REMARK H PARENT
REMARK Flexibility Score: inf
ROOT
ATOM      1  C   UNL     1     -11.162  36.236  -3.183  1.00  0.00     0.000 C 
ENDROOT
BRANCH   1   2
ATOM      2  C   UNL     1     -11.252  36.531  -1.674  1.00  0.00     0.000 C 
BRANCH   2   3
ATOM      3  C   UNL     1      -9.890  36.440  -0.961  1.00  0.00     0.000 C 
BRANCH   3   4
ATOM      4  C   UNL     1      -8.944  37.631  -1.202  1.00  0.00     0.000 C 
BRANCH   4   5
ATOM      5  C   UNL     1      -7.771  37.677  -0.207  1.00  0.00     0.000 C 
BRANCH   5   6
ATOM      6  C   UNL     1      -6.421  37.911  -0.906  1.00  0.00     0.000 C 
BRANCH   6   7
ATOM      7  C   UNL     1      -5.228  37.439  -0.056  1.00  0.00     0.000 C 
BRANCH   7   8
ATOM      8  C   UNL     1      -4.260  36.538  -0.850  1.00  0.00     0.000 C 
BRANCH   8   9
ATOM      9  C   UNL     1      -4.015  35.166  -0.199  1.00  0.00     0.000 C 
BRANCH   9  10
ATOM     10  C   UNL     1      -4.158  35.192   1.329  1.00  0.00     0.000 C 
BRANCH  10  11
ATOM     11  C   UNL     1      -5.495  34.602   1.808  1.00  0.00     0.000 C 
BRANCH  11  12
ATOM     12  C   UNL     1      -6.321  33.951   0.674  1.00  0.00     0.000 C 
BRANCH  12  13
ATOM     13  C   UNL     1      -7.538  33.153   1.185  1.00  0.00     0.006 C 
BRANCH  13  14
ATOM     14  C   UNL     1      -7.608  31.718   0.635  1.00  0.00     0.053 C 
BRANCH  14  15
ATOM     15  C   UNL     1      -7.319  30.697   1.693  1.00  0.00     0.041 C 
ATOM     16  O   UNL     1      -6.500  29.765   1.472  1.00  0.00    -0.550 OA
ATOM     17  O   UNL     1      -7.966  30.763   2.922  1.00  0.00    -0.550 OA
ENDBRANCH  14  15
ENDBRANCH  13  14
ENDBRANCH  12  13
ENDBRANCH  11  12
ENDBRANCH  10  11
ENDBRANCH   9  10
ENDBRANCH   8   9
ENDBRANCH   7   8
ENDBRANCH   6   7
ENDBRANCH   5   6
ENDBRANCH   4   5
ENDBRANCH   3   4
ENDBRANCH   2   3
ENDBRANCH   1   2
BRANCH   1  18
ATOM     18  C   UNL     1     -12.526  36.372  -3.882  1.00  0.00     0.000 C 
BRANCH  18  19
ATOM     19  C   UNL     1     -12.683  35.456  -5.115  1.00  0.00     0.000 C 
BRANCH  19  20
ATOM     20  C   UNL     1     -12.649  36.207  -6.462  1.00  0.00     0.000 C 
BRANCH  20  21
ATOM     21  C   UNL     1     -13.963  36.116  -7.269  1.00  0.00     0.000 C 
BRANCH  21  22
ATOM     22  C   UNL     1     -14.267  34.700  -7.802  1.00  0.00     0.000 C 
BRANCH  22  23
ATOM     23  C   UNL     1     -14.276  34.610  -9.338  1.00  0.00     0.000 C 
BRANCH  23  24
ATOM     24  C   UNL     1     -15.564  33.977  -9.887  1.00  0.00    -0.000 C 
BRANCH  24  25
ATOM     25  C   UNL     1     -15.401  33.446 -11.321  1.00  0.00    -0.000 C 
BRANCH  25  26
ATOM     26  C   UNL     1     -16.742  33.381 -12.076  1.00  0.00    -0.000 C 
BRANCH  26  27
ATOM     27  C   UNL     1     -17.900  34.022 -11.293  1.00  0.00    -0.000 C 
BRANCH  27  28
ATOM     28  C   UNL     1     -18.321  33.267 -10.016  1.00  0.00    -0.000 C 
BRANCH  28  29
ATOM     29  C   UNL     1     -19.134  34.122  -9.022  1.00  0.00    -0.000 C 
BRANCH  29  30
ATOM     30  C   UNL     1     -20.206  33.298  -8.285  1.00  0.00    -0.000 C 
BRANCH  30  31
ATOM     31  C   UNL     1     -21.278  34.182  -7.628  1.00  0.00    -0.003 C 
ATOM     32  C   UNL     1     -22.508  33.385  -7.191  1.00  0.00     0.004 C 
ENDBRANCH  30  31
ENDBRANCH  29  30
ENDBRANCH  28  29
ENDBRANCH  27  28
ENDBRANCH  26  27
ENDBRANCH  25  26
ENDBRANCH  24  25
ENDBRANCH  23  24
ENDBRANCH  22  23
ENDBRANCH  21  22
ENDBRANCH  20  21
ENDBRANCH  19  20
ENDBRANCH  18  19
ENDBRANCH   1  18
TORSDOF 28
ENDMDL
MODEL 5
REMARK VINA RESULT:     1.075      4.127     12.774
REMARK INTER + INTRA:           0.901
REMARK INTER:                   2.138
REMARK INTRA:                  -1.237
REMARK UNBOUND:                -1.934
REMARK SMILES CCCCCCCCCCCCCCCCCCCCCCCCCCCCCC(=O)[O-]
REMARK SMILES IDX 16 1 17 2 18 3 19 4 20 5 21 6 22 7 23 8 24 9 25 10 26 11
REMARK SMILES IDX 27 12 28 13 29 14 30 15 31 16 32 17 15 18 14 19 13 20 12 21
REMARK SMILES IDX 11 22 10 23 9 24 8 25 7 26 6 27 5 28 4 29 3 30 2 31 1 32
REMARK H PARENT
REMARK Flexibility Score: inf
ROOT
ATOM      1  C   UNL     1      -9.527  36.400  -0.927  1.00  0.00     0.000 C 
ENDROOT
BRANCH   1   2
ATOM      2  C   UNL     1     -11.039  36.252  -1.178  1.00  0.00     0.000 C 
BRANCH   2   3
ATOM      3  C   UNL     1     -11.472  36.761  -2.565  1.00  0.00     0.000 C 
BRANCH   3   4
ATOM      4  C   UNL     1     -12.233  35.738  -3.429  1.00  0.00     0.000 C 
BRANCH   4   5
ATOM      5  C   UNL     1     -12.037  35.964  -4.939  1.00  0.00     0.000 C 
BRANCH   5   6
ATOM      6  C   UNL     1     -13.365  35.904  -5.714  1.00  0.00     0.000 C 
BRANCH   6   7
ATOM      7  C   UNL     1     -13.247  36.499  -7.128  1.00  0.00     0.000 C 
BRANCH   7   8
ATOM      8  C   UNL     1     -13.346  35.423  -8.230  1.00  0.00     0.000 C 
BRANCH   8   9
ATOM      9  C   UNL     1     -14.729  34.755  -8.322  1.00  0.00     0.000 C 
BRANCH   9  10
ATOM     10  C   UNL     1     -14.871  33.837  -9.544  1.00  0.00     0.000 C 
BRANCH  10  11
ATOM     11  C   UNL     1     -14.693  34.590 -10.873  1.00  0.00     0.000 C 
BRANCH  11  12
ATOM     12  C   UNL     1     -14.769  33.672 -12.115  1.00  0.00     0.000 C 
BRANCH  12  13
ATOM     13  C   UNL     1     -16.027  32.781 -12.141  1.00  0.00     0.006 C 
BRANCH  13  14
ATOM     14  C   UNL     1     -17.336  33.569 -12.325  1.00  0.00     0.053 C 
BRANCH  14  15
ATOM     15  C   UNL     1     -18.128  33.646 -11.055  1.00  0.00     0.041 C 
ATOM     16  O   UNL     1     -18.622  34.743 -10.678  1.00  0.00    -0.550 OA
ATOM     17  O   UNL     1     -18.310  32.508 -10.277  1.00  0.00    -0.550 OA
ENDBRANCH  14  15
ENDBRANCH  13  14
ENDBRANCH  12  13
ENDBRANCH  11  12
ENDBRANCH  10  11
ENDBRANCH   9  10
ENDBRANCH   8   9
ENDBRANCH   7   8
ENDBRANCH   6   7
ENDBRANCH   5   6
ENDBRANCH   4   5
ENDBRANCH   3   4
ENDBRANCH   2   3
ENDBRANCH   1   2
BRANCH   1  18
ATOM     18  C   UNL     1      -9.018  37.811  -1.266  1.00  0.00     0.000 C 
BRANCH  18  19
ATOM     19  C   UNL     1      -8.244  37.886  -2.600  1.00  0.00     0.000 C 
BRANCH  19  20
ATOM     20  C   UNL     1      -6.728  38.116  -2.432  1.00  0.00     0.000 C 
BRANCH  20  21
ATOM     21  C   UNL     1      -6.249  38.122  -0.964  1.00  0.00     0.000 C 
BRANCH  21  22
ATOM     22  C   UNL     1      -5.087  37.145  -0.686  1.00  0.00     0.000 C 
BRANCH  22  23
ATOM     23  C   UNL     1      -4.004  37.725   0.240  1.00  0.00     0.000 C 
BRANCH  23  24
ATOM     24  C   UNL     1      -4.480  37.862   1.696  1.00  0.00    -0.000 C 
BRANCH  24  25
ATOM     25  C   UNL     1      -4.452  36.528   2.459  1.00  0.00    -0.000 C 
BRANCH  25  26
ATOM     26  C   UNL     1      -4.999  35.361   1.617  1.00  0.00    -0.000 C 
BRANCH  26  27
ATOM     27  C   UNL     1      -6.489  35.082   1.881  1.00  0.00    -0.000 C 
BRANCH  27  28
ATOM     28  C   UNL     1      -7.230  34.359   0.739  1.00  0.00    -0.000 C 
BRANCH  28  29
ATOM     29  C   UNL     1      -6.887  32.860   0.618  1.00  0.00    -0.000 C 
BRANCH  29  30
ATOM     30  C   UNL     1      -7.477  32.032   1.774  1.00  0.00    -0.000 C 
BRANCH  30  31
ATOM     31  C   UNL     1      -7.251  30.523   1.591  1.00  0.00    -0.003 C 
ATOM     32  C   UNL     1      -7.591  29.722   2.849  1.00  0.00     0.004 C 
ENDBRANCH  30  31
ENDBRANCH  29  30
ENDBRANCH  28  29
ENDBRANCH  27  28
ENDBRANCH  26  27
ENDBRANCH  25  26
ENDBRANCH  24  25
ENDBRANCH  23  24
ENDBRANCH  22  23
ENDBRANCH  21  22
ENDBRANCH  20  21
ENDBRANCH  19  20
ENDBRANCH  18  19
ENDBRANCH   1  18
TORSDOF 28
ENDMDL
MODEL 6
REMARK VINA RESULT:     2.116      3.976     13.047
REMARK INTER + INTRA:           3.645
REMARK INTER:                   5.521
REMARK INTRA:                  -1.876
REMARK UNBOUND:                -1.934
REMARK SMILES CCCCCCCCCCCCCCCCCCCCCCCCCCCCCC(=O)[O-]
REMARK SMILES IDX 16 1 17 2 18 3 19 4 20 5 21 6 22 7 23 8 24 9 25 10 26 11
REMARK SMILES IDX 27 12 28 13 29 14 30 15 31 16 32 17 15 18 14 19 13 20 12 21
REMARK SMILES IDX 11 22 10 23 9 24 8 25 7 26 6 27 5 28 4 29 3 30 2 31 1 32
REMARK H PARENT
REMARK Flexibility Score: inf
ROOT
ATOM      1  C   UNL     1     -11.418  35.996  -1.822  1.00  0.00     0.000 C 
ENDROOT
BRANCH   1   2
ATOM      2  C   UNL     1     -11.309  36.541  -3.258  1.00  0.00     0.000 C 
BRANCH   2   3
ATOM      3  C   UNL     1     -12.647  36.506  -4.019  1.00  0.00     0.000 C 
BRANCH   3   4
ATOM      4  C   UNL     1     -12.750  35.426  -5.112  1.00  0.00     0.000 C 
BRANCH   4   5
ATOM      5  C   UNL     1     -13.028  36.010  -6.509  1.00  0.00     0.000 C 
BRANCH   5   6
ATOM      6  C   UNL     1     -14.068  35.187  -7.289  1.00  0.00     0.000 C 
BRANCH   6   7
ATOM      7  C   UNL     1     -13.778  35.154  -8.800  1.00  0.00     0.000 C 
BRANCH   7   8
ATOM      8  C   UNL     1     -15.038  34.840  -9.634  1.00  0.00     0.000 C 
BRANCH   8   9
ATOM      9  C   UNL     1     -14.732  34.263 -11.026  1.00  0.00     0.000 C 
BRANCH   9  10
ATOM     10  C   UNL     1     -15.613  33.057 -11.381  1.00  0.00     0.000 C 
BRANCH  10  11
ATOM     11  C   UNL     1     -16.670  33.390 -12.448  1.00  0.00     0.000 C 
BRANCH  11  12
ATOM     12  C   UNL     1     -17.953  34.026 -11.864  1.00  0.00     0.000 C 
BRANCH  12  13
ATOM     13  C   UNL     1     -18.232  33.610 -10.406  1.00  0.00     0.006 C 
BRANCH  13  14
ATOM     14  C   UNL     1     -19.264  34.505  -9.697  1.00  0.00     0.053 C 
BRANCH  14  15
ATOM     15  C   UNL     1     -19.875  33.826  -8.510  1.00  0.00     0.041 C 
ATOM     16  O   UNL     1     -20.998  34.195  -8.073  1.00  0.00    -0.550 OA
ATOM     17  O   UNL     1     -19.197  32.792  -7.873  1.00  0.00    -0.550 OA
ENDBRANCH  14  15
ENDBRANCH  13  14
ENDBRANCH  12  13
ENDBRANCH  11  12
ENDBRANCH  10  11
ENDBRANCH   9  10
ENDBRANCH   8   9
ENDBRANCH   7   8
ENDBRANCH   6   7
ENDBRANCH   5   6
ENDBRANCH   4   5
ENDBRANCH   3   4
ENDBRANCH   2   3
ENDBRANCH   1   2
BRANCH   1  18
ATOM     18  C   UNL     1     -10.243  36.449  -0.939  1.00  0.00     0.000 C 
BRANCH  18  19
ATOM     19  C   UNL     1      -9.463  37.650  -1.516  1.00  0.00     0.000 C 
BRANCH  19  20
ATOM     20  C   UNL     1      -8.093  37.887  -0.848  1.00  0.00     0.000 C 
BRANCH  20  21
ATOM     21  C   UNL     1      -6.891  37.378  -1.674  1.00  0.00     0.000 C 
BRANCH  21  22
ATOM     22  C   UNL     1      -5.573  38.125  -1.376  1.00  0.00     0.000 C 
BRANCH  22  23
ATOM     23  C   UNL     1      -4.609  37.334  -0.475  1.00  0.00     0.000 C 
BRANCH  23  24
ATOM     24  C   UNL     1      -4.679  37.773   0.997  1.00  0.00    -0.000 C 
BRANCH  24  25
ATOM     25  C   UNL     1      -4.818  36.587   1.965  1.00  0.00    -0.000 C 
BRANCH  25  26
ATOM     26  C   UNL     1      -6.223  35.959   1.922  1.00  0.00    -0.000 C 
BRANCH  26  27
ATOM     27  C   UNL     1      -6.319  34.779   0.940  1.00  0.00    -0.000 C 
BRANCH  27  28
ATOM     28  C   UNL     1      -7.664  34.026   0.953  1.00  0.00    -0.000 C 
BRANCH  28  29
ATOM     29  C   UNL     1      -7.544  32.522   0.630  1.00  0.00    -0.000 C 
BRANCH  29  30
ATOM     30  C   UNL     1      -7.001  31.712   1.822  1.00  0.00    -0.000 C 
BRANCH  30  31
ATOM     31  C   UNL     1      -7.434  30.239   1.777  1.00  0.00    -0.003 C 
ATOM     32  C   UNL     1      -7.821  29.783   0.370  1.00  0.00     0.004 C 
ENDBRANCH  30  31
ENDBRANCH  29  30
ENDBRANCH  28  29
ENDBRANCH  27  28
ENDBRANCH  26  27
ENDBRANCH  25  26
ENDBRANCH  24  25
ENDBRANCH  23  24
ENDBRANCH  22  23
ENDBRANCH  21  22
ENDBRANCH  20  21
ENDBRANCH  19  20
ENDBRANCH  18  19
ENDBRANCH   1  18
TORSDOF 28
ENDMDL
MODEL 7
REMARK VINA RESULT:     2.675      4.966     14.286
REMARK INTER + INTRA:           5.119
REMARK INTER:                   6.173
REMARK INTRA:                  -1.054
REMARK UNBOUND:                -1.934
REMARK SMILES CCCCCCCCCCCCCCCCCCCCCCCCCCCCCC(=O)[O-]
REMARK SMILES IDX 16 1 17 2 18 3 19 4 20 5 21 6 22 7 23 8 24 9 25 10 26 11
REMARK SMILES IDX 27 12 28 13 29 14 30 15 31 16 32 17 15 18 14 19 13 20 12 21
REMARK SMILES IDX 11 22 10 23 9 24 8 25 7 26 6 27 5 28 4 29 3 30 2 31 1 32
REMARK H PARENT
REMARK Flexibility Score: inf
ROOT
ATOM      1  C   UNL     1     -14.657  34.762  -7.435  1.00  0.00     0.000 C 
ENDROOT
BRANCH   1   2
ATOM      2  C   UNL     1     -14.874  34.387  -8.913  1.00  0.00     0.000 C 
BRANCH   2   3
ATOM      3  C   UNL     1     -13.929  35.137  -9.870  1.00  0.00     0.000 C 
BRANCH   3   4
ATOM      4  C   UNL     1     -13.692  34.448 -11.227  1.00  0.00     0.000 C 
BRANCH   4   5
ATOM      5  C   UNL     1     -14.791  33.431 -11.584  1.00  0.00     0.000 C 
BRANCH   5   6
ATOM      6  C   UNL     1     -15.835  34.015 -12.551  1.00  0.00     0.000 C 
BRANCH   6   7
ATOM      7  C   UNL     1     -17.063  33.103 -12.712  1.00  0.00     0.000 C 
BRANCH   7   8
ATOM      8  C   UNL     1     -18.359  33.899 -12.970  1.00  0.00     0.000 C 
BRANCH   8   9
ATOM      9  C   UNL     1     -18.978  34.506 -11.699  1.00  0.00     0.000 C 
BRANCH   9  10
ATOM     10  C   UNL     1     -18.474  33.842 -10.411  1.00  0.00     0.000 C 
BRANCH  10  11
ATOM     11  C   UNL     1     -19.231  34.324  -9.161  1.00  0.00     0.000 C 
BRANCH  11  12
ATOM     12  C   UNL     1     -19.888  33.176  -8.360  1.00  0.00     0.000 C 
BRANCH  12  13
ATOM     13  C   UNL     1     -20.617  33.656  -7.089  1.00  0.00     0.006 C 
BRANCH  13  14
ATOM     14  C   UNL     1     -21.803  34.593  -7.375  1.00  0.00     0.053 C 
BRANCH  14  15
ATOM     15  C   UNL     1     -23.084  33.838  -7.554  1.00  0.00     0.041 C 
ATOM     16  O   UNL     1     -23.223  32.690  -7.051  1.00  0.00    -0.550 OA
ATOM     17  O   UNL     1     -24.125  34.394  -8.290  1.00  0.00    -0.550 OA
ENDBRANCH  14  15
ENDBRANCH  13  14
ENDBRANCH  12  13
ENDBRANCH  11  12
ENDBRANCH  10  11
ENDBRANCH   9  10
ENDBRANCH   8   9
ENDBRANCH   7   8
ENDBRANCH   6   7
ENDBRANCH   5   6
ENDBRANCH   4   5
ENDBRANCH   3   4
ENDBRANCH   2   3
ENDBRANCH   1   2
BRANCH   1  18
ATOM     18  C   UNL     1     -13.592  35.859  -7.265  1.00  0.00     0.000 C 
BRANCH  18  19
ATOM     19  C   UNL     1     -13.392  36.305  -5.801  1.00  0.00     0.000 C 
BRANCH  19  20
ATOM     20  C   UNL     1     -12.225  35.595  -5.084  1.00  0.00     0.000 C 
BRANCH  20  21
ATOM     21  C   UNL     1     -12.134  35.899  -3.572  1.00  0.00     0.000 C 
BRANCH  21  22
ATOM     22  C   UNL     1     -10.842  36.640  -3.166  1.00  0.00     0.000 C 
BRANCH  22  23
ATOM     23  C   UNL     1     -10.626  36.709  -1.644  1.00  0.00     0.000 C 
BRANCH  23  24
ATOM     24  C   UNL     1      -9.568  37.750  -1.243  1.00  0.00    -0.000 C 
BRANCH  24  25
ATOM     25  C   UNL     1      -8.394  37.134  -0.464  1.00  0.00    -0.000 C 
BRANCH  25  26
ATOM     26  C   UNL     1      -7.079  37.905  -0.682  1.00  0.00    -0.000 C 
BRANCH  26  27
ATOM     27  C   UNL     1      -6.184  37.924   0.569  1.00  0.00    -0.000 C 
BRANCH  27  28
ATOM     28  C   UNL     1      -5.471  36.593   0.882  1.00  0.00    -0.000 C 
BRANCH  28  29
ATOM     29  C   UNL     1      -6.009  35.390   0.080  1.00  0.00    -0.000 C 
BRANCH  29  30
ATOM     30  C   UNL     1      -5.763  34.052   0.801  1.00  0.00    -0.000 C 
BRANCH  30  31
ATOM     31  C   UNL     1      -7.059  33.430   1.344  1.00  0.00    -0.003 C 
ATOM     32  C   UNL     1      -7.023  31.901   1.341  1.00  0.00     0.004 C 
ENDBRANCH  30  31
ENDBRANCH  29  30
ENDBRANCH  28  29
ENDBRANCH  27  28
ENDBRANCH  26  27
ENDBRANCH  25  26
ENDBRANCH  24  25
ENDBRANCH  23  24
ENDBRANCH  22  23
ENDBRANCH  21  22
ENDBRANCH  20  21
ENDBRANCH  19  20
ENDBRANCH  18  19
ENDBRANCH   1  18
TORSDOF 28
ENDMDL
MODEL 8
REMARK VINA RESULT:     3.145      3.282      6.806
REMARK INTER + INTRA:           6.359
REMARK INTER:                   7.488
REMARK INTRA:                  -1.129
REMARK UNBOUND:                -1.934
REMARK SMILES CCCCCCCCCCCCCCCCCCCCCCCCCCCCCC(=O)[O-]
REMARK SMILES IDX 16 1 17 2 18 3 19 4 20 5 21 6 22 7 23 8 24 9 25 10 26 11
REMARK SMILES IDX 27 12 28 13 29 14 30 15 31 16 32 17 15 18 14 19 13 20 12 21
REMARK SMILES IDX 11 22 10 23 9 24 8 25 7 26 6 27 5 28 4 29 3 30 2 31 1 32
REMARK H PARENT
REMARK Flexibility Score: inf
ROOT
ATOM      1  C   UNL     1     -13.792  35.063  -6.766  1.00  0.00     0.000 C 
ENDROOT
BRANCH   1   2
ATOM      2  C   UNL     1     -13.263  36.256  -5.947  1.00  0.00     0.000 C 
BRANCH   2   3
ATOM      3  C   UNL     1     -12.064  35.890  -5.054  1.00  0.00     0.000 C 
BRANCH   3   4
ATOM      4  C   UNL     1     -12.381  35.766  -3.552  1.00  0.00     0.000 C 
BRANCH   4   5
ATOM      5  C   UNL     1     -11.506  36.683  -2.677  1.00  0.00     0.000 C 
BRANCH   5   6
ATOM      6  C   UNL     1     -10.027  36.651  -3.096  1.00  0.00     0.000 C 
BRANCH   6   7
ATOM      7  C   UNL     1      -9.188  37.718  -2.372  1.00  0.00     0.000 C 
BRANCH   7   8
ATOM      8  C   UNL     1      -8.993  37.398  -0.875  1.00  0.00     0.000 C 
BRANCH   8   9
ATOM      9  C   UNL     1      -7.684  37.952  -0.287  1.00  0.00     0.000 C 
BRANCH   9  10
ATOM     10  C   UNL     1      -6.580  38.125  -1.339  1.00  0.00     0.000 C 
BRANCH  10  11
ATOM     11  C   UNL     1      -5.224  37.568  -0.872  1.00  0.00     0.000 C 
BRANCH  11  12
ATOM     12  C   UNL     1      -5.143  37.352   0.658  1.00  0.00     0.000 C 
BRANCH  12  13
ATOM     13  C   UNL     1      -5.653  35.968   1.107  1.00  0.00     0.006 C 
BRANCH  13  14
ATOM     14  C   UNL     1      -4.694  35.240   2.065  1.00  0.00     0.053 C 
BRANCH  14  15
ATOM     15  C   UNL     1      -4.643  33.767   1.797  1.00  0.00     0.041 C 
ATOM     16  O   UNL     1      -4.317  32.964   2.712  1.00  0.00    -0.550 OA
ATOM     17  O   UNL     1      -4.942  33.278   0.530  1.00  0.00    -0.550 OA
ENDBRANCH  14  15
ENDBRANCH  13  14
ENDBRANCH  12  13
ENDBRANCH  11  12
ENDBRANCH  10  11
ENDBRANCH   9  10
ENDBRANCH   8   9
ENDBRANCH   7   8
ENDBRANCH   6   7
ENDBRANCH   5   6
ENDBRANCH   4   5
ENDBRANCH   3   4
ENDBRANCH   2   3
ENDBRANCH   1   2
BRANCH   1  18
ATOM     18  C   UNL     1     -13.747  35.333  -8.280  1.00  0.00     0.000 C 
BRANCH  18  19
ATOM     19  C   UNL     1     -14.480  34.266  -9.120  1.00  0.00     0.000 C 
BRANCH  19  20
ATOM     20  C   UNL     1     -14.722  34.681 -10.586  1.00  0.00     0.000 C 
BRANCH  20  21
ATOM     21  C   UNL     1     -15.364  33.578 -11.457  1.00  0.00     0.000 C 
BRANCH  21  22
ATOM     22  C   UNL     1     -16.855  33.826 -11.770  1.00  0.00     0.000 C 
BRANCH  22  23
ATOM     23  C   UNL     1     -17.814  33.106 -10.806  1.00  0.00     0.000 C 
BRANCH  23  24
ATOM     24  C   UNL     1     -18.621  34.083  -9.934  1.00  0.00    -0.000 C 
BRANCH  24  25
ATOM     25  C   UNL     1     -19.293  33.393  -8.736  1.00  0.00    -0.000 C 
BRANCH  25  26
ATOM     26  C   UNL     1     -20.708  33.938  -8.466  1.00  0.00    -0.000 C 
BRANCH  26  27
ATOM     27  C   UNL     1     -21.177  33.690  -7.022  1.00  0.00    -0.000 C 
BRANCH  27  28
ATOM     28  C   UNL     1     -22.680  33.386  -6.867  1.00  0.00    -0.000 C 
BRANCH  28  29
ATOM     29  C   UNL     1     -23.553  33.935  -8.015  1.00  0.00    -0.000 C 
BRANCH  29  30
ATOM     30  C   UNL     1     -24.092  35.345  -7.715  1.00  0.00    -0.000 C 
BRANCH  30  31
ATOM     31  C   UNL     1     -23.831  36.331  -8.864  1.00  0.00    -0.003 C 
ATOM     32  C   UNL     1     -24.043  37.788  -8.447  1.00  0.00     0.004 C 
ENDBRANCH  30  31
ENDBRANCH  29  30
ENDBRANCH  28  29
ENDBRANCH  27  28
ENDBRANCH  26  27
ENDBRANCH  25  26
ENDBRANCH  24  25
ENDBRANCH  23  24
ENDBRANCH  22  23
ENDBRANCH  21  22
ENDBRANCH  20  21
ENDBRANCH  19  20
ENDBRANCH  18  19
ENDBRANCH   1  18
TORSDOF 28
ENDMDL
