MODEL 1
REMARK VINA RESULT:    -6.961      0.000      0.000
REMARK INTER + INTRA:          -9.567
REMARK INTER:                  -8.589
REMARK INTRA:                  -0.979
REMARK UNBOUND:                -0.979
REMARK SMILES CC(C)=CCC[C@@H](C)c1ccc(C)cc1
REMARK SMILES IDX 6 1 7 2 8 3 9 4 13 5 12 6 11 7 14 8 10 9 15 10 5 11 4 12
REMARK SMILES IDX 2 13 1 14 3 15
REMARK H PARENT
REMARK Flexibility Score: inf
ROOT
ATOM      1  C   UNL     1      15.479  -1.357  -0.407  1.00  0.00     0.012 C 
ENDROOT
BRANCH   1   2
ATOM      2  C   UNL     1      14.890  -1.806  -1.762  1.00  0.00     0.016 C 
ATOM      3  C   UNL     1      15.961  -2.490  -2.620  1.00  0.00     0.013 C 
BRANCH   2   4
ATOM      4  C   UNL     1      13.689  -2.720  -1.581  1.00  0.00    -0.045 A 
ATOM      5  C   UNL     1      10.274  -5.334  -1.179  1.00  0.00     0.044 C 
ATOM      6  C   UNL     1      11.467  -4.431  -1.287  1.00  0.00    -0.051 A 
ATOM      7  C   UNL     1      12.700  -4.940  -1.719  1.00  0.00     0.004 A 
ATOM      8  C   UNL     1      11.342  -3.060  -1.024  1.00  0.00     0.004 A 
ATOM      9  C   UNL     1      13.803  -4.093  -1.858  1.00  0.00     0.004 A 
ATOM     10  C   UNL     1      12.444  -2.212  -1.163  1.00  0.00     0.004 A 
ENDBRANCH   2   4
ENDBRANCH   1   2
BRANCH   1  11
ATOM     11  C   UNL     1      15.023   0.058  -0.019  1.00  0.00     0.028 C 
BRANCH  11  12
ATOM     12  C   UNL     1      14.492   0.797  -1.220  1.00  0.00    -0.028 C 
ATOM     13  C   UNL     1      13.371   1.555  -1.211  1.00  0.00    -0.080 C 
ATOM     14  C   UNL     1      12.940   2.273  -2.463  1.00  0.00     0.039 C 
ATOM     15  C   UNL     1      12.493   1.673   0.012  1.00  0.00     0.039 C 
ENDBRANCH  11  12
ENDBRANCH   1  11
TORSDOF 4
ENDMDL
MODEL 2
REMARK VINA RESULT:    -6.878      2.731      5.252
REMARK INTER + INTRA:          -9.465
REMARK INTER:                  -8.365
REMARK INTRA:                  -1.099
REMARK UNBOUND:                -0.979
REMARK SMILES CC(C)=CCC[C@@H](C)c1ccc(C)cc1
REMARK SMILES IDX 6 1 7 2 8 3 9 4 13 5 12 6 11 7 14 8 10 9 15 10 5 11 4 12
REMARK SMILES IDX 2 13 1 14 3 15
REMARK H PARENT
REMARK Flexibility Score: inf
ROOT
ATOM      1  C   UNL     1      16.792  -0.009  -1.388  1.00  0.00     0.012 C 
ENDROOT
BRANCH   1   2
ATOM      2  C   UNL     1      15.468  -0.277  -2.137  1.00  0.00     0.016 C 
ATOM      3  C   UNL     1      14.913  -1.662  -1.783  1.00  0.00     0.013 C 
BRANCH   2   4
ATOM      4  C   UNL     1      14.432   0.799  -1.856  1.00  0.00    -0.045 A 
ATOM      5  C   UNL     1      11.411   3.778  -1.045  1.00  0.00     0.044 C 
ATOM      6  C   UNL     1      12.483   2.765  -1.318  1.00  0.00    -0.051 A 
ATOM      7  C   UNL     1      12.879   1.868  -0.316  1.00  0.00     0.004 A 
ATOM      8  C   UNL     1      13.049   2.663  -2.596  1.00  0.00     0.004 A 
ATOM      9  C   UNL     1      13.849   0.898  -0.581  1.00  0.00     0.004 A 
ATOM     10  C   UNL     1      14.021   1.694  -2.863  1.00  0.00     0.004 A 
ENDBRANCH   2   4
ENDBRANCH   1   2
BRANCH   1  11
ATOM     11  C   UNL     1      17.093  -1.093  -0.342  1.00  0.00     0.028 C 
BRANCH  11  12
ATOM     12  C   UNL     1      17.254  -0.485   1.027  1.00  0.00    -0.028 C 
ATOM     13  C   UNL     1      16.411  -0.710   2.061  1.00  0.00    -0.080 C 
ATOM     14  C   UNL     1      16.676  -0.070   3.399  1.00  0.00     0.039 C 
ATOM     15  C   UNL     1      15.167  -1.553   1.913  1.00  0.00     0.039 C 
ENDBRANCH  11  12
ENDBRANCH   1  11
TORSDOF 4
ENDMDL
MODEL 3
REMARK VINA RESULT:    -6.845      3.337      4.663
REMARK INTER + INTRA:          -9.424
REMARK INTER:                  -8.639
REMARK INTRA:                  -0.785
REMARK UNBOUND:                -0.979
REMARK SMILES CC(C)=CCC[C@@H](C)c1ccc(C)cc1
REMARK SMILES IDX 6 1 7 2 8 3 9 4 13 5 12 6 11 7 14 8 10 9 15 10 5 11 4 12
REMARK SMILES IDX 2 13 1 14 3 15
REMARK H PARENT
REMARK Flexibility Score: inf
ROOT
ATOM      1  C   UNL     1      14.491   0.034  -2.319  1.00  0.00     0.012 C 
ENDROOT
BRANCH   1   2
ATOM      2  C   UNL     1      15.798  -0.682  -1.915  1.00  0.00     0.016 C 
ATOM      3  C   UNL     1      16.996  -0.091  -2.669  1.00  0.00     0.013 C 
BRANCH   2   4
ATOM      4  C   UNL     1      16.032  -0.626  -0.415  1.00  0.00    -0.045 A 
ATOM      5  C   UNL     1      16.634  -0.379   3.855  1.00  0.00     0.044 C 
ATOM      6  C   UNL     1      16.433  -0.497   2.374  1.00  0.00    -0.051 A 
ATOM      7  C   UNL     1      15.163  -0.784   1.854  1.00  0.00     0.004 A 
ATOM      8  C   UNL     1      17.497  -0.252   1.495  1.00  0.00     0.004 A 
ATOM      9  C   UNL     1      14.966  -0.855   0.472  1.00  0.00     0.004 A 
ATOM     10  C   UNL     1      17.302  -0.323   0.113  1.00  0.00     0.004 A 
ENDBRANCH   2   4
ENDBRANCH   1   2
BRANCH   1  11
ATOM     11  C   UNL     1      14.714   1.526  -2.608  1.00  0.00     0.028 C 
BRANCH  11  12
ATOM     12  C   UNL     1      13.398   2.253  -2.719  1.00  0.00    -0.028 C 
ATOM     13  C   UNL     1      12.658   2.648  -1.658  1.00  0.00    -0.080 C 
ATOM     14  C   UNL     1      11.366   3.390  -1.879  1.00  0.00     0.039 C 
ATOM     15  C   UNL     1      13.057   2.327  -0.238  1.00  0.00     0.039 C 
ENDBRANCH  11  12
ENDBRANCH   1  11
TORSDOF 4
ENDMDL
MODEL 4
REMARK VINA RESULT:    -6.824      1.180      5.246
REMARK INTER + INTRA:          -9.399
REMARK INTER:                  -8.746
REMARK INTRA:                  -0.653
REMARK UNBOUND:                -0.979
REMARK SMILES CC(C)=CCC[C@@H](C)c1ccc(C)cc1
REMARK SMILES IDX 6 1 7 2 8 3 9 4 13 5 12 6 11 7 14 8 10 9 15 10 5 11 4 12
REMARK SMILES IDX 2 13 1 14 3 15
REMARK H PARENT
REMARK Flexibility Score: inf
ROOT
ATOM      1  C   UNL     1      15.100  -1.913  -1.055  1.00  0.00     0.012 C 
ENDROOT
BRANCH   1   2
ATOM      2  C   UNL     1      15.595  -0.519  -1.497  1.00  0.00     0.016 C 
ATOM      3  C   UNL     1      16.187  -0.575  -2.911  1.00  0.00     0.013 C 
BRANCH   2   4
ATOM      4  C   UNL     1      14.492   0.523  -1.422  1.00  0.00    -0.045 A 
ATOM      5  C   UNL     1      11.432   3.566  -1.224  1.00  0.00     0.044 C 
ATOM      6  C   UNL     1      12.472   2.487  -1.301  1.00  0.00    -0.051 A 
ATOM      7  C   UNL     1      13.181   2.274  -2.491  1.00  0.00     0.004 A 
ATOM      8  C   UNL     1      12.791   1.731  -0.165  1.00  0.00     0.004 A 
ATOM      9  C   UNL     1      14.178   1.297  -2.553  1.00  0.00     0.004 A 
ATOM     10  C   UNL     1      13.787   0.752  -0.225  1.00  0.00     0.004 A 
ENDBRANCH   2   4
ENDBRANCH   1   2
BRANCH   1  11
ATOM     11  C   UNL     1      14.782  -2.820  -2.254  1.00  0.00     0.028 C 
BRANCH  11  12
ATOM     12  C   UNL     1      13.937  -3.993  -1.828  1.00  0.00    -0.028 C 
ATOM     13  C   UNL     1      12.641  -3.898  -1.452  1.00  0.00    -0.080 C 
ATOM     14  C   UNL     1      11.879  -5.139  -1.067  1.00  0.00     0.039 C 
ATOM     15  C   UNL     1      11.929  -2.570  -1.357  1.00  0.00     0.039 C 
ENDBRANCH  11  12
ENDBRANCH   1  11
TORSDOF 4
ENDMDL
MODEL 5
REMARK VINA RESULT:    -6.819      2.155      5.471
REMARK INTER + INTRA:          -9.393
REMARK INTER:                  -8.326
REMARK INTRA:                  -1.066
REMARK UNBOUND:                -0.979
REMARK SMILES CC(C)=CCC[C@@H](C)c1ccc(C)cc1
REMARK SMILES IDX 6 1 7 2 8 3 9 4 13 5 12 6 11 7 14 8 10 9 15 10 5 11 4 12
REMARK SMILES IDX 2 13 1 14 3 15
REMARK H PARENT
REMARK Flexibility Score: inf
ROOT
ATOM      1  C   UNL     1      16.331  -2.124  -1.747  1.00  0.00     0.012 C 
ENDROOT
BRANCH   1   2
ATOM      2  C   UNL     1      16.257  -0.694  -1.169  1.00  0.00     0.016 C 
ATOM      3  C   UNL     1      15.062   0.069  -1.755  1.00  0.00     0.013 C 
BRANCH   2   4
ATOM      4  C   UNL     1      16.191  -0.700   0.349  1.00  0.00    -0.045 A 
ATOM      5  C   UNL     1      15.923  -0.641   4.660  1.00  0.00     0.044 C 
ATOM      6  C   UNL     1      16.029  -0.692   3.165  1.00  0.00    -0.051 A 
ATOM      7  C   UNL     1      14.950  -1.150   2.395  1.00  0.00     0.004 A 
ATOM      8  C   UNL     1      17.181  -0.218   2.522  1.00  0.00     0.004 A 
ATOM      9  C   UNL     1      15.033  -1.160   1.000  1.00  0.00     0.004 A 
ATOM     10  C   UNL     1      17.266  -0.228   1.127  1.00  0.00     0.004 A 
ENDBRANCH   2   4
ENDBRANCH   1   2
BRANCH   1  11
ATOM     11  C   UNL     1      15.123  -2.450  -2.639  1.00  0.00     0.028 C 
BRANCH  11  12
ATOM     12  C   UNL     1      14.423  -3.694  -2.157  1.00  0.00    -0.028 C 
ATOM     13  C   UNL     1      13.181  -3.706  -1.618  1.00  0.00    -0.080 C 
ATOM     14  C   UNL     1      12.562  -5.011  -1.190  1.00  0.00     0.039 C 
ATOM     15  C   UNL     1      12.398  -2.437  -1.382  1.00  0.00     0.039 C 
ENDBRANCH  11  12
ENDBRANCH   1  11
TORSDOF 4
ENDMDL
MODEL 6
REMARK VINA RESULT:    -6.795      2.632      5.359
REMARK INTER + INTRA:          -9.362
REMARK INTER:                  -8.433
REMARK INTRA:                  -0.929
REMARK UNBOUND:                -0.979
REMARK SMILES CC(C)=CCC[C@@H](C)c1ccc(C)cc1
REMARK SMILES IDX 6 1 7 2 8 3 9 4 13 5 12 6 11 7 14 8 10 9 15 10 5 11 4 12
REMARK SMILES IDX 2 13 1 14 3 15
REMARK H PARENT
REMARK Flexibility Score: inf
ROOT
ATOM      1  C   UNL     1      14.438  -1.372  -1.514  1.00  0.00     0.012 C 
ENDROOT
BRANCH   1   2
ATOM      2  C   UNL     1      15.076   0.025  -1.671  1.00  0.00     0.016 C 
ATOM      3  C   UNL     1      15.823   0.134  -3.007  1.00  0.00     0.013 C 
BRANCH   2   4
ATOM      4  C   UNL     1      14.046   1.134  -1.545  1.00  0.00    -0.045 A 
ATOM      5  C   UNL     1      11.197   4.363  -1.206  1.00  0.00     0.044 C 
ATOM      6  C   UNL     1      12.161   3.222  -1.331  1.00  0.00    -0.051 A 
ATOM      7  C   UNL     1      12.788   2.957  -2.557  1.00  0.00     0.004 A 
ATOM      8  C   UNL     1      12.496   2.454  -0.207  1.00  0.00     0.004 A 
ATOM      9  C   UNL     1      13.717   1.919  -2.664  1.00  0.00     0.004 A 
ATOM     10  C   UNL     1      13.424   1.414  -0.313  1.00  0.00     0.004 A 
ENDBRANCH   2   4
ENDBRANCH   1   2
BRANCH   1  11
ATOM     11  C   UNL     1      14.654  -1.951  -0.107  1.00  0.00     0.028 C 
BRANCH  11  12
ATOM     12  C   UNL     1      15.768  -1.226   0.605  1.00  0.00    -0.028 C 
ATOM     13  C   UNL     1      15.749  -0.910   1.920  1.00  0.00    -0.080 C 
ATOM     14  C   UNL     1      16.927  -0.204   2.539  1.00  0.00     0.039 C 
ATOM     15  C   UNL     1      14.554  -1.199   2.797  1.00  0.00     0.039 C 
ENDBRANCH  11  12
ENDBRANCH   1  11
TORSDOF 4
ENDMDL
MODEL 7
REMARK VINA RESULT:    -6.768      1.784      2.789
REMARK INTER + INTRA:          -9.329
REMARK INTER:                  -8.429
REMARK INTRA:                  -0.901
REMARK UNBOUND:                -0.979
REMARK SMILES CC(C)=CCC[C@@H](C)c1ccc(C)cc1
REMARK SMILES IDX 6 1 7 2 8 3 9 4 13 5 12 6 11 7 14 8 10 9 15 10 5 11 4 12
REMARK SMILES IDX 2 13 1 14 3 15
REMARK H PARENT
REMARK Flexibility Score: inf
ROOT
ATOM      1  C   UNL     1      16.019  -1.195  -0.601  1.00  0.00     0.012 C 
ENDROOT
BRANCH   1   2
ATOM      2  C   UNL     1      15.142  -1.360  -1.860  1.00  0.00     0.016 C 
ATOM      3  C   UNL     1      15.993  -1.785  -3.064  1.00  0.00     0.013 C 
BRANCH   2   4
ATOM      4  C   UNL     1      14.009  -2.347  -1.635  1.00  0.00    -0.045 A 
ATOM      5  C   UNL     1      10.787  -5.175  -1.102  1.00  0.00     0.044 C 
ATOM      6  C   UNL     1      11.913  -4.197  -1.256  1.00  0.00    -0.051 A 
ATOM      7  C   UNL     1      13.179  -4.636  -1.671  1.00  0.00     0.004 A 
ATOM      8  C   UNL     1      11.692  -2.828  -1.052  1.00  0.00     0.004 A 
ATOM      9  C   UNL     1      14.219  -3.720  -1.852  1.00  0.00     0.004 A 
ATOM     10  C   UNL     1      12.732  -1.910  -1.232  1.00  0.00     0.004 A 
ENDBRANCH   2   4
ENDBRANCH   1   2
BRANCH   1  11
ATOM     11  C   UNL     1      15.527  -0.052   0.301  1.00  0.00     0.028 C 
BRANCH  11  12
ATOM     12  C   UNL     1      15.883  -0.315   1.741  1.00  0.00    -0.028 C 
ATOM     13  C   UNL     1      15.088  -0.982   2.610  1.00  0.00    -0.080 C 
ATOM     14  C   UNL     1      15.551  -1.212   4.025  1.00  0.00     0.039 C 
ATOM     15  C   UNL     1      13.713  -1.471   2.225  1.00  0.00     0.039 C 
ENDBRANCH  11  12
ENDBRANCH   1  11
TORSDOF 4
ENDMDL
MODEL 8
REMARK VINA RESULT:    -6.662      1.400      2.722
REMARK INTER + INTRA:          -9.198
REMARK INTER:                  -8.524
REMARK INTRA:                  -0.674
REMARK UNBOUND:                -0.979
REMARK SMILES CC(C)=CCC[C@@H](C)c1ccc(C)cc1
REMARK SMILES IDX 6 1 7 2 8 3 9 4 13 5 12 6 11 7 14 8 10 9 15 10 5 11 4 12
REMARK SMILES IDX 2 13 1 14 3 15
REMARK H PARENT
REMARK Flexibility Score: inf
ROOT
ATOM      1  C   UNL     1      12.608   0.276   1.295  1.00  0.00     0.012 C 
ENDROOT
BRANCH   1   2
ATOM      2  C   UNL     1      13.710  -0.784   1.084  1.00  0.00     0.016 C 
ATOM      3  C   UNL     1      14.120  -1.415   2.421  1.00  0.00     0.013 C 
BRANCH   2   4
ATOM      4  C   UNL     1      13.281  -1.858   0.099  1.00  0.00    -0.045 A 
ATOM      5  C   UNL     1      12.020  -4.969  -2.620  1.00  0.00     0.044 C 
ATOM      6  C   UNL     1      12.459  -3.868  -1.701  1.00  0.00    -0.051 A 
ATOM      7  C   UNL     1      11.507  -3.111  -1.002  1.00  0.00     0.004 A 
ATOM      8  C   UNL     1      13.822  -3.632  -1.481  1.00  0.00     0.004 A 
ATOM      9  C   UNL     1      11.915  -2.110  -0.115  1.00  0.00     0.004 A 
ATOM     10  C   UNL     1      14.232  -2.631  -0.595  1.00  0.00     0.004 A 
ENDBRANCH   2   4
ENDBRANCH   1   2
BRANCH   1  11
ATOM     11  C   UNL     1      12.773   1.476   0.350  1.00  0.00     0.028 C 
BRANCH  11  12
ATOM     12  C   UNL     1      13.764   1.166  -0.742  1.00  0.00    -0.028 C 
ATOM     13  C   UNL     1      13.687   1.659  -2.000  1.00  0.00    -0.080 C 
ATOM     14  C   UNL     1      14.746   1.304  -3.011  1.00  0.00     0.039 C 
ATOM     15  C   UNL     1      12.538   2.528  -2.452  1.00  0.00     0.039 C 
ENDBRANCH  11  12
ENDBRANCH   1  11
TORSDOF 4
ENDMDL
MODEL 9
REMARK VINA RESULT:    -6.594      2.341      5.282
REMARK INTER + INTRA:          -9.115
REMARK INTER:                  -8.355
REMARK INTRA:                  -0.759
REMARK UNBOUND:                -0.979
REMARK SMILES CC(C)=CCC[C@@H](C)c1ccc(C)cc1
REMARK SMILES IDX 6 1 7 2 8 3 9 4 13 5 12 6 11 7 14 8 10 9 15 10 5 11 4 12
REMARK SMILES IDX 2 13 1 14 3 15
REMARK H PARENT
REMARK Flexibility Score: inf
ROOT
ATOM      1  C   UNL     1      13.288  -1.179   1.661  1.00  0.00     0.012 C 
ENDROOT
BRANCH   1   2
ATOM      2  C   UNL     1      13.066  -1.238   0.134  1.00  0.00     0.016 C 
ATOM      3  C   UNL     1      11.768  -1.983  -0.199  1.00  0.00     0.013 C 
BRANCH   2   4
ATOM      4  C   UNL     1      13.060   0.147  -0.490  1.00  0.00    -0.045 A 
ATOM      5  C   UNL     1      13.154   4.088  -2.258  1.00  0.00     0.044 C 
ATOM      6  C   UNL     1      13.092   2.715  -1.658  1.00  0.00    -0.051 A 
ATOM      7  C   UNL     1      13.640   1.620  -2.341  1.00  0.00     0.004 A 
ATOM      8  C   UNL     1      12.548   2.527  -0.380  1.00  0.00     0.004 A 
ATOM      9  C   UNL     1      13.619   0.346  -1.765  1.00  0.00     0.004 A 
ATOM     10  C   UNL     1      12.524   1.253   0.197  1.00  0.00     0.004 A 
ENDBRANCH   2   4
ENDBRANCH   1   2
BRANCH   1  11
ATOM     11  C   UNL     1      14.738  -1.505   2.048  1.00  0.00     0.028 C 
BRANCH  11  12
ATOM     12  C   UNL     1      15.675  -1.217   0.903  1.00  0.00    -0.028 C 
ATOM     13  C   UNL     1      16.861  -0.580   1.035  1.00  0.00    -0.080 C 
ATOM     14  C   UNL     1      17.735  -0.363  -0.172  1.00  0.00     0.039 C 
ATOM     15  C   UNL     1      17.331  -0.026   2.359  1.00  0.00     0.039 C 
ENDBRANCH  11  12
ENDBRANCH   1  11
TORSDOF 4
ENDMDL
