MODEL 1
REMARK VINA RESULT:    -3.888      0.000      0.000
REMARK INTER + INTRA:         -14.965
REMARK INTER:                 -10.252
REMARK INTRA:                  -4.713
REMARK UNBOUND:                -4.713
REMARK SMILES CCCCCCCCCCCCCCCCCCCCCCCCCCCCCC(=O)[O-]
REMARK SMILES IDX 16 1 17 2 18 3 19 4 20 5 21 6 22 7 23 8 24 9 25 10 26 11
REMARK SMILES IDX 27 12 28 13 29 14 30 15 31 16 32 17 15 18 14 19 13 20 12 21
REMARK SMILES IDX 11 22 10 23 9 24 8 25 7 26 6 27 5 28 4 29 3 30 2 31 1 32
REMARK H PARENT
REMARK Flexibility Score: inf
ROOT
ATOM      1  C   UNL     1      -4.292  -1.315  12.009  1.00  0.00     0.000 C 
ENDROOT
BRANCH   1   2
ATOM      2  C   UNL     1      -4.804  -2.759  11.851  1.00  0.00     0.000 C 
BRANCH   2   3
ATOM      3  C   UNL     1      -6.288  -2.889  11.457  1.00  0.00     0.000 C 
BRANCH   3   4
ATOM      4  C   UNL     1      -6.530  -3.947  10.371  1.00  0.00     0.000 C 
BRANCH   4   5
ATOM      5  C   UNL     1      -5.428  -3.902   9.302  1.00  0.00     0.000 C 
BRANCH   5   6
ATOM      6  C   UNL     1      -5.734  -2.903   8.171  1.00  0.00     0.000 C 
BRANCH   6   7
ATOM      7  C   UNL     1      -5.081  -3.238   6.815  1.00  0.00     0.000 C 
BRANCH   7   8
ATOM      8  C   UNL     1      -4.098  -4.426   6.838  1.00  0.00     0.000 C 
BRANCH   8   9
ATOM      9  C   UNL     1      -2.625  -4.054   6.589  1.00  0.00     0.000 C 
BRANCH   9  10
ATOM     10  C   UNL     1      -2.134  -2.920   7.502  1.00  0.00     0.000 C 
BRANCH  10  11
ATOM     11  C   UNL     1      -1.722  -1.689   6.682  1.00  0.00     0.000 C 
BRANCH  11  12
ATOM     12  C   UNL     1      -0.542  -1.990   5.732  1.00  0.00     0.000 C 
BRANCH  12  13
ATOM     13  C   UNL     1      -0.793  -1.557   4.278  1.00  0.00     0.006 C 
BRANCH  13  14
ATOM     14  C   UNL     1      -2.281  -1.537   3.906  1.00  0.00     0.053 C 
BRANCH  14  15
ATOM     15  C   UNL     1      -2.555  -2.470   2.769  1.00  0.00     0.041 C 
ATOM     16  O   UNL     1      -2.951  -3.645   2.993  1.00  0.00    -0.550 OA
ATOM     17  O   UNL     1      -2.384  -2.039   1.458  1.00  0.00    -0.550 OA
ENDBRANCH  14  15
ENDBRANCH  13  14
ENDBRANCH  12  13
ENDBRANCH  11  12
ENDBRANCH  10  11
ENDBRANCH   9  10
ENDBRANCH   8   9
ENDBRANCH   7   8
ENDBRANCH   6   7
ENDBRANCH   5   6
ENDBRANCH   4   5
ENDBRANCH   3   4
ENDBRANCH   2   3
ENDBRANCH   1   2
BRANCH   1  18
ATOM     18  C   UNL     1      -4.704  -0.401  10.842  1.00  0.00     0.000 C 
BRANCH  18  19
ATOM     19  C   UNL     1      -3.620  -0.311   9.754  1.00  0.00     0.000 C 
BRANCH  19  20
ATOM     20  C   UNL     1      -2.215  -0.629  10.293  1.00  0.00     0.000 C 
BRANCH  20  21
ATOM     21  C   UNL     1      -1.324   0.622  10.392  1.00  0.00     0.000 C 
BRANCH  21  22
ATOM     22  C   UNL     1      -0.778   1.068   9.026  1.00  0.00     0.000 C 
BRANCH  22  23
ATOM     23  C   UNL     1      -0.992   2.569   8.758  1.00  0.00     0.000 C 
BRANCH  23  24
ATOM     24  C   UNL     1      -2.180   2.905   7.835  1.00  0.00    -0.000 C 
BRANCH  24  25
ATOM     25  C   UNL     1      -2.649   1.754   6.923  1.00  0.00    -0.000 C 
BRANCH  25  26
ATOM     26  C   UNL     1      -3.698   2.145   5.863  1.00  0.00    -0.000 C 
BRANCH  26  27
ATOM     27  C   UNL     1      -3.256   1.938   4.403  1.00  0.00    -0.000 C 
BRANCH  27  28
ATOM     28  C   UNL     1      -3.045   3.236   3.602  1.00  0.00    -0.000 C 
BRANCH  28  29
ATOM     29  C   UNL     1      -1.632   3.836   3.763  1.00  0.00    -0.000 C 
BRANCH  29  30
ATOM     30  C   UNL     1      -1.634   5.120   4.604  1.00  0.00    -0.000 C 
BRANCH  30  31
ATOM     31  C   UNL     1      -0.367   5.218   5.461  1.00  0.00    -0.003 C 
ATOM     32  C   UNL     1       0.867   5.468   4.597  1.00  0.00     0.004 C 
ENDBRANCH  30  31
ENDBRANCH  29  30
ENDBRANCH  28  29
ENDBRANCH  27  28
ENDBRANCH  26  27
ENDBRANCH  25  26
ENDBRANCH  24  25
ENDBRANCH  23  24
ENDBRANCH  22  23
ENDBRANCH  21  22
ENDBRANCH  20  21
ENDBRANCH  19  20
ENDBRANCH  18  19
ENDBRANCH   1  18
TORSDOF 28
ENDMDL
MODEL 2
REMARK VINA RESULT:    -3.851      1.529      2.357
REMARK INTER + INTRA:         -14.867
REMARK INTER:                 -10.478
REMARK INTRA:                  -4.389
REMARK UNBOUND:                -4.713
REMARK SMILES CCCCCCCCCCCCCCCCCCCCCCCCCCCCCC(=O)[O-]
REMARK SMILES IDX 16 1 17 2 18 3 19 4 20 5 21 6 22 7 23 8 24 9 25 10 26 11
REMARK SMILES IDX 27 12 28 13 29 14 30 15 31 16 32 17 15 18 14 19 13 20 12 21
REMARK SMILES IDX 11 22 10 23 9 24 8 25 7 26 6 27 5 28 4 29 3 30 2 31 1 32
REMARK H PARENT
REMARK Flexibility Score: inf
ROOT
ATOM      1  C   UNL     1      -5.413  -2.114  11.531  1.00  0.00     0.000 C 
ENDROOT
BRANCH   1   2
ATOM      2  C   UNL     1      -6.107  -3.398  11.039  1.00  0.00     0.000 C 
BRANCH   2   3
ATOM      3  C   UNL     1      -5.750  -3.827   9.603  1.00  0.00     0.000 C 
BRANCH   3   4
ATOM      4  C   UNL     1      -5.984  -2.717   8.569  1.00  0.00     0.000 C 
BRANCH   4   5
ATOM      5  C   UNL     1      -5.045  -2.878   7.364  1.00  0.00     0.000 C 
BRANCH   5   6
ATOM      6  C   UNL     1      -4.286  -4.217   7.375  1.00  0.00     0.000 C 
BRANCH   6   7
ATOM      7  C   UNL     1      -2.996  -4.239   6.531  1.00  0.00     0.000 C 
BRANCH   7   8
ATOM      8  C   UNL     1      -1.809  -3.458   7.131  1.00  0.00     0.000 C 
BRANCH   8   9
ATOM      9  C   UNL     1      -1.244  -2.342   6.232  1.00  0.00     0.000 C 
BRANCH   9  10
ATOM     10  C   UNL     1      -2.202  -1.953   5.096  1.00  0.00     0.000 C 
BRANCH  10  11
ATOM     11  C   UNL     1      -2.073  -0.462   4.750  1.00  0.00     0.000 C 
BRANCH  11  12
ATOM     12  C   UNL     1      -1.911  -0.227   3.233  1.00  0.00     0.000 C 
BRANCH  12  13
ATOM     13  C   UNL     1      -0.485  -0.482   2.716  1.00  0.00     0.006 C 
BRANCH  13  14
ATOM     14  C   UNL     1      -0.359  -1.788   1.921  1.00  0.00     0.053 C 
BRANCH  14  15
ATOM     15  C   UNL     1      -0.098  -1.505   0.476  1.00  0.00     0.041 C 
ATOM     16  O   UNL     1      -0.524  -2.291  -0.413  1.00  0.00    -0.550 OA
ATOM     17  O   UNL     1       0.612  -0.368   0.106  1.00  0.00    -0.550 OA
ENDBRANCH  14  15
ENDBRANCH  13  14
ENDBRANCH  12  13
ENDBRANCH  11  12
ENDBRANCH  10  11
ENDBRANCH   9  10
ENDBRANCH   8   9
ENDBRANCH   7   8
ENDBRANCH   6   7
ENDBRANCH   5   6
ENDBRANCH   4   5
ENDBRANCH   3   4
ENDBRANCH   2   3
ENDBRANCH   1   2
BRANCH   1  18
ATOM     18  C   UNL     1      -3.889  -2.275  11.675  1.00  0.00     0.000 C 
BRANCH  18  19
ATOM     19  C   UNL     1      -3.121  -1.015  11.241  1.00  0.00     0.000 C 
BRANCH  19  20
ATOM     20  C   UNL     1      -2.365  -1.212   9.915  1.00  0.00     0.000 C 
BRANCH  20  21
ATOM     21  C   UNL     1      -2.839  -0.245   8.816  1.00  0.00     0.000 C 
BRANCH  21  22
ATOM     22  C   UNL     1      -1.713   0.668   8.305  1.00  0.00     0.000 C 
BRANCH  22  23
ATOM     23  C   UNL     1      -1.418   1.842   9.257  1.00  0.00     0.000 C 
BRANCH  23  24
ATOM     24  C   UNL     1      -0.446   2.904   8.705  1.00  0.00    -0.000 C 
BRANCH  24  25
ATOM     25  C   UNL     1      -1.105   4.218   8.241  1.00  0.00    -0.000 C 
BRANCH  25  26
ATOM     26  C   UNL     1      -2.628   4.142   8.014  1.00  0.00    -0.000 C 
BRANCH  26  27
ATOM     27  C   UNL     1      -3.083   4.391   6.564  1.00  0.00    -0.000 C 
BRANCH  27  28
ATOM     28  C   UNL     1      -2.599   3.340   5.547  1.00  0.00    -0.000 C 
BRANCH  28  29
ATOM     29  C   UNL     1      -1.547   3.879   4.556  1.00  0.00    -0.000 C 
BRANCH  29  30
ATOM     30  C   UNL     1      -1.681   5.390   4.324  1.00  0.00    -0.000 C 
BRANCH  30  31
ATOM     31  C   UNL     1      -0.359   6.111   4.610  1.00  0.00    -0.003 C 
ATOM     32  C   UNL     1       0.774   5.114   4.840  1.00  0.00     0.004 C 
ENDBRANCH  30  31
ENDBRANCH  29  30
ENDBRANCH  28  29
ENDBRANCH  27  28
ENDBRANCH  26  27
ENDBRANCH  25  26
ENDBRANCH  24  25
ENDBRANCH  23  24
ENDBRANCH  22  23
ENDBRANCH  21  22
ENDBRANCH  20  21
ENDBRANCH  19  20
ENDBRANCH  18  19
ENDBRANCH   1  18
TORSDOF 28
ENDMDL
MODEL 3
REMARK VINA RESULT:    -3.843      2.743      4.990
REMARK INTER + INTRA:         -14.846
REMARK INTER:                  -9.724
REMARK INTRA:                  -5.122
REMARK UNBOUND:                -4.713
REMARK SMILES CCCCCCCCCCCCCCCCCCCCCCCCCCCCCC(=O)[O-]
REMARK SMILES IDX 16 1 17 2 18 3 19 4 20 5 21 6 22 7 23 8 24 9 25 10 26 11
REMARK SMILES IDX 27 12 28 13 29 14 30 15 31 16 32 17 15 18 14 19 13 20 12 21
REMARK SMILES IDX 11 22 10 23 9 24 8 25 7 26 6 27 5 28 4 29 3 30 2 31 1 32
REMARK H PARENT
REMARK Flexibility Score: inf
ROOT
ATOM      1  C   UNL     1      -5.339  -3.909   9.066  1.00  0.00     0.000 C 
ENDROOT
BRANCH   1   2
ATOM      2  C   UNL     1      -6.450  -3.794  10.127  1.00  0.00     0.000 C 
BRANCH   2   3
ATOM      3  C   UNL     1      -6.095  -2.940  11.359  1.00  0.00     0.000 C 
BRANCH   3   4
ATOM      4  C   UNL     1      -4.591  -2.654  11.477  1.00  0.00     0.000 C 
BRANCH   4   5
ATOM      5  C   UNL     1      -4.340  -1.271  12.098  1.00  0.00     0.000 C 
BRANCH   5   6
ATOM      6  C   UNL     1      -3.292  -0.451  11.324  1.00  0.00     0.000 C 
BRANCH   6   7
ATOM      7  C   UNL     1      -2.440  -1.261  10.328  1.00  0.00     0.000 C 
BRANCH   7   8
ATOM      8  C   UNL     1      -2.308  -0.639   8.923  1.00  0.00     0.000 C 
BRANCH   8   9
ATOM      9  C   UNL     1      -3.508   0.216   8.476  1.00  0.00     0.000 C 
BRANCH   9  10
ATOM     10  C   UNL     1      -3.541   0.447   6.958  1.00  0.00     0.000 C 
BRANCH  10  11
ATOM     11  C   UNL     1      -2.972   1.826   6.595  1.00  0.00     0.000 C 
BRANCH  11  12
ATOM     12  C   UNL     1      -3.537   2.945   7.496  1.00  0.00     0.000 C 
BRANCH  12  13
ATOM     13  C   UNL     1      -2.460   3.882   8.068  1.00  0.00     0.006 C 
BRANCH  13  14
ATOM     14  C   UNL     1      -1.061   3.253   8.078  1.00  0.00     0.053 C 
BRANCH  14  15
ATOM     15  C   UNL     1      -0.558   3.099   9.478  1.00  0.00     0.041 C 
ATOM     16  O   UNL     1      -1.215   2.428  10.318  1.00  0.00    -0.550 OA
ATOM     17  O   UNL     1       0.643   3.690   9.856  1.00  0.00    -0.550 OA
ENDBRANCH  14  15
ENDBRANCH  13  14
ENDBRANCH  12  13
ENDBRANCH  11  12
ENDBRANCH  10  11
ENDBRANCH   9  10
ENDBRANCH   8   9
ENDBRANCH   7   8
ENDBRANCH   6   7
ENDBRANCH   5   6
ENDBRANCH   4   5
ENDBRANCH   3   4
ENDBRANCH   2   3
ENDBRANCH   1   2
BRANCH   1  18
ATOM     18  C   UNL     1      -5.493  -2.889   7.924  1.00  0.00     0.000 C 
BRANCH  18  19
ATOM     19  C   UNL     1      -4.546  -3.178   6.747  1.00  0.00     0.000 C 
BRANCH  19  20
ATOM     20  C   UNL     1      -3.398  -4.128   7.131  1.00  0.00     0.000 C 
BRANCH  20  21
ATOM     21  C   UNL     1      -2.012  -3.501   6.902  1.00  0.00     0.000 C 
BRANCH  21  22
ATOM     22  C   UNL     1      -2.009  -2.474   5.758  1.00  0.00     0.000 C 
BRANCH  22  23
ATOM     23  C   UNL     1      -0.591  -2.009   5.377  1.00  0.00     0.000 C 
BRANCH  23  24
ATOM     24  C   UNL     1      -0.512  -1.109   4.128  1.00  0.00    -0.000 C 
BRANCH  24  25
ATOM     25  C   UNL     1      -1.856  -0.510   3.665  1.00  0.00    -0.000 C 
BRANCH  25  26
ATOM     26  C   UNL     1      -1.742   0.766   2.807  1.00  0.00    -0.000 C 
BRANCH  26  27
ATOM     27  C   UNL     1      -2.962   1.703   2.871  1.00  0.00    -0.000 C 
BRANCH  27  28
ATOM     28  C   UNL     1      -2.663   3.175   2.533  1.00  0.00    -0.000 C 
BRANCH  28  29
ATOM     29  C   UNL     1      -2.561   4.085   3.776  1.00  0.00    -0.000 C 
BRANCH  29  30
ATOM     30  C   UNL     1      -1.131   4.160   4.330  1.00  0.00    -0.000 C 
BRANCH  30  31
ATOM     31  C   UNL     1      -0.623   5.606   4.345  1.00  0.00    -0.003 C 
ATOM     32  C   UNL     1      -1.555   6.511   5.147  1.00  0.00     0.004 C 
ENDBRANCH  30  31
ENDBRANCH  29  30
ENDBRANCH  28  29
ENDBRANCH  27  28
ENDBRANCH  26  27
ENDBRANCH  25  26
ENDBRANCH  24  25
ENDBRANCH  23  24
ENDBRANCH  22  23
ENDBRANCH  21  22
ENDBRANCH  20  21
ENDBRANCH  19  20
ENDBRANCH  18  19
ENDBRANCH   1  18
TORSDOF 28
ENDMDL
MODEL 4
REMARK VINA RESULT:    -3.821      1.829      6.339
REMARK INTER + INTRA:         -14.789
REMARK INTER:                  -9.486
REMARK INTRA:                  -5.303
REMARK UNBOUND:                -4.713
REMARK SMILES CCCCCCCCCCCCCCCCCCCCCCCCCCCCCC(=O)[O-]
REMARK SMILES IDX 16 1 17 2 18 3 19 4 20 5 21 6 22 7 23 8 24 9 25 10 26 11
REMARK SMILES IDX 27 12 28 13 29 14 30 15 31 16 32 17 15 18 14 19 13 20 12 21
REMARK SMILES IDX 11 22 10 23 9 24 8 25 7 26 6 27 5 28 4 29 3 30 2 31 1 32
REMARK H PARENT
REMARK Flexibility Score: inf
ROOT
ATOM      1  C   UNL     1      -1.905  -3.360   7.152  1.00  0.00     0.000 C 
ENDROOT
BRANCH   1   2
ATOM      2  C   UNL     1      -1.587  -1.978   6.551  1.00  0.00     0.000 C 
BRANCH   2   3
ATOM      3  C   UNL     1      -0.497  -1.972   5.462  1.00  0.00     0.000 C 
BRANCH   3   4
ATOM      4  C   UNL     1      -0.924  -1.224   4.191  1.00  0.00     0.000 C 
BRANCH   4   5
ATOM      5  C   UNL     1      -2.197  -0.400   4.437  1.00  0.00     0.000 C 
BRANCH   5   6
ATOM      6  C   UNL     1      -2.906   0.007   3.132  1.00  0.00     0.000 C 
BRANCH   6   7
ATOM      7  C   UNL     1      -2.255   1.185   2.381  1.00  0.00     0.000 C 
BRANCH   7   8
ATOM      8  C   UNL     1      -3.208   2.349   2.040  1.00  0.00     0.000 C 
BRANCH   8   9
ATOM      9  C   UNL     1      -2.798   3.715   2.619  1.00  0.00     0.000 C 
BRANCH   9  10
ATOM     10  C   UNL     1      -1.769   3.596   3.754  1.00  0.00     0.000 C 
BRANCH  10  11
ATOM     11  C   UNL     1      -2.366   4.055   5.092  1.00  0.00     0.000 C 
BRANCH  11  12
ATOM     12  C   UNL     1      -2.870   2.868   5.943  1.00  0.00     0.000 C 
BRANCH  12  13
ATOM     13  C   UNL     1      -4.402   2.800   6.062  1.00  0.00     0.006 C 
BRANCH  13  14
ATOM     14  C   UNL     1      -4.923   1.373   6.276  1.00  0.00     0.053 C 
BRANCH  14  15
ATOM     15  C   UNL     1      -5.733   0.923   5.102  1.00  0.00     0.041 C 
ATOM     16  O   UNL     1      -6.041  -0.292   4.971  1.00  0.00    -0.550 OA
ATOM     17  O   UNL     1      -6.157   1.847   4.153  1.00  0.00    -0.550 OA
ENDBRANCH  14  15
ENDBRANCH  13  14
ENDBRANCH  12  13
ENDBRANCH  11  12
ENDBRANCH  10  11
ENDBRANCH   9  10
ENDBRANCH   8   9
ENDBRANCH   7   8
ENDBRANCH   6   7
ENDBRANCH   5   6
ENDBRANCH   4   5
ENDBRANCH   3   4
ENDBRANCH   2   3
ENDBRANCH   1   2
BRANCH   1  18
ATOM     18  C   UNL     1      -3.407  -3.692   7.128  1.00  0.00     0.000 C 
BRANCH  18  19
ATOM     19  C   UNL     1      -4.289  -2.434   7.209  1.00  0.00     0.000 C 
BRANCH  19  20
ATOM     20  C   UNL     1      -5.495  -2.617   8.148  1.00  0.00     0.000 C 
BRANCH  20  21
ATOM     21  C   UNL     1      -5.423  -3.928   8.952  1.00  0.00     0.000 C 
BRANCH  21  22
ATOM     22  C   UNL     1      -5.875  -3.752  10.410  1.00  0.00     0.000 C 
BRANCH  22  23
ATOM     23  C   UNL     1      -6.171  -2.285  10.772  1.00  0.00     0.000 C 
BRANCH  23  24
ATOM     24  C   UNL     1      -5.091  -1.592  11.626  1.00  0.00    -0.000 C 
BRANCH  24  25
ATOM     25  C   UNL     1      -3.734  -2.322  11.688  1.00  0.00    -0.000 C 
BRANCH  25  26
ATOM     26  C   UNL     1      -2.662  -1.794  10.713  1.00  0.00    -0.000 C 
BRANCH  26  27
ATOM     27  C   UNL     1      -2.595  -0.260  10.590  1.00  0.00    -0.000 C 
BRANCH  27  28
ATOM     28  C   UNL     1      -2.849   0.284   9.172  1.00  0.00    -0.000 C 
BRANCH  28  29
ATOM     29  C   UNL     1      -1.581   0.838   8.488  1.00  0.00    -0.000 C 
BRANCH  29  30
ATOM     30  C   UNL     1      -0.769   1.756   9.413  1.00  0.00    -0.000 C 
BRANCH  30  31
ATOM     31  C   UNL     1      -0.459   3.091   8.728  1.00  0.00    -0.003 C 
ATOM     32  C   UNL     1       0.438   3.965   9.601  1.00  0.00     0.004 C 
ENDBRANCH  30  31
ENDBRANCH  29  30
ENDBRANCH  28  29
ENDBRANCH  27  28
ENDBRANCH  26  27
ENDBRANCH  25  26
ENDBRANCH  24  25
ENDBRANCH  23  24
ENDBRANCH  22  23
ENDBRANCH  21  22
ENDBRANCH  20  21
ENDBRANCH  19  20
ENDBRANCH  18  19
ENDBRANCH   1  18
TORSDOF 28
ENDMDL
MODEL 5
REMARK VINA RESULT:    -3.812      3.539      7.164
REMARK INTER + INTRA:         -14.764
REMARK INTER:                  -8.739
REMARK INTRA:                  -6.026
REMARK UNBOUND:                -4.713
REMARK SMILES CCCCCCCCCCCCCCCCCCCCCCCCCCCCCC(=O)[O-]
REMARK SMILES IDX 16 1 17 2 18 3 19 4 20 5 21 6 22 7 23 8 24 9 25 10 26 11
REMARK SMILES IDX 27 12 28 13 29 14 30 15 31 16 32 17 15 18 14 19 13 20 12 21
REMARK SMILES IDX 11 22 10 23 9 24 8 25 7 26 6 27 5 28 4 29 3 30 2 31 1 32
REMARK H PARENT
REMARK Flexibility Score: inf
ROOT
ATOM      1  C   UNL     1      -3.104  -4.470   6.421  1.00  0.00     0.000 C 
ENDROOT
BRANCH   1   2
ATOM      2  C   UNL     1      -2.091  -3.531   7.103  1.00  0.00     0.000 C 
BRANCH   2   3
ATOM      3  C   UNL     1      -1.518  -2.420   6.203  1.00  0.00     0.000 C 
BRANCH   3   4
ATOM      4  C   UNL     1      -1.630  -1.023   6.830  1.00  0.00     0.000 C 
BRANCH   4   5
ATOM      5  C   UNL     1      -2.567  -0.124   6.010  1.00  0.00     0.000 C 
BRANCH   5   6
ATOM      6  C   UNL     1      -3.819  -0.868   5.509  1.00  0.00     0.000 C 
BRANCH   6   7
ATOM      7  C   UNL     1      -5.096  -0.617   6.335  1.00  0.00     0.000 C 
BRANCH   7   8
ATOM      8  C   UNL     1      -5.289  -1.557   7.542  1.00  0.00     0.000 C 
BRANCH   8   9
ATOM      9  C   UNL     1      -4.787  -0.999   8.887  1.00  0.00     0.000 C 
BRANCH   9  10
ATOM     10  C   UNL     1      -4.083  -2.060   9.746  1.00  0.00     0.000 C 
BRANCH  10  11
ATOM     11  C   UNL     1      -2.768  -1.520  10.325  1.00  0.00     0.000 C 
BRANCH  11  12
ATOM     12  C   UNL     1      -2.692   0.021  10.261  1.00  0.00     0.000 C 
BRANCH  12  13
ATOM     13  C   UNL     1      -1.257   0.567  10.175  1.00  0.00     0.006 C 
BRANCH  13  14
ATOM     14  C   UNL     1      -1.108   1.705   9.157  1.00  0.00     0.053 C 
BRANCH  14  15
ATOM     15  C   UNL     1      -0.493   2.910   9.794  1.00  0.00     0.041 C 
ATOM     16  O   UNL     1       0.204   3.705   9.109  1.00  0.00    -0.550 OA
ATOM     17  O   UNL     1      -0.696   3.162  11.147  1.00  0.00    -0.550 OA
ENDBRANCH  14  15
ENDBRANCH  13  14
ENDBRANCH  12  13
ENDBRANCH  11  12
ENDBRANCH  10  11
ENDBRANCH   9  10
ENDBRANCH   8   9
ENDBRANCH   7   8
ENDBRANCH   6   7
ENDBRANCH   5   6
ENDBRANCH   4   5
ENDBRANCH   3   4
ENDBRANCH   2   3
ENDBRANCH   1   2
BRANCH   1  18
ATOM     18  C   UNL     1      -4.128  -5.063   7.403  1.00  0.00     0.000 C 
BRANCH  18  19
ATOM     19  C   UNL     1      -4.542  -6.496   7.028  1.00  0.00     0.000 C 
BRANCH  19  20
ATOM     20  C   UNL     1      -3.665  -7.092   5.914  1.00  0.00     0.000 C 
BRANCH  20  21
ATOM     21  C   UNL     1      -4.474  -7.455   4.657  1.00  0.00     0.000 C 
BRANCH  21  22
ATOM     22  C   UNL     1      -5.981  -7.210   4.832  1.00  0.00     0.000 C 
BRANCH  22  23
ATOM     23  C   UNL     1      -6.549  -6.215   3.803  1.00  0.00     0.000 C 
BRANCH  23  24
ATOM     24  C   UNL     1      -6.939  -4.836   4.372  1.00  0.00    -0.000 C 
BRANCH  24  25
ATOM     25  C   UNL     1      -5.822  -3.774   4.340  1.00  0.00    -0.000 C 
BRANCH  25  26
ATOM     26  C   UNL     1      -5.040  -3.686   3.014  1.00  0.00    -0.000 C 
BRANCH  26  27
ATOM     27  C   UNL     1      -3.517  -3.520   3.167  1.00  0.00    -0.000 C 
BRANCH  27  28
ATOM     28  C   UNL     1      -2.724  -3.596   1.850  1.00  0.00    -0.000 C 
BRANCH  28  29
ATOM     29  C   UNL     1      -1.804  -2.380   1.613  1.00  0.00    -0.000 C 
BRANCH  29  30
ATOM     30  C   UNL     1      -0.657  -2.306   2.630  1.00  0.00    -0.000 C 
BRANCH  30  31
ATOM     31  C   UNL     1      -0.325  -0.851   2.980  1.00  0.00    -0.003 C 
ATOM     32  C   UNL     1      -1.439   0.093   2.533  1.00  0.00     0.004 C 
ENDBRANCH  30  31
ENDBRANCH  29  30
ENDBRANCH  28  29
ENDBRANCH  27  28
ENDBRANCH  26  27
ENDBRANCH  25  26
ENDBRANCH  24  25
ENDBRANCH  23  24
ENDBRANCH  22  23
ENDBRANCH  21  22
ENDBRANCH  20  21
ENDBRANCH  19  20
ENDBRANCH  18  19
ENDBRANCH   1  18
TORSDOF 28
ENDMDL
MODEL 6
REMARK VINA RESULT:    -3.811      3.060      5.795
REMARK INTER + INTRA:         -14.763
REMARK INTER:                  -8.466
REMARK INTRA:                  -6.297
REMARK UNBOUND:                -4.713
REMARK SMILES CCCCCCCCCCCCCCCCCCCCCCCCCCCCCC(=O)[O-]
REMARK SMILES IDX 16 1 17 2 18 3 19 4 20 5 21 6 22 7 23 8 24 9 25 10 26 11
REMARK SMILES IDX 27 12 28 13 29 14 30 15 31 16 32 17 15 18 14 19 13 20 12 21
REMARK SMILES IDX 11 22 10 23 9 24 8 25 7 26 6 27 5 28 4 29 3 30 2 31 1 32
REMARK H PARENT
REMARK Flexibility Score: inf
ROOT
ATOM      1  C   UNL     1      -7.630   0.135   9.575  1.00  0.00     0.000 C 
ENDROOT
BRANCH   1   2
ATOM      2  C   UNL     1      -7.845  -0.097  11.082  1.00  0.00     0.000 C 
BRANCH   2   3
ATOM      3  C   UNL     1      -8.774  -1.273  11.438  1.00  0.00     0.000 C 
BRANCH   3   4
ATOM      4  C   UNL     1      -8.177  -2.210  12.498  1.00  0.00     0.000 C 
BRANCH   4   5
ATOM      5  C   UNL     1      -8.044  -3.641  11.957  1.00  0.00     0.000 C 
BRANCH   5   6
ATOM      6  C   UNL     1      -7.580  -3.683  10.490  1.00  0.00     0.000 C 
BRANCH   6   7
ATOM      7  C   UNL     1      -6.101  -4.070  10.288  1.00  0.00     0.000 C 
BRANCH   7   8
ATOM      8  C   UNL     1      -5.112  -2.888  10.273  1.00  0.00     0.000 C 
BRANCH   8   9
ATOM      9  C   UNL     1      -4.288  -2.713  11.562  1.00  0.00     0.000 C 
BRANCH   9  10
ATOM     10  C   UNL     1      -4.709  -1.479  12.374  1.00  0.00     0.000 C 
BRANCH  10  11
ATOM     11  C   UNL     1      -4.002  -0.215  11.866  1.00  0.00     0.000 C 
BRANCH  11  12
ATOM     12  C   UNL     1      -2.693  -0.541  11.115  1.00  0.00     0.000 C 
BRANCH  12  13
ATOM     13  C   UNL     1      -1.746   0.662  10.971  1.00  0.00     0.006 C 
BRANCH  13  14
ATOM     14  C   UNL     1      -2.451   1.922  10.453  1.00  0.00     0.053 C 
BRANCH  14  15
ATOM     15  C   UNL     1      -2.127   2.157   9.012  1.00  0.00     0.041 C 
ATOM     16  O   UNL     1      -0.934   2.095   8.612  1.00  0.00    -0.550 OA
ATOM     17  O   UNL     1      -3.144   2.437   8.106  1.00  0.00    -0.550 OA
ENDBRANCH  14  15
ENDBRANCH  13  14
ENDBRANCH  12  13
ENDBRANCH  11  12
ENDBRANCH  10  11
ENDBRANCH   9  10
ENDBRANCH   8   9
ENDBRANCH   7   8
ENDBRANCH   6   7
ENDBRANCH   5   6
ENDBRANCH   4   5
ENDBRANCH   3   4
ENDBRANCH   2   3
ENDBRANCH   1   2
BRANCH   1  18
ATOM     18  C   UNL     1      -6.196   0.579   9.235  1.00  0.00     0.000 C 
BRANCH  18  19
ATOM     19  C   UNL     1      -5.602  -0.207   8.054  1.00  0.00     0.000 C 
BRANCH  19  20
ATOM     20  C   UNL     1      -6.589  -1.234   7.471  1.00  0.00     0.000 C 
BRANCH  20  21
ATOM     21  C   UNL     1      -6.027  -1.954   6.232  1.00  0.00     0.000 C 
BRANCH  21  22
ATOM     22  C   UNL     1      -5.525  -3.372   6.549  1.00  0.00     0.000 C 
BRANCH  22  23
ATOM     23  C   UNL     1      -4.171  -3.687   5.889  1.00  0.00     0.000 C 
BRANCH  23  24
ATOM     24  C   UNL     1      -3.147  -4.391   6.801  1.00  0.00    -0.000 C 
BRANCH  24  25
ATOM     25  C   UNL     1      -1.997  -3.498   7.308  1.00  0.00    -0.000 C 
BRANCH  25  26
ATOM     26  C   UNL     1      -2.414  -2.076   7.735  1.00  0.00    -0.000 C 
BRANCH  26  27
ATOM     27  C   UNL     1      -1.770  -0.938   6.920  1.00  0.00    -0.000 C 
BRANCH  27  28
ATOM     28  C   UNL     1      -2.694  -0.295   5.870  1.00  0.00    -0.000 C 
BRANCH  28  29
ATOM     29  C   UNL     1      -2.147  -0.386   4.429  1.00  0.00    -0.000 C 
BRANCH  29  30
ATOM     30  C   UNL     1      -0.962  -1.355   4.313  1.00  0.00    -0.000 C 
BRANCH  30  31
ATOM     31  C   UNL     1      -1.128  -2.284   3.106  1.00  0.00    -0.003 C 
ATOM     32  C   UNL     1      -2.602  -2.552   2.814  1.00  0.00     0.004 C 
ENDBRANCH  30  31
ENDBRANCH  29  30
ENDBRANCH  28  29
ENDBRANCH  27  28
ENDBRANCH  26  27
ENDBRANCH  25  26
ENDBRANCH  24  25
ENDBRANCH  23  24
ENDBRANCH  22  23
ENDBRANCH  21  22
ENDBRANCH  20  21
ENDBRANCH  19  20
ENDBRANCH  18  19
ENDBRANCH   1  18
TORSDOF 28
ENDMDL
MODEL 7
REMARK VINA RESULT:    -3.764      2.283      6.216
REMARK INTER + INTRA:         -14.637
REMARK INTER:                  -8.659
REMARK INTRA:                  -5.978
REMARK UNBOUND:                -4.713
REMARK SMILES CCCCCCCCCCCCCCCCCCCCCCCCCCCCCC(=O)[O-]
REMARK SMILES IDX 16 1 17 2 18 3 19 4 20 5 21 6 22 7 23 8 24 9 25 10 26 11
REMARK SMILES IDX 27 12 28 13 29 14 30 15 31 16 32 17 15 18 14 19 13 20 12 21
REMARK SMILES IDX 11 22 10 23 9 24 8 25 7 26 6 27 5 28 4 29 3 30 2 31 1 32
REMARK H PARENT
REMARK Flexibility Score: inf
ROOT
ATOM      1  C   UNL     1      -0.859  -1.958   5.952  1.00  0.00     0.000 C 
ENDROOT
BRANCH   1   2
ATOM      2  C   UNL     1      -1.683  -2.985   6.751  1.00  0.00     0.000 C 
BRANCH   2   3
ATOM      3  C   UNL     1      -3.200  -2.716   6.796  1.00  0.00     0.000 C 
BRANCH   3   4
ATOM      4  C   UNL     1      -4.031  -3.996   6.962  1.00  0.00     0.000 C 
BRANCH   4   5
ATOM      5  C   UNL     1      -3.162  -5.247   6.767  1.00  0.00     0.000 C 
BRANCH   5   6
ATOM      6  C   UNL     1      -3.993  -6.518   6.514  1.00  0.00     0.000 C 
BRANCH   6   7
ATOM      7  C   UNL     1      -3.588  -7.320   5.261  1.00  0.00     0.000 C 
BRANCH   7   8
ATOM      8  C   UNL     1      -4.762  -7.915   4.457  1.00  0.00     0.000 C 
BRANCH   8   9
ATOM      9  C   UNL     1      -6.154  -7.390   4.855  1.00  0.00     0.000 C 
BRANCH   9  10
ATOM     10  C   UNL     1      -6.694  -6.337   3.875  1.00  0.00     0.000 C 
BRANCH  10  11
ATOM     11  C   UNL     1      -6.736  -4.947   4.525  1.00  0.00     0.000 C 
BRANCH  11  12
ATOM     12  C   UNL     1      -5.779  -3.951   3.834  1.00  0.00     0.000 C 
BRANCH  12  13
ATOM     13  C   UNL     1      -4.862  -4.601   2.784  1.00  0.00     0.006 C 
BRANCH  13  14
ATOM     14  C   UNL     1      -3.381  -4.256   2.984  1.00  0.00     0.053 C 
BRANCH  14  15
ATOM     15  C   UNL     1      -2.745  -3.875   1.685  1.00  0.00     0.041 C 
ATOM     16  O   UNL     1      -3.330  -3.082   0.900  1.00  0.00    -0.550 OA
ATOM     17  O   UNL     1      -1.499  -4.389   1.343  1.00  0.00    -0.550 OA
ENDBRANCH  14  15
ENDBRANCH  13  14
ENDBRANCH  12  13
ENDBRANCH  11  12
ENDBRANCH  10  11
ENDBRANCH   9  10
ENDBRANCH   8   9
ENDBRANCH   7   8
ENDBRANCH   6   7
ENDBRANCH   5   6
ENDBRANCH   4   5
ENDBRANCH   3   4
ENDBRANCH   2   3
ENDBRANCH   1   2
BRANCH   1  18
ATOM     18  C   UNL     1      -1.055  -2.086   4.431  1.00  0.00     0.000 C 
BRANCH  18  19
ATOM     19  C   UNL     1      -1.046  -0.722   3.720  1.00  0.00     0.000 C 
BRANCH  19  20
ATOM     20  C   UNL     1      -2.382  -0.409   3.024  1.00  0.00     0.000 C 
BRANCH  20  21
ATOM     21  C   UNL     1      -3.564  -0.372   4.008  1.00  0.00     0.000 C 
BRANCH  21  22
ATOM     22  C   UNL     1      -3.442   0.763   5.037  1.00  0.00     0.000 C 
BRANCH  22  23
ATOM     23  C   UNL     1      -4.501   0.676   6.152  1.00  0.00     0.000 C 
BRANCH  23  24
ATOM     24  C   UNL     1      -3.946   0.752   7.588  1.00  0.00    -0.000 C 
BRANCH  24  25
ATOM     25  C   UNL     1      -2.426   0.986   7.693  1.00  0.00    -0.000 C 
BRANCH  25  26
ATOM     26  C   UNL     1      -1.701   0.116   8.740  1.00  0.00    -0.000 C 
BRANCH  26  27
ATOM     27  C   UNL     1      -1.885   0.568  10.200  1.00  0.00    -0.000 C 
BRANCH  27  28
ATOM     28  C   UNL     1      -2.578  -0.462  11.112  1.00  0.00    -0.000 C 
BRANCH  28  29
ATOM     29  C   UNL     1      -3.056  -1.724  10.364  1.00  0.00    -0.000 C 
BRANCH  29  30
ATOM     30  C   UNL     1      -4.586  -1.809  10.277  1.00  0.00    -0.000 C 
BRANCH  30  31
ATOM     31  C   UNL     1      -5.116  -3.014  11.062  1.00  0.00    -0.003 C 
ATOM     32  C   UNL     1      -5.865  -3.982  10.150  1.00  0.00     0.004 C 
ENDBRANCH  30  31
ENDBRANCH  29  30
ENDBRANCH  28  29
ENDBRANCH  27  28
ENDBRANCH  26  27
ENDBRANCH  25  26
ENDBRANCH  24  25
ENDBRANCH  23  24
ENDBRANCH  22  23
ENDBRANCH  21  22
ENDBRANCH  20  21
ENDBRANCH  19  20
ENDBRANCH  18  19
ENDBRANCH   1  18
TORSDOF 28
ENDMDL
MODEL 8
REMARK VINA RESULT:    -3.733      2.880      6.555
REMARK INTER + INTRA:         -14.557
REMARK INTER:                  -9.108
REMARK INTRA:                  -5.449
REMARK UNBOUND:                -4.713
REMARK SMILES CCCCCCCCCCCCCCCCCCCCCCCCCCCCCC(=O)[O-]
REMARK SMILES IDX 16 1 17 2 18 3 19 4 20 5 21 6 22 7 23 8 24 9 25 10 26 11
REMARK SMILES IDX 27 12 28 13 29 14 30 15 31 16 32 17 15 18 14 19 13 20 12 21
REMARK SMILES IDX 11 22 10 23 9 24 8 25 7 26 6 27 5 28 4 29 3 30 2 31 1 32
REMARK H PARENT
REMARK Flexibility Score: inf
ROOT
ATOM      1  C   UNL     1      -5.364  -2.406  11.517  1.00  0.00     0.000 C 
ENDROOT
BRANCH   1   2
ATOM      2  C   UNL     1      -3.845  -2.346  11.767  1.00  0.00     0.000 C 
BRANCH   2   3
ATOM      3  C   UNL     1      -2.994  -1.957  10.543  1.00  0.00     0.000 C 
BRANCH   3   4
ATOM      4  C   UNL     1      -2.444  -0.526  10.625  1.00  0.00     0.000 C 
BRANCH   4   5
ATOM      5  C   UNL     1      -2.525   0.176   9.261  1.00  0.00     0.000 C 
BRANCH   5   6
ATOM      6  C   UNL     1      -1.336   1.119   9.003  1.00  0.00     0.000 C 
BRANCH   6   7
ATOM      7  C   UNL     1      -1.661   2.349   8.133  1.00  0.00     0.000 C 
BRANCH   7   8
ATOM      8  C   UNL     1      -2.942   2.230   7.284  1.00  0.00     0.000 C 
BRANCH   8   9
ATOM      9  C   UNL     1      -2.750   1.567   5.908  1.00  0.00     0.000 C 
BRANCH   9  10
ATOM     10  C   UNL     1      -3.437   2.341   4.773  1.00  0.00     0.000 C 
BRANCH  10  11
ATOM     11  C   UNL     1      -2.545   2.400   3.524  1.00  0.00     0.000 C 
BRANCH  11  12
ATOM     12  C   UNL     1      -2.282   3.851   3.064  1.00  0.00     0.000 C 
BRANCH  12  13
ATOM     13  C   UNL     1      -2.252   4.869   4.216  1.00  0.00     0.006 C 
BRANCH  13  14
ATOM     14  C   UNL     1      -0.835   5.159   4.725  1.00  0.00     0.053 C 
BRANCH  14  15
ATOM     15  C   UNL     1      -0.628   6.629   4.911  1.00  0.00     0.041 C 
ATOM     16  O   UNL     1       0.518   7.081   5.171  1.00  0.00    -0.550 OA
ATOM     17  O   UNL     1      -1.702   7.504   4.788  1.00  0.00    -0.550 OA
ENDBRANCH  14  15
ENDBRANCH  13  14
ENDBRANCH  12  13
ENDBRANCH  11  12
ENDBRANCH  10  11
ENDBRANCH   9  10
ENDBRANCH   8   9
ENDBRANCH   7   8
ENDBRANCH   6   7
ENDBRANCH   5   6
ENDBRANCH   4   5
ENDBRANCH   3   4
ENDBRANCH   2   3
ENDBRANCH   1   2
BRANCH   1  18
ATOM     18  C   UNL     1      -5.773  -3.556  10.581  1.00  0.00     0.000 C 
BRANCH  18  19
ATOM     19  C   UNL     1      -6.095  -3.070   9.157  1.00  0.00     0.000 C 
BRANCH  19  20
ATOM     20  C   UNL     1      -6.866  -1.738   9.148  1.00  0.00     0.000 C 
BRANCH  20  21
ATOM     21  C   UNL     1      -6.250  -0.706   8.187  1.00  0.00     0.000 C 
BRANCH  21  22
ATOM     22  C   UNL     1      -5.238  -1.335   7.214  1.00  0.00     0.000 C 
BRANCH  22  23
ATOM     23  C   UNL     1      -5.299  -0.715   5.806  1.00  0.00     0.000 C 
BRANCH  23  24
ATOM     24  C   UNL     1      -5.074  -1.705   4.646  1.00  0.00    -0.000 C 
BRANCH  24  25
ATOM     25  C   UNL     1      -4.073  -1.238   3.570  1.00  0.00    -0.000 C 
BRANCH  25  26
ATOM     26  C   UNL     1      -2.741  -2.015   3.535  1.00  0.00    -0.000 C 
BRANCH  26  27
ATOM     27  C   UNL     1      -1.521  -1.238   4.064  1.00  0.00    -0.000 C 
BRANCH  27  28
ATOM     28  C   UNL     1      -0.832  -1.872   5.286  1.00  0.00    -0.000 C 
BRANCH  28  29
ATOM     29  C   UNL     1      -1.755  -1.998   6.517  1.00  0.00    -0.000 C 
BRANCH  29  30
ATOM     30  C   UNL     1      -1.700  -3.395   7.150  1.00  0.00    -0.000 C 
BRANCH  30  31
ATOM     31  C   UNL     1      -3.090  -4.040   7.179  1.00  0.00    -0.003 C 
ATOM     32  C   UNL     1      -3.388  -4.770   5.872  1.00  0.00     0.004 C 
ENDBRANCH  30  31
ENDBRANCH  29  30
ENDBRANCH  28  29
ENDBRANCH  27  28
ENDBRANCH  26  27
ENDBRANCH  25  26
ENDBRANCH  24  25
ENDBRANCH  23  24
ENDBRANCH  22  23
ENDBRANCH  21  22
ENDBRANCH  20  21
ENDBRANCH  19  20
ENDBRANCH  18  19
ENDBRANCH   1  18
TORSDOF 28
ENDMDL
MODEL 9
REMARK VINA RESULT:    -3.718      2.829      7.365
REMARK INTER + INTRA:         -14.517
REMARK INTER:                  -9.168
REMARK INTRA:                  -5.349
REMARK UNBOUND:                -4.713
REMARK SMILES CCCCCCCCCCCCCCCCCCCCCCCCCCCCCC(=O)[O-]
REMARK SMILES IDX 16 1 17 2 18 3 19 4 20 5 21 6 22 7 23 8 24 9 25 10 26 11
REMARK SMILES IDX 27 12 28 13 29 14 30 15 31 16 32 17 15 18 14 19 13 20 12 21
REMARK SMILES IDX 11 22 10 23 9 24 8 25 7 26 6 27 5 28 4 29 3 30 2 31 1 32
REMARK H PARENT
REMARK Flexibility Score: inf
ROOT
ATOM      1  C   UNL     1      -4.498  -4.292   6.772  1.00  0.00     0.000 C 
ENDROOT
BRANCH   1   2
ATOM      2  C   UNL     1      -2.962  -4.257   6.675  1.00  0.00     0.000 C 
BRANCH   2   3
ATOM      3  C   UNL     1      -2.285  -3.079   7.402  1.00  0.00     0.000 C 
BRANCH   3   4
ATOM      4  C   UNL     1      -1.431  -2.209   6.468  1.00  0.00     0.000 C 
BRANCH   4   5
ATOM      5  C   UNL     1      -1.983  -2.231   5.035  1.00  0.00     0.000 C 
BRANCH   5   6
ATOM      6  C   UNL     1      -2.041  -0.832   4.397  1.00  0.00     0.000 C 
BRANCH   6   7
ATOM      7  C   UNL     1      -3.257  -0.586   3.482  1.00  0.00     0.000 C 
BRANCH   7   8
ATOM      8  C   UNL     1      -2.931   0.063   2.121  1.00  0.00     0.000 C 
BRANCH   8   9
ATOM      9  C   UNL     1      -2.342   1.484   2.203  1.00  0.00     0.000 C 
BRANCH   9  10
ATOM     10  C   UNL     1      -3.384   2.576   1.916  1.00  0.00     0.000 C 
BRANCH  10  11
ATOM     11  C   UNL     1      -3.316   3.694   2.967  1.00  0.00     0.000 C 
BRANCH  11  12
ATOM     12  C   UNL     1      -2.977   3.153   4.373  1.00  0.00     0.000 C 
BRANCH  12  13
ATOM     13  C   UNL     1      -1.934   3.997   5.125  1.00  0.00     0.006 C 
BRANCH  13  14
ATOM     14  C   UNL     1      -0.950   4.709   4.189  1.00  0.00     0.053 C 
BRANCH  14  15
ATOM     15  C   UNL     1      -0.836   6.158   4.542  1.00  0.00     0.041 C 
ATOM     16  O   UNL     1       0.292   6.666   4.781  1.00  0.00    -0.550 OA
ATOM     17  O   UNL     1      -1.976   6.953   4.599  1.00  0.00    -0.550 OA
ENDBRANCH  14  15
ENDBRANCH  13  14
ENDBRANCH  12  13
ENDBRANCH  11  12
ENDBRANCH  10  11
ENDBRANCH   9  10
ENDBRANCH   8   9
ENDBRANCH   7   8
ENDBRANCH   6   7
ENDBRANCH   5   6
ENDBRANCH   4   5
ENDBRANCH   3   4
ENDBRANCH   2   3
ENDBRANCH   1   2
BRANCH   1  18
ATOM     18  C   UNL     1      -5.191  -3.997   5.431  1.00  0.00     0.000 C 
BRANCH  18  19
ATOM     19  C   UNL     1      -5.937  -2.652   5.438  1.00  0.00     0.000 C 
BRANCH  19  20
ATOM     20  C   UNL     1      -5.758  -1.884   6.759  1.00  0.00     0.000 C 
BRANCH  20  21
ATOM     21  C   UNL     1      -5.175  -0.475   6.548  1.00  0.00     0.000 C 
BRANCH  21  22
ATOM     22  C   UNL     1      -4.396   0.032   7.772  1.00  0.00     0.000 C 
BRANCH  22  23
ATOM     23  C   UNL     1      -3.177   0.891   7.391  1.00  0.00     0.000 C 
BRANCH  23  24
ATOM     24  C   UNL     1      -2.310   1.359   8.577  1.00  0.00    -0.000 C 
BRANCH  24  25
ATOM     25  C   UNL     1      -1.531   0.242   9.301  1.00  0.00    -0.000 C 
BRANCH  25  26
ATOM     26  C   UNL     1      -2.113  -0.184  10.663  1.00  0.00    -0.000 C 
BRANCH  26  27
ATOM     27  C   UNL     1      -2.592  -1.646  10.737  1.00  0.00    -0.000 C 
BRANCH  27  28
ATOM     28  C   UNL     1      -3.901  -1.858  11.519  1.00  0.00    -0.000 C 
BRANCH  28  29
ATOM     29  C   UNL     1      -5.138  -2.040  10.613  1.00  0.00    -0.000 C 
BRANCH  29  30
ATOM     30  C   UNL     1      -5.398  -3.513  10.268  1.00  0.00    -0.000 C 
BRANCH  30  31
ATOM     31  C   UNL     1      -6.889  -3.849  10.382  1.00  0.00    -0.003 C 
ATOM     32  C   UNL     1      -7.461  -3.377  11.716  1.00  0.00     0.004 C 
ENDBRANCH  30  31
ENDBRANCH  29  30
ENDBRANCH  28  29
ENDBRANCH  27  28
ENDBRANCH  26  27
ENDBRANCH  25  26
ENDBRANCH  24  25
ENDBRANCH  23  24
ENDBRANCH  22  23
ENDBRANCH  21  22
ENDBRANCH  20  21
ENDBRANCH  19  20
ENDBRANCH  18  19
ENDBRANCH   1  18
TORSDOF 28
ENDMDL
