MODEL 1
REMARK VINA RESULT:    -3.013      0.000      0.000
REMARK INTER + INTRA:          -3.013
REMARK INTER:                  -3.013
REMARK INTRA:                   0.000
REMARK UNBOUND:                 0.000
REMARK SMILES CC(=O)[O-]
REMARK SMILES IDX 1 1 2 2 3 3 4 4
REMARK H PARENT
REMARK Flexibility Score: inf
ROOT
ATOM      1  C   UNL     1      11.394  10.177  64.734  1.00  0.00     0.063 C 
ATOM      2  C   UNL     1      12.583  10.019  63.848  1.00  0.00     0.038 C 
ATOM      3  O   UNL     1      12.513   9.294  62.822  1.00  0.00    -0.550 OA
ATOM      4  O   UNL     1      13.753  10.714  64.124  1.00  0.00    -0.550 OA
ENDROOT
TORSDOF 0
ENDMDL
MODEL 2
REMARK VINA RESULT:    -2.970     17.904     18.371
REMARK INTER + INTRA:          -2.970
REMARK INTER:                  -2.970
REMARK INTRA:                   0.000
REMARK UNBOUND:                 0.000
REMARK SMILES CC(=O)[O-]
REMARK SMILES IDX 1 1 2 2 3 3 4 4
REMARK H PARENT
REMARK Flexibility Score: inf
ROOT
ATOM      1  C   UNL     1      -3.130  16.980  60.957  1.00  0.00     0.063 C 
ATOM      2  C   UNL     1      -4.286  16.281  60.327  1.00  0.00     0.038 C 
ATOM      3  O   UNL     1      -4.183  15.816  59.161  1.00  0.00    -0.550 OA
ATOM      4  O   UNL     1      -5.461  16.092  61.043  1.00  0.00    -0.550 OA
ENDROOT
TORSDOF 0
ENDMDL
MODEL 3
REMARK VINA RESULT:    -2.957     17.884     18.369
REMARK INTER + INTRA:          -2.957
REMARK INTER:                  -2.957
REMARK INTRA:                   0.000
REMARK UNBOUND:                 0.000
REMARK SMILES CC(=O)[O-]
REMARK SMILES IDX 1 1 2 2 3 3 4 4
REMARK H PARENT
REMARK Flexibility Score: inf
ROOT
ATOM      1  C   UNL     1      -3.118  16.942  61.106  1.00  0.00     0.063 C 
ATOM      2  C   UNL     1      -4.293  16.295  60.455  1.00  0.00     0.038 C 
ATOM      3  O   UNL     1      -5.392  16.223  61.064  1.00  0.00    -0.550 OA
ATOM      4  O   UNL     1      -4.193  15.819  59.154  1.00  0.00    -0.550 OA
ENDROOT
TORSDOF 0
ENDMDL
MODEL 4
REMARK VINA RESULT:    -2.889      1.445      1.771
REMARK INTER + INTRA:          -2.889
REMARK INTER:                  -2.889
REMARK INTRA:                   0.000
REMARK UNBOUND:                 0.000
REMARK SMILES CC(=O)[O-]
REMARK SMILES IDX 1 1 2 2 3 3 4 4
REMARK H PARENT
REMARK Flexibility Score: inf
ROOT
ATOM      1  C   UNL     1      13.747  10.909  64.382  1.00  0.00     0.063 C 
ATOM      2  C   UNL     1      12.529  10.150  63.974  1.00  0.00     0.038 C 
ATOM      3  O   UNL     1      12.572   9.372  62.986  1.00  0.00    -0.550 OA
ATOM      4  O   UNL     1      11.361  10.259  64.716  1.00  0.00    -0.550 OA
ENDROOT
TORSDOF 0
ENDMDL
MODEL 5
REMARK VINA RESULT:    -2.841      1.793      2.045
REMARK INTER + INTRA:          -2.841
REMARK INTER:                  -2.841
REMARK INTRA:                   0.000
REMARK UNBOUND:                 0.000
REMARK SMILES CC(=O)[O-]
REMARK SMILES IDX 1 1 2 2 3 3 4 4
REMARK H PARENT
REMARK Flexibility Score: inf
ROOT
ATOM      1  C   UNL     1      12.721   9.782  63.661  1.00  0.00     0.063 C 
ATOM      2  C   UNL     1      11.880  10.610  64.572  1.00  0.00     0.038 C 
ATOM      3  O   UNL     1      10.718  10.234  64.876  1.00  0.00    -0.550 OA
ATOM      4  O   UNL     1      12.397  11.772  65.132  1.00  0.00    -0.550 OA
ENDROOT
TORSDOF 0
ENDMDL
MODEL 6
REMARK VINA RESULT:    -2.830     18.167     18.595
REMARK INTER + INTRA:          -2.830
REMARK INTER:                  -2.830
REMARK INTRA:                   0.000
REMARK UNBOUND:                 0.000
REMARK SMILES CC(=O)[O-]
REMARK SMILES IDX 1 1 2 2 3 3 4 4
REMARK H PARENT
REMARK Flexibility Score: inf
ROOT
ATOM      1  C   UNL     1      -4.357  16.164  59.778  1.00  0.00     0.063 C 
ATOM      2  C   UNL     1      -4.690  16.324  61.222  1.00  0.00     0.038 C 
ATOM      3  O   UNL     1      -5.886  16.247  61.606  1.00  0.00    -0.550 OA
ATOM      4  O   UNL     1      -3.677  16.506  62.154  1.00  0.00    -0.550 OA
ENDROOT
TORSDOF 0
ENDMDL
MODEL 7
REMARK VINA RESULT:    -2.786     17.858     18.048
REMARK INTER + INTRA:          -2.786
REMARK INTER:                  -2.786
REMARK INTRA:                   0.000
REMARK UNBOUND:                 0.000
REMARK SMILES CC(=O)[O-]
REMARK SMILES IDX 1 1 2 2 3 3 4 4
REMARK H PARENT
REMARK Flexibility Score: inf
ROOT
ATOM      1  C   UNL     1       2.338  20.113  51.775  1.00  0.00     0.063 C 
ATOM      2  C   UNL     1       3.289  19.061  51.314  1.00  0.00     0.038 C 
ATOM      3  O   UNL     1       3.171  18.562  50.165  1.00  0.00    -0.550 OA
ATOM      4  O   UNL     1       4.341  18.668  52.131  1.00  0.00    -0.550 OA
ENDROOT
TORSDOF 0
ENDMDL
MODEL 8
REMARK VINA RESULT:    -2.729     18.179     18.375
REMARK INTER + INTRA:          -2.729
REMARK INTER:                  -2.729
REMARK INTRA:                   0.000
REMARK UNBOUND:                 0.000
REMARK SMILES CC(=O)[O-]
REMARK SMILES IDX 1 1 2 2 3 3 4 4
REMARK H PARENT
REMARK Flexibility Score: inf
ROOT
ATOM      1  C   UNL     1       4.051  18.768  52.089  1.00  0.00     0.063 C 
ATOM      2  C   UNL     1       3.110  19.808  51.582  1.00  0.00     0.038 C 
ATOM      3  O   UNL     1       1.961  19.917  52.084  1.00  0.00    -0.550 OA
ATOM      4  O   UNL     1       3.518  20.694  50.594  1.00  0.00    -0.550 OA
ENDROOT
TORSDOF 0
ENDMDL
MODEL 9
REMARK VINA RESULT:    -2.616     18.316     18.523
REMARK INTER + INTRA:          -2.616
REMARK INTER:                  -2.616
REMARK INTRA:                   0.000
REMARK UNBOUND:                 0.000
REMARK SMILES CC(=O)[O-]
REMARK SMILES IDX 1 1 2 2 3 3 4 4
REMARK H PARENT
REMARK Flexibility Score: inf
ROOT
ATOM      1  C   UNL     1       3.285  20.726  50.354  1.00  0.00     0.063 C 
ATOM      2  C   UNL     1       3.049  19.779  51.482  1.00  0.00     0.038 C 
ATOM      3  O   UNL     1       1.986  19.847  52.152  1.00  0.00    -0.550 OA
ATOM      4  O   UNL     1       3.978  18.785  51.761  1.00  0.00    -0.550 OA
ENDROOT
TORSDOF 0
ENDMDL
