MODEL 1
REMARK VINA RESULT:     9.606      0.000      0.000
REMARK INTER + INTRA:          10.469
REMARK INTER:                  10.729
REMARK INTRA:                  -0.260
REMARK UNBOUND:                -0.260
REMARK SMILES CC1(C)CC[C@]2(C(=O)[O-])[C@H](O)C[C@@]3(C)C(=CC[C@H]4[C@]5(C)CC[C@H](O)C(C)(C)[C@H]5CC[C@]43C)[C@@H]2C1
REMARK SMILES IDX 6 1 5 2 33 3 10 4 4 5 34 6 15 7 12 8 2 9 16 10 13 11 1 12
REMARK SMILES IDX 3 13 17 14 31 15 14 16 18 17 30 18 32 19 19 20 29 21 21 22
REMARK SMILES IDX 20 23 28 24 22 25 25 26 23 27 26 28 27 29 7 30 8 31 9 32
REMARK SMILES IDX 11 33 24 35
REMARK H PARENT 11 34 24 36
REMARK Flexibility Score: inf
ROOT
ATOM      1  C   UNL     1     -19.967   4.734 -17.996  1.00  0.00     0.042 C 
ATOM      2  C   UNL     1     -21.187   4.578 -18.971  1.00  0.00     0.017 C 
ATOM      3  C   UNL     1     -19.604   3.361 -17.322  1.00  0.00     0.030 C 
ATOM      4  C   UNL     1     -18.751   5.266 -18.804  1.00  0.00     0.127 C 
ATOM      5  C   UNL     1     -22.125   3.439 -18.556  1.00  0.00     0.007 C 
ATOM      6  C   UNL     1     -19.897   2.170 -18.277  1.00  0.00     0.015 C 
ATOM      7  C   UNL     1     -18.190   3.284 -16.735  1.00  0.00    -0.063 C 
ATOM      8  C   UNL     1     -17.532   5.518 -17.905  1.00  0.00     0.044 C 
ATOM      9  C   UNL     1     -21.416   2.052 -18.626  1.00  0.00    -0.035 C 
ATOM     10  C   UNL     1     -17.910   2.204 -15.978  1.00  0.00    -0.027 C 
ATOM     11  C   UNL     1     -17.088   4.350 -16.925  1.00  0.00    -0.003 C 
ATOM     12  C   UNL     1     -21.563   1.460 -20.045  1.00  0.00     0.011 C 
ATOM     13  C   UNL     1     -22.106   1.092 -17.631  1.00  0.00     0.011 C 
ATOM     14  C   UNL     1     -16.532   1.912 -15.481  1.00  0.00     0.032 C 
ATOM     15  C   UNL     1     -15.729   3.599 -17.387  1.00  0.00    -0.020 C 
ATOM     16  C   UNL     1     -16.883   5.061 -15.544  1.00  0.00     0.017 C 
ATOM     17  C   UNL     1     -15.436   2.258 -16.534  1.00  0.00     0.006 C 
ATOM     18  C   UNL     1     -15.828   3.224 -18.893  1.00  0.00     0.008 C 
ATOM     19  C   UNL     1     -14.520   4.584 -17.228  1.00  0.00     0.012 C 
ATOM     20  C   UNL     1     -14.941   0.963 -17.350  1.00  0.00    -0.025 C 
ATOM     21  C   UNL     1     -14.630   2.448 -19.464  1.00  0.00     0.005 C 
ATOM     22  C   UNL     1     -14.131   0.045 -16.363  1.00  0.00     0.010 C 
ATOM     23  C   UNL     1     -16.139   0.142 -17.935  1.00  0.00     0.012 C 
ATOM     24  C   UNL     1     -13.972   1.437 -18.485  1.00  0.00     0.003 C 
ATOM     25  C   UNL     1     -13.302  -1.068 -17.025  1.00  0.00     0.033 C 
ATOM     26  C   UNL     1     -13.123   0.312 -19.210  1.00  0.00    -0.006 C 
ATOM     27  C   UNL     1     -12.375  -0.561 -18.147  1.00  0.00     0.120 C 
ATOM     28  C   UNL     1     -13.962  -0.634 -20.125  1.00  0.00     0.014 C 
ATOM     29  C   UNL     1     -12.061   0.989 -20.120  1.00  0.00     0.014 C 
ENDROOT
BRANCH   1  30
ATOM     30  C   UNL     1     -20.356   5.774 -16.943  1.00  0.00     0.051 C 
ATOM     31  O   UNL     1     -20.473   5.474 -15.725  1.00  0.00    -0.549 OA
ATOM     32  O   UNL     1     -20.610   7.086 -17.330  1.00  0.00    -0.549 OA
ENDBRANCH   1  30
BRANCH   4  33
ATOM     33  O   UNL     1     -18.413   4.397 -19.854  1.00  0.00    -0.392 OA
ATOM     34  H   UNL     1     -18.065   4.956 -20.597  1.00  0.00     0.210 HD
ENDBRANCH   4  33
BRANCH  27  35
ATOM     35  O   UNL     1     -11.245   0.089 -17.611  1.00  0.00    -0.393 OA
ATOM     36  H   UNL     1     -11.236   1.025 -17.927  1.00  0.00     0.210 HD
ENDBRANCH  27  35
TORSDOF 3
ENDMDL
MODEL 2
REMARK VINA RESULT:    12.162      3.574      8.161
REMARK INTER + INTRA:          13.324
REMARK INTER:                  12.441
REMARK INTRA:                   0.884
REMARK UNBOUND:                -0.260
REMARK SMILES CC1(C)CC[C@]2(C(=O)[O-])[C@H](O)C[C@@]3(C)C(=CC[C@H]4[C@]5(C)CC[C@H](O)C(C)(C)[C@H]5CC[C@]43C)[C@@H]2C1
REMARK SMILES IDX 6 1 5 2 33 3 10 4 4 5 34 6 15 7 12 8 2 9 16 10 13 11 1 12
REMARK SMILES IDX 3 13 17 14 31 15 14 16 18 17 30 18 32 19 19 20 29 21 21 22
REMARK SMILES IDX 20 23 28 24 22 25 25 26 23 27 26 28 27 29 7 30 8 31 9 32
REMARK SMILES IDX 11 33 24 35
REMARK H PARENT 11 34 24 36
REMARK Flexibility Score: inf
ROOT
ATOM      1  C   UNL     1     -18.556   4.360 -18.415  1.00  0.00     0.042 C 
ATOM      2  C   UNL     1     -17.141   3.730 -18.668  1.00  0.00     0.017 C 
ATOM      3  C   UNL     1     -19.162   3.861 -17.052  1.00  0.00     0.030 C 
ATOM      4  C   UNL     1     -18.414   5.907 -18.397  1.00  0.00     0.127 C 
ATOM      5  C   UNL     1     -16.983   2.361 -17.996  1.00  0.00     0.007 C 
ATOM      6  C   UNL     1     -18.045   3.604 -16.001  1.00  0.00     0.015 C 
ATOM      7  C   UNL     1     -20.286   4.736 -16.486  1.00  0.00    -0.063 C 
ATOM      8  C   UNL     1     -19.772   6.605 -18.228  1.00  0.00     0.044 C 
ATOM      9  C   UNL     1     -17.068   2.468 -16.442  1.00  0.00    -0.035 C 
ATOM     10  C   UNL     1     -20.962   4.239 -15.431  1.00  0.00    -0.027 C 
ATOM     11  C   UNL     1     -20.708   6.113 -17.043  1.00  0.00    -0.003 C 
ATOM     12  C   UNL     1     -15.666   2.754 -15.860  1.00  0.00     0.011 C 
ATOM     13  C   UNL     1     -17.555   1.114 -15.879  1.00  0.00     0.011 C 
ATOM     14  C   UNL     1     -21.966   5.045 -14.674  1.00  0.00     0.032 C 
ATOM     15  C   UNL     1     -20.792   7.158 -15.808  1.00  0.00    -0.020 C 
ATOM     16  C   UNL     1     -22.114   5.935 -17.711  1.00  0.00     0.017 C 
ATOM     17  C   UNL     1     -21.531   6.534 -14.513  1.00  0.00     0.006 C 
ATOM     18  C   UNL     1     -19.358   7.600 -15.402  1.00  0.00     0.008 C 
ATOM     19  C   UNL     1     -21.565   8.439 -16.273  1.00  0.00     0.012 C 
ATOM     20  C   UNL     1     -20.867   6.825 -13.077  1.00  0.00    -0.025 C 
ATOM     21  C   UNL     1     -19.273   8.551 -14.197  1.00  0.00     0.005 C 
ATOM     22  C   UNL     1     -21.995   6.721 -11.987  1.00  0.00     0.010 C 
ATOM     23  C   UNL     1     -19.736   5.799 -12.733  1.00  0.00     0.012 C 
ATOM     24  C   UNL     1     -20.319   8.292 -13.077  1.00  0.00     0.003 C 
ATOM     25  C   UNL     1     -21.631   7.286 -10.604  1.00  0.00     0.033 C 
ATOM     26  C   UNL     1     -19.906   8.896 -11.672  1.00  0.00    -0.006 C 
ATOM     27  C   UNL     1     -21.081   8.724 -10.651  1.00  0.00     0.120 C 
ATOM     28  C   UNL     1     -18.619   8.264 -11.055  1.00  0.00     0.014 C 
ATOM     29  C   UNL     1     -19.623  10.415 -11.839  1.00  0.00     0.014 C 
ENDROOT
BRANCH   1  30
ATOM     30  C   UNL     1     -19.450   3.959 -19.590  1.00  0.00     0.051 C 
ATOM     31  O   UNL     1     -19.390   2.811 -20.108  1.00  0.00    -0.549 OA
ATOM     32  O   UNL     1     -20.344   4.881 -20.125  1.00  0.00    -0.549 OA
ENDBRANCH   1  30
BRANCH   4  33
ATOM     33  O   UNL     1     -17.520   6.328 -17.399  1.00  0.00    -0.392 OA
ATOM     34  H   UNL     1     -17.250   7.258 -17.620  1.00  0.00     0.210 HD
ENDBRANCH   4  33
BRANCH  27  35
ATOM     35  O   UNL     1     -22.120   9.654 -10.861  1.00  0.00    -0.393 OA
ATOM     36  H   UNL     1     -22.723   9.307 -11.562  1.00  0.00     0.210 HD
ENDBRANCH  27  35
TORSDOF 3
ENDMDL
