MODEL 1
REMARK VINA RESULT:    -3.230      0.000      0.000
REMARK INTER + INTRA:          -5.498
REMARK INTER:                  -4.929
REMARK INTRA:                  -0.569
REMARK UNBOUND:                -0.569
REMARK SMILES O=C([O-])CCCCCCCCC(=O)[O-]
REMARK SMILES IDX 7 1 6 2 5 3 4 4 2 5 1 6 3 7 8 8 9 9 10 10 11 11 12 12 13 13
REMARK SMILES IDX 14 14
REMARK H PARENT
REMARK Flexibility Score: inf
ROOT
ATOM      1  C   UNL     1      14.004  12.926   7.898  1.00  0.00     0.000 C 
ENDROOT
BRANCH   1   2
ATOM      2  C   UNL     1      14.447  13.129   9.352  1.00  0.00     0.000 C 
BRANCH   2   3
ATOM      3  C   UNL     1      14.019  11.943  10.229  1.00  0.00     0.006 C 
BRANCH   3   4
ATOM      4  C   UNL     1      14.665  11.984  11.619  1.00  0.00     0.053 C 
BRANCH   4   5
ATOM      5  C   UNL     1      13.988  12.973  12.519  1.00  0.00     0.041 C 
ATOM      6  O   UNL     1      12.794  12.791  12.874  1.00  0.00    -0.550 OA
ATOM      7  O   UNL     1      14.685  14.077  12.990  1.00  0.00    -0.550 OA
ENDBRANCH   4   5
ENDBRANCH   3   4
ENDBRANCH   2   3
ENDBRANCH   1   2
BRANCH   1   8
ATOM      8  C   UNL     1      15.165  13.176   6.928  1.00  0.00     0.000 C 
BRANCH   8   9
ATOM      9  C   UNL     1      16.395  13.714   7.669  1.00  0.00     0.000 C 
BRANCH   9  10
ATOM     10  C   UNL     1      16.633  15.194   7.336  1.00  0.00     0.006 C 
BRANCH  10  11
ATOM     11  C   UNL     1      17.116  15.993   8.554  1.00  0.00     0.053 C 
BRANCH  11  12
ATOM     12  C   UNL     1      16.049  16.900   9.083  1.00  0.00     0.041 C 
ATOM     13  O   UNL     1      15.044  17.177   8.376  1.00  0.00    -0.550 OA
ATOM     14  O   UNL     1      16.146  17.414  10.371  1.00  0.00    -0.550 OA
ENDBRANCH  11  12
ENDBRANCH  10  11
ENDBRANCH   9  10
ENDBRANCH   8   9
ENDBRANCH   1   8
TORSDOF 9
ENDMDL
MODEL 2
REMARK VINA RESULT:    -3.190      3.208      5.728
REMARK INTER + INTRA:          -5.438
REMARK INTER:                  -5.010
REMARK INTRA:                  -0.428
REMARK UNBOUND:                -0.569
REMARK SMILES O=C([O-])CCCCCCCCC(=O)[O-]
REMARK SMILES IDX 7 1 6 2 5 3 4 4 2 5 1 6 3 7 8 8 9 9 10 10 11 11 12 12 13 13
REMARK SMILES IDX 14 14
REMARK H PARENT
REMARK Flexibility Score: inf
ROOT
ATOM      1  C   UNL     1      15.269  17.273   8.605  1.00  0.00     0.000 C 
ENDROOT
BRANCH   1   2
ATOM      2  C   UNL     1      15.931  18.554   9.129  1.00  0.00     0.000 C 
BRANCH   2   3
ATOM      3  C   UNL     1      15.513  18.835  10.580  1.00  0.00     0.006 C 
BRANCH   3   4
ATOM      4  C   UNL     1      15.229  20.323  10.826  1.00  0.00     0.053 C 
BRANCH   4   5
ATOM      5  C   UNL     1      13.902  20.533  11.490  1.00  0.00     0.041 C 
ATOM      6  O   UNL     1      13.321  19.574  12.061  1.00  0.00    -0.550 OA
ATOM      7  O   UNL     1      13.325  21.796  11.507  1.00  0.00    -0.550 OA
ENDBRANCH   4   5
ENDBRANCH   3   4
ENDBRANCH   2   3
ENDBRANCH   1   2
BRANCH   1   8
ATOM      8  C   UNL     1      16.302  16.155   8.421  1.00  0.00     0.000 C 
BRANCH   8   9
ATOM      9  C   UNL     1      16.382  15.269   9.669  1.00  0.00     0.000 C 
BRANCH   9  10
ATOM     10  C   UNL     1      16.098  13.800   9.320  1.00  0.00     0.006 C 
BRANCH  10  11
ATOM     11  C   UNL     1      14.625  13.563   8.960  1.00  0.00     0.053 C 
BRANCH  11  12
ATOM     12  C   UNL     1      14.464  13.118   7.539  1.00  0.00     0.041 C 
ATOM     13  O   UNL     1      15.464  13.061   6.775  1.00  0.00    -0.550 OA
ATOM     14  O   UNL     1      13.215  12.734   7.066  1.00  0.00    -0.550 OA
ENDBRANCH  11  12
ENDBRANCH  10  11
ENDBRANCH   9  10
ENDBRANCH   8   9
ENDBRANCH   1   8
TORSDOF 9
ENDMDL
MODEL 3
REMARK VINA RESULT:    -3.175      3.104      4.771
REMARK INTER + INTRA:          -5.414
REMARK INTER:                  -4.972
REMARK INTRA:                  -0.442
REMARK UNBOUND:                -0.569
REMARK SMILES O=C([O-])CCCCCCCCC(=O)[O-]
REMARK SMILES IDX 7 1 6 2 5 3 4 4 2 5 1 6 3 7 8 8 9 9 10 10 11 11 12 12 13 13
REMARK SMILES IDX 14 14
REMARK H PARENT
REMARK Flexibility Score: inf
ROOT
ATOM      1  C   UNL     1      15.198  16.763   8.276  1.00  0.00     0.000 C 
ENDROOT
BRANCH   1   2
ATOM      2  C   UNL     1      16.289  15.983   7.533  1.00  0.00     0.000 C 
BRANCH   2   3
ATOM      3  C   UNL     1      16.377  14.537   8.043  1.00  0.00     0.006 C 
BRANCH   3   4
ATOM      4  C   UNL     1      15.581  13.562   7.166  1.00  0.00     0.053 C 
BRANCH   4   5
ATOM      5  C   UNL     1      14.349  13.068   7.862  1.00  0.00     0.041 C 
ATOM      6  O   UNL     1      13.370  12.646   7.192  1.00  0.00    -0.550 OA
ATOM      7  O   UNL     1      14.296  13.042   9.249  1.00  0.00    -0.550 OA
ENDBRANCH   4   5
ENDBRANCH   3   4
ENDBRANCH   2   3
ENDBRANCH   1   2
BRANCH   1   8
ATOM      8  C   UNL     1      15.778  18.008   8.959  1.00  0.00     0.000 C 
BRANCH   8   9
ATOM      9  C   UNL     1      16.281  17.678  10.369  1.00  0.00     0.000 C 
BRANCH   9  10
ATOM     10  C   UNL     1      15.679  18.638  11.406  1.00  0.00     0.006 C 
BRANCH  10  11
ATOM     11  C   UNL     1      15.127  19.917  10.761  1.00  0.00     0.053 C 
BRANCH  11  12
ATOM     12  C   UNL     1      13.932  20.440  11.497  1.00  0.00     0.041 C 
ATOM     13  O   UNL     1      13.174  19.649  12.118  1.00  0.00    -0.550 OA
ATOM     14  O   UNL     1      13.673  21.805  11.524  1.00  0.00    -0.550 OA
ENDBRANCH  11  12
ENDBRANCH  10  11
ENDBRANCH   9  10
ENDBRANCH   8   9
ENDBRANCH   1   8
TORSDOF 9
ENDMDL
MODEL 4
REMARK VINA RESULT:    -3.173      1.442      5.316
REMARK INTER + INTRA:          -5.411
REMARK INTER:                  -4.792
REMARK INTRA:                  -0.620
REMARK UNBOUND:                -0.569
REMARK SMILES O=C([O-])CCCCCCCCC(=O)[O-]
REMARK SMILES IDX 7 1 6 2 5 3 4 4 2 5 1 6 3 7 8 8 9 9 10 10 11 11 12 12 13 13
REMARK SMILES IDX 14 14
REMARK H PARENT
REMARK Flexibility Score: inf
ROOT
ATOM      1  C   UNL     1      16.373  13.778   7.521  1.00  0.00     0.000 C 
ENDROOT
BRANCH   1   2
ATOM      2  C   UNL     1      16.836  15.233   7.380  1.00  0.00     0.000 C 
BRANCH   2   3
ATOM      3  C   UNL     1      16.694  15.988   8.710  1.00  0.00     0.006 C 
BRANCH   3   4
ATOM      4  C   UNL     1      15.525  16.981   8.694  1.00  0.00     0.053 C 
BRANCH   4   5
ATOM      5  C   UNL     1      15.947  18.344   9.154  1.00  0.00     0.041 C 
ATOM      6  O   UNL     1      16.966  18.892   8.658  1.00  0.00    -0.550 OA
ATOM      7  O   UNL     1      15.197  19.020  10.107  1.00  0.00    -0.550 OA
ENDBRANCH   4   5
ENDBRANCH   3   4
ENDBRANCH   2   3
ENDBRANCH   1   2
BRANCH   1   8
ATOM      8  C   UNL     1      14.931  13.608   7.026  1.00  0.00     0.000 C 
BRANCH   8   9
ATOM      9  C   UNL     1      14.068  12.902   8.078  1.00  0.00     0.000 C 
BRANCH   9  10
ATOM     10  C   UNL     1      14.668  13.066   9.482  1.00  0.00     0.006 C 
BRANCH  10  11
ATOM     11  C   UNL     1      13.961  12.187  10.522  1.00  0.00     0.053 C 
BRANCH  11  12
ATOM     12  C   UNL     1      14.891  11.761  11.616  1.00  0.00     0.041 C 
ATOM     13  O   UNL     1      15.994  11.223  11.336  1.00  0.00    -0.550 OA
ATOM     14  O   UNL     1      14.555  11.990  12.945  1.00  0.00    -0.550 OA
ENDBRANCH  11  12
ENDBRANCH  10  11
ENDBRANCH   9  10
ENDBRANCH   8   9
ENDBRANCH   1   8
TORSDOF 9
ENDMDL
MODEL 5
REMARK VINA RESULT:    -3.129      0.382      4.889
REMARK INTER + INTRA:          -5.344
REMARK INTER:                  -4.697
REMARK INTRA:                  -0.647
REMARK UNBOUND:                -0.569
REMARK SMILES O=C([O-])CCCCCCCCC(=O)[O-]
REMARK SMILES IDX 7 1 6 2 5 3 4 4 2 5 1 6 3 7 8 8 9 9 10 10 11 11 12 12 13 13
REMARK SMILES IDX 14 14
REMARK H PARENT
REMARK Flexibility Score: inf
ROOT
ATOM      1  C   UNL     1      14.558  13.450   7.114  1.00  0.00     0.000 C 
ENDROOT
BRANCH   1   2
ATOM      2  C   UNL     1      16.050  13.493   7.467  1.00  0.00     0.000 C 
BRANCH   2   3
ATOM      3  C   UNL     1      16.586  14.931   7.418  1.00  0.00     0.006 C 
BRANCH   3   4
ATOM      4  C   UNL     1      16.823  15.511   8.819  1.00  0.00     0.053 C 
BRANCH   4   5
ATOM      5  C   UNL     1      15.974  16.720   9.071  1.00  0.00     0.041 C 
ATOM      6  O   UNL     1      16.262  17.511  10.006  1.00  0.00    -0.550 OA
ATOM      7  O   UNL     1      14.885  16.989   8.253  1.00  0.00    -0.550 OA
ENDBRANCH   4   5
ENDBRANCH   3   4
ENDBRANCH   2   3
ENDBRANCH   1   2
BRANCH   1   8
ATOM      8  C   UNL     1      13.767  12.657   8.163  1.00  0.00     0.000 C 
BRANCH   8   9
ATOM      9  C   UNL     1      14.252  12.984   9.580  1.00  0.00     0.000 C 
BRANCH   9  10
ATOM     10  C   UNL     1      14.132  11.758  10.498  1.00  0.00     0.006 C 
BRANCH  10  11
ATOM     11  C   UNL     1      14.790  11.991  11.865  1.00  0.00     0.053 C 
BRANCH  11  12
ATOM     12  C   UNL     1      14.056  13.020  12.668  1.00  0.00     0.041 C 
ATOM     13  O   UNL     1      14.588  14.136  12.907  1.00  0.00    -0.550 OA
ATOM     14  O   UNL     1      12.769  12.760  13.125  1.00  0.00    -0.550 OA
ENDBRANCH  11  12
ENDBRANCH  10  11
ENDBRANCH   9  10
ENDBRANCH   8   9
ENDBRANCH   1   8
TORSDOF 9
ENDMDL
MODEL 6
REMARK VINA RESULT:    -3.005      1.470      2.371
REMARK INTER + INTRA:          -5.155
REMARK INTER:                  -4.497
REMARK INTRA:                  -0.657
REMARK UNBOUND:                -0.569
REMARK SMILES O=C([O-])CCCCCCCCC(=O)[O-]
REMARK SMILES IDX 7 1 6 2 5 3 4 4 2 5 1 6 3 7 8 8 9 9 10 10 11 11 12 12 13 13
REMARK SMILES IDX 14 14
REMARK H PARENT
REMARK Flexibility Score: inf
ROOT
ATOM      1  C   UNL     1      16.453  13.548   7.919  1.00  0.00     0.000 C 
ENDROOT
BRANCH   1   2
ATOM      2  C   UNL     1      15.023  13.310   7.416  1.00  0.00     0.000 C 
BRANCH   2   3
ATOM      3  C   UNL     1      14.120  12.796   8.547  1.00  0.00     0.006 C 
BRANCH   3   4
ATOM      4  C   UNL     1      14.541  13.338   9.919  1.00  0.00     0.053 C 
BRANCH   4   5
ATOM      5  C   UNL     1      14.247  12.361  11.017  1.00  0.00     0.041 C 
ATOM      6  O   UNL     1      13.405  12.646  11.908  1.00  0.00    -0.550 OA
ATOM      7  O   UNL     1      14.879  11.125  11.036  1.00  0.00    -0.550 OA
ENDBRANCH   4   5
ENDBRANCH   3   4
ENDBRANCH   2   3
ENDBRANCH   1   2
BRANCH   1   8
ATOM      8  C   UNL     1      16.994  14.895   7.424  1.00  0.00     0.000 C 
BRANCH   8   9
ATOM      9  C   UNL     1      15.948  16.003   7.593  1.00  0.00     0.000 C 
BRANCH   9  10
ATOM     10  C   UNL     1      16.042  16.641   8.987  1.00  0.00     0.006 C 
BRANCH  10  11
ATOM     11  C   UNL     1      15.641  18.122   8.977  1.00  0.00     0.053 C 
BRANCH  11  12
ATOM     12  C   UNL     1      15.746  18.736  10.338  1.00  0.00     0.041 C 
ATOM     13  O   UNL     1      15.676  19.986  10.476  1.00  0.00    -0.550 OA
ATOM     14  O   UNL     1      15.886  17.928  11.459  1.00  0.00    -0.550 OA
ENDBRANCH  11  12
ENDBRANCH  10  11
ENDBRANCH   9  10
ENDBRANCH   8   9
ENDBRANCH   1   8
TORSDOF 9
ENDMDL
MODEL 7
REMARK VINA RESULT:    -2.956      2.816      3.960
REMARK INTER + INTRA:          -5.081
REMARK INTER:                  -4.751
REMARK INTRA:                  -0.330
REMARK UNBOUND:                -0.569
REMARK SMILES O=C([O-])CCCCCCCCC(=O)[O-]
REMARK SMILES IDX 7 1 6 2 5 3 4 4 2 5 1 6 3 7 8 8 9 9 10 10 11 11 12 12 13 13
REMARK SMILES IDX 14 14
REMARK H PARENT
REMARK Flexibility Score: inf
ROOT
ATOM      1  C   UNL     1      15.884  15.946   8.948  1.00  0.00     0.000 C 
ENDROOT
BRANCH   1   2
ATOM      2  C   UNL     1      15.462  14.825   7.990  1.00  0.00     0.000 C 
BRANCH   2   3
ATOM      3  C   UNL     1      15.369  13.479   8.724  1.00  0.00     0.006 C 
BRANCH   3   4
ATOM      4  C   UNL     1      15.096  13.652  10.223  1.00  0.00     0.053 C 
BRANCH   4   5
ATOM      5  C   UNL     1      14.113  12.640  10.730  1.00  0.00     0.041 C 
ATOM      6  O   UNL     1      13.786  11.660  10.010  1.00  0.00    -0.550 OA
ATOM      7  O   UNL     1      13.586  12.761  12.009  1.00  0.00    -0.550 OA
ENDBRANCH   4   5
ENDBRANCH   3   4
ENDBRANCH   2   3
ENDBRANCH   1   2
BRANCH   1   8
ATOM      8  C   UNL     1      15.342  17.303   8.482  1.00  0.00     0.000 C 
BRANCH   8   9
ATOM      9  C   UNL     1      16.042  18.455   9.212  1.00  0.00     0.000 C 
BRANCH   9  10
ATOM     10  C   UNL     1      15.343  18.767  10.544  1.00  0.00     0.006 C 
BRANCH  10  11
ATOM     11  C   UNL     1      15.211  20.276  10.790  1.00  0.00     0.053 C 
BRANCH  11  12
ATOM     12  C   UNL     1      13.959  20.609  11.542  1.00  0.00     0.041 C 
ATOM     13  O   UNL     1      13.574  21.805  11.633  1.00  0.00    -0.550 OA
ATOM     14  O   UNL     1      13.199  19.597  12.114  1.00  0.00    -0.550 OA
ENDBRANCH  11  12
ENDBRANCH  10  11
ENDBRANCH   9  10
ENDBRANCH   8   9
ENDBRANCH   1   8
TORSDOF 9
ENDMDL
MODEL 8
REMARK VINA RESULT:    -2.932      2.008      2.324
REMARK INTER + INTRA:          -5.044
REMARK INTER:                  -4.503
REMARK INTRA:                  -0.541
REMARK UNBOUND:                -0.569
REMARK SMILES O=C([O-])CCCCCCCCC(=O)[O-]
REMARK SMILES IDX 7 1 6 2 5 3 4 4 2 5 1 6 3 7 8 8 9 9 10 10 11 11 12 12 13 13
REMARK SMILES IDX 14 14
REMARK H PARENT
REMARK Flexibility Score: inf
ROOT
ATOM      1  C   UNL     1      14.293  13.047   8.392  1.00  0.00     0.000 C 
ENDROOT
BRANCH   1   2
ATOM      2  C   UNL     1      14.149  12.300   9.724  1.00  0.00     0.000 C 
BRANCH   2   3
ATOM      3  C   UNL     1      15.085  12.888  10.790  1.00  0.00     0.006 C 
BRANCH   3   4
ATOM      4  C   UNL     1      16.382  12.082  10.935  1.00  0.00     0.053 C 
BRANCH   4   5
ATOM      5  C   UNL     1      16.220  10.934  11.885  1.00  0.00     0.041 C 
ATOM      6  O   UNL     1      15.512  11.063  12.917  1.00  0.00    -0.550 OA
ATOM      7  O   UNL     1      16.824   9.714  11.612  1.00  0.00    -0.550 OA
ENDBRANCH   4   5
ENDBRANCH   3   4
ENDBRANCH   2   3
ENDBRANCH   1   2
BRANCH   1   8
ATOM      8  C   UNL     1      14.868  14.453   8.609  1.00  0.00     0.000 C 
BRANCH   8   9
ATOM      9  C   UNL     1      15.898  14.799   7.527  1.00  0.00     0.000 C 
BRANCH   9  10
ATOM     10  C   UNL     1      16.179  16.308   7.498  1.00  0.00     0.006 C 
BRANCH  10  11
ATOM     11  C   UNL     1      15.215  17.095   8.396  1.00  0.00     0.053 C 
BRANCH  11  12
ATOM     12  C   UNL     1      15.945  17.902   9.424  1.00  0.00     0.041 C 
ATOM     13  O   UNL     1      17.122  17.595   9.752  1.00  0.00    -0.550 OA
ATOM     14  O   UNL     1      15.339  19.013   9.998  1.00  0.00    -0.550 OA
ENDBRANCH  11  12
ENDBRANCH  10  11
ENDBRANCH   9  10
ENDBRANCH   8   9
ENDBRANCH   1   8
TORSDOF 9
ENDMDL
MODEL 9
REMARK VINA RESULT:    -2.760      2.361      3.688
REMARK INTER + INTRA:          -4.781
REMARK INTER:                  -4.098
REMARK INTRA:                  -0.683
REMARK UNBOUND:                -0.569
REMARK SMILES O=C([O-])CCCCCCCCC(=O)[O-]
REMARK SMILES IDX 7 1 6 2 5 3 4 4 2 5 1 6 3 7 8 8 9 9 10 10 11 11 12 12 13 13
REMARK SMILES IDX 14 14
REMARK H PARENT
REMARK Flexibility Score: inf
ROOT
ATOM      1  C   UNL     1      16.722  15.755  10.645  1.00  0.00     0.000 C 
ENDROOT
BRANCH   1   2
ATOM      2  C   UNL     1      16.365  15.656  12.133  1.00  0.00     0.000 C 
BRANCH   2   3
ATOM      3  C   UNL     1      15.595  14.361  12.430  1.00  0.00     0.006 C 
BRANCH   3   4
ATOM      4  C   UNL     1      15.464  13.466  11.191  1.00  0.00     0.053 C 
BRANCH   4   5
ATOM      5  C   UNL     1      14.204  12.655  11.221  1.00  0.00     0.041 C 
ATOM      6  O   UNL     1      13.403  12.767  12.185  1.00  0.00    -0.550 OA
ATOM      7  O   UNL     1      13.900  11.802  10.169  1.00  0.00    -0.550 OA
ENDBRANCH   4   5
ENDBRANCH   3   4
ENDBRANCH   2   3
ENDBRANCH   1   2
BRANCH   1   8
ATOM      8  C   UNL     1      16.551  17.191  10.132  1.00  0.00     0.000 C 
BRANCH   8   9
ATOM      9  C   UNL     1      15.783  17.213   8.805  1.00  0.00     0.000 C 
BRANCH   9  10
ATOM     10  C   UNL     1      15.148  15.844   8.515  1.00  0.00     0.006 C 
BRANCH  10  11
ATOM     11  C   UNL     1      15.633  15.250   7.186  1.00  0.00     0.053 C 
BRANCH  11  12
ATOM     12  C   UNL     1      15.409  13.770   7.124  1.00  0.00     0.041 C 
ATOM     13  O   UNL     1      16.380  12.989   6.943  1.00  0.00    -0.550 OA
ATOM     14  O   UNL     1      14.132  13.251   7.299  1.00  0.00    -0.550 OA
ENDBRANCH  11  12
ENDBRANCH  10  11
ENDBRANCH   9  10
ENDBRANCH   8   9
ENDBRANCH   1   8
TORSDOF 9
ENDMDL
