MODEL 1
REMARK VINA RESULT:    -3.950      0.000      0.000
REMARK INTER + INTRA:          -5.873
REMARK INTER:                  -5.335
REMARK INTRA:                  -0.537
REMARK UNBOUND:                -0.537
REMARK SMILES [NH3+]CCCC[C@@H]([NH3+])C(=O)[O-]
REMARK SMILES IDX 4 1 3 2 2 3 1 4 5 8 6 9 7 10 8 14 9 15 10 16
REMARK H PARENT 1 5 1 6 1 7 7 11 7 12 7 13
REMARK Flexibility Score: inf
ROOT
ATOM      1  C   UNL     1      11.533  47.966  64.069  1.00  0.00     0.012 C 
ENDROOT
BRANCH   1   2
ATOM      2  C   UNL     1      11.792  49.469  63.886  1.00  0.00     0.061 C 
BRANCH   2   3
ATOM      3  C   UNL     1      12.868  49.715  62.819  1.00  0.00     0.258 C 
BRANCH   3   4
ATOM      4  N   UNL     1      13.253  48.465  62.166  1.00  0.00    -0.358 N 
ATOM      5  H   UNL     1      12.628  48.279  61.348  1.00  0.00     0.344 HD
ATOM      6  H   UNL     1      14.239  48.545  61.827  1.00  0.00     0.344 HD
ATOM      7  H   UNL     1      13.193  47.672  62.845  1.00  0.00     0.344 HD
ENDBRANCH   3   4
ENDBRANCH   2   3
ENDBRANCH   1   2
BRANCH   1   8
ATOM      8  C   UNL     1      10.069  47.570  63.802  1.00  0.00     0.072 C 
BRANCH   8   9
ATOM      9  C   UNL     1       9.830  46.823  62.469  1.00  0.00     0.227 C 
BRANCH   9  10
ATOM     10  N   UNL     1       8.621  45.987  62.518  1.00  0.00    -0.350 N 
ATOM     11  H   UNL     1       7.974  46.247  61.737  1.00  0.00     0.345 HD
ATOM     12  H   UNL     1       8.875  44.981  62.391  1.00  0.00     0.345 HD
ATOM     13  H   UNL     1       8.123  46.108  63.429  1.00  0.00     0.345 HD
ENDBRANCH   9  10
BRANCH   9  14
ATOM     14  C   UNL     1       9.727  47.821  61.346  1.00  0.00     0.099 C 
ATOM     15  O   UNL     1       8.719  48.571  61.247  1.00  0.00    -0.544 OA
ATOM     16  O   UNL     1      10.762  47.942  60.428  1.00  0.00    -0.544 OA
ENDBRANCH   9  14
ENDBRANCH   8   9
ENDBRANCH   1   8
TORSDOF 7
ENDMDL
MODEL 2
REMARK VINA RESULT:    -3.819      1.648      4.013
REMARK INTER + INTRA:          -5.696
REMARK INTER:                  -5.445
REMARK INTRA:                  -0.251
REMARK UNBOUND:                -0.537
REMARK SMILES [NH3+]CCCC[C@@H]([NH3+])C(=O)[O-]
REMARK SMILES IDX 4 1 3 2 2 3 1 4 5 8 6 9 7 10 8 14 9 15 10 16
REMARK H PARENT 1 5 1 6 1 7 7 11 7 12 7 13
REMARK Flexibility Score: inf
ROOT
ATOM      1  C   UNL     1      10.448  49.048  63.889  1.00  0.00     0.012 C 
ENDROOT
BRANCH   1   2
ATOM      2  C   UNL     1      10.119  47.554  64.026  1.00  0.00     0.061 C 
BRANCH   2   3
ATOM      3  C   UNL     1       9.972  46.895  62.648  1.00  0.00     0.258 C 
BRANCH   3   4
ATOM      4  N   UNL     1       8.771  46.062  62.592  1.00  0.00    -0.358 N 
ATOM      5  H   UNL     1       8.218  46.287  61.734  1.00  0.00     0.344 HD
ATOM      6  H   UNL     1       9.053  45.056  62.560  1.00  0.00     0.344 HD
ATOM      7  H   UNL     1       8.184  46.221  63.444  1.00  0.00     0.344 HD
ENDBRANCH   3   4
ENDBRANCH   2   3
ENDBRANCH   1   2
BRANCH   1   8
ATOM      8  C   UNL     1      11.956  49.344  63.981  1.00  0.00     0.072 C 
BRANCH   8   9
ATOM      9  C   UNL     1      12.508  50.268  62.870  1.00  0.00     0.227 C 
BRANCH   9  10
ATOM     10  N   UNL     1      13.909  50.641  63.112  1.00  0.00    -0.350 N 
ATOM     11  H   UNL     1      13.954  51.472  63.746  1.00  0.00     0.345 HD
ATOM     12  H   UNL     1      14.412  49.858  63.588  1.00  0.00     0.345 HD
ATOM     13  H   UNL     1      14.393  50.870  62.213  1.00  0.00     0.345 HD
ENDBRANCH   9  10
BRANCH   9  14
ATOM     14  C   UNL     1      12.374  49.583  61.537  1.00  0.00     0.099 C 
ATOM     15  O   UNL     1      13.021  48.530  61.291  1.00  0.00    -0.544 OA
ATOM     16  O   UNL     1      11.508  50.093  60.577  1.00  0.00    -0.544 OA
ENDBRANCH   9  14
ENDBRANCH   8   9
ENDBRANCH   1   8
TORSDOF 7
ENDMDL
MODEL 3
REMARK VINA RESULT:    -3.736      1.362      1.705
REMARK INTER + INTRA:          -5.583
REMARK INTER:                  -5.170
REMARK INTRA:                  -0.413
REMARK UNBOUND:                -0.537
REMARK SMILES [NH3+]CCCC[C@@H]([NH3+])C(=O)[O-]
REMARK SMILES IDX 4 1 3 2 2 3 1 4 5 8 6 9 7 10 8 14 9 15 10 16
REMARK H PARENT 1 5 1 6 1 7 7 11 7 12 7 13
REMARK Flexibility Score: inf
ROOT
ATOM      1  C   UNL     1      12.203  49.406  63.867  1.00  0.00     0.012 C 
ENDROOT
BRANCH   1   2
ATOM      2  C   UNL     1      12.691  50.496  62.902  1.00  0.00     0.061 C 
BRANCH   2   3
ATOM      3  C   UNL     1      13.398  49.878  61.687  1.00  0.00     0.258 C 
BRANCH   3   4
ATOM      4  N   UNL     1      13.577  48.437  61.863  1.00  0.00    -0.358 N 
ATOM      5  H   UNL     1      12.812  48.050  62.462  1.00  0.00     0.344 HD
ATOM      6  H   UNL     1      13.544  47.971  60.928  1.00  0.00     0.344 HD
ATOM      7  H   UNL     1      14.505  48.242  62.305  1.00  0.00     0.344 HD
ENDBRANCH   3   4
ENDBRANCH   2   3
ENDBRANCH   1   2
BRANCH   1   8
ATOM      8  C   UNL     1      10.682  49.175  63.795  1.00  0.00     0.072 C 
BRANCH   8   9
ATOM      9  C   UNL     1      10.244  47.693  63.858  1.00  0.00     0.227 C 
BRANCH   9  10
ATOM     10  N   UNL     1       9.083  47.501  64.740  1.00  0.00    -0.350 N 
ATOM     11  H   UNL     1       8.198  47.570  64.185  1.00  0.00     0.345 HD
ATOM     12  H   UNL     1       9.110  46.547  65.165  1.00  0.00     0.345 HD
ATOM     13  H   UNL     1       9.070  48.221  65.498  1.00  0.00     0.345 HD
ENDBRANCH   9  10
BRANCH   9  14
ATOM     14  C   UNL     1       9.929  47.205  62.469  1.00  0.00     0.099 C 
ATOM     15  O   UNL     1       9.003  46.372  62.278  1.00  0.00    -0.544 OA
ATOM     16  O   UNL     1      10.642  47.697  61.382  1.00  0.00    -0.544 OA
ENDBRANCH   9  14
ENDBRANCH   8   9
ENDBRANCH   1   8
TORSDOF 7
ENDMDL
MODEL 4
REMARK VINA RESULT:    -3.685      1.611      3.836
REMARK INTER + INTRA:          -5.515
REMARK INTER:                  -5.290
REMARK INTRA:                  -0.225
REMARK UNBOUND:                -0.537
REMARK SMILES [NH3+]CCCC[C@@H]([NH3+])C(=O)[O-]
REMARK SMILES IDX 4 1 3 2 2 3 1 4 5 8 6 9 7 10 8 14 9 15 10 16
REMARK H PARENT 1 5 1 6 1 7 7 11 7 12 7 13
REMARK Flexibility Score: inf
ROOT
ATOM      1  C   UNL     1      11.310  48.783  63.837  1.00  0.00     0.012 C 
ENDROOT
BRANCH   1   2
ATOM      2  C   UNL     1      10.497  47.480  63.869  1.00  0.00     0.061 C 
BRANCH   2   3
ATOM      3  C   UNL     1       9.630  47.342  62.610  1.00  0.00     0.258 C 
BRANCH   3   4
ATOM      4  N   UNL     1       8.875  46.090  62.629  1.00  0.00    -0.358 N 
ATOM      5  H   UNL     1       8.295  46.007  61.763  1.00  0.00     0.344 HD
ATOM      6  H   UNL     1       9.544  45.288  62.667  1.00  0.00     0.344 HD
ATOM      7  H   UNL     1       8.258  46.055  63.473  1.00  0.00     0.344 HD
ENDBRANCH   3   4
ENDBRANCH   2   3
ENDBRANCH   1   2
BRANCH   1   8
ATOM      8  C   UNL     1      11.257  49.492  62.471  1.00  0.00     0.072 C 
BRANCH   8   9
ATOM      9  C   UNL     1      12.634  49.737  61.810  1.00  0.00     0.227 C 
BRANCH   9  10
ATOM     10  N   UNL     1      13.713  49.819  62.806  1.00  0.00    -0.350 N 
ATOM     11  H   UNL     1      13.321  50.091  63.737  1.00  0.00     0.345 HD
ATOM     12  H   UNL     1      14.167  48.885  62.920  1.00  0.00     0.345 HD
ATOM     13  H   UNL     1      14.431  50.522  62.517  1.00  0.00     0.345 HD
ENDBRANCH   9  10
BRANCH   9  14
ATOM     14  C   UNL     1      12.918  48.636  60.824  1.00  0.00     0.099 C 
ATOM     15  O   UNL     1      11.977  48.072  60.205  1.00  0.00    -0.544 OA
ATOM     16  O   UNL     1      14.230  48.255  60.567  1.00  0.00    -0.544 OA
ENDBRANCH   9  14
ENDBRANCH   8   9
ENDBRANCH   1   8
TORSDOF 7
ENDMDL
MODEL 5
REMARK VINA RESULT:    -3.580      2.492      3.757
REMARK INTER + INTRA:          -5.373
REMARK INTER:                  -5.171
REMARK INTRA:                  -0.202
REMARK UNBOUND:                -0.537
REMARK SMILES [NH3+]CCCC[C@@H]([NH3+])C(=O)[O-]
REMARK SMILES IDX 4 1 3 2 2 3 1 4 5 8 6 9 7 10 8 14 9 15 10 16
REMARK H PARENT 1 5 1 6 1 7 7 11 7 12 7 13
REMARK Flexibility Score: inf
ROOT
ATOM      1  C   UNL     1      11.603  48.699  63.284  1.00  0.00     0.012 C 
ENDROOT
BRANCH   1   2
ATOM      2  C   UNL     1      11.081  47.281  63.557  1.00  0.00     0.061 C 
BRANCH   2   3
ATOM      3  C   UNL     1       9.547  47.259  63.603  1.00  0.00     0.258 C 
BRANCH   3   4
ATOM      4  N   UNL     1       9.013  46.210  62.735  1.00  0.00    -0.358 N 
ATOM      5  H   UNL     1       8.297  45.647  63.250  1.00  0.00     0.344 HD
ATOM      6  H   UNL     1       8.561  46.652  61.902  1.00  0.00     0.344 HD
ATOM      7  H   UNL     1       9.786  45.586  62.408  1.00  0.00     0.344 HD
ENDBRANCH   3   4
ENDBRANCH   2   3
ENDBRANCH   1   2
BRANCH   1   8
ATOM      8  C   UNL     1      11.299  49.187  61.855  1.00  0.00     0.072 C 
BRANCH   8   9
ATOM      9  C   UNL     1      11.955  48.354  60.729  1.00  0.00     0.227 C 
BRANCH   9  10
ATOM     10  N   UNL     1      11.148  48.361  59.500  1.00  0.00    -0.350 N 
ATOM     11  H   UNL     1      10.555  49.223  59.466  1.00  0.00     0.345 HD
ATOM     12  H   UNL     1      11.771  48.378  58.661  1.00  0.00     0.345 HD
ATOM     13  H   UNL     1      10.530  47.518  59.457  1.00  0.00     0.345 HD
ENDBRANCH   9  10
BRANCH   9  14
ATOM     14  C   UNL     1      13.334  48.891  60.449  1.00  0.00     0.099 C 
ATOM     15  O   UNL     1      13.545  50.133  60.429  1.00  0.00    -0.544 OA
ATOM     16  O   UNL     1      14.391  48.013  60.240  1.00  0.00    -0.544 OA
ENDBRANCH   9  14
ENDBRANCH   8   9
ENDBRANCH   1   8
TORSDOF 7
ENDMDL
MODEL 6
REMARK VINA RESULT:    -3.548      1.972      2.614
REMARK INTER + INTRA:          -5.329
REMARK INTER:                  -4.817
REMARK INTRA:                  -0.512
REMARK UNBOUND:                -0.537
REMARK SMILES [NH3+]CCCC[C@@H]([NH3+])C(=O)[O-]
REMARK SMILES IDX 4 1 3 2 2 3 1 4 5 8 6 9 7 10 8 14 9 15 10 16
REMARK H PARENT 1 5 1 6 1 7 7 11 7 12 7 13
REMARK Flexibility Score: inf
ROOT
ATOM      1  C   UNL     1      10.349  49.008  60.448  1.00  0.00     0.012 C 
ENDROOT
BRANCH   1   2
ATOM      2  C   UNL     1      11.785  49.546  60.544  1.00  0.00     0.061 C 
BRANCH   2   3
ATOM      3  C   UNL     1      12.801  48.396  60.581  1.00  0.00     0.258 C 
BRANCH   3   4
ATOM      4  N   UNL     1      13.582  48.428  61.817  1.00  0.00    -0.358 N 
ATOM      5  H   UNL     1      13.602  47.478  62.253  1.00  0.00     0.344 HD
ATOM      6  H   UNL     1      14.561  48.721  61.596  1.00  0.00     0.344 HD
ATOM      7  H   UNL     1      13.166  49.116  62.486  1.00  0.00     0.344 HD
ENDBRANCH   3   4
ENDBRANCH   2   3
ENDBRANCH   1   2
BRANCH   1   8
ATOM      8  C   UNL     1      10.195  47.597  61.044  1.00  0.00     0.072 C 
BRANCH   8   9
ATOM      9  C   UNL     1       9.304  47.516  62.306  1.00  0.00     0.227 C 
BRANCH   9  10
ATOM     10  N   UNL     1       8.885  46.137  62.594  1.00  0.00    -0.350 N 
ATOM     11  H   UNL     1       8.310  45.765  61.803  1.00  0.00     0.345 HD
ATOM     12  H   UNL     1       9.723  45.520  62.688  1.00  0.00     0.345 HD
ATOM     13  H   UNL     1       8.322  46.096  63.475  1.00  0.00     0.345 HD
ENDBRANCH   9  10
BRANCH   9  14
ATOM     14  C   UNL     1      10.048  48.091  63.481  1.00  0.00     0.099 C 
ATOM     15  O   UNL     1       9.520  48.980  64.201  1.00  0.00    -0.544 OA
ATOM     16  O   UNL     1      11.316  47.618  63.798  1.00  0.00    -0.544 OA
ENDBRANCH   9  14
ENDBRANCH   8   9
ENDBRANCH   1   8
TORSDOF 7
ENDMDL
MODEL 7
REMARK VINA RESULT:    -3.515      2.241      4.424
REMARK INTER + INTRA:          -5.284
REMARK INTER:                  -5.102
REMARK INTRA:                  -0.183
REMARK UNBOUND:                -0.537
REMARK SMILES [NH3+]CCCC[C@@H]([NH3+])C(=O)[O-]
REMARK SMILES IDX 4 1 3 2 2 3 1 4 5 8 6 9 7 10 8 14 9 15 10 16
REMARK H PARENT 1 5 1 6 1 7 7 11 7 12 7 13
REMARK Flexibility Score: inf
ROOT
ATOM      1  C   UNL     1      10.471  47.999  60.875  1.00  0.00     0.012 C 
ENDROOT
BRANCH   1   2
ATOM      2  C   UNL     1       9.609  48.242  62.123  1.00  0.00     0.061 C 
BRANCH   2   3
ATOM      3  C   UNL     1       9.580  46.998  63.022  1.00  0.00     0.258 C 
BRANCH   3   4
ATOM      4  N   UNL     1       8.658  45.993  62.495  1.00  0.00    -0.358 N 
ATOM      5  H   UNL     1       8.947  45.711  61.530  1.00  0.00     0.344 HD
ATOM      6  H   UNL     1       8.679  45.151  63.115  1.00  0.00     0.344 HD
ATOM      7  H   UNL     1       7.684  46.374  62.476  1.00  0.00     0.344 HD
ENDBRANCH   3   4
ENDBRANCH   2   3
ENDBRANCH   1   2
BRANCH   1   8
ATOM      8  C   UNL     1      11.698  48.927  60.803  1.00  0.00     0.072 C 
BRANCH   8   9
ATOM      9  C   UNL     1      12.798  48.636  61.852  1.00  0.00     0.227 C 
BRANCH   9  10
ATOM     10  N   UNL     1      14.083  48.302  61.221  1.00  0.00    -0.350 N 
ATOM     11  H   UNL     1      14.785  48.044  61.954  1.00  0.00     0.345 HD
ATOM     12  H   UNL     1      13.970  47.474  60.593  1.00  0.00     0.345 HD
ATOM     13  H   UNL     1      14.447  49.112  60.668  1.00  0.00     0.345 HD
ENDBRANCH   9  10
BRANCH   9  14
ATOM     14  C   UNL     1      12.956  49.829  62.755  1.00  0.00     0.099 C 
ATOM     15  O   UNL     1      13.881  50.662  62.559  1.00  0.00    -0.544 OA
ATOM     16  O   UNL     1      12.059  50.036  63.797  1.00  0.00    -0.544 OA
ENDBRANCH   9  14
ENDBRANCH   8   9
ENDBRANCH   1   8
TORSDOF 7
ENDMDL
MODEL 8
REMARK VINA RESULT:    -3.453      1.984      2.594
REMARK INTER + INTRA:          -5.202
REMARK INTER:                  -4.941
REMARK INTRA:                  -0.260
REMARK UNBOUND:                -0.537
REMARK SMILES [NH3+]CCCC[C@@H]([NH3+])C(=O)[O-]
REMARK SMILES IDX 4 1 3 2 2 3 1 4 5 8 6 9 7 10 8 14 9 15 10 16
REMARK H PARENT 1 5 1 6 1 7 7 11 7 12 7 13
REMARK Flexibility Score: inf
ROOT
ATOM      1  C   UNL     1      11.208  48.914  61.275  1.00  0.00     0.012 C 
ENDROOT
BRANCH   1   2
ATOM      2  C   UNL     1      12.680  49.041  61.694  1.00  0.00     0.061 C 
BRANCH   2   3
ATOM      3  C   UNL     1      12.822  49.922  62.944  1.00  0.00     0.258 C 
BRANCH   3   4
ATOM      4  N   UNL     1      14.124  50.585  62.971  1.00  0.00    -0.358 N 
ATOM      5  H   UNL     1      14.731  50.217  62.203  1.00  0.00     0.344 HD
ATOM      6  H   UNL     1      13.988  51.613  62.832  1.00  0.00     0.344 HD
ATOM      7  H   UNL     1      14.588  50.428  63.895  1.00  0.00     0.344 HD
ENDBRANCH   3   4
ENDBRANCH   2   3
ENDBRANCH   1   2
BRANCH   1   8
ATOM      8  C   UNL     1      10.637  47.502  61.505  1.00  0.00     0.072 C 
BRANCH   8   9
ATOM      9  C   UNL     1       9.406  47.442  62.440  1.00  0.00     0.227 C 
BRANCH   9  10
ATOM     10  N   UNL     1       8.886  46.073  62.575  1.00  0.00    -0.350 N 
ATOM     11  H   UNL     1       8.785  45.635  61.630  1.00  0.00     0.345 HD
ATOM     12  H   UNL     1       9.557  45.487  63.121  1.00  0.00     0.345 HD
ATOM     13  H   UNL     1       7.956  46.075  63.053  1.00  0.00     0.345 HD
ENDBRANCH   9  10
BRANCH   9  14
ATOM     14  C   UNL     1       9.777  47.993  63.791  1.00  0.00     0.099 C 
ATOM     15  O   UNL     1      10.703  47.468  64.465  1.00  0.00    -0.544 OA
ATOM     16  O   UNL     1       9.116  49.109  64.291  1.00  0.00    -0.544 OA
ENDBRANCH   9  14
ENDBRANCH   8   9
ENDBRANCH   1   8
TORSDOF 7
ENDMDL
MODEL 9
REMARK VINA RESULT:    -3.443      4.217      5.749
REMARK INTER + INTRA:          -5.187
REMARK INTER:                  -5.002
REMARK INTRA:                  -0.186
REMARK UNBOUND:                -0.537
REMARK SMILES [NH3+]CCCC[C@@H]([NH3+])C(=O)[O-]
REMARK SMILES IDX 4 1 3 2 2 3 1 4 5 8 6 9 7 10 8 14 9 15 10 16
REMARK H PARENT 1 5 1 6 1 7 7 11 7 12 7 13
REMARK Flexibility Score: inf
ROOT
ATOM      1  C   UNL     1      15.935  50.135  59.639  1.00  0.00     0.012 C 
ENDROOT
BRANCH   1   2
ATOM      2  C   UNL     1      16.002  50.251  58.109  1.00  0.00     0.061 C 
BRANCH   2   3
ATOM      3  C   UNL     1      16.201  48.873  57.462  1.00  0.00     0.258 C 
BRANCH   3   4
ATOM      4  N   UNL     1      15.195  48.631  56.428  1.00  0.00    -0.358 N 
ATOM      5  H   UNL     1      15.658  48.506  55.499  1.00  0.00     0.344 HD
ATOM      6  H   UNL     1      14.666  47.760  56.663  1.00  0.00     0.344 HD
ATOM      7  H   UNL     1      14.525  49.432  56.385  1.00  0.00     0.344 HD
ENDBRANCH   3   4
ENDBRANCH   2   3
ENDBRANCH   1   2
BRANCH   1   8
ATOM      8  C   UNL     1      14.536  50.446  60.205  1.00  0.00     0.072 C 
BRANCH   8   9
ATOM      9  C   UNL     1      13.713  49.205  60.623  1.00  0.00     0.227 C 
BRANCH   9  10
ATOM     10  N   UNL     1      14.509  47.971  60.559  1.00  0.00    -0.350 N 
ATOM     11  H   UNL     1      15.530  48.203  60.570  1.00  0.00     0.345 HD
ATOM     12  H   UNL     1      14.316  47.375  61.395  1.00  0.00     0.345 HD
ATOM     13  H   UNL     1      14.290  47.433  59.690  1.00  0.00     0.345 HD
ENDBRANCH   9  10
BRANCH   9  14
ATOM     14  C   UNL     1      13.177  49.407  62.016  1.00  0.00     0.099 C 
ATOM     15  O   UNL     1      12.423  48.546  62.542  1.00  0.00    -0.544 OA
ATOM     16  O   UNL     1      13.539  50.534  62.743  1.00  0.00    -0.544 OA
ENDBRANCH   9  14
ENDBRANCH   8   9
ENDBRANCH   1   8
TORSDOF 7
ENDMDL
