MODEL 1
REMARK VINA RESULT:    -4.509      0.000      0.000
REMARK INTER + INTRA:          -4.916
REMARK INTER:                  -4.772
REMARK INTRA:                  -0.144
REMARK UNBOUND:                -0.144
REMARK SMILES C=C1CC=C(C(C)C)CC1
REMARK SMILES IDX 5 1 4 2 3 3 2 4 1 5 10 6 9 7 6 8 7 9 8 10
REMARK H PARENT
REMARK Flexibility Score: inf
ROOT
ATOM      1  C   UNL     1      32.328  10.583  31.294  1.00  0.00    -0.071 C 
ATOM      2  C   UNL     1      32.838  11.722  30.775  1.00  0.00    -0.023 C 
ATOM      3  C   UNL     1      32.385  12.241  29.435  1.00  0.00     0.057 C 
ATOM      4  C   UNL     1      32.096  11.101  28.482  1.00  0.00    -0.073 C 
ATOM      5  C   UNL     1      32.197  11.289  27.158  1.00  0.00     0.008 C 
ATOM      6  C   UNL     1      31.654   9.756  29.019  1.00  0.00     0.035 C 
ATOM      7  C   UNL     1      31.272   9.839  30.505  1.00  0.00     0.035 C 
ENDROOT
BRANCH   1   8
ATOM      8  C   UNL     1      32.809  10.034  32.627  1.00  0.00     0.008 C 
ATOM      9  C   UNL     1      32.016   8.787  33.037  1.00  0.00     0.012 C 
ATOM     10  C   UNL     1      32.756  11.108  33.721  1.00  0.00     0.012 C 
ENDBRANCH   1   8
TORSDOF 1
ENDMDL
MODEL 2
REMARK VINA RESULT:    -4.480      2.330      5.967
REMARK INTER + INTRA:          -4.885
REMARK INTER:                  -4.736
REMARK INTRA:                  -0.149
REMARK UNBOUND:                -0.144
REMARK SMILES C=C1CC=C(C(C)C)CC1
REMARK SMILES IDX 5 1 4 2 3 3 2 4 1 5 10 6 9 7 6 8 7 9 8 10
REMARK H PARENT
REMARK Flexibility Score: inf
ROOT
ATOM      1  C   UNL     1      31.831   8.952  33.548  1.00  0.00    -0.071 C 
ATOM      2  C   UNL     1      31.704   7.622  33.350  1.00  0.00    -0.023 C 
ATOM      3  C   UNL     1      30.890   6.767  34.287  1.00  0.00     0.057 C 
ATOM      4  C   UNL     1      31.015   7.258  35.714  1.00  0.00    -0.073 C 
ATOM      5  C   UNL     1      30.843   6.407  36.735  1.00  0.00     0.008 C 
ATOM      6  C   UNL     1      31.299   8.720  35.992  1.00  0.00     0.035 C 
ATOM      7  C   UNL     1      31.124   9.578  34.730  1.00  0.00     0.035 C 
ENDROOT
BRANCH   1   8
ATOM      8  C   UNL     1      32.682   9.812  32.627  1.00  0.00     0.008 C 
ATOM      9  C   UNL     1      33.123  11.107  33.322  1.00  0.00     0.012 C 
ATOM     10  C   UNL     1      31.951  10.111  31.313  1.00  0.00     0.012 C 
ENDBRANCH   1   8
TORSDOF 1
ENDMDL
MODEL 3
REMARK VINA RESULT:    -4.373      0.952      4.379
REMARK INTER + INTRA:          -4.772
REMARK INTER:                  -4.586
REMARK INTRA:                  -0.186
REMARK UNBOUND:                -0.144
REMARK SMILES C=C1CC=C(C(C)C)CC1
REMARK SMILES IDX 5 1 4 2 3 3 2 4 1 5 10 6 9 7 6 8 7 9 8 10
REMARK H PARENT
REMARK Flexibility Score: inf
ROOT
ATOM      1  C   UNL     1      31.551  10.530  29.237  1.00  0.00    -0.071 C 
ATOM      2  C   UNL     1      31.348   9.497  30.084  1.00  0.00    -0.023 C 
ATOM      3  C   UNL     1      31.439   9.682  31.577  1.00  0.00     0.057 C 
ATOM      4  C   UNL     1      32.516  10.685  31.934  1.00  0.00    -0.073 C 
ATOM      5  C   UNL     1      33.123  10.622  33.127  1.00  0.00     0.008 C 
ATOM      6  C   UNL     1      32.883  11.784  30.959  1.00  0.00     0.035 C 
ATOM      7  C   UNL     1      31.859  11.892  29.820  1.00  0.00     0.035 C 
ENDROOT
BRANCH   1   8
ATOM      8  C   UNL     1      31.498  10.340  27.730  1.00  0.00     0.008 C 
ATOM      9  C   UNL     1      31.896   8.913  27.332  1.00  0.00     0.012 C 
ATOM     10  C   UNL     1      32.368  11.377  27.009  1.00  0.00     0.012 C 
ENDBRANCH   1   8
TORSDOF 1
ENDMDL
MODEL 4
REMARK VINA RESULT:    -4.309      1.201      1.905
REMARK INTER + INTRA:          -4.705
REMARK INTER:                  -4.518
REMARK INTRA:                  -0.187
REMARK UNBOUND:                -0.144
REMARK SMILES C=C1CC=C(C(C)C)CC1
REMARK SMILES IDX 5 1 4 2 3 3 2 4 1 5 10 6 9 7 6 8 7 9 8 10
REMARK H PARENT
REMARK Flexibility Score: inf
ROOT
ATOM      1  C   UNL     1      31.524   9.595  31.081  1.00  0.00    -0.071 C 
ATOM      2  C   UNL     1      32.003  10.587  30.299  1.00  0.00    -0.023 C 
ATOM      3  C   UNL     1      31.649  10.669  28.837  1.00  0.00     0.057 C 
ATOM      4  C   UNL     1      31.532   9.288  28.229  1.00  0.00    -0.073 C 
ATOM      5  C   UNL     1      31.750   9.109  26.919  1.00  0.00     0.008 C 
ATOM      6  C   UNL     1      31.134   8.109  29.093  1.00  0.00     0.035 C 
ATOM      7  C   UNL     1      30.604   8.566  30.460  1.00  0.00     0.035 C 
ENDROOT
BRANCH   1   8
ATOM      8  C   UNL     1      31.909   9.486  32.548  1.00  0.00     0.008 C 
ATOM      9  C   UNL     1      33.123  10.367  32.873  1.00  0.00     0.012 C 
ATOM     10  C   UNL     1      32.161   8.028  32.948  1.00  0.00     0.012 C 
ENDBRANCH   1   8
TORSDOF 1
ENDMDL
MODEL 5
REMARK VINA RESULT:    -4.304      2.632      4.286
REMARK INTER + INTRA:          -4.699
REMARK INTER:                  -4.513
REMARK INTRA:                  -0.186
REMARK UNBOUND:                -0.144
REMARK SMILES C=C1CC=C(C(C)C)CC1
REMARK SMILES IDX 5 1 4 2 3 3 2 4 1 5 10 6 9 7 6 8 7 9 8 10
REMARK H PARENT
REMARK Flexibility Score: inf
ROOT
ATOM      1  C   UNL     1      31.052   9.166  34.772  1.00  0.00    -0.071 C 
ATOM      2  C   UNL     1      31.013  10.516  34.802  1.00  0.00    -0.023 C 
ATOM      3  C   UNL     1      31.294  11.333  33.568  1.00  0.00     0.057 C 
ATOM      4  C   UNL     1      32.361  10.678  32.715  1.00  0.00    -0.073 C 
ATOM      5  C   UNL     1      33.125  11.424  31.905  1.00  0.00     0.008 C 
ATOM      6  C   UNL     1      32.543   9.175  32.750  1.00  0.00     0.035 C 
ATOM      7  C   UNL     1      31.372   8.481  33.461  1.00  0.00     0.035 C 
ENDROOT
BRANCH   1   8
ATOM      8  C   UNL     1      30.808   8.338  36.024  1.00  0.00     0.008 C 
ATOM      9  C   UNL     1      31.196   9.113  37.290  1.00  0.00     0.012 C 
ATOM     10  C   UNL     1      31.541   6.994  35.952  1.00  0.00     0.012 C 
ENDBRANCH   1   8
TORSDOF 1
ENDMDL
MODEL 6
REMARK VINA RESULT:    -4.262      1.917      4.071
REMARK INTER + INTRA:          -4.654
REMARK INTER:                  -4.475
REMARK INTRA:                  -0.179
REMARK UNBOUND:                -0.144
REMARK SMILES C=C1CC=C(C(C)C)CC1
REMARK SMILES IDX 5 1 4 2 3 3 2 4 1 5 10 6 9 7 6 8 7 9 8 10
REMARK H PARENT
REMARK Flexibility Score: inf
ROOT
ATOM      1  C   UNL     1      32.401   9.616  32.187  1.00  0.00    -0.071 C 
ATOM      2  C   UNL     1      32.521   8.602  33.072  1.00  0.00    -0.023 C 
ATOM      3  C   UNL     1      31.803   7.294  32.861  1.00  0.00     0.057 C 
ATOM      4  C   UNL     1      30.449   7.515  32.222  1.00  0.00    -0.073 C 
ATOM      5  C   UNL     1      29.460   6.631  32.417  1.00  0.00     0.008 C 
ATOM      6  C   UNL     1      30.217   8.718  31.331  1.00  0.00     0.035 C 
ATOM      7  C   UNL     1      31.538   9.409  30.962  1.00  0.00     0.035 C 
ENDROOT
BRANCH   1   8
ATOM      8  C   UNL     1      33.092  10.951  32.415  1.00  0.00     0.008 C 
ATOM      9  C   UNL     1      32.548  11.655  33.666  1.00  0.00     0.012 C 
ATOM     10  C   UNL     1      32.980  11.852  31.180  1.00  0.00     0.012 C 
ENDBRANCH   1   8
TORSDOF 1
ENDMDL
MODEL 7
REMARK VINA RESULT:    -4.226      1.208      4.593
REMARK INTER + INTRA:          -4.617
REMARK INTER:                  -4.445
REMARK INTRA:                  -0.172
REMARK UNBOUND:                -0.144
REMARK SMILES C=C1CC=C(C(C)C)CC1
REMARK SMILES IDX 5 1 4 2 3 3 2 4 1 5 10 6 9 7 6 8 7 9 8 10
REMARK H PARENT
REMARK Flexibility Score: inf
ROOT
ATOM      1  C   UNL     1      32.106  10.315  31.634  1.00  0.00    -0.071 C 
ATOM      2  C   UNL     1      32.442  11.438  32.306  1.00  0.00    -0.023 C 
ATOM      3  C   UNL     1      32.747  11.403  33.781  1.00  0.00     0.057 C 
ATOM      4  C   UNL     1      31.872  10.393  34.492  1.00  0.00    -0.073 C 
ATOM      5  C   UNL     1      31.585  10.550  35.792  1.00  0.00     0.008 C 
ATOM      6  C   UNL     1      31.348   9.184  33.745  1.00  0.00     0.035 C 
ATOM      7  C   UNL     1      32.054   9.007  32.393  1.00  0.00     0.035 C 
ENDROOT
BRANCH   1   8
ATOM      8  C   UNL     1      31.759  10.351  30.154  1.00  0.00     0.008 C 
ATOM      9  C   UNL     1      32.537  11.455  29.425  1.00  0.00     0.012 C 
ATOM     10  C   UNL     1      30.249  10.506  29.941  1.00  0.00     0.012 C 
ENDBRANCH   1   8
TORSDOF 1
ENDMDL
MODEL 8
REMARK VINA RESULT:    -4.216      1.386      4.681
REMARK INTER + INTRA:          -4.607
REMARK INTER:                  -4.421
REMARK INTRA:                  -0.185
REMARK UNBOUND:                -0.144
REMARK SMILES C=C1CC=C(C(C)C)CC1
REMARK SMILES IDX 5 1 4 2 3 3 2 4 1 5 10 6 9 7 6 8 7 9 8 10
REMARK H PARENT
REMARK Flexibility Score: inf
ROOT
ATOM      1  C   UNL     1      31.226   9.394  29.748  1.00  0.00    -0.071 C 
ATOM      2  C   UNL     1      30.785   8.133  29.948  1.00  0.00    -0.023 C 
ATOM      3  C   UNL     1      30.591   7.585  31.338  1.00  0.00     0.057 C 
ATOM      4  C   UNL     1      31.645   8.119  32.284  1.00  0.00    -0.073 C 
ATOM      5  C   UNL     1      31.997   7.413  33.367  1.00  0.00     0.008 C 
ATOM      6  C   UNL     1      32.278   9.472  32.028  1.00  0.00     0.035 C 
ATOM      7  C   UNL     1      31.512  10.260  30.956  1.00  0.00     0.035 C 
ENDROOT
BRANCH   1   8
ATOM      8  C   UNL     1      31.461   9.938  28.348  1.00  0.00     0.008 C 
ATOM      9  C   UNL     1      31.963   8.842  27.399  1.00  0.00     0.012 C 
ATOM     10  C   UNL     1      32.421  11.133  28.371  1.00  0.00     0.012 C 
ENDBRANCH   1   8
TORSDOF 1
ENDMDL
MODEL 9
REMARK VINA RESULT:    -4.189      1.276      4.184
REMARK INTER + INTRA:          -4.578
REMARK INTER:                  -4.441
REMARK INTRA:                  -0.137
REMARK UNBOUND:                -0.144
REMARK SMILES C=C1CC=C(C(C)C)CC1
REMARK SMILES IDX 5 1 4 2 3 3 2 4 1 5 10 6 9 7 6 8 7 9 8 10
REMARK H PARENT
REMARK Flexibility Score: inf
ROOT
ATOM      1  C   UNL     1      31.957  10.005  31.065  1.00  0.00    -0.071 C 
ATOM      2  C   UNL     1      32.492   9.773  32.284  1.00  0.00    -0.023 C 
ATOM      3  C   UNL     1      32.336   8.437  32.963  1.00  0.00     0.057 C 
ATOM      4  C   UNL     1      30.981   7.830  32.661  1.00  0.00    -0.073 C 
ATOM      5  C   UNL     1      30.424   6.968  33.523  1.00  0.00     0.008 C 
ATOM      6  C   UNL     1      30.269   8.169  31.368  1.00  0.00     0.035 C 
ATOM      7  C   UNL     1      31.203   8.886  30.381  1.00  0.00     0.035 C 
ENDROOT
BRANCH   1   8
ATOM      8  C   UNL     1      32.078  11.364  30.393  1.00  0.00     0.008 C 
ATOM      9  C   UNL     1      32.388  11.221  28.897  1.00  0.00     0.012 C 
ATOM     10  C   UNL     1      33.125  12.238  31.094  1.00  0.00     0.012 C 
ENDBRANCH   1   8
TORSDOF 1
ENDMDL
