MODEL 1
REMARK VINA RESULT:    -4.074      0.000      0.000
REMARK INTER + INTRA:          -6.788
REMARK INTER:                  -5.980
REMARK INTRA:                  -0.808
REMARK UNBOUND:                -0.808
REMARK SMILES O=C([O-])CCCCCCCC(=O)[O-]
REMARK SMILES IDX 7 1 6 2 5 3 4 4 2 5 1 6 3 7 8 8 9 9 10 10 11 11 12 12 13 13
REMARK H PARENT
REMARK Flexibility Score: inf
ROOT
ATOM      1  C   UNL     1      -3.213   5.418 -59.237  1.00  0.00     0.000 C 
ENDROOT
BRANCH   1   2
ATOM      2  C   UNL     1      -4.367   6.164 -58.548  1.00  0.00     0.000 C 
BRANCH   2   3
ATOM      3  C   UNL     1      -4.748   7.467 -59.268  1.00  0.00     0.006 C 
BRANCH   3   4
ATOM      4  C   UNL     1      -4.988   8.598 -58.264  1.00  0.00     0.053 C 
BRANCH   4   5
ATOM      5  C   UNL     1      -3.687   9.163 -57.790  1.00  0.00     0.041 C 
ATOM      6  O   UNL     1      -3.340   9.034 -56.586  1.00  0.00    -0.550 OA
ATOM      7  O   UNL     1      -2.832   9.788 -58.690  1.00  0.00    -0.550 OA
ENDBRANCH   4   5
ENDBRANCH   3   4
ENDBRANCH   2   3
ENDBRANCH   1   2
BRANCH   1   8
ATOM      8  C   UNL     1      -2.140   6.372 -59.789  1.00  0.00     0.000 C 
BRANCH   8   9
ATOM      9  C   UNL     1      -1.099   6.767 -58.728  1.00  0.00     0.006 C 
BRANCH   9  10
ATOM     10  C   UNL     1      -0.763   5.615 -57.772  1.00  0.00     0.053 C 
BRANCH  10  11
ATOM     11  C   UNL     1      -0.920   6.056 -56.350  1.00  0.00     0.041 C 
ATOM     12  O   UNL     1       0.086   6.408 -55.681  1.00  0.00    -0.550 OA
ATOM     13  O   UNL     1      -2.172   6.029 -55.749  1.00  0.00    -0.550 OA
ENDBRANCH  10  11
ENDBRANCH   9  10
ENDBRANCH   8   9
ENDBRANCH   1   8
TORSDOF 8
ENDMDL
MODEL 2
REMARK VINA RESULT:    -4.024      2.410      2.855
REMARK INTER + INTRA:          -6.714
REMARK INTER:                  -6.072
REMARK INTRA:                  -0.642
REMARK UNBOUND:                -0.808
REMARK SMILES O=C([O-])CCCCCCCC(=O)[O-]
REMARK SMILES IDX 7 1 6 2 5 3 4 4 2 5 1 6 3 7 8 8 9 9 10 10 11 11 12 12 13 13
REMARK H PARENT
REMARK Flexibility Score: inf
ROOT
ATOM      1  C   UNL     1      -4.215   6.939 -59.753  1.00  0.00     0.000 C 
ENDROOT
BRANCH   1   2
ATOM      2  C   UNL     1      -4.170   8.217 -58.901  1.00  0.00     0.000 C 
BRANCH   2   3
ATOM      3  C   UNL     1      -5.292   8.274 -57.853  1.00  0.00     0.006 C 
BRANCH   3   4
ATOM      4  C   UNL     1      -5.780   6.867 -57.496  1.00  0.00     0.053 C 
BRANCH   4   5
ATOM      5  C   UNL     1      -7.267   6.777 -57.632  1.00  0.00     0.041 C 
ATOM      6  O   UNL     1      -7.935   7.790 -57.969  1.00  0.00    -0.550 OA
ATOM      7  O   UNL     1      -7.910   5.562 -57.435  1.00  0.00    -0.550 OA
ENDBRANCH   4   5
ENDBRANCH   3   4
ENDBRANCH   2   3
ENDBRANCH   1   2
BRANCH   1   8
ATOM      8  C   UNL     1      -2.863   6.205 -59.790  1.00  0.00     0.000 C 
BRANCH   8   9
ATOM      9  C   UNL     1      -1.752   6.979 -59.060  1.00  0.00     0.006 C 
BRANCH   9  10
ATOM     10  C   UNL     1      -0.890   6.076 -58.169  1.00  0.00     0.053 C 
BRANCH  10  11
ATOM     11  C   UNL     1      -1.171   6.348 -56.724  1.00  0.00     0.041 C 
ATOM     12  O   UNL     1      -0.226   6.399 -55.894  1.00  0.00    -0.550 OA
ATOM     13  O   UNL     1      -2.481   6.494 -56.287  1.00  0.00    -0.550 OA
ENDBRANCH  10  11
ENDBRANCH   9  10
ENDBRANCH   8   9
ENDBRANCH   1   8
TORSDOF 8
ENDMDL
MODEL 3
REMARK VINA RESULT:    -3.977      0.279      4.139
REMARK INTER + INTRA:          -6.646
REMARK INTER:                  -5.906
REMARK INTRA:                  -0.740
REMARK UNBOUND:                -0.808
REMARK SMILES O=C([O-])CCCCCCCC(=O)[O-]
REMARK SMILES IDX 7 1 6 2 5 3 4 4 2 5 1 6 3 7 8 8 9 9 10 10 11 11 12 12 13 13
REMARK H PARENT
REMARK Flexibility Score: inf
ROOT
ATOM      1  C   UNL     1      -2.991   5.345 -58.909  1.00  0.00     0.000 C 
ENDROOT
BRANCH   1   2
ATOM      2  C   UNL     1      -1.968   6.308 -59.531  1.00  0.00     0.000 C 
BRANCH   2   3
ATOM      3  C   UNL     1      -0.836   6.683 -58.561  1.00  0.00     0.006 C 
BRANCH   3   4
ATOM      4  C   UNL     1      -0.615   5.578 -57.524  1.00  0.00     0.053 C 
BRANCH   4   5
ATOM      5  C   UNL     1      -0.779   6.117 -56.139  1.00  0.00     0.041 C 
ATOM      6  O   UNL     1       0.216   6.563 -55.510  1.00  0.00    -0.550 OA
ATOM      7  O   UNL     1      -2.041   6.174 -55.561  1.00  0.00    -0.550 OA
ENDBRANCH   4   5
ENDBRANCH   3   4
ENDBRANCH   2   3
ENDBRANCH   1   2
BRANCH   1   8
ATOM      8  C   UNL     1      -4.358   6.010 -58.671  1.00  0.00     0.000 C 
BRANCH   8   9
ATOM      9  C   UNL     1      -4.526   7.315 -59.466  1.00  0.00     0.006 C 
BRANCH   9  10
ATOM     10  C   UNL     1      -4.887   8.510 -58.573  1.00  0.00     0.053 C 
BRANCH  10  11
ATOM     11  C   UNL     1      -3.660   9.059 -57.915  1.00  0.00     0.041 C 
ATOM     12  O   UNL     1      -3.480   8.903 -56.679  1.00  0.00    -0.550 OA
ATOM     13  O   UNL     1      -2.739   9.786 -58.658  1.00  0.00    -0.550 OA
ENDBRANCH  10  11
ENDBRANCH   9  10
ENDBRANCH   8   9
ENDBRANCH   1   8
TORSDOF 8
ENDMDL
MODEL 4
REMARK VINA RESULT:    -3.947      1.297      3.953
REMARK INTER + INTRA:          -6.601
REMARK INTER:                  -5.727
REMARK INTRA:                  -0.874
REMARK UNBOUND:                -0.808
REMARK SMILES O=C([O-])CCCCCCCC(=O)[O-]
REMARK SMILES IDX 7 1 6 2 5 3 4 4 2 5 1 6 3 7 8 8 9 9 10 10 11 11 12 12 13 13
REMARK H PARENT
REMARK Flexibility Score: inf
ROOT
ATOM      1  C   UNL     1      -2.840   6.106 -59.733  1.00  0.00     0.000 C 
ENDROOT
BRANCH   1   2
ATOM      2  C   UNL     1      -1.765   7.086 -59.237  1.00  0.00     0.000 C 
BRANCH   2   3
ATOM      3  C   UNL     1      -0.736   6.422 -58.309  1.00  0.00     0.006 C 
BRANCH   3   4
ATOM      4  C   UNL     1      -1.421   5.469 -57.324  1.00  0.00     0.053 C 
BRANCH   4   5
ATOM      5  C   UNL     1      -1.096   5.850 -55.915  1.00  0.00     0.041 C 
ATOM      6  O   UNL     1      -1.911   5.601 -54.987  1.00  0.00    -0.550 OA
ATOM      7  O   UNL     1       0.128   6.435 -55.618  1.00  0.00    -0.550 OA
ENDBRANCH   4   5
ENDBRANCH   3   4
ENDBRANCH   2   3
ENDBRANCH   1   2
BRANCH   1   8
ATOM      8  C   UNL     1      -4.228   6.759 -59.843  1.00  0.00     0.000 C 
BRANCH   8   9
ATOM      9  C   UNL     1      -4.301   8.117 -59.126  1.00  0.00     0.006 C 
BRANCH   9  10
ATOM     10  C   UNL     1      -5.276   8.109 -57.941  1.00  0.00     0.053 C 
BRANCH  10  11
ATOM     11  C   UNL     1      -4.627   7.503 -56.736  1.00  0.00     0.041 C 
ATOM     12  O   UNL     1      -3.831   8.181 -56.036  1.00  0.00    -0.550 OA
ATOM     13  O   UNL     1      -4.863   6.172 -56.416  1.00  0.00    -0.550 OA
ENDBRANCH  10  11
ENDBRANCH   9  10
ENDBRANCH   8   9
ENDBRANCH   1   8
TORSDOF 8
ENDMDL
MODEL 5
REMARK VINA RESULT:    -3.921      1.719      2.497
REMARK INTER + INTRA:          -6.563
REMARK INTER:                  -5.930
REMARK INTRA:                  -0.633
REMARK UNBOUND:                -0.808
REMARK SMILES O=C([O-])CCCCCCCC(=O)[O-]
REMARK SMILES IDX 7 1 6 2 5 3 4 4 2 5 1 6 3 7 8 8 9 9 10 10 11 11 12 12 13 13
REMARK H PARENT
REMARK Flexibility Score: inf
ROOT
ATOM      1  C   UNL     1      -2.379   7.181 -59.113  1.00  0.00     0.000 C 
ENDROOT
BRANCH   1   2
ATOM      2  C   UNL     1      -2.691   8.635 -58.728  1.00  0.00     0.000 C 
BRANCH   2   3
ATOM      3  C   UNL     1      -4.192   8.958 -58.788  1.00  0.00     0.006 C 
BRANCH   3   4
ATOM      4  C   UNL     1      -5.016   7.690 -59.034  1.00  0.00     0.053 C 
BRANCH   4   5
ATOM      5  C   UNL     1      -5.910   7.412 -57.868  1.00  0.00     0.041 C 
ATOM      6  O   UNL     1      -7.144   7.650 -57.944  1.00  0.00    -0.550 OA
ATOM      7  O   UNL     1      -5.389   6.844 -56.712  1.00  0.00    -0.550 OA
ENDBRANCH   4   5
ENDBRANCH   3   4
ENDBRANCH   2   3
ENDBRANCH   1   2
BRANCH   1   8
ATOM      8  C   UNL     1      -0.944   6.767 -58.746  1.00  0.00     0.000 C 
BRANCH   8   9
ATOM      9  C   UNL     1      -0.893   5.442 -57.967  1.00  0.00     0.006 C 
BRANCH   9  10
ATOM     10  C   UNL     1      -1.757   5.467 -56.699  1.00  0.00     0.053 C 
BRANCH  10  11
ATOM     11  C   UNL     1      -1.243   6.495 -55.739  1.00  0.00     0.041 C 
ATOM     12  O   UNL     1      -1.992   7.429 -55.351  1.00  0.00    -0.550 OA
ATOM     13  O   UNL     1       0.077   6.448 -55.312  1.00  0.00    -0.550 OA
ENDBRANCH  10  11
ENDBRANCH   9  10
ENDBRANCH   8   9
ENDBRANCH   1   8
TORSDOF 8
ENDMDL
MODEL 6
REMARK VINA RESULT:    -3.915      2.431      4.771
REMARK INTER + INTRA:          -6.555
REMARK INTER:                  -5.965
REMARK INTRA:                  -0.590
REMARK UNBOUND:                -0.808
REMARK SMILES O=C([O-])CCCCCCCC(=O)[O-]
REMARK SMILES IDX 7 1 6 2 5 3 4 4 2 5 1 6 3 7 8 8 9 9 10 10 11 11 12 12 13 13
REMARK H PARENT
REMARK Flexibility Score: inf
ROOT
ATOM      1  C   UNL     1      -4.186   6.200 -59.298  1.00  0.00     0.000 C 
ENDROOT
BRANCH   1   2
ATOM      2  C   UNL     1      -2.742   5.886 -59.719  1.00  0.00     0.000 C 
BRANCH   2   3
ATOM      3  C   UNL     1      -1.713   6.813 -59.054  1.00  0.00     0.006 C 
BRANCH   3   4
ATOM      4  C   UNL     1      -0.833   6.038 -58.068  1.00  0.00     0.053 C 
BRANCH   4   5
ATOM      5  C   UNL     1      -1.136   6.448 -56.662  1.00  0.00     0.041 C 
ATOM      6  O   UNL     1      -2.291   6.838 -56.349  1.00  0.00    -0.550 OA
ATOM      7  O   UNL     1      -0.153   6.352 -55.684  1.00  0.00    -0.550 OA
ENDBRANCH   4   5
ENDBRANCH   3   4
ENDBRANCH   2   3
ENDBRANCH   1   2
BRANCH   1   8
ATOM      8  C   UNL     1      -4.490   7.708 -59.310  1.00  0.00     0.000 C 
BRANCH   8   9
ATOM      9  C   UNL     1      -5.309   8.155 -58.088  1.00  0.00     0.006 C 
BRANCH   9  10
ATOM     10  C   UNL     1      -5.869   6.972 -57.286  1.00  0.00     0.053 C 
BRANCH  10  11
ATOM     11  C   UNL     1      -7.318   6.769 -57.601  1.00  0.00     0.041 C 
ATOM     12  O   UNL     1      -8.046   7.753 -57.895  1.00  0.00    -0.550 OA
ATOM     13  O   UNL     1      -7.876   5.500 -57.519  1.00  0.00    -0.550 OA
ENDBRANCH  10  11
ENDBRANCH   9  10
ENDBRANCH   8   9
ENDBRANCH   1   8
TORSDOF 8
ENDMDL
MODEL 7
REMARK VINA RESULT:    -3.876      1.065      4.227
REMARK INTER + INTRA:          -6.497
REMARK INTER:                  -5.729
REMARK INTRA:                  -0.768
REMARK UNBOUND:                -0.808
REMARK SMILES O=C([O-])CCCCCCCC(=O)[O-]
REMARK SMILES IDX 7 1 6 2 5 3 4 4 2 5 1 6 3 7 8 8 9 9 10 10 11 11 12 12 13 13
REMARK H PARENT
REMARK Flexibility Score: inf
ROOT
ATOM      1  C   UNL     1      -2.012   6.365 -59.857  1.00  0.00     0.000 C 
ENDROOT
BRANCH   1   2
ATOM      2  C   UNL     1      -0.998   6.823 -58.798  1.00  0.00     0.000 C 
BRANCH   2   3
ATOM      3  C   UNL     1      -0.537   5.680 -57.881  1.00  0.00     0.006 C 
BRANCH   3   4
ATOM      4  C   UNL     1      -0.499   6.132 -56.418  1.00  0.00     0.053 C 
BRANCH   4   5
ATOM      5  C   UNL     1      -1.887   6.318 -55.891  1.00  0.00     0.041 C 
ATOM      6  O   UNL     1      -2.561   5.322 -55.518  1.00  0.00    -0.550 OA
ATOM      7  O   UNL     1      -2.417   7.596 -55.766  1.00  0.00    -0.550 OA
ENDBRANCH   4   5
ENDBRANCH   3   4
ENDBRANCH   2   3
ENDBRANCH   1   2
BRANCH   1   8
ATOM      8  C   UNL     1      -3.089   5.431 -59.278  1.00  0.00     0.000 C 
BRANCH   8   9
ATOM      9  C   UNL     1      -4.279   6.201 -58.681  1.00  0.00     0.006 C 
BRANCH   9  10
ATOM     10  C   UNL     1      -4.597   7.489 -59.452  1.00  0.00     0.053 C 
BRANCH  10  11
ATOM     11  C   UNL     1      -4.518   8.674 -58.541  1.00  0.00     0.041 C 
ATOM     12  O   UNL     1      -5.339   8.802 -57.595  1.00  0.00    -0.550 OA
ATOM     13  O   UNL     1      -3.570   9.662 -58.767  1.00  0.00    -0.550 OA
ENDBRANCH  10  11
ENDBRANCH   9  10
ENDBRANCH   8   9
ENDBRANCH   1   8
TORSDOF 8
ENDMDL
MODEL 8
REMARK VINA RESULT:    -3.871      1.288      2.156
REMARK INTER + INTRA:          -6.489
REMARK INTER:                  -5.902
REMARK INTRA:                  -0.587
REMARK UNBOUND:                -0.808
REMARK SMILES O=C([O-])CCCCCCCC(=O)[O-]
REMARK SMILES IDX 7 1 6 2 5 3 4 4 2 5 1 6 3 7 8 8 9 9 10 10 11 11 12 12 13 13
REMARK H PARENT
REMARK Flexibility Score: inf
ROOT
ATOM      1  C   UNL     1      -0.817   6.623 -58.556  1.00  0.00     0.000 C 
ENDROOT
BRANCH   1   2
ATOM      2  C   UNL     1      -2.018   6.406 -59.488  1.00  0.00     0.000 C 
BRANCH   2   3
ATOM      3  C   UNL     1      -3.364   6.461 -58.748  1.00  0.00     0.006 C 
BRANCH   3   4
ATOM      4  C   UNL     1      -4.281   7.526 -59.358  1.00  0.00     0.053 C 
BRANCH   4   5
ATOM      5  C   UNL     1      -4.315   8.746 -58.494  1.00  0.00     0.041 C 
ATOM      6  O   UNL     1      -5.312   8.977 -57.761  1.00  0.00    -0.550 OA
ATOM      7  O   UNL     1      -3.223   9.604 -58.462  1.00  0.00    -0.550 OA
ENDBRANCH   4   5
ENDBRANCH   3   4
ENDBRANCH   2   3
ENDBRANCH   1   2
BRANCH   1   8
ATOM      8  C   UNL     1      -0.299   5.310 -57.944  1.00  0.00     0.000 C 
BRANCH   8   9
ATOM      9  C   UNL     1      -0.664   5.168 -56.456  1.00  0.00     0.006 C 
BRANCH   9  10
ATOM     10  C   UNL     1      -0.183   6.357 -55.614  1.00  0.00     0.053 C 
BRANCH  10  11
ATOM     11  C   UNL     1      -1.332   6.972 -54.878  1.00  0.00     0.041 C 
ATOM     12  O   UNL     1      -1.398   6.890 -53.624  1.00  0.00    -0.550 OA
ATOM     13  O   UNL     1      -2.355   7.593 -55.582  1.00  0.00    -0.550 OA
ENDBRANCH  10  11
ENDBRANCH   9  10
ENDBRANCH   8   9
ENDBRANCH   1   8
TORSDOF 8
ENDMDL
MODEL 9
REMARK VINA RESULT:    -3.798      1.225      4.517
REMARK INTER + INTRA:          -6.383
REMARK INTER:                  -5.853
REMARK INTRA:                  -0.529
REMARK UNBOUND:                -0.808
REMARK SMILES O=C([O-])CCCCCCCC(=O)[O-]
REMARK SMILES IDX 7 1 6 2 5 3 4 4 2 5 1 6 3 7 8 8 9 9 10 10 11 11 12 12 13 13
REMARK H PARENT
REMARK Flexibility Score: inf
ROOT
ATOM      1  C   UNL     1      -0.855   6.659 -58.445  1.00  0.00     0.000 C 
ENDROOT
BRANCH   1   2
ATOM      2  C   UNL     1      -0.543   5.220 -58.005  1.00  0.00     0.000 C 
BRANCH   2   3
ATOM      3  C   UNL     1      -0.311   5.098 -56.491  1.00  0.00     0.006 C 
BRANCH   3   4
ATOM      4  C   UNL     1      -0.758   6.370 -55.764  1.00  0.00     0.053 C 
BRANCH   4   5
ATOM      5  C   UNL     1       0.060   6.583 -54.530  1.00  0.00     0.041 C 
ATOM      6  O   UNL     1       0.570   5.601 -53.930  1.00  0.00    -0.550 OA
ATOM      7  O   UNL     1       0.300   7.872 -54.071  1.00  0.00    -0.550 OA
ENDBRANCH   4   5
ENDBRANCH   3   4
ENDBRANCH   2   3
ENDBRANCH   1   2
BRANCH   1   8
ATOM      8  C   UNL     1      -1.993   6.727 -59.478  1.00  0.00     0.000 C 
BRANCH   8   9
ATOM      9  C   UNL     1      -3.378   6.514 -58.845  1.00  0.00     0.006 C 
BRANCH   9  10
ATOM     10  C   UNL     1      -4.230   7.791 -58.841  1.00  0.00     0.053 C 
BRANCH  10  11
ATOM     11  C   UNL     1      -3.648   8.802 -57.904  1.00  0.00     0.041 C 
ATOM     12  O   UNL     1      -3.144   9.865 -58.352  1.00  0.00    -0.550 OA
ATOM     13  O   UNL     1      -3.617   8.547 -56.539  1.00  0.00    -0.550 OA
ENDBRANCH  10  11
ENDBRANCH   9  10
ENDBRANCH   8   9
ENDBRANCH   1   8
TORSDOF 8
ENDMDL
