MODEL 1
REMARK VINA RESULT:    -4.311      0.000      0.000
REMARK INTER + INTRA:         -15.398
REMARK INTER:                 -10.863
REMARK INTRA:                  -4.535
REMARK UNBOUND:                -4.535
REMARK SMILES CCCCCCCCCCCCCCCCCCCCCCCCCCCC(=O)[O-]
REMARK SMILES IDX 15 1 16 2 17 3 18 4 19 5 20 6 21 7 22 8 23 9 24 10 25 11
REMARK SMILES IDX 26 12 27 13 28 14 29 15 30 16 14 17 13 18 12 19 11 20 10 21
REMARK SMILES IDX 9 22 8 23 7 24 6 25 5 26 4 27 3 28 2 29 1 30
REMARK H PARENT
REMARK Flexibility Score: inf
ROOT
ATOM      1  C   UNL     1      33.809  34.307  22.944  1.00  0.00     0.000 C 
ENDROOT
BRANCH   1   2
ATOM      2  C   UNL     1      34.546  33.292  22.046  1.00  0.00     0.000 C 
BRANCH   2   3
ATOM      3  C   UNL     1      33.650  32.475  21.095  1.00  0.00     0.000 C 
BRANCH   3   4
ATOM      4  C   UNL     1      32.691  31.493  21.793  1.00  0.00     0.000 C 
BRANCH   4   5
ATOM      5  C   UNL     1      33.421  30.296  22.422  1.00  0.00     0.000 C 
BRANCH   5   6
ATOM      6  C   UNL     1      32.925  28.945  21.877  1.00  0.00     0.000 C 
BRANCH   6   7
ATOM      7  C   UNL     1      32.641  28.925  20.361  1.00  0.00     0.000 C 
BRANCH   7   8
ATOM      8  C   UNL     1      33.866  28.652  19.465  1.00  0.00     0.000 C 
BRANCH   8   9
ATOM      9  C   UNL     1      34.368  29.865  18.661  1.00  0.00     0.000 C 
BRANCH   9  10
ATOM     10  C   UNL     1      35.832  30.216  18.965  1.00  0.00     0.000 C 
BRANCH  10  11
ATOM     11  C   UNL     1      36.261  29.650  20.328  1.00  0.00     0.000 C 
BRANCH  11  12
ATOM     12  C   UNL     1      37.039  30.667  21.177  1.00  0.00     0.006 C 
BRANCH  12  13
ATOM     13  C   UNL     1      36.845  30.458  22.686  1.00  0.00     0.053 C 
BRANCH  13  14
ATOM     14  C   UNL     1      38.117  29.987  23.320  1.00  0.00     0.041 C 
ATOM     15  O   UNL     1      38.521  28.810  23.130  1.00  0.00    -0.550 OA
ATOM     16  O   UNL     1      38.864  30.851  24.114  1.00  0.00    -0.550 OA
ENDBRANCH  13  14
ENDBRANCH  12  13
ENDBRANCH  11  12
ENDBRANCH  10  11
ENDBRANCH   9  10
ENDBRANCH   8   9
ENDBRANCH   7   8
ENDBRANCH   6   7
ENDBRANCH   5   6
ENDBRANCH   4   5
ENDBRANCH   3   4
ENDBRANCH   2   3
ENDBRANCH   1   2
BRANCH   1  17
ATOM     17  C   UNL     1      34.119  34.157  24.448  1.00  0.00     0.000 C 
BRANCH  17  18
ATOM     18  C   UNL     1      33.651  32.808  25.023  1.00  0.00     0.000 C 
BRANCH  18  19
ATOM     19  C   UNL     1      34.666  32.185  25.995  1.00  0.00     0.000 C 
BRANCH  19  20
ATOM     20  C   UNL     1      36.122  32.509  25.620  1.00  0.00     0.000 C 
BRANCH  20  21
ATOM     21  C   UNL     1      36.912  33.137  26.782  1.00  0.00     0.000 C 
BRANCH  21  22
ATOM     22  C   UNL     1      37.478  34.546  26.504  1.00  0.00    -0.000 C 
BRANCH  22  23
ATOM     23  C   UNL     1      36.423  35.663  26.392  1.00  0.00    -0.000 C 
BRANCH  23  24
ATOM     24  C   UNL     1      35.483  35.721  27.609  1.00  0.00    -0.000 C 
BRANCH  24  25
ATOM     25  C   UNL     1      36.251  35.657  28.946  1.00  0.00    -0.000 C 
BRANCH  25  26
ATOM     26  C   UNL     1      36.324  37.011  29.673  1.00  0.00    -0.000 C 
BRANCH  26  27
ATOM     27  C   UNL     1      37.718  37.654  29.594  1.00  0.00    -0.000 C 
BRANCH  27  28
ATOM     28  C   UNL     1      38.832  36.621  29.354  1.00  0.00    -0.000 C 
BRANCH  28  29
ATOM     29  C   UNL     1      39.934  37.151  28.426  1.00  0.00    -0.003 C 
ATOM     30  C   UNL     1      39.344  37.741  27.148  1.00  0.00     0.004 C 
ENDBRANCH  28  29
ENDBRANCH  27  28
ENDBRANCH  26  27
ENDBRANCH  25  26
ENDBRANCH  24  25
ENDBRANCH  23  24
ENDBRANCH  22  23
ENDBRANCH  21  22
ENDBRANCH  20  21
ENDBRANCH  19  20
ENDBRANCH  18  19
ENDBRANCH  17  18
ENDBRANCH   1  17
TORSDOF 26
ENDMDL
MODEL 2
REMARK VINA RESULT:    -4.278      1.860      3.852
REMARK INTER + INTRA:         -15.314
REMARK INTER:                  -9.547
REMARK INTRA:                  -5.767
REMARK UNBOUND:                -4.535
REMARK SMILES CCCCCCCCCCCCCCCCCCCCCCCCCCCC(=O)[O-]
REMARK SMILES IDX 15 1 16 2 17 3 18 4 19 5 20 6 21 7 22 8 23 9 24 10 25 11
REMARK SMILES IDX 26 12 27 13 28 14 29 15 30 16 14 17 13 18 12 19 11 20 10 21
REMARK SMILES IDX 9 22 8 23 7 24 6 25 5 26 4 27 3 28 2 29 1 30
REMARK H PARENT
REMARK Flexibility Score: inf
ROOT
ATOM      1  C   UNL     1      34.261  33.046  19.379  1.00  0.00     0.000 C 
ENDROOT
BRANCH   1   2
ATOM      2  C   UNL     1      35.314  32.164  18.678  1.00  0.00     0.000 C 
BRANCH   2   3
ATOM      3  C   UNL     1      34.935  30.679  18.518  1.00  0.00     0.000 C 
BRANCH   3   4
ATOM      4  C   UNL     1      33.432  30.376  18.662  1.00  0.00     0.000 C 
BRANCH   4   5
ATOM      5  C   UNL     1      33.162  29.008  19.310  1.00  0.00     0.000 C 
BRANCH   5   6
ATOM      6  C   UNL     1      33.075  29.086  20.845  1.00  0.00     0.000 C 
BRANCH   6   7
ATOM      7  C   UNL     1      32.477  30.397  21.392  1.00  0.00     0.000 C 
BRANCH   7   8
ATOM      8  C   UNL     1      33.399  31.200  22.332  1.00  0.00     0.000 C 
BRANCH   8   9
ATOM      9  C   UNL     1      34.354  30.351  23.190  1.00  0.00     0.000 C 
BRANCH   9  10
ATOM     10  C   UNL     1      35.801  30.864  23.155  1.00  0.00     0.000 C 
BRANCH  10  11
ATOM     11  C   UNL     1      36.486  30.486  21.833  1.00  0.00     0.000 C 
BRANCH  11  12
ATOM     12  C   UNL     1      37.439  29.288  21.976  1.00  0.00     0.006 C 
BRANCH  12  13
ATOM     13  C   UNL     1      38.227  29.307  23.295  1.00  0.00     0.053 C 
BRANCH  13  14
ATOM     14  C   UNL     1      39.671  29.610  23.041  1.00  0.00     0.041 C 
ATOM     15  O   UNL     1      39.998  30.647  22.408  1.00  0.00    -0.550 OA
ATOM     16  O   UNL     1      40.658  28.752  23.514  1.00  0.00    -0.550 OA
ENDBRANCH  13  14
ENDBRANCH  12  13
ENDBRANCH  11  12
ENDBRANCH  10  11
ENDBRANCH   9  10
ENDBRANCH   8   9
ENDBRANCH   7   8
ENDBRANCH   6   7
ENDBRANCH   5   6
ENDBRANCH   4   5
ENDBRANCH   3   4
ENDBRANCH   2   3
ENDBRANCH   1   2
BRANCH   1  17
ATOM     17  C   UNL     1      34.857  34.089  20.347  1.00  0.00     0.000 C 
BRANCH  17  18
ATOM     18  C   UNL     1      36.356  33.865  20.617  1.00  0.00     0.000 C 
BRANCH  18  19
ATOM     19  C   UNL     1      36.805  34.394  21.988  1.00  0.00     0.000 C 
BRANCH  19  20
ATOM     20  C   UNL     1      38.099  33.729  22.487  1.00  0.00     0.000 C 
BRANCH  20  21
ATOM     21  C   UNL     1      38.365  33.985  23.981  1.00  0.00     0.000 C 
BRANCH  21  22
ATOM     22  C   UNL     1      38.546  32.717  24.842  1.00  0.00    -0.000 C 
BRANCH  22  23
ATOM     23  C   UNL     1      37.660  32.649  26.100  1.00  0.00    -0.000 C 
BRANCH  23  24
ATOM     24  C   UNL     1      37.969  33.770  27.108  1.00  0.00    -0.000 C 
BRANCH  24  25
ATOM     25  C   UNL     1      36.740  34.141  27.964  1.00  0.00    -0.000 C 
BRANCH  25  26
ATOM     26  C   UNL     1      36.111  35.492  27.577  1.00  0.00    -0.000 C 
BRANCH  26  27
ATOM     27  C   UNL     1      34.823  35.333  26.753  1.00  0.00    -0.000 C 
BRANCH  27  28
ATOM     28  C   UNL     1      35.098  35.217  25.245  1.00  0.00    -0.000 C 
BRANCH  28  29
ATOM     29  C   UNL     1      34.368  34.028  24.604  1.00  0.00    -0.003 C 
ATOM     30  C   UNL     1      33.942  33.009  25.658  1.00  0.00     0.004 C 
ENDBRANCH  28  29
ENDBRANCH  27  28
ENDBRANCH  26  27
ENDBRANCH  25  26
ENDBRANCH  24  25
ENDBRANCH  23  24
ENDBRANCH  22  23
ENDBRANCH  21  22
ENDBRANCH  20  21
ENDBRANCH  19  20
ENDBRANCH  18  19
ENDBRANCH  17  18
ENDBRANCH   1  17
TORSDOF 26
ENDMDL
MODEL 3
REMARK VINA RESULT:    -4.267      1.659      8.428
REMARK INTER + INTRA:         -15.288
REMARK INTER:                  -9.778
REMARK INTRA:                  -5.509
REMARK UNBOUND:                -4.535
REMARK SMILES CCCCCCCCCCCCCCCCCCCCCCCCCCCC(=O)[O-]
REMARK SMILES IDX 15 1 16 2 17 3 18 4 19 5 20 6 21 7 22 8 23 9 24 10 25 11
REMARK SMILES IDX 26 12 27 13 28 14 29 15 30 16 14 17 13 18 12 19 11 20 10 21
REMARK SMILES IDX 9 22 8 23 7 24 6 25 5 26 4 27 3 28 2 29 1 30
REMARK H PARENT
REMARK Flexibility Score: inf
ROOT
ATOM      1  C   UNL     1      35.305  36.179  25.731  1.00  0.00     0.000 C 
ENDROOT
BRANCH   1   2
ATOM      2  C   UNL     1      34.948  35.081  26.754  1.00  0.00     0.000 C 
BRANCH   2   3
ATOM      3  C   UNL     1      36.118  34.182  27.198  1.00  0.00     0.000 C 
BRANCH   3   4
ATOM      4  C   UNL     1      37.006  34.776  28.308  1.00  0.00     0.000 C 
BRANCH   4   5
ATOM      5  C   UNL     1      36.190  35.383  29.460  1.00  0.00     0.000 C 
BRANCH   5   6
ATOM      6  C   UNL     1      36.196  36.922  29.444  1.00  0.00     0.000 C 
BRANCH   6   7
ATOM      7  C   UNL     1      37.557  37.559  29.096  1.00  0.00     0.000 C 
BRANCH   7   8
ATOM      8  C   UNL     1      37.561  38.461  27.845  1.00  0.00     0.000 C 
BRANCH   8   9
ATOM      9  C   UNL     1      38.431  37.956  26.681  1.00  0.00     0.000 C 
BRANCH   9  10
ATOM     10  C   UNL     1      39.616  37.098  27.151  1.00  0.00     0.000 C 
BRANCH  10  11
ATOM     11  C   UNL     1      39.832  35.900  26.213  1.00  0.00     0.000 C 
BRANCH  11  12
ATOM     12  C   UNL     1      40.315  34.644  26.953  1.00  0.00     0.006 C 
BRANCH  12  13
ATOM     13  C   UNL     1      40.773  33.529  26.001  1.00  0.00     0.053 C 
BRANCH  13  14
ATOM     14  C   UNL     1      39.593  32.842  25.387  1.00  0.00     0.041 C 
ATOM     15  O   UNL     1      39.363  32.958  24.156  1.00  0.00    -0.550 OA
ATOM     16  O   UNL     1      38.751  32.064  26.174  1.00  0.00    -0.550 OA
ENDBRANCH  13  14
ENDBRANCH  12  13
ENDBRANCH  11  12
ENDBRANCH  10  11
ENDBRANCH   9  10
ENDBRANCH   8   9
ENDBRANCH   7   8
ENDBRANCH   6   7
ENDBRANCH   5   6
ENDBRANCH   4   5
ENDBRANCH   3   4
ENDBRANCH   2   3
ENDBRANCH   1   2
BRANCH   1  17
ATOM     17  C   UNL     1      36.250  35.707  24.607  1.00  0.00     0.000 C 
BRANCH  17  18
ATOM     18  C   UNL     1      35.606  35.789  23.211  1.00  0.00     0.000 C 
BRANCH  18  19
ATOM     19  C   UNL     1      34.130  35.360  23.205  1.00  0.00     0.000 C 
BRANCH  19  20
ATOM     20  C   UNL     1      33.942  33.886  22.808  1.00  0.00     0.000 C 
BRANCH  20  21
ATOM     21  C   UNL     1      33.536  32.994  23.995  1.00  0.00     0.000 C 
BRANCH  21  22
ATOM     22  C   UNL     1      34.634  32.035  24.501  1.00  0.00    -0.000 C 
BRANCH  22  23
ATOM     23  C   UNL     1      35.960  32.089  23.719  1.00  0.00    -0.000 C 
BRANCH  23  24
ATOM     24  C   UNL     1      36.647  30.716  23.612  1.00  0.00    -0.000 C 
BRANCH  24  25
ATOM     25  C   UNL     1      36.823  30.262  22.148  1.00  0.00    -0.000 C 
BRANCH  25  26
ATOM     26  C   UNL     1      36.010  31.102  21.147  1.00  0.00    -0.000 C 
BRANCH  26  27
ATOM     27  C   UNL     1      34.850  30.315  20.515  1.00  0.00    -0.000 C 
BRANCH  27  28
ATOM     28  C   UNL     1      33.521  31.087  20.558  1.00  0.00    -0.000 C 
BRANCH  28  29
ATOM     29  C   UNL     1      32.487  30.426  21.480  1.00  0.00    -0.003 C 
ATOM     30  C   UNL     1      33.047  29.158  22.118  1.00  0.00     0.004 C 
ENDBRANCH  28  29
ENDBRANCH  27  28
ENDBRANCH  26  27
ENDBRANCH  25  26
ENDBRANCH  24  25
ENDBRANCH  23  24
ENDBRANCH  22  23
ENDBRANCH  21  22
ENDBRANCH  20  21
ENDBRANCH  19  20
ENDBRANCH  18  19
ENDBRANCH  17  18
ENDBRANCH   1  17
TORSDOF 26
ENDMDL
MODEL 4
REMARK VINA RESULT:    -4.237      1.700      3.396
REMARK INTER + INTRA:         -15.211
REMARK INTER:                  -9.406
REMARK INTRA:                  -5.805
REMARK UNBOUND:                -4.535
REMARK SMILES CCCCCCCCCCCCCCCCCCCCCCCCCCCC(=O)[O-]
REMARK SMILES IDX 15 1 16 2 17 3 18 4 19 5 20 6 21 7 22 8 23 9 24 10 25 11
REMARK SMILES IDX 26 12 27 13 28 14 29 15 30 16 14 17 13 18 12 19 11 20 10 21
REMARK SMILES IDX 9 22 8 23 7 24 6 25 5 26 4 27 3 28 2 29 1 30
REMARK H PARENT
REMARK Flexibility Score: inf
ROOT
ATOM      1  C   UNL     1      34.530  33.001  18.609  1.00  0.00     0.000 C 
ENDROOT
BRANCH   1   2
ATOM      2  C   UNL     1      34.559  31.500  18.255  1.00  0.00     0.000 C 
BRANCH   2   3
ATOM      3  C   UNL     1      33.234  30.743  18.467  1.00  0.00     0.000 C 
BRANCH   3   4
ATOM      4  C   UNL     1      33.386  29.237  18.752  1.00  0.00     0.000 C 
BRANCH   4   5
ATOM      5  C   UNL     1      32.855  28.839  20.138  1.00  0.00     0.000 C 
BRANCH   5   6
ATOM      6  C   UNL     1      32.135  29.996  20.852  1.00  0.00     0.000 C 
BRANCH   6   7
ATOM      7  C   UNL     1      32.894  30.581  22.061  1.00  0.00     0.000 C 
BRANCH   7   8
ATOM      8  C   UNL     1      34.059  29.719  22.587  1.00  0.00     0.000 C 
BRANCH   8   9
ATOM      9  C   UNL     1      35.449  30.372  22.487  1.00  0.00     0.000 C 
BRANCH   9  10
ATOM     10  C   UNL     1      36.131  30.117  21.134  1.00  0.00     0.000 C 
BRANCH  10  11
ATOM     11  C   UNL     1      37.234  31.155  20.872  1.00  0.00     0.000 C 
BRANCH  11  12
ATOM     12  C   UNL     1      37.652  31.913  22.141  1.00  0.00     0.006 C 
BRANCH  12  13
ATOM     13  C   UNL     1      39.161  31.834  22.414  1.00  0.00     0.053 C 
BRANCH  13  14
ATOM     14  C   UNL     1      39.453  30.817  23.473  1.00  0.00     0.041 C 
ATOM     15  O   UNL     1      39.484  29.593  23.183  1.00  0.00    -0.550 OA
ATOM     16  O   UNL     1      39.699  31.221  24.781  1.00  0.00    -0.550 OA
ENDBRANCH  13  14
ENDBRANCH  12  13
ENDBRANCH  11  12
ENDBRANCH  10  11
ENDBRANCH   9  10
ENDBRANCH   8   9
ENDBRANCH   7   8
ENDBRANCH   6   7
ENDBRANCH   5   6
ENDBRANCH   4   5
ENDBRANCH   3   4
ENDBRANCH   2   3
ENDBRANCH   1   2
BRANCH   1  17
ATOM     17  C   UNL     1      33.706  33.334  19.870  1.00  0.00     0.000 C 
BRANCH  17  18
ATOM     18  C   UNL     1      34.580  33.790  21.052  1.00  0.00     0.000 C 
BRANCH  18  19
ATOM     19  C   UNL     1      33.802  33.880  22.374  1.00  0.00     0.000 C 
BRANCH  19  20
ATOM     20  C   UNL     1      34.704  33.695  23.607  1.00  0.00     0.000 C 
BRANCH  20  21
ATOM     21  C   UNL     1      33.934  33.191  24.840  1.00  0.00     0.000 C 
BRANCH  21  22
ATOM     22  C   UNL     1      34.780  32.411  25.868  1.00  0.00    -0.000 C 
BRANCH  22  23
ATOM     23  C   UNL     1      36.267  32.246  25.501  1.00  0.00    -0.000 C 
BRANCH  23  24
ATOM     24  C   UNL     1      37.174  33.264  26.215  1.00  0.00    -0.000 C 
BRANCH  24  25
ATOM     25  C   UNL     1      36.666  33.607  27.632  1.00  0.00    -0.000 C 
BRANCH  25  26
ATOM     26  C   UNL     1      36.394  35.108  27.835  1.00  0.00    -0.000 C 
BRANCH  26  27
ATOM     27  C   UNL     1      36.504  35.914  26.531  1.00  0.00    -0.000 C 
BRANCH  27  28
ATOM     28  C   UNL     1      35.145  36.454  26.055  1.00  0.00    -0.000 C 
BRANCH  28  29
ATOM     29  C   UNL     1      35.229  37.122  24.676  1.00  0.00    -0.003 C 
ATOM     30  C   UNL     1      36.675  37.226  24.200  1.00  0.00     0.004 C 
ENDBRANCH  28  29
ENDBRANCH  27  28
ENDBRANCH  26  27
ENDBRANCH  25  26
ENDBRANCH  24  25
ENDBRANCH  23  24
ENDBRANCH  22  23
ENDBRANCH  21  22
ENDBRANCH  20  21
ENDBRANCH  19  20
ENDBRANCH  18  19
ENDBRANCH  17  18
ENDBRANCH   1  17
TORSDOF 26
ENDMDL
MODEL 5
REMARK VINA RESULT:    -4.235      2.748      8.402
REMARK INTER + INTRA:         -15.206
REMARK INTER:                  -9.926
REMARK INTRA:                  -5.279
REMARK UNBOUND:                -4.535
REMARK SMILES CCCCCCCCCCCCCCCCCCCCCCCCCCCC(=O)[O-]
REMARK SMILES IDX 15 1 16 2 17 3 18 4 19 5 20 6 21 7 22 8 23 9 24 10 25 11
REMARK SMILES IDX 26 12 27 13 28 14 29 15 30 16 14 17 13 18 12 19 11 20 10 21
REMARK SMILES IDX 9 22 8 23 7 24 6 25 5 26 4 27 3 28 2 29 1 30
REMARK H PARENT
REMARK Flexibility Score: inf
ROOT
ATOM      1  C   UNL     1      38.385  33.770  23.842  1.00  0.00     0.000 C 
ENDROOT
BRANCH   1   2
ATOM      2  C   UNL     1      38.216  34.169  25.323  1.00  0.00     0.000 C 
BRANCH   2   3
ATOM      3  C   UNL     1      37.758  33.039  26.265  1.00  0.00     0.000 C 
BRANCH   3   4
ATOM      4  C   UNL     1      36.312  33.172  26.780  1.00  0.00     0.000 C 
BRANCH   4   5
ATOM      5  C   UNL     1      35.316  32.321  25.978  1.00  0.00     0.000 C 
BRANCH   5   6
ATOM      6  C   UNL     1      34.021  33.083  25.643  1.00  0.00     0.000 C 
BRANCH   6   7
ATOM      7  C   UNL     1      33.638  33.080  24.148  1.00  0.00     0.000 C 
BRANCH   7   8
ATOM      8  C   UNL     1      34.409  34.086  23.269  1.00  0.00     0.000 C 
BRANCH   8   9
ATOM      9  C   UNL     1      34.340  35.550  23.741  1.00  0.00     0.000 C 
BRANCH   9  10
ATOM     10  C   UNL     1      35.675  36.292  23.577  1.00  0.00     0.000 C 
BRANCH  10  11
ATOM     11  C   UNL     1      35.869  37.325  24.699  1.00  0.00     0.000 C 
BRANCH  11  12
ATOM     12  C   UNL     1      35.604  36.743  26.096  1.00  0.00     0.006 C 
BRANCH  12  13
ATOM     13  C   UNL     1      36.752  37.009  27.081  1.00  0.00     0.053 C 
BRANCH  13  14
ATOM     14  C   UNL     1      36.380  36.553  28.458  1.00  0.00     0.041 C 
ATOM     15  O   UNL     1      37.245  36.533  29.373  1.00  0.00    -0.550 OA
ATOM     16  O   UNL     1      35.076  36.159  28.735  1.00  0.00    -0.550 OA
ENDBRANCH  13  14
ENDBRANCH  12  13
ENDBRANCH  11  12
ENDBRANCH  10  11
ENDBRANCH   9  10
ENDBRANCH   8   9
ENDBRANCH   7   8
ENDBRANCH   6   7
ENDBRANCH   5   6
ENDBRANCH   4   5
ENDBRANCH   3   4
ENDBRANCH   2   3
ENDBRANCH   1   2
BRANCH   1  17
ATOM     17  C   UNL     1      38.260  32.254  23.581  1.00  0.00     0.000 C 
BRANCH  17  18
ATOM     18  C   UNL     1      37.075  31.901  22.665  1.00  0.00     0.000 C 
BRANCH  18  19
ATOM     19  C   UNL     1      36.426  30.553  23.016  1.00  0.00     0.000 C 
BRANCH  19  20
ATOM     20  C   UNL     1      35.376  30.113  21.982  1.00  0.00     0.000 C 
BRANCH  20  21
ATOM     21  C   UNL     1      33.955  30.038  22.569  1.00  0.00     0.000 C 
BRANCH  21  22
ATOM     22  C   UNL     1      32.812  30.153  21.537  1.00  0.00    -0.000 C 
BRANCH  22  23
ATOM     23  C   UNL     1      32.453  28.843  20.811  1.00  0.00    -0.000 C 
BRANCH  23  24
ATOM     24  C   UNL     1      33.404  28.527  19.643  1.00  0.00    -0.000 C 
BRANCH  24  25
ATOM     25  C   UNL     1      32.972  29.220  18.334  1.00  0.00    -0.000 C 
BRANCH  25  26
ATOM     26  C   UNL     1      34.126  29.939  17.614  1.00  0.00    -0.000 C 
BRANCH  26  27
ATOM     27  C   UNL     1      34.731  31.077  18.452  1.00  0.00    -0.000 C 
BRANCH  27  28
ATOM     28  C   UNL     1      33.759  32.253  18.640  1.00  0.00    -0.000 C 
BRANCH  28  29
ATOM     29  C   UNL     1      34.182  33.188  19.783  1.00  0.00    -0.003 C 
ATOM     30  C   UNL     1      35.676  33.489  19.725  1.00  0.00     0.004 C 
ENDBRANCH  28  29
ENDBRANCH  27  28
ENDBRANCH  26  27
ENDBRANCH  25  26
ENDBRANCH  24  25
ENDBRANCH  23  24
ENDBRANCH  22  23
ENDBRANCH  21  22
ENDBRANCH  20  21
ENDBRANCH  19  20
ENDBRANCH  18  19
ENDBRANCH  17  18
ENDBRANCH   1  17
TORSDOF 26
ENDMDL
MODEL 6
REMARK VINA RESULT:    -4.223      3.880      6.302
REMARK INTER + INTRA:         -15.176
REMARK INTER:                  -9.121
REMARK INTRA:                  -6.054
REMARK UNBOUND:                -4.535
REMARK SMILES CCCCCCCCCCCCCCCCCCCCCCCCCCCC(=O)[O-]
REMARK SMILES IDX 15 1 16 2 17 3 18 4 19 5 20 6 21 7 22 8 23 9 24 10 25 11
REMARK SMILES IDX 26 12 27 13 28 14 29 15 30 16 14 17 13 18 12 19 11 20 10 21
REMARK SMILES IDX 9 22 8 23 7 24 6 25 5 26 4 27 3 28 2 29 1 30
REMARK H PARENT
REMARK Flexibility Score: inf
ROOT
ATOM      1  C   UNL     1      33.576  32.573  21.788  1.00  0.00     0.000 C 
ENDROOT
BRANCH   1   2
ATOM      2  C   UNL     1      32.752  31.273  21.888  1.00  0.00     0.000 C 
BRANCH   2   3
ATOM      3  C   UNL     1      33.499  30.059  22.473  1.00  0.00     0.000 C 
BRANCH   3   4
ATOM      4  C   UNL     1      33.198  28.717  21.779  1.00  0.00     0.000 C 
BRANCH   4   5
ATOM      5  C   UNL     1      32.600  28.897  20.374  1.00  0.00     0.000 C 
BRANCH   5   6
ATOM      6  C   UNL     1      33.534  28.388  19.262  1.00  0.00     0.000 C 
BRANCH   6   7
ATOM      7  C   UNL     1      33.672  29.334  18.051  1.00  0.00     0.000 C 
BRANCH   7   8
ATOM      8  C   UNL     1      32.953  30.691  18.190  1.00  0.00     0.000 C 
BRANCH   8   9
ATOM      9  C   UNL     1      33.637  31.867  17.471  1.00  0.00     0.000 C 
BRANCH   9  10
ATOM     10  C   UNL     1      33.551  33.181  18.263  1.00  0.00     0.000 C 
BRANCH  10  11
ATOM     11  C   UNL     1      33.919  34.381  17.376  1.00  0.00     0.000 C 
BRANCH  11  12
ATOM     12  C   UNL     1      33.774  35.726  18.104  1.00  0.00     0.006 C 
BRANCH  12  13
ATOM     13  C   UNL     1      33.470  35.565  19.601  1.00  0.00     0.053 C 
BRANCH  13  14
ATOM     14  C   UNL     1      34.382  36.425  20.419  1.00  0.00     0.041 C 
ATOM     15  O   UNL     1      35.519  36.741  19.979  1.00  0.00    -0.550 OA
ATOM     16  O   UNL     1      33.974  36.889  21.665  1.00  0.00    -0.550 OA
ENDBRANCH  13  14
ENDBRANCH  12  13
ENDBRANCH  11  12
ENDBRANCH  10  11
ENDBRANCH   9  10
ENDBRANCH   8   9
ENDBRANCH   7   8
ENDBRANCH   6   7
ENDBRANCH   5   6
ENDBRANCH   4   5
ENDBRANCH   3   4
ENDBRANCH   2   3
ENDBRANCH   1   2
BRANCH   1  17
ATOM     17  C   UNL     1      33.190  33.644  22.829  1.00  0.00     0.000 C 
BRANCH  17  18
ATOM     18  C   UNL     1      34.320  33.938  23.832  1.00  0.00     0.000 C 
BRANCH  18  19
ATOM     19  C   UNL     1      34.064  33.331  25.220  1.00  0.00     0.000 C 
BRANCH  19  20
ATOM     20  C   UNL     1      35.173  32.357  25.655  1.00  0.00     0.000 C 
BRANCH  20  21
ATOM     21  C   UNL     1      35.960  31.778  24.465  1.00  0.00     0.000 C 
BRANCH  21  22
ATOM     22  C   UNL     1      37.485  31.677  24.675  1.00  0.00    -0.000 C 
BRANCH  22  23
ATOM     23  C   UNL     1      38.206  30.671  23.759  1.00  0.00    -0.000 C 
BRANCH  23  24
ATOM     24  C   UNL     1      37.241  29.911  22.831  1.00  0.00    -0.000 C 
BRANCH  24  25
ATOM     25  C   UNL     1      37.865  29.619  21.450  1.00  0.00    -0.000 C 
BRANCH  25  26
ATOM     26  C   UNL     1      36.851  29.691  20.295  1.00  0.00    -0.000 C 
BRANCH  26  27
ATOM     27  C   UNL     1      36.152  31.057  20.201  1.00  0.00    -0.000 C 
BRANCH  27  28
ATOM     28  C   UNL     1      36.909  32.047  19.302  1.00  0.00    -0.000 C 
BRANCH  28  29
ATOM     29  C   UNL     1      36.846  33.487  19.830  1.00  0.00    -0.003 C 
ATOM     30  C   UNL     1      37.077  33.533  21.337  1.00  0.00     0.004 C 
ENDBRANCH  28  29
ENDBRANCH  27  28
ENDBRANCH  26  27
ENDBRANCH  25  26
ENDBRANCH  24  25
ENDBRANCH  23  24
ENDBRANCH  22  23
ENDBRANCH  21  22
ENDBRANCH  20  21
ENDBRANCH  19  20
ENDBRANCH  18  19
ENDBRANCH  17  18
ENDBRANCH   1  17
TORSDOF 26
ENDMDL
MODEL 7
REMARK VINA RESULT:    -4.193      2.658      5.658
REMARK INTER + INTRA:         -15.101
REMARK INTER:                 -10.681
REMARK INTRA:                  -4.420
REMARK UNBOUND:                -4.535
REMARK SMILES CCCCCCCCCCCCCCCCCCCCCCCCCCCC(=O)[O-]
REMARK SMILES IDX 15 1 16 2 17 3 18 4 19 5 20 6 21 7 22 8 23 9 24 10 25 11
REMARK SMILES IDX 26 12 27 13 28 14 29 15 30 16 14 17 13 18 12 19 11 20 10 21
REMARK SMILES IDX 9 22 8 23 7 24 6 25 5 26 4 27 3 28 2 29 1 30
REMARK H PARENT
REMARK Flexibility Score: inf
ROOT
ATOM      1  C   UNL     1      35.210  37.651  24.939  1.00  0.00     0.000 C 
ENDROOT
BRANCH   1   2
ATOM      2  C   UNL     1      34.075  38.306  24.125  1.00  0.00     0.000 C 
BRANCH   2   3
ATOM      3  C   UNL     1      34.451  38.741  22.695  1.00  0.00     0.000 C 
BRANCH   3   4
ATOM      4  C   UNL     1      34.161  37.696  21.602  1.00  0.00     0.000 C 
BRANCH   4   5
ATOM      5  C   UNL     1      35.335  36.729  21.379  1.00  0.00     0.000 C 
BRANCH   5   6
ATOM      6  C   UNL     1      35.099  35.352  22.025  1.00  0.00     0.000 C 
BRANCH   6   7
ATOM      7  C   UNL     1      33.617  34.982  22.235  1.00  0.00     0.000 C 
BRANCH   7   8
ATOM      8  C   UNL     1      33.265  33.502  21.979  1.00  0.00     0.000 C 
BRANCH   8   9
ATOM      9  C   UNL     1      34.353  32.689  21.256  1.00  0.00     0.000 C 
BRANCH   9  10
ATOM     10  C   UNL     1      34.226  31.177  21.495  1.00  0.00     0.000 C 
BRANCH  10  11
ATOM     11  C   UNL     1      32.791  30.805  21.902  1.00  0.00     0.000 C 
BRANCH  11  12
ATOM     12  C   UNL     1      32.138  29.806  20.934  1.00  0.00     0.006 C 
BRANCH  12  13
ATOM     13  C   UNL     1      33.134  28.781  20.371  1.00  0.00     0.053 C 
BRANCH  13  14
ATOM     14  C   UNL     1      33.247  28.919  18.885  1.00  0.00     0.041 C 
ATOM     15  O   UNL     1      32.944  30.004  18.324  1.00  0.00    -0.550 OA
ATOM     16  O   UNL     1      33.699  27.851  18.117  1.00  0.00    -0.550 OA
ENDBRANCH  13  14
ENDBRANCH  12  13
ENDBRANCH  11  12
ENDBRANCH  10  11
ENDBRANCH   9  10
ENDBRANCH   8   9
ENDBRANCH   7   8
ENDBRANCH   6   7
ENDBRANCH   5   6
ENDBRANCH   4   5
ENDBRANCH   3   4
ENDBRANCH   2   3
ENDBRANCH   1   2
BRANCH   1  17
ATOM     17  C   UNL     1      36.470  38.530  25.081  1.00  0.00     0.000 C 
BRANCH  17  18
ATOM     18  C   UNL     1      37.726  37.720  25.449  1.00  0.00     0.000 C 
BRANCH  18  19
ATOM     19  C   UNL     1      38.499  38.318  26.636  1.00  0.00     0.000 C 
BRANCH  19  20
ATOM     20  C   UNL     1      39.092  37.241  27.560  1.00  0.00     0.000 C 
BRANCH  20  21
ATOM     21  C   UNL     1      38.478  37.263  28.972  1.00  0.00     0.000 C 
BRANCH  21  22
ATOM     22  C   UNL     1      36.991  37.670  29.034  1.00  0.00    -0.000 C 
BRANCH  22  23
ATOM     23  C   UNL     1      36.005  36.511  29.272  1.00  0.00    -0.000 C 
BRANCH  23  24
ATOM     24  C   UNL     1      35.870  35.582  28.052  1.00  0.00    -0.000 C 
BRANCH  24  25
ATOM     25  C   UNL     1      36.624  34.250  28.245  1.00  0.00    -0.000 C 
BRANCH  25  26
ATOM     26  C   UNL     1      37.299  33.739  26.960  1.00  0.00    -0.000 C 
BRANCH  26  27
ATOM     27  C   UNL     1      36.662  34.315  25.685  1.00  0.00    -0.000 C 
BRANCH  27  28
ATOM     28  C   UNL     1      35.993  33.235  24.819  1.00  0.00    -0.000 C 
BRANCH  28  29
ATOM     29  C   UNL     1      35.082  32.308  25.635  1.00  0.00    -0.003 C 
ATOM     30  C   UNL     1      33.626  32.754  25.554  1.00  0.00     0.004 C 
ENDBRANCH  28  29
ENDBRANCH  27  28
ENDBRANCH  26  27
ENDBRANCH  25  26
ENDBRANCH  24  25
ENDBRANCH  23  24
ENDBRANCH  22  23
ENDBRANCH  21  22
ENDBRANCH  20  21
ENDBRANCH  19  20
ENDBRANCH  18  19
ENDBRANCH  17  18
ENDBRANCH   1  17
TORSDOF 26
ENDMDL
MODEL 8
REMARK VINA RESULT:    -4.173      2.924      8.734
REMARK INTER + INTRA:         -15.050
REMARK INTER:                  -9.971
REMARK INTRA:                  -5.079
REMARK UNBOUND:                -4.535
REMARK SMILES CCCCCCCCCCCCCCCCCCCCCCCCCCCC(=O)[O-]
REMARK SMILES IDX 15 1 16 2 17 3 18 4 19 5 20 6 21 7 22 8 23 9 24 10 25 11
REMARK SMILES IDX 26 12 27 13 28 14 29 15 30 16 14 17 13 18 12 19 11 20 10 21
REMARK SMILES IDX 9 22 8 23 7 24 6 25 5 26 4 27 3 28 2 29 1 30
REMARK H PARENT
REMARK Flexibility Score: inf
ROOT
ATOM      1  C   UNL     1      36.904  32.722  26.185  1.00  0.00     0.000 C 
ENDROOT
BRANCH   1   2
ATOM      2  C   UNL     1      38.392  32.501  25.845  1.00  0.00     0.000 C 
BRANCH   2   3
ATOM      3  C   UNL     1      39.217  33.783  25.617  1.00  0.00     0.000 C 
BRANCH   3   4
ATOM      4  C   UNL     1      38.583  34.796  24.645  1.00  0.00     0.000 C 
BRANCH   4   5
ATOM      5  C   UNL     1      38.806  36.254  25.078  1.00  0.00     0.000 C 
BRANCH   5   6
ATOM      6  C   UNL     1      37.546  37.122  24.910  1.00  0.00     0.000 C 
BRANCH   6   7
ATOM      7  C   UNL     1      36.225  36.332  24.817  1.00  0.00     0.000 C 
BRANCH   7   8
ATOM      8  C   UNL     1      35.223  36.587  25.962  1.00  0.00     0.000 C 
BRANCH   8   9
ATOM      9  C   UNL     1      35.294  35.582  27.125  1.00  0.00     0.000 C 
BRANCH   9  10
ATOM     10  C   UNL     1      35.127  36.249  28.499  1.00  0.00     0.000 C 
BRANCH  10  11
ATOM     11  C   UNL     1      36.353  35.986  29.389  1.00  0.00     0.000 C 
BRANCH  11  12
ATOM     12  C   UNL     1      37.633  35.733  28.578  1.00  0.00     0.006 C 
BRANCH  12  13
ATOM     13  C   UNL     1      38.860  36.450  29.161  1.00  0.00     0.053 C 
BRANCH  13  14
ATOM     14  C   UNL     1      38.666  37.934  29.132  1.00  0.00     0.041 C 
ATOM     15  O   UNL     1      38.645  38.590  30.206  1.00  0.00    -0.550 OA
ATOM     16  O   UNL     1      38.518  38.596  27.918  1.00  0.00    -0.550 OA
ENDBRANCH  13  14
ENDBRANCH  12  13
ENDBRANCH  11  12
ENDBRANCH  10  11
ENDBRANCH   9  10
ENDBRANCH   8   9
ENDBRANCH   7   8
ENDBRANCH   6   7
ENDBRANCH   5   6
ENDBRANCH   4   5
ENDBRANCH   3   4
ENDBRANCH   2   3
ENDBRANCH   1   2
BRANCH   1  17
ATOM     17  C   UNL     1      35.927  32.064  25.188  1.00  0.00     0.000 C 
BRANCH  17  18
ATOM     18  C   UNL     1      34.459  32.151  25.643  1.00  0.00     0.000 C 
BRANCH  18  19
ATOM     19  C   UNL     1      33.643  33.177  24.842  1.00  0.00     0.000 C 
BRANCH  19  20
ATOM     20  C   UNL     1      34.315  33.564  23.514  1.00  0.00     0.000 C 
BRANCH  20  21
ATOM     21  C   UNL     1      33.300  33.863  22.396  1.00  0.00     0.000 C 
BRANCH  21  22
ATOM     22  C   UNL     1      33.885  34.560  21.149  1.00  0.00    -0.000 C 
BRANCH  22  23
ATOM     23  C   UNL     1      34.596  33.626  20.152  1.00  0.00    -0.000 C 
BRANCH  23  24
ATOM     24  C   UNL     1      36.106  33.502  20.423  1.00  0.00    -0.000 C 
BRANCH  24  25
ATOM     25  C   UNL     1      36.502  32.084  20.887  1.00  0.00    -0.000 C 
BRANCH  25  26
ATOM     26  C   UNL     1      35.345  31.073  20.815  1.00  0.00    -0.000 C 
BRANCH  26  27
ATOM     27  C   UNL     1      35.286  30.147  22.041  1.00  0.00    -0.000 C 
BRANCH  27  28
ATOM     28  C   UNL     1      33.885  30.089  22.670  1.00  0.00    -0.000 C 
BRANCH  28  29
ATOM     29  C   UNL     1      32.770  30.337  21.644  1.00  0.00    -0.003 C 
ATOM     30  C   UNL     1      32.110  29.029  21.219  1.00  0.00     0.004 C 
ENDBRANCH  28  29
ENDBRANCH  27  28
ENDBRANCH  26  27
ENDBRANCH  25  26
ENDBRANCH  24  25
ENDBRANCH  23  24
ENDBRANCH  22  23
ENDBRANCH  21  22
ENDBRANCH  20  21
ENDBRANCH  19  20
ENDBRANCH  18  19
ENDBRANCH  17  18
ENDBRANCH   1  17
TORSDOF 26
ENDMDL
MODEL 9
REMARK VINA RESULT:    -4.157      3.625      9.279
REMARK INTER + INTRA:         -15.010
REMARK INTER:                 -11.114
REMARK INTRA:                  -3.896
REMARK UNBOUND:                -4.535
REMARK SMILES CCCCCCCCCCCCCCCCCCCCCCCCCCCC(=O)[O-]
REMARK SMILES IDX 15 1 16 2 17 3 18 4 19 5 20 6 21 7 22 8 23 9 24 10 25 11
REMARK SMILES IDX 26 12 27 13 28 14 29 15 30 16 14 17 13 18 12 19 11 20 10 21
REMARK SMILES IDX 9 22 8 23 7 24 6 25 5 26 4 27 3 28 2 29 1 30
REMARK H PARENT
REMARK Flexibility Score: inf
ROOT
ATOM      1  C   UNL     1      32.848  31.245  22.249  1.00  0.00     0.000 C 
ENDROOT
BRANCH   1   2
ATOM      2  C   UNL     1      33.821  32.147  23.035  1.00  0.00     0.000 C 
BRANCH   2   3
ATOM      3  C   UNL     1      34.354  31.556  24.355  1.00  0.00     0.000 C 
BRANCH   3   4
ATOM      4  C   UNL     1      33.909  32.304  25.626  1.00  0.00     0.000 C 
BRANCH   4   5
ATOM      5  C   UNL     1      34.765  33.547  25.913  1.00  0.00     0.000 C 
BRANCH   5   6
ATOM      6  C   UNL     1      36.179  33.192  26.408  1.00  0.00     0.000 C 
BRANCH   6   7
ATOM      7  C   UNL     1      36.704  34.080  27.555  1.00  0.00     0.000 C 
BRANCH   7   8
ATOM      8  C   UNL     1      35.887  35.359  27.825  1.00  0.00     0.000 C 
BRANCH   8   9
ATOM      9  C   UNL     1      36.313  36.154  29.072  1.00  0.00     0.000 C 
BRANCH   9  10
ATOM     10  C   UNL     1      37.827  36.096  29.326  1.00  0.00     0.000 C 
BRANCH  10  11
ATOM     11  C   UNL     1      38.514  37.383  28.843  1.00  0.00     0.000 C 
BRANCH  11  12
ATOM     12  C   UNL     1      39.182  38.166  29.984  1.00  0.00     0.006 C 
BRANCH  12  13
ATOM     13  C   UNL     1      39.027  39.687  29.836  1.00  0.00     0.053 C 
BRANCH  13  14
ATOM     14  C   UNL     1      39.119  40.358  31.171  1.00  0.00     0.041 C 
ATOM     15  O   UNL     1      39.890  41.339  31.334  1.00  0.00    -0.550 OA
ATOM     16  O   UNL     1      38.344  39.907  32.234  1.00  0.00    -0.550 OA
ENDBRANCH  13  14
ENDBRANCH  12  13
ENDBRANCH  11  12
ENDBRANCH  10  11
ENDBRANCH   9  10
ENDBRANCH   8   9
ENDBRANCH   7   8
ENDBRANCH   6   7
ENDBRANCH   5   6
ENDBRANCH   4   5
ENDBRANCH   3   4
ENDBRANCH   2   3
ENDBRANCH   1   2
BRANCH   1  17
ATOM     17  C   UNL     1      33.404  29.838  21.943  1.00  0.00     0.000 C 
BRANCH  17  18
ATOM     18  C   UNL     1      32.522  29.047  20.960  1.00  0.00     0.000 C 
BRANCH  18  19
ATOM     19  C   UNL     1      33.143  28.927  19.560  1.00  0.00     0.000 C 
BRANCH  19  20
ATOM     20  C   UNL     1      32.822  30.134  18.662  1.00  0.00     0.000 C 
BRANCH  20  21
ATOM     21  C   UNL     1      34.085  30.859  18.163  1.00  0.00     0.000 C 
BRANCH  21  22
ATOM     22  C   UNL     1      34.494  32.102  18.981  1.00  0.00    -0.000 C 
BRANCH  22  23
ATOM     23  C   UNL     1      35.697  31.900  19.921  1.00  0.00    -0.000 C 
BRANCH  23  24
ATOM     24  C   UNL     1      36.674  30.822  19.417  1.00  0.00    -0.000 C 
BRANCH  24  25
ATOM     25  C   UNL     1      36.708  29.586  20.340  1.00  0.00    -0.000 C 
BRANCH  25  26
ATOM     26  C   UNL     1      37.776  29.678  21.444  1.00  0.00    -0.000 C 
BRANCH  26  27
ATOM     27  C   UNL     1      37.167  29.809  22.850  1.00  0.00    -0.000 C 
BRANCH  27  28
ATOM     28  C   UNL     1      37.839  30.912  23.683  1.00  0.00    -0.000 C 
BRANCH  28  29
ATOM     29  C   UNL     1      38.300  32.099  22.825  1.00  0.00    -0.003 C 
ATOM     30  C   UNL     1      37.326  33.269  22.932  1.00  0.00     0.004 C 
ENDBRANCH  28  29
ENDBRANCH  27  28
ENDBRANCH  26  27
ENDBRANCH  25  26
ENDBRANCH  24  25
ENDBRANCH  23  24
ENDBRANCH  22  23
ENDBRANCH  21  22
ENDBRANCH  20  21
ENDBRANCH  19  20
ENDBRANCH  18  19
ENDBRANCH  17  18
ENDBRANCH   1  17
TORSDOF 26
ENDMDL
