MODEL 1
REMARK VINA RESULT:    -3.458      0.000      0.000
REMARK INTER + INTRA:          -3.887
REMARK INTER:                  -3.862
REMARK INTRA:                  -0.025
REMARK UNBOUND:                -0.025
REMARK SMILES CCCC(=O)[O-]
REMARK SMILES IDX 3 1 4 2 5 3 6 4 2 5 1 6
REMARK H PARENT
REMARK Flexibility Score: inf
ROOT
ATOM      1  C   UNL     1       2.304  21.804 -19.463  1.00  0.00     0.052 C 
ENDROOT
BRANCH   1   2
ATOM      2  C   UNL     1       2.212  22.200 -18.023  1.00  0.00     0.041 C 
ATOM      3  O   UNL     1       1.259  21.788 -17.312  1.00  0.00    -0.550 OA
ATOM      4  O   UNL     1       3.154  23.066 -17.479  1.00  0.00    -0.550 OA
ENDBRANCH   1   2
BRANCH   1   5
ATOM      5  C   UNL     1       1.414  20.591 -19.742  1.00  0.00     0.003 C 
ATOM      6  C   UNL     1       2.221  19.443 -20.342  1.00  0.00     0.004 C 
ENDBRANCH   1   5
TORSDOF 2
ENDMDL
MODEL 2
REMARK VINA RESULT:    -3.415      2.565      3.318
REMARK INTER + INTRA:          -3.840
REMARK INTER:                  -3.816
REMARK INTRA:                  -0.024
REMARK UNBOUND:                -0.025
REMARK SMILES CCCC(=O)[O-]
REMARK SMILES IDX 3 1 4 2 5 3 6 4 2 5 1 6
REMARK H PARENT
REMARK Flexibility Score: inf
ROOT
ATOM      1  C   UNL     1       1.365  20.586 -19.658  1.00  0.00     0.052 C 
ENDROOT
BRANCH   1   2
ATOM      2  C   UNL     1       2.575  20.334 -20.502  1.00  0.00     0.041 C 
ATOM      3  O   UNL     1       2.932  19.156 -20.763  1.00  0.00    -0.550 OA
ATOM      4  O   UNL     1       3.337  21.403 -20.960  1.00  0.00    -0.550 OA
ENDBRANCH   1   2
BRANCH   1   5
ATOM      5  C   UNL     1       1.405  22.001 -19.075  1.00  0.00     0.003 C 
ATOM      6  C   UNL     1       1.374  21.967 -17.550  1.00  0.00     0.004 C 
ENDBRANCH   1   5
TORSDOF 2
ENDMDL
MODEL 3
REMARK VINA RESULT:    -3.398      2.561      3.459
REMARK INTER + INTRA:          -3.821
REMARK INTER:                  -3.783
REMARK INTRA:                  -0.038
REMARK UNBOUND:                -0.025
REMARK SMILES CCCC(=O)[O-]
REMARK SMILES IDX 3 1 4 2 5 3 6 4 2 5 1 6
REMARK H PARENT
REMARK Flexibility Score: inf
ROOT
ATOM      1  C   UNL     1       1.228  20.643 -19.713  1.00  0.00     0.052 C 
ENDROOT
BRANCH   1   2
ATOM      2  C   UNL     1       2.497  20.363 -20.455  1.00  0.00     0.041 C 
ATOM      3  O   UNL     1       3.226  21.312 -20.844  1.00  0.00    -0.550 OA
ATOM      4  O   UNL     1       2.848  19.053 -20.761  1.00  0.00    -0.550 OA
ENDBRANCH   1   2
BRANCH   1   5
ATOM      5  C   UNL     1       1.336  21.966 -18.949  1.00  0.00     0.003 C 
ATOM      6  C   UNL     1       1.643  21.725 -17.474  1.00  0.00     0.004 C 
ENDBRANCH   1   5
TORSDOF 2
ENDMDL
MODEL 4
REMARK VINA RESULT:    -3.212     13.426     14.106
REMARK INTER + INTRA:          -3.612
REMARK INTER:                  -3.602
REMARK INTRA:                  -0.010
REMARK UNBOUND:                -0.025
REMARK SMILES CCCC(=O)[O-]
REMARK SMILES IDX 3 1 4 2 5 3 6 4 2 5 1 6
REMARK H PARENT
REMARK Flexibility Score: inf
ROOT
ATOM      1  C   UNL     1      -5.985  32.017 -16.705  1.00  0.00     0.052 C 
ENDROOT
BRANCH   1   2
ATOM      2  C   UNL     1      -7.279  32.577 -16.202  1.00  0.00     0.041 C 
ATOM      3  O   UNL     1      -7.642  32.367 -15.016  1.00  0.00    -0.550 OA
ATOM      4  O   UNL     1      -8.107  33.290 -17.061  1.00  0.00    -0.550 OA
ENDBRANCH   1   2
BRANCH   1   5
ATOM      5  C   UNL     1      -5.908  32.134 -18.229  1.00  0.00     0.003 C 
ATOM      6  C   UNL     1      -4.618  31.518 -18.763  1.00  0.00     0.004 C 
ENDBRANCH   1   5
TORSDOF 2
ENDMDL
MODEL 5
REMARK VINA RESULT:    -3.171      8.808      9.877
REMARK INTER + INTRA:          -3.567
REMARK INTER:                  -3.527
REMARK INTRA:                  -0.040
REMARK UNBOUND:                -0.025
REMARK SMILES CCCC(=O)[O-]
REMARK SMILES IDX 3 1 4 2 5 3 6 4 2 5 1 6
REMARK H PARENT
REMARK Flexibility Score: inf
ROOT
ATOM      1  C   UNL     1       8.366  24.203 -12.015  1.00  0.00     0.052 C 
ENDROOT
BRANCH   1   2
ATOM      2  C   UNL     1       7.244  25.090 -12.457  1.00  0.00     0.041 C 
ATOM      3  O   UNL     1       7.478  26.266 -12.837  1.00  0.00    -0.550 OA
ATOM      4  O   UNL     1       5.933  24.631 -12.402  1.00  0.00    -0.550 OA
ENDBRANCH   1   2
BRANCH   1   5
ATOM      5  C   UNL     1       8.570  24.314 -10.501  1.00  0.00     0.003 C 
ATOM      6  C   UNL     1       7.859  23.180  -9.767  1.00  0.00     0.004 C 
ENDBRANCH   1   5
TORSDOF 2
ENDMDL
MODEL 6
REMARK VINA RESULT:    -3.162      2.051      3.133
REMARK INTER + INTRA:          -3.557
REMARK INTER:                  -3.544
REMARK INTRA:                  -0.013
REMARK UNBOUND:                -0.025
REMARK SMILES CCCC(=O)[O-]
REMARK SMILES IDX 3 1 4 2 5 3 6 4 2 5 1 6
REMARK H PARENT
REMARK Flexibility Score: inf
ROOT
ATOM      1  C   UNL     1       2.833  22.448 -18.245  1.00  0.00     0.052 C 
ENDROOT
BRANCH   1   2
ATOM      2  C   UNL     1       2.339  21.754 -19.476  1.00  0.00     0.041 C 
ATOM      3  O   UNL     1       1.174  21.280 -19.512  1.00  0.00    -0.550 OA
ATOM      4  O   UNL     1       3.186  21.588 -20.566  1.00  0.00    -0.550 OA
ENDBRANCH   1   2
BRANCH   1   5
ATOM      5  C   UNL     1       2.018  22.014 -17.024  1.00  0.00     0.003 C 
ATOM      6  C   UNL     1       2.886  21.977 -15.769  1.00  0.00     0.004 C 
ENDBRANCH   1   5
TORSDOF 2
ENDMDL
MODEL 7
REMARK VINA RESULT:    -3.101     12.688     13.345
REMARK INTER + INTRA:          -3.489
REMARK INTER:                  -3.426
REMARK INTRA:                  -0.063
REMARK UNBOUND:                -0.025
REMARK SMILES CCCC(=O)[O-]
REMARK SMILES IDX 3 1 4 2 5 3 6 4 2 5 1 6
REMARK H PARENT
REMARK Flexibility Score: inf
ROOT
ATOM      1  C   UNL     1      -5.957  32.298 -18.536  1.00  0.00     0.052 C 
ENDROOT
BRANCH   1   2
ATOM      2  C   UNL     1      -6.167  32.444 -17.062  1.00  0.00     0.041 C 
ATOM      3  O   UNL     1      -6.502  31.449 -16.368  1.00  0.00    -0.550 OA
ATOM      4  O   UNL     1      -6.040  33.691 -16.462  1.00  0.00    -0.550 OA
ENDBRANCH   1   2
BRANCH   1   5
ATOM      5  C   UNL     1      -4.663  31.530 -18.819  1.00  0.00     0.003 C 
ATOM      6  C   UNL     1      -3.437  32.382 -18.497  1.00  0.00     0.004 C 
ENDBRANCH   1   5
TORSDOF 2
ENDMDL
MODEL 8
REMARK VINA RESULT:    -3.053      8.736      9.961
REMARK INTER + INTRA:          -3.435
REMARK INTER:                  -3.427
REMARK INTRA:                  -0.008
REMARK UNBOUND:                -0.025
REMARK SMILES CCCC(=O)[O-]
REMARK SMILES IDX 3 1 4 2 5 3 6 4 2 5 1 6
REMARK H PARENT
REMARK Flexibility Score: inf
ROOT
ATOM      1  C   UNL     1       6.997  26.862 -13.071  1.00  0.00     0.052 C 
ENDROOT
BRANCH   1   2
ATOM      2  C   UNL     1       7.099  25.399 -12.771  1.00  0.00     0.041 C 
ATOM      3  O   UNL     1       8.160  24.772 -13.029  1.00  0.00    -0.550 OA
ATOM      4  O   UNL     1       6.005  24.718 -12.252  1.00  0.00    -0.550 OA
ENDBRANCH   1   2
BRANCH   1   5
ATOM      5  C   UNL     1       8.316  27.568 -12.748  1.00  0.00     0.003 C 
ATOM      6  C   UNL     1       8.121  29.078 -12.648  1.00  0.00     0.004 C 
ENDBRANCH   1   5
TORSDOF 2
ENDMDL
MODEL 9
REMARK VINA RESULT:    -3.034      9.343     10.027
REMARK INTER + INTRA:          -3.414
REMARK INTER:                  -3.406
REMARK INTRA:                  -0.008
REMARK UNBOUND:                -0.025
REMARK SMILES CCCC(=O)[O-]
REMARK SMILES IDX 3 1 4 2 5 3 6 4 2 5 1 6
REMARK H PARENT
REMARK Flexibility Score: inf
ROOT
ATOM      1  C   UNL     1       8.852  24.636 -11.451  1.00  0.00     0.052 C 
ENDROOT
BRANCH   1   2
ATOM      2  C   UNL     1       8.430  24.940 -12.855  1.00  0.00     0.041 C 
ATOM      3  O   UNL     1       8.971  24.345 -13.822  1.00  0.00    -0.550 OA
ATOM      4  O   UNL     1       7.472  25.918 -13.095  1.00  0.00    -0.550 OA
ENDBRANCH   1   2
BRANCH   1   5
ATOM      5  C   UNL     1       8.435  23.215 -11.063  1.00  0.00     0.003 C 
ATOM      6  C   UNL     1       7.831  23.183  -9.662  1.00  0.00     0.004 C 
ENDBRANCH   1   5
TORSDOF 2
ENDMDL
