MODEL 1
REMARK VINA RESULT:    -3.670      0.000      0.000
REMARK INTER + INTRA:          -4.515
REMARK INTER:                  -4.420
REMARK INTRA:                  -0.095
REMARK UNBOUND:                -0.095
REMARK SMILES CC[C@@H](C)[C@@H]([NH3+])C(=O)[O-]
REMARK SMILES IDX 3 1 4 2 5 3 6 4 7 8 8 9 9 10 2 11 1 12
REMARK H PARENT 6 5 6 6 6 7
REMARK Flexibility Score: inf
ROOT
ATOM      1  C   UNL     1      56.242  17.087  12.576  1.00  0.00     0.050 C 
ATOM      2  C   UNL     1      54.708  17.015  12.739  1.00  0.00     0.014 C 
ENDROOT
BRANCH   1   3
ATOM      3  C   UNL     1      56.920  17.385  13.953  1.00  0.00     0.230 C 
BRANCH   3   4
ATOM      4  N   UNL     1      56.406  16.521  15.028  1.00  0.00    -0.350 N 
ATOM      5  H   UNL     1      56.641  15.520  14.832  1.00  0.00     0.345 HD
ATOM      6  H   UNL     1      55.366  16.614  15.112  1.00  0.00     0.345 HD
ATOM      7  H   UNL     1      56.858  16.765  15.938  1.00  0.00     0.345 HD
ENDBRANCH   3   4
BRANCH   3   8
ATOM      8  C   UNL     1      58.419  17.225  13.863  1.00  0.00     0.099 C 
ATOM      9  O   UNL     1      59.100  17.994  13.134  1.00  0.00    -0.544 OA
ATOM     10  O   UNL     1      59.055  16.226  14.589  1.00  0.00    -0.544 OA
ENDBRANCH   3   8
ENDBRANCH   1   3
BRANCH   1  11
ATOM     11  C   UNL     1      56.786  15.778  11.944  1.00  0.00     0.006 C 
ATOM     12  C   UNL     1      57.018  15.877  10.435  1.00  0.00     0.004 C 
ENDBRANCH   1  11
TORSDOF 4
ENDMDL
MODEL 2
REMARK VINA RESULT:    -3.667      1.853      2.544
REMARK INTER + INTRA:          -4.512
REMARK INTER:                  -4.419
REMARK INTRA:                  -0.093
REMARK UNBOUND:                -0.095
REMARK SMILES CC[C@@H](C)[C@@H]([NH3+])C(=O)[O-]
REMARK SMILES IDX 3 1 4 2 5 3 6 4 7 8 8 9 9 10 2 11 1 12
REMARK H PARENT 6 5 6 6 6 7
REMARK Flexibility Score: inf
ROOT
ATOM      1  C   UNL     1      57.350  17.190  13.130  1.00  0.00     0.050 C 
ATOM      2  C   UNL     1      57.293  16.522  11.738  1.00  0.00     0.014 C 
ENDROOT
BRANCH   1   3
ATOM      3  C   UNL     1      58.405  18.344  13.136  1.00  0.00     0.230 C 
BRANCH   3   4
ATOM      4  N   UNL     1      57.805  19.650  12.817  1.00  0.00    -0.350 N 
ATOM      5  H   UNL     1      57.382  20.074  13.675  1.00  0.00     0.345 HD
ATOM      6  H   UNL     1      57.060  19.547  12.089  1.00  0.00     0.345 HD
ATOM      7  H   UNL     1      58.539  20.314  12.482  1.00  0.00     0.345 HD
ENDBRANCH   3   4
BRANCH   3   8
ATOM      8  C   UNL     1      59.102  18.432  14.472  1.00  0.00     0.099 C 
ATOM      9  O   UNL     1      59.662  19.502  14.831  1.00  0.00    -0.544 OA
ATOM     10  O   UNL     1      59.127  17.328  15.315  1.00  0.00    -0.544 OA
ENDBRANCH   3   8
ENDBRANCH   1   3
BRANCH   1  11
ATOM     11  C   UNL     1      55.945  17.699  13.548  1.00  0.00     0.006 C 
ATOM     12  C   UNL     1      54.796  16.996  12.822  1.00  0.00     0.004 C 
ENDBRANCH   1  11
TORSDOF 4
ENDMDL
MODEL 3
REMARK VINA RESULT:    -3.626      1.331      1.838
REMARK INTER + INTRA:          -4.463
REMARK INTER:                  -4.364
REMARK INTRA:                  -0.099
REMARK UNBOUND:                -0.095
REMARK SMILES CC[C@@H](C)[C@@H]([NH3+])C(=O)[O-]
REMARK SMILES IDX 3 1 4 2 5 3 6 4 7 8 8 9 9 10 2 11 1 12
REMARK H PARENT 6 5 6 6 6 7
REMARK Flexibility Score: inf
ROOT
ATOM      1  C   UNL     1      57.629  17.377  12.664  1.00  0.00     0.050 C 
ATOM      2  C   UNL     1      57.746  18.766  12.000  1.00  0.00     0.014 C 
ENDROOT
BRANCH   1   3
ATOM      3  C   UNL     1      57.578  17.522  14.220  1.00  0.00     0.230 C 
BRANCH   3   4
ATOM      4  N   UNL     1      56.605  16.604  14.835  1.00  0.00    -0.350 N 
ATOM      5  H   UNL     1      57.100  15.793  15.277  1.00  0.00     0.345 HD
ATOM      6  H   UNL     1      55.935  16.239  14.117  1.00  0.00     0.345 HD
ATOM      7  H   UNL     1      56.080  17.088  15.597  1.00  0.00     0.345 HD
ENDBRANCH   3   4
BRANCH   3   8
ATOM      8  C   UNL     1      58.938  17.285  14.831  1.00  0.00     0.099 C 
ATOM      9  O   UNL     1      59.478  16.149  14.763  1.00  0.00    -0.544 OA
ATOM     10  O   UNL     1      59.602  18.324  15.470  1.00  0.00    -0.544 OA
ENDBRANCH   3   8
ENDBRANCH   1   3
BRANCH   1  11
ATOM     11  C   UNL     1      56.391  16.615  12.121  1.00  0.00     0.006 C 
ATOM     12  C   UNL     1      56.745  15.348  11.339  1.00  0.00     0.004 C 
ENDBRANCH   1  11
TORSDOF 4
ENDMDL
MODEL 4
REMARK VINA RESULT:    -3.270      2.509      3.955
REMARK INTER + INTRA:          -4.034
REMARK INTER:                  -3.930
REMARK INTRA:                  -0.104
REMARK UNBOUND:                -0.095
REMARK SMILES CC[C@@H](C)[C@@H]([NH3+])C(=O)[O-]
REMARK SMILES IDX 3 1 4 2 5 3 6 4 7 8 8 9 9 10 2 11 1 12
REMARK H PARENT 6 5 6 6 6 7
REMARK Flexibility Score: inf
ROOT
ATOM      1  C   UNL     1      58.613  17.704  14.102  1.00  0.00     0.050 C 
ATOM      2  C   UNL     1      58.168  16.441  14.872  1.00  0.00     0.014 C 
ENDROOT
BRANCH   1   3
ATOM      3  C   UNL     1      57.374  18.422  13.474  1.00  0.00     0.230 C 
BRANCH   3   4
ATOM      4  N   UNL     1      57.752  19.623  12.711  1.00  0.00    -0.350 N 
ATOM      5  H   UNL     1      56.975  19.903  12.067  1.00  0.00     0.345 HD
ATOM      6  H   UNL     1      58.614  19.446  12.144  1.00  0.00     0.345 HD
ATOM      7  H   UNL     1      57.912  20.428  13.358  1.00  0.00     0.345 HD
ENDBRANCH   3   4
BRANCH   3   8
ATOM      8  C   UNL     1      56.605  17.485  12.573  1.00  0.00     0.099 C 
ATOM      9  O   UNL     1      57.157  16.976  11.562  1.00  0.00    -0.544 OA
ATOM     10  O   UNL     1      55.281  17.177  12.861  1.00  0.00    -0.544 OA
ENDBRANCH   3   8
ENDBRANCH   1   3
BRANCH   1  11
ATOM     11  C   UNL     1      59.413  18.656  15.030  1.00  0.00     0.006 C 
ATOM     12  C   UNL     1      60.931  18.509  14.898  1.00  0.00     0.004 C 
ENDBRANCH   1  11
TORSDOF 4
ENDMDL
MODEL 5
REMARK VINA RESULT:    -3.235     14.160     14.736
REMARK INTER + INTRA:          -3.992
REMARK INTER:                  -3.854
REMARK INTRA:                  -0.138
REMARK UNBOUND:                -0.095
REMARK SMILES CC[C@@H](C)[C@@H]([NH3+])C(=O)[O-]
REMARK SMILES IDX 3 1 4 2 5 3 6 4 7 8 8 9 9 10 2 11 1 12
REMARK H PARENT 6 5 6 6 6 7
REMARK Flexibility Score: inf
ROOT
ATOM      1  C   UNL     1      54.693  29.415   8.341  1.00  0.00     0.050 C 
ATOM      2  C   UNL     1      55.332  29.982   9.627  1.00  0.00     0.014 C 
ENDROOT
BRANCH   1   3
ATOM      3  C   UNL     1      53.436  30.256   7.943  1.00  0.00     0.230 C 
BRANCH   3   4
ATOM      4  N   UNL     1      53.793  31.606   7.477  1.00  0.00    -0.350 N 
ATOM      5  H   UNL     1      53.031  31.996   6.875  1.00  0.00     0.345 HD
ATOM      6  H   UNL     1      54.682  31.584   6.924  1.00  0.00     0.345 HD
ATOM      7  H   UNL     1      53.897  32.254   8.290  1.00  0.00     0.345 HD
ENDBRANCH   3   4
BRANCH   3   8
ATOM      8  C   UNL     1      52.636  29.557   6.871  1.00  0.00     0.099 C 
ATOM      9  O   UNL     1      52.134  30.213   5.920  1.00  0.00    -0.544 OA
ATOM     10  O   UNL     1      52.451  28.181   6.928  1.00  0.00    -0.544 OA
ENDBRANCH   3   8
ENDBRANCH   1   3
BRANCH   1  11
ATOM     11  C   UNL     1      55.734  29.364   7.191  1.00  0.00     0.006 C 
ATOM     12  C   UNL     1      56.013  27.950   6.678  1.00  0.00     0.004 C 
ENDBRANCH   1  11
TORSDOF 4
ENDMDL
MODEL 6
REMARK VINA RESULT:    -3.232     14.496     15.182
REMARK INTER + INTRA:          -3.988
REMARK INTER:                  -3.912
REMARK INTRA:                  -0.076
REMARK UNBOUND:                -0.095
REMARK SMILES CC[C@@H](C)[C@@H]([NH3+])C(=O)[O-]
REMARK SMILES IDX 3 1 4 2 5 3 6 4 7 8 8 9 9 10 2 11 1 12
REMARK H PARENT 6 5 6 6 6 7
REMARK Flexibility Score: inf
ROOT
ATOM      1  C   UNL     1      53.249  31.003   7.925  1.00  0.00     0.050 C 
ATOM      2  C   UNL     1      53.310  31.775   6.589  1.00  0.00     0.014 C 
ENDROOT
BRANCH   1   3
ATOM      3  C   UNL     1      54.557  30.172   8.133  1.00  0.00     0.230 C 
BRANCH   3   4
ATOM      4  N   UNL     1      54.978  30.137   9.543  1.00  0.00    -0.350 N 
ATOM      5  H   UNL     1      54.968  29.153   9.901  1.00  0.00     0.345 HD
ATOM      6  H   UNL     1      54.339  30.717  10.135  1.00  0.00     0.345 HD
ATOM      7  H   UNL     1      55.960  30.482   9.637  1.00  0.00     0.345 HD
ENDBRANCH   3   4
BRANCH   3   8
ATOM      8  C   UNL     1      54.383  28.758   7.632  1.00  0.00     0.099 C 
ATOM      9  O   UNL     1      55.377  27.992   7.528  1.00  0.00    -0.544 OA
ATOM     10  O   UNL     1      53.120  28.295   7.285  1.00  0.00    -0.544 OA
ENDBRANCH   3   8
ENDBRANCH   1   3
BRANCH   1  11
ATOM     11  C   UNL     1      53.000  31.978   9.107  1.00  0.00     0.006 C 
ATOM     12  C   UNL     1      51.806  32.911   8.891  1.00  0.00     0.004 C 
ENDBRANCH   1  11
TORSDOF 4
ENDMDL
MODEL 7
REMARK VINA RESULT:    -3.201     12.758     13.322
REMARK INTER + INTRA:          -3.950
REMARK INTER:                  -3.879
REMARK INTRA:                  -0.071
REMARK UNBOUND:                -0.095
REMARK SMILES CC[C@@H](C)[C@@H]([NH3+])C(=O)[O-]
REMARK SMILES IDX 3 1 4 2 5 3 6 4 7 8 8 9 9 10 2 11 1 12
REMARK H PARENT 6 5 6 6 6 7
REMARK Flexibility Score: inf
ROOT
ATOM      1  C   UNL     1      54.721  27.177   6.736  1.00  0.00     0.050 C 
ATOM      2  C   UNL     1      55.776  27.524   5.663  1.00  0.00     0.014 C 
ENDROOT
BRANCH   1   3
ATOM      3  C   UNL     1      53.644  28.308   6.824  1.00  0.00     0.230 C 
BRANCH   3   4
ATOM      4  N   UNL     1      52.296  27.776   7.082  1.00  0.00    -0.350 N 
ATOM      5  H   UNL     1      51.993  28.012   8.056  1.00  0.00     0.345 HD
ATOM      6  H   UNL     1      52.280  26.735   6.967  1.00  0.00     0.345 HD
ATOM      7  H   UNL     1      51.602  28.215   6.436  1.00  0.00     0.345 HD
ENDBRANCH   3   4
BRANCH   3   8
ATOM      8  C   UNL     1      53.997  29.307   7.899  1.00  0.00     0.099 C 
ATOM      9  O   UNL     1      54.991  29.115   8.648  1.00  0.00    -0.544 OA
ATOM     10  O   UNL     1      53.223  30.450   8.065  1.00  0.00    -0.544 OA
ENDBRANCH   3   8
ENDBRANCH   1   3
BRANCH   1  11
ATOM     11  C   UNL     1      54.075  25.797   6.440  1.00  0.00     0.006 C 
ATOM     12  C   UNL     1      53.996  25.464   4.948  1.00  0.00     0.004 C 
ENDBRANCH   1  11
TORSDOF 4
ENDMDL
MODEL 8
REMARK VINA RESULT:    -3.180      2.189      3.784
REMARK INTER + INTRA:          -3.926
REMARK INTER:                  -3.775
REMARK INTRA:                  -0.151
REMARK UNBOUND:                -0.095
REMARK SMILES CC[C@@H](C)[C@@H]([NH3+])C(=O)[O-]
REMARK SMILES IDX 3 1 4 2 5 3 6 4 7 8 8 9 9 10 2 11 1 12
REMARK H PARENT 6 5 6 6 6 7
REMARK Flexibility Score: inf
ROOT
ATOM      1  C   UNL     1      59.127  16.979  13.569  1.00  0.00     0.050 C 
ATOM      2  C   UNL     1      59.889  15.719  13.105  1.00  0.00     0.014 C 
ENDROOT
BRANCH   1   3
ATOM      3  C   UNL     1      57.584  16.735  13.503  1.00  0.00     0.230 C 
BRANCH   3   4
ATOM      4  N   UNL     1      57.033  16.289  14.793  1.00  0.00    -0.350 N 
ATOM      5  H   UNL     1      57.285  16.968  15.550  1.00  0.00     0.345 HD
ATOM      6  H   UNL     1      57.407  15.345  15.049  1.00  0.00     0.345 HD
ATOM      7  H   UNL     1      55.990  16.258  14.751  1.00  0.00     0.345 HD
ENDBRANCH   3   4
BRANCH   3   8
ATOM      8  C   UNL     1      56.858  17.982  13.059  1.00  0.00     0.099 C 
ATOM      9  O   UNL     1      55.680  18.207  13.445  1.00  0.00    -0.544 OA
ATOM     10  O   UNL     1      57.491  18.892  12.221  1.00  0.00    -0.544 OA
ENDBRANCH   3   8
ENDBRANCH   1   3
BRANCH   1  11
ATOM     11  C   UNL     1      59.578  17.395  14.995  1.00  0.00     0.006 C 
ATOM     12  C   UNL     1      59.711  18.908  15.179  1.00  0.00     0.004 C 
ENDBRANCH   1  11
TORSDOF 4
ENDMDL
MODEL 9
REMARK VINA RESULT:    -3.159     14.530     15.106
REMARK INTER + INTRA:          -3.901
REMARK INTER:                  -3.799
REMARK INTRA:                  -0.102
REMARK UNBOUND:                -0.095
REMARK SMILES CC[C@@H](C)[C@@H]([NH3+])C(=O)[O-]
REMARK SMILES IDX 3 1 4 2 5 3 6 4 7 8 8 9 9 10 2 11 1 12
REMARK H PARENT 6 5 6 6 6 7
REMARK Flexibility Score: inf
ROOT
ATOM      1  C   UNL     1      54.083  29.797   7.301  1.00  0.00     0.050 C 
ATOM      2  C   UNL     1      53.017  28.750   6.912  1.00  0.00     0.014 C 
ENDROOT
BRANCH   1   3
ATOM      3  C   UNL     1      53.698  30.489   8.649  1.00  0.00     0.230 C 
BRANCH   3   4
ATOM      4  N   UNL     1      54.846  30.606   9.564  1.00  0.00    -0.350 N 
ATOM      5  H   UNL     1      54.622  30.162  10.485  1.00  0.00     0.345 HD
ATOM      6  H   UNL     1      55.090  31.612   9.724  1.00  0.00     0.345 HD
ATOM      7  H   UNL     1      55.672  30.097   9.176  1.00  0.00     0.345 HD
ENDBRANCH   3   4
BRANCH   3   8
ATOM      8  C   UNL     1      53.116  31.861   8.406  1.00  0.00     0.099 C 
ATOM      9  O   UNL     1      52.457  32.443   9.308  1.00  0.00    -0.544 OA
ATOM     10  O   UNL     1      53.307  32.489   7.182  1.00  0.00    -0.544 OA
ENDBRANCH   3   8
ENDBRANCH   1   3
BRANCH   1  11
ATOM     11  C   UNL     1      55.489  29.143   7.376  1.00  0.00     0.006 C 
ATOM     12  C   UNL     1      55.471  27.627   7.173  1.00  0.00     0.004 C 
ENDBRANCH   1  11
TORSDOF 4
ENDMDL
