MODEL 1
REMARK VINA RESULT:    -2.455      0.000      0.000
REMARK INTER + INTRA:          -4.107
REMARK INTER:                  -3.747
REMARK INTRA:                  -0.360
REMARK UNBOUND:                -0.360
REMARK SMILES CC1=CCC[C@H](C)C(=O)C[C@H](C(C)C)C(=O)C1
REMARK SMILES IDX 8 1 9 2 6 3 7 4 5 5 4 6 3 7 2 8 1 9 10 11 11 12 15 13 16 14
REMARK SMILES IDX 17 15 12 17 13 18 14 19
REMARK H PARENT
REMARK Flexibility Score: 70.00
ROOT
ATOM      1  C   UNL     1      60.069   2.471  31.626  1.00  0.00     0.136 C 
ATOM      2  O   UNL     1      59.798   1.501  30.934  1.00  0.00    -0.299 OA
ENDROOT
BRANCH   1   3
ATOM      3  C   UNL     1      59.831   2.427  33.120  1.00  0.00     0.053 C 
ATOM      4  C   UNL     1      58.556   1.627  33.408  1.00  0.00     0.016 C 
BRANCH   3   5
ATOM      5  C   UNL     1      61.026   1.826  33.898  1.00  0.00     0.015 C 
BRANCH   5   6
ATOM      6  C   UNL     1      61.837   2.868  34.693  1.00  0.00     0.028 C 
BRANCH   6   7
ATOM      7  C   UNL     1      63.220   3.059  34.114  1.00  0.00    -0.028 C 
ATOM      8  C   UNL     1      63.719   4.205  33.588  1.00  0.00    -0.070 CG0
ATOM      9  C   UNL     1      65.155   4.232  33.119  1.00  0.00     0.039 C 
ATOM     10  G   UNL     1      62.899   5.460  33.375  1.00  0.00     0.000 G0
ENDBRANCH   6   7
ENDBRANCH   5   6
ENDBRANCH   3   5
ENDBRANCH   1   3
BRANCH   1  11
ATOM     11  C   UNL     1      60.611   3.720  30.971  1.00  0.00     0.087 C 
BRANCH  11  12
ATOM     12  C   UNL     1      60.731   4.891  31.974  1.00  0.00     0.066 C 
BRANCH  12  13
ATOM     13  C   UNL     1      62.162   5.389  32.047  1.00  0.00     0.140 C 
ATOM     14  O   UNL     1      62.745   5.716  31.022  1.00  0.00    -0.299 OA
BRANCH  13  15
ATOM     15  C   UNL     1      62.904   5.457  33.357  1.00  0.00     0.106 CG0
ATOM     16  G   UNL     1      63.724   4.201  33.562  1.00  0.00     0.000 G0
ENDBRANCH  13  15
ENDBRANCH  12  13
BRANCH  12  17
ATOM     17  C   UNL     1      59.736   6.063  31.700  1.00  0.00    -0.006 C 
ATOM     18  C   UNL     1      59.189   6.104  30.262  1.00  0.00     0.008 C 
ATOM     19  C   UNL     1      58.567   6.062  32.701  1.00  0.00     0.008 C 
ENDBRANCH  12  17
ENDBRANCH  11  12
ENDBRANCH   1  11
TORSDOF 1
ENDMDL
MODEL 2
REMARK VINA RESULT:    -2.289      9.091     11.207
REMARK INTER + INTRA:          -3.854
REMARK INTER:                  -3.582
REMARK INTRA:                  -0.273
REMARK UNBOUND:                -0.360
REMARK SMILES CC1=CCC[C@H](C)C(=O)C[C@H](C(C)C)C(=O)C1
REMARK SMILES IDX 8 1 9 2 6 3 7 4 5 5 4 6 3 7 2 8 1 9 10 11 11 12 15 13 16 14
REMARK SMILES IDX 17 15 12 17 13 18 14 19
REMARK H PARENT
REMARK Flexibility Score: 70.00
ROOT
ATOM      1  C   UNL     1      69.708   2.231  32.459  1.00  0.00     0.136 C 
ATOM      2  O   UNL     1      68.731   2.763  32.965  1.00  0.00    -0.299 OA
ENDROOT
BRANCH   1   3
ATOM      3  C   UNL     1      70.618   3.029  31.548  1.00  0.00     0.053 C 
ATOM      4  C   UNL     1      69.807   3.559  30.360  1.00  0.00     0.016 C 
BRANCH   3   5
ATOM      5  C   UNL     1      71.321   4.196  32.279  1.00  0.00     0.015 C 
BRANCH   5   6
ATOM      6  C   UNL     1      72.680   3.814  32.896  1.00  0.00     0.028 C 
BRANCH   6   7
ATOM      7  C   UNL     1      72.567   3.559  34.382  1.00  0.00    -0.028 C 
ATOM      8  C   UNL     1      72.905   2.416  35.028  1.00  0.00    -0.070 CG0
ATOM      9  C   UNL     1      72.791   2.364  36.534  1.00  0.00     0.039 C 
ATOM     10  G   UNL     1      73.332   1.146  34.323  1.00  0.00     0.000 G0
ENDBRANCH   6   7
ENDBRANCH   5   6
ENDBRANCH   3   5
ENDBRANCH   1   3
BRANCH   1  11
ATOM     11  C   UNL     1      69.980   0.770  32.727  1.00  0.00     0.087 C 
BRANCH  11  12
ATOM     12  C   UNL     1      71.481   0.427  32.585  1.00  0.00     0.066 C 
BRANCH  12  13
ATOM     13  C   UNL     1      72.134   0.303  33.949  1.00  0.00     0.140 C 
ATOM     14  O   UNL     1      71.664  -0.461  34.781  1.00  0.00    -0.299 OA
BRANCH  13  15
ATOM     15  C   UNL     1      73.336   1.132  34.323  1.00  0.00     0.106 CG0
ATOM     16  G   UNL     1      72.901   2.401  35.026  1.00  0.00     0.000 G0
ENDBRANCH  13  15
ENDBRANCH  12  13
BRANCH  12  17
ATOM     17  C   UNL     1      71.762  -0.832  31.706  1.00  0.00    -0.006 C 
ATOM     18  C   UNL     1      70.906  -2.060  32.069  1.00  0.00     0.008 C 
ATOM     19  C   UNL     1      71.615  -0.522  30.206  1.00  0.00     0.008 C 
ENDBRANCH  12  17
ENDBRANCH  11  12
ENDBRANCH   1  11
TORSDOF 1
ENDMDL
MODEL 3
REMARK VINA RESULT:    -2.262      8.619     10.742
REMARK INTER + INTRA:          -3.813
REMARK INTER:                  -3.662
REMARK INTRA:                  -0.151
REMARK UNBOUND:                -0.360
REMARK SMILES CC1=CCC[C@H](C)C(=O)C[C@H](C(C)C)C(=O)C1
REMARK SMILES IDX 8 1 9 2 6 3 7 4 5 5 4 6 3 7 2 8 1 9 10 11 11 12 15 13 16 14
REMARK SMILES IDX 17 15 12 17 13 18 14 19
REMARK H PARENT
REMARK Flexibility Score: 70.00
ROOT
ATOM      1  C   UNL     1      71.697   3.519  34.900  1.00  0.00     0.136 C 
ATOM      2  O   UNL     1      71.930   4.058  35.971  1.00  0.00    -0.299 OA
ENDROOT
BRANCH   1   3
ATOM      3  C   UNL     1      72.839   3.106  33.995  1.00  0.00     0.053 C 
ATOM      4  C   UNL     1      73.690   4.335  33.659  1.00  0.00     0.016 C 
BRANCH   3   5
ATOM      5  C   UNL     1      73.722   1.998  34.616  1.00  0.00     0.015 C 
BRANCH   5   6
ATOM      6  C   UNL     1      73.102   0.590  34.533  1.00  0.00     0.028 C 
BRANCH   6   7
ATOM      7  C   UNL     1      72.788   0.201  33.106  1.00  0.00    -0.028 C 
ATOM      8  C   UNL     1      71.552   0.069  32.563  1.00  0.00    -0.070 CG0
ATOM      9  C   UNL     1      71.428  -0.259  31.094  1.00  0.00     0.039 C 
ATOM     10  G   UNL     1      70.268   0.164  33.361  1.00  0.00     0.000 G0
ENDBRANCH   6   7
ENDBRANCH   5   6
ENDBRANCH   3   5
ENDBRANCH   1   3
BRANCH   1  11
ATOM     11  C   UNL     1      70.264   3.299  34.476  1.00  0.00     0.087 C 
BRANCH  11  12
ATOM     12  C   UNL     1      70.166   2.773  33.025  1.00  0.00     0.066 C 
BRANCH  12  13
ATOM     13  C   UNL     1      69.497   1.412  32.992  1.00  0.00     0.140 C 
ATOM     14  O   UNL     1      68.313   1.324  32.697  1.00  0.00    -0.299 OA
BRANCH  13  15
ATOM     15  C   UNL     1      70.250   0.157  33.352  1.00  0.00     0.106 CG0
ATOM     16  G   UNL     1      71.545   0.080  32.569  1.00  0.00     0.000 G0
ENDBRANCH  13  15
ENDBRANCH  12  13
BRANCH  12  17
ATOM     17  C   UNL     1      69.477   3.768  32.038  1.00  0.00    -0.006 C 
ATOM     18  C   UNL     1      70.026   5.205  32.103  1.00  0.00     0.008 C 
ATOM     19  C   UNL     1      69.531   3.257  30.588  1.00  0.00     0.008 C 
ENDBRANCH  12  17
ENDBRANCH  11  12
ENDBRANCH   1  11
TORSDOF 1
ENDMDL
MODEL 4
REMARK VINA RESULT:    -2.217      7.067      9.901
REMARK INTER + INTRA:          -3.744
REMARK INTER:                  -3.278
REMARK INTRA:                  -0.466
REMARK UNBOUND:                -0.360
REMARK SMILES CC1=CCC[C@H](C)C(=O)C[C@H](C(C)C)C(=O)C1
REMARK SMILES IDX 8 1 9 2 6 3 7 4 5 5 4 6 3 7 2 8 1 9 10 11 11 12 15 13 16 14
REMARK SMILES IDX 17 15 12 17 13 18 14 19
REMARK H PARENT
REMARK Flexibility Score: 70.00
ROOT
ATOM      1  C   UNL     1      70.312   2.792  35.237  1.00  0.00     0.136 C 
ATOM      2  O   UNL     1      70.437   3.800  35.917  1.00  0.00    -0.299 OA
ENDROOT
BRANCH   1   3
ATOM      3  C   UNL     1      71.534   2.119  34.648  1.00  0.00     0.053 C 
ATOM      4  C   UNL     1      72.592   3.180  34.327  1.00  0.00     0.016 C 
BRANCH   3   5
ATOM      5  C   UNL     1      72.127   1.038  35.582  1.00  0.00     0.015 C 
BRANCH   5   6
ATOM      6  C   UNL     1      71.784  -0.404  35.159  1.00  0.00     0.028 C 
BRANCH   6   7
ATOM      7  C   UNL     1      70.641  -0.967  35.973  1.00  0.00    -0.028 C 
ATOM      8  C   UNL     1      69.438  -1.371  35.495  1.00  0.00    -0.070 CG0
ATOM      9  C   UNL     1      68.436  -1.977  36.449  1.00  0.00     0.039 C 
ATOM     10  G   UNL     1      69.000  -1.190  34.056  1.00  0.00     0.000 G0
ENDBRANCH   6   7
ENDBRANCH   5   6
ENDBRANCH   3   5
ENDBRANCH   1   3
BRANCH   1  11
ATOM     11  C   UNL     1      68.930   2.248  34.965  1.00  0.00     0.087 C 
BRANCH  11  12
ATOM     12  C   UNL     1      68.881   1.428  33.655  1.00  0.00     0.066 C 
BRANCH  12  13
ATOM     13  C   UNL     1      68.203   0.090  33.885  1.00  0.00     0.140 C 
ATOM     14  O   UNL     1      66.984   0.035  33.979  1.00  0.00    -0.299 OA
BRANCH  13  15
ATOM     15  C   UNL     1      69.001  -1.179  34.039  1.00  0.00     0.106 CG0
ATOM     16  G   UNL     1      69.432  -1.357  35.480  1.00  0.00     0.000 G0
ENDBRANCH  13  15
ENDBRANCH  12  13
BRANCH  12  17
ATOM     17  C   UNL     1      68.236   2.191  32.454  1.00  0.00    -0.006 C 
ATOM     18  C   UNL     1      67.318   3.356  32.867  1.00  0.00     0.008 C 
ATOM     19  C   UNL     1      69.299   2.693  31.463  1.00  0.00     0.008 C 
ENDBRANCH  12  17
ENDBRANCH  11  12
ENDBRANCH   1  11
TORSDOF 1
ENDMDL
MODEL 5
REMARK VINA RESULT:    -2.177     16.131     17.749
REMARK INTER + INTRA:          -3.683
REMARK INTER:                  -3.240
REMARK INTRA:                  -0.443
REMARK UNBOUND:                -0.360
REMARK SMILES CC1=CCC[C@H](C)C(=O)C[C@H](C(C)C)C(=O)C1
REMARK SMILES IDX 8 1 9 2 6 3 7 4 5 5 4 6 3 7 2 8 1 9 10 11 11 12 15 13 16 14
REMARK SMILES IDX 17 15 12 17 13 18 14 19
REMARK H PARENT
REMARK Flexibility Score: 70.00
ROOT
ATOM      1  C   UNL     1      67.156  11.746  46.489  1.00  0.00     0.136 C 
ATOM      2  O   UNL     1      68.026  11.085  45.941  1.00  0.00    -0.299 OA
ENDROOT
BRANCH   1   3
ATOM      3  C   UNL     1      67.528  12.991  47.267  1.00  0.00     0.053 C 
ATOM      4  C   UNL     1      68.818  12.732  48.052  1.00  0.00     0.016 C 
BRANCH   3   5
ATOM      5  C   UNL     1      67.693  14.234  46.361  1.00  0.00     0.015 C 
BRANCH   5   6
ATOM      6  C   UNL     1      66.545  15.254  46.491  1.00  0.00     0.028 C 
BRANCH   6   7
ATOM      7  C   UNL     1      65.615  15.202  45.301  1.00  0.00    -0.028 C 
ATOM      8  C   UNL     1      64.308  14.839  45.318  1.00  0.00    -0.070 CG0
ATOM      9  C   UNL     1      63.509  14.914  44.039  1.00  0.00     0.039 C 
ATOM     10  G   UNL     1      63.604  14.291  46.542  1.00  0.00     0.000 G0
ENDBRANCH   6   7
ENDBRANCH   5   6
ENDBRANCH   3   5
ENDBRANCH   1   3
BRANCH   1  11
ATOM     11  C   UNL     1      65.718  11.292  46.408  1.00  0.00     0.087 C 
BRANCH  11  12
ATOM     12  C   UNL     1      64.808  12.085  47.373  1.00  0.00     0.066 C 
BRANCH  12  13
ATOM     13  C   UNL     1      63.694  12.780  46.612  1.00  0.00     0.140 C 
ATOM     14  O   UNL     1      62.871  12.114  45.999  1.00  0.00    -0.299 OA
BRANCH  13  15
ATOM     15  C   UNL     1      63.598  14.283  46.559  1.00  0.00     0.106 CG0
ATOM     16  G   UNL     1      64.310  14.812  45.331  1.00  0.00     0.000 G0
ENDBRANCH  13  15
ENDBRANCH  12  13
BRANCH  12  17
ATOM     17  C   UNL     1      64.241  11.232  48.553  1.00  0.00    -0.006 C 
ATOM     18  C   UNL     1      64.788   9.794  48.612  1.00  0.00     0.008 C 
ATOM     19  C   UNL     1      64.455  11.926  49.909  1.00  0.00     0.008 C 
ENDBRANCH  12  17
ENDBRANCH  11  12
ENDBRANCH   1  11
TORSDOF 1
ENDMDL
MODEL 6
REMARK VINA RESULT:    -2.163     15.048     16.711
REMARK INTER + INTRA:          -3.662
REMARK INTER:                  -3.604
REMARK INTRA:                  -0.058
REMARK UNBOUND:                -0.360
REMARK SMILES CC1=CCC[C@H](C)C(=O)C[C@H](C(C)C)C(=O)C1
REMARK SMILES IDX 8 1 9 2 6 3 7 4 5 5 4 6 3 7 2 8 1 9 10 11 11 12 15 13 16 14
REMARK SMILES IDX 17 15 12 17 13 18 14 19
REMARK H PARENT
REMARK Flexibility Score: 70.00
ROOT
ATOM      1  C   UNL     1      62.737  13.890  45.471  1.00  0.00     0.136 C 
ATOM      2  O   UNL     1      62.452  12.962  46.214  1.00  0.00    -0.299 OA
ENDROOT
BRANCH   1   3
ATOM      3  C   UNL     1      62.029  14.040  44.141  1.00  0.00     0.053 C 
ATOM      4  C   UNL     1      60.636  14.637  44.372  1.00  0.00     0.016 C 
BRANCH   3   5
ATOM      5  C   UNL     1      62.823  14.908  43.136  1.00  0.00     0.015 C 
BRANCH   5   6
ATOM      6  C   UNL     1      63.886  14.123  42.342  1.00  0.00     0.028 C 
BRANCH   6   7
ATOM      7  C   UNL     1      65.052  15.002  41.951  1.00  0.00    -0.028 C 
ATOM      8  C   UNL     1      66.283  15.004  42.520  1.00  0.00    -0.070 CG0
ATOM      9  C   UNL     1      67.353  15.904  41.950  1.00  0.00     0.039 C 
ATOM     10  G   UNL     1      66.641  14.197  43.751  1.00  0.00     0.000 G0
ENDBRANCH   6   7
ENDBRANCH   5   6
ENDBRANCH   3   5
ENDBRANCH   1   3
BRANCH   1  11
ATOM     11  C   UNL     1      63.819  14.861  45.879  1.00  0.00     0.087 C 
BRANCH  11  12
ATOM     12  C   UNL     1      65.207  14.183  45.947  1.00  0.00     0.066 C 
BRANCH  12  13
ATOM     13  C   UNL     1      66.184  14.868  45.009  1.00  0.00     0.140 C 
ATOM     14  O   UNL     1      66.573  16.001  45.258  1.00  0.00    -0.299 OA
BRANCH  13  15
ATOM     15  C   UNL     1      66.664  14.197  43.748  1.00  0.00     0.106 CG0
ATOM     16  G   UNL     1      66.273  15.015  42.535  1.00  0.00     0.000 G0
ENDBRANCH  13  15
ENDBRANCH  12  13
BRANCH  12  17
ATOM     17  C   UNL     1      65.788  14.076  47.392  1.00  0.00    -0.006 C 
ATOM     18  C   UNL     1      65.038  14.919  48.439  1.00  0.00     0.008 C 
ATOM     19  C   UNL     1      65.870  12.614  47.864  1.00  0.00     0.008 C 
ENDBRANCH  12  17
ENDBRANCH  11  12
ENDBRANCH   1  11
TORSDOF 1
ENDMDL
MODEL 7
REMARK VINA RESULT:    -2.155     14.684     16.415
REMARK INTER + INTRA:          -3.650
REMARK INTER:                  -3.364
REMARK INTRA:                  -0.286
REMARK UNBOUND:                -0.360
REMARK SMILES CC1=CCC[C@H](C)C(=O)C[C@H](C(C)C)C(=O)C1
REMARK SMILES IDX 8 1 9 2 6 3 7 4 5 5 4 6 3 7 2 8 1 9 10 11 11 12 15 13 16 14
REMARK SMILES IDX 17 15 12 17 13 18 14 19
REMARK H PARENT
REMARK Flexibility Score: 70.00
ROOT
ATOM      1  C   UNL     1      64.884  13.275  43.285  1.00  0.00     0.136 C 
ATOM      2  O   UNL     1      65.474  12.924  42.274  1.00  0.00    -0.299 OA
ENDROOT
BRANCH   1   3
ATOM      3  C   UNL     1      64.153  14.601  43.313  1.00  0.00     0.053 C 
ATOM      4  C   UNL     1      64.981  15.653  42.567  1.00  0.00     0.016 C 
BRANCH   3   5
ATOM      5  C   UNL     1      62.732  14.512  42.709  1.00  0.00     0.015 C 
BRANCH   5   6
ATOM      6  C   UNL     1      61.608  14.514  43.763  1.00  0.00     0.028 C 
BRANCH   6   7
ATOM      7  C   UNL     1      61.300  13.118  44.254  1.00  0.00    -0.028 C 
ATOM      8  C   UNL     1      61.572  12.622  45.487  1.00  0.00    -0.070 CG0
ATOM      9  C   UNL     1      61.127  11.220  45.828  1.00  0.00     0.039 C 
ATOM     10  G   UNL     1      62.365  13.371  46.538  1.00  0.00     0.000 G0
ENDBRANCH   6   7
ENDBRANCH   5   6
ENDBRANCH   3   5
ENDBRANCH   1   3
BRANCH   1  11
ATOM     11  C   UNL     1      64.919  12.392  44.509  1.00  0.00     0.087 C 
BRANCH  11  12
ATOM     12  C   UNL     1      64.898  13.217  45.816  1.00  0.00     0.066 C 
BRANCH  12  13
ATOM     13  C   UNL     1      63.747  12.783  46.706  1.00  0.00     0.140 C 
ATOM     14  O   UNL     1      63.927  11.919  47.553  1.00  0.00    -0.299 OA
BRANCH  13  15
ATOM     15  C   UNL     1      62.368  13.367  46.546  1.00  0.00     0.106 CG0
ATOM     16  G   UNL     1      61.595  12.608  45.488  1.00  0.00     0.000 G0
ENDBRANCH  13  15
ENDBRANCH  12  13
BRANCH  12  17
ATOM     17  C   UNL     1      66.252  13.204  46.594  1.00  0.00    -0.006 C 
ATOM     18  C   UNL     1      67.482  12.905  45.718  1.00  0.00     0.008 C 
ATOM     19  C   UNL     1      66.474  14.514  47.370  1.00  0.00     0.008 C 
ENDBRANCH  12  17
ENDBRANCH  11  12
ENDBRANCH   1  11
TORSDOF 1
ENDMDL
MODEL 8
REMARK VINA RESULT:    -2.135      7.563     10.324
REMARK INTER + INTRA:          -3.618
REMARK INTER:                  -3.220
REMARK INTRA:                  -0.398
REMARK UNBOUND:                -0.360
REMARK SMILES CC1=CCC[C@H](C)C(=O)C[C@H](C(C)C)C(=O)C1
REMARK SMILES IDX 8 1 9 2 6 3 7 4 5 5 4 6 3 7 2 8 1 9 10 11 11 12 15 13 16 14
REMARK SMILES IDX 17 15 12 17 13 18 14 19
REMARK H PARENT
REMARK Flexibility Score: 70.00
ROOT
ATOM      1  C   UNL     1      72.008   0.284  33.314  1.00  0.00     0.136 C 
ATOM      2  O   UNL     1      73.003  -0.336  32.967  1.00  0.00    -0.299 OA
ENDROOT
BRANCH   1   3
ATOM      3  C   UNL     1      72.146   1.500  34.206  1.00  0.00     0.053 C 
ATOM      4  C   UNL     1      73.173   1.208  35.306  1.00  0.00     0.016 C 
BRANCH   3   5
ATOM      5  C   UNL     1      72.547   2.772  33.423  1.00  0.00     0.015 C 
BRANCH   5   6
ATOM      6  C   UNL     1      71.370   3.453  32.699  1.00  0.00     0.028 C 
BRANCH   6   7
ATOM      7  C   UNL     1      70.246   3.789  33.652  1.00  0.00    -0.028 C 
ATOM      8  C   UNL     1      69.048   3.159  33.735  1.00  0.00    -0.070 CG0
ATOM      9  C   UNL     1      68.067   3.587  34.801  1.00  0.00     0.039 C 
ATOM     10  G   UNL     1      68.594   2.083  32.770  1.00  0.00     0.000 G0
ENDBRANCH   6   7
ENDBRANCH   5   6
ENDBRANCH   3   5
ENDBRANCH   1   3
BRANCH   1  11
ATOM     11  C   UNL     1      70.646  -0.193  32.870  1.00  0.00     0.087 C 
BRANCH  11  12
ATOM     12  C   UNL     1      69.587  -0.028  33.985  1.00  0.00     0.066 C 
BRANCH  12  13
ATOM     13  C   UNL     1      68.399   0.773  33.482  1.00  0.00     0.140 C 
ATOM     14  O   UNL     1      67.266   0.339  33.636  1.00  0.00    -0.299 OA
BRANCH  13  15
ATOM     15  C   UNL     1      68.584   2.081  32.759  1.00  0.00     0.106 CG0
ATOM     16  G   UNL     1      69.041   3.155  33.724  1.00  0.00     0.000 G0
ENDBRANCH  13  15
ENDBRANCH  12  13
BRANCH  12  17
ATOM     17  C   UNL     1      69.130  -1.376  34.628  1.00  0.00    -0.006 C 
ATOM     18  C   UNL     1      69.449  -2.621  33.780  1.00  0.00     0.008 C 
ATOM     19  C   UNL     1      69.703  -1.552  36.045  1.00  0.00     0.008 C 
ENDBRANCH  12  17
ENDBRANCH  11  12
ENDBRANCH   1  11
TORSDOF 1
ENDMDL
MODEL 9
REMARK VINA RESULT:    -2.014     16.644     18.297
REMARK INTER + INTRA:          -3.434
REMARK INTER:                  -2.979
REMARK INTRA:                  -0.455
REMARK UNBOUND:                -0.360
REMARK SMILES CC1=CCC[C@H](C)C(=O)C[C@H](C(C)C)C(=O)C1
REMARK SMILES IDX 8 1 9 2 6 3 7 4 5 5 4 6 3 7 2 8 1 9 10 11 11 12 15 13 16 14
REMARK SMILES IDX 17 15 12 17 13 18 14 19
REMARK H PARENT
REMARK Flexibility Score: 70.00
ROOT
ATOM      1  C   UNL     1      64.825  12.896  48.521  1.00  0.00     0.136 C 
ATOM      2  O   UNL     1      63.950  13.041  49.362  1.00  0.00    -0.299 OA
ENDROOT
BRANCH   1   3
ATOM      3  C   UNL     1      64.615  13.414  47.113  1.00  0.00     0.053 C 
ATOM      4  C   UNL     1      63.210  13.031  46.636  1.00  0.00     0.016 C 
BRANCH   3   5
ATOM      5  C   UNL     1      64.820  14.943  47.002  1.00  0.00     0.015 C 
BRANCH   5   6
ATOM      6  C   UNL     1      66.262  15.400  47.299  1.00  0.00     0.028 C 
BRANCH   6   7
ATOM      7  C   UNL     1      67.213  15.003  46.193  1.00  0.00    -0.028 C 
ATOM      8  C   UNL     1      68.159  14.034  46.257  1.00  0.00    -0.070 CG0
ATOM      9  C   UNL     1      68.976  13.724  45.024  1.00  0.00     0.039 C 
ATOM     10  G   UNL     1      68.502  13.275  47.522  1.00  0.00     0.000 G0
ENDBRANCH   6   7
ENDBRANCH   5   6
ENDBRANCH   3   5
ENDBRANCH   1   3
BRANCH   1  11
ATOM     11  C   UNL     1      66.097  12.172  48.891  1.00  0.00     0.087 C 
BRANCH  11  12
ATOM     12  C   UNL     1      66.681  11.384  47.695  1.00  0.00     0.066 C 
BRANCH  12  13
ATOM     13  C   UNL     1      68.104  11.824  47.407  1.00  0.00     0.140 C 
ATOM     14  O   UNL     1      68.948  10.991  47.106  1.00  0.00    -0.299 OA
BRANCH  13  15
ATOM     15  C   UNL     1      68.518  13.268  47.521  1.00  0.00     0.106 CG0
ATOM     16  G   UNL     1      68.157  14.019  46.255  1.00  0.00     0.000 G0
ENDBRANCH  13  15
ENDBRANCH  12  13
BRANCH  12  17
ATOM     17  C   UNL     1      66.587   9.833  47.853  1.00  0.00    -0.006 C 
ATOM     18  C   UNL     1      66.714   9.337  49.305  1.00  0.00     0.008 C 
ATOM     19  C   UNL     1      65.299   9.275  47.224  1.00  0.00     0.008 C 
ENDBRANCH  12  17
ENDBRANCH  11  12
ENDBRANCH   1  11
TORSDOF 1
ENDMDL
