MODEL 1
REMARK VINA RESULT:    -6.427      0.000      0.000
REMARK INTER + INTRA:          -6.803
REMARK INTER:                  -6.803
REMARK INTRA:                   0.000
REMARK UNBOUND:                 0.000
REMARK SMILES O=c1ccc2cc(O)c(O)cc2o1
REMARK SMILES IDX 4 1 3 2 2 3 1 4 13 5 12 6 11 7 9 8 7 9 6 10 5 11 8 12 10 14
REMARK H PARENT 8 13 10 15
REMARK Flexibility Score: inf
ROOT
ATOM      1  C   UNL     1      96.363 -59.134 105.112  1.00  0.00     0.019 A 
ATOM      2  C   UNL     1      97.429 -59.958 105.472  1.00  0.00     0.094 A 
ATOM      3  C   UNL     1      97.396 -61.308 105.107  1.00  0.00     0.336 A 
ATOM      4  O   UNL     1      98.349 -62.068 105.421  1.00  0.00    -0.246 OA
ATOM      5  O   UNL     1      96.362 -61.796 104.425  1.00  0.00    -0.423 OA
ATOM      6  C   UNL     1      95.325 -61.044 104.062  1.00  0.00     0.142 A 
ATOM      7  C   UNL     1      94.268 -61.611 103.348  1.00  0.00     0.098 A 
ATOM      8  C   UNL     1      93.169 -60.834 102.960  1.00  0.00     0.161 A 
ATOM      9  C   UNL     1      93.133 -59.457 103.295  1.00  0.00     0.158 A 
ATOM     10  C   UNL     1      94.196 -58.891 104.011  1.00  0.00     0.062 A 
ATOM     11  C   UNL     1      95.290 -59.676 104.396  1.00  0.00     0.022 A 
ENDROOT
BRANCH   9  12
ATOM     12  O   UNL     1      92.070 -58.623 102.939  1.00  0.00    -0.504 OA
ATOM     13  H   UNL     1      91.975 -57.667 103.248  1.00  0.00     0.293 HD
ENDBRANCH   9  12
BRANCH   8  14
ATOM     14  O   UNL     1      92.146 -61.464 102.248  1.00  0.00    -0.504 OA
ATOM     15  H   UNL     1      91.448 -60.972 101.708  1.00  0.00     0.293 HD
ENDBRANCH   8  14
TORSDOF 2
ENDMDL
MODEL 2
REMARK VINA RESULT:    -6.227      1.183      1.388
REMARK INTER + INTRA:          -6.591
REMARK INTER:                  -6.591
REMARK INTRA:                   0.000
REMARK UNBOUND:                 0.000
REMARK SMILES O=c1ccc2cc(O)c(O)cc2o1
REMARK SMILES IDX 4 1 3 2 2 3 1 4 13 5 12 6 11 7 9 8 7 9 6 10 5 11 8 12 10 14
REMARK H PARENT 8 13 10 15
REMARK Flexibility Score: inf
ROOT
ATOM      1  C   UNL     1      95.251 -59.421 104.681  1.00  0.00     0.019 A 
ATOM      2  C   UNL     1      96.180 -60.366 105.114  1.00  0.00     0.094 A 
ATOM      3  C   UNL     1      96.197 -61.628 104.511  1.00  0.00     0.336 A 
ATOM      4  O   UNL     1      97.029 -62.494 104.887  1.00  0.00    -0.246 OA
ATOM      5  O   UNL     1      95.337 -61.920 103.538  1.00  0.00    -0.423 OA
ATOM      6  C   UNL     1      94.434 -61.047 103.094  1.00  0.00     0.142 A 
ATOM      7  C   UNL     1      93.557 -61.409 102.071  1.00  0.00     0.098 A 
ATOM      8  C   UNL     1      92.600 -60.503 101.594  1.00  0.00     0.161 A 
ATOM      9  C   UNL     1      92.525 -59.205 102.158  1.00  0.00     0.158 A 
ATOM     10  C   UNL     1      93.407 -58.844 103.186  1.00  0.00     0.062 A 
ATOM     11  C   UNL     1      94.360 -59.757 103.656  1.00  0.00     0.022 A 
ENDROOT
BRANCH   9  12
ATOM     12  O   UNL     1      91.598 -58.251 101.731  1.00  0.00    -0.504 OA
ATOM     13  H   UNL     1      90.600 -58.342 101.848  1.00  0.00     0.293 HD
ENDBRANCH   9  12
BRANCH   8  14
ATOM     14  O   UNL     1      91.754 -60.929 100.569  1.00  0.00    -0.504 OA
ATOM     15  H   UNL     1      91.935 -60.776  99.586  1.00  0.00     0.293 HD
ENDBRANCH   8  14
TORSDOF 2
ENDMDL
MODEL 3
REMARK VINA RESULT:    -6.151      1.146      2.327
REMARK INTER + INTRA:          -6.510
REMARK INTER:                  -6.510
REMARK INTRA:                   0.000
REMARK UNBOUND:                 0.000
REMARK SMILES O=c1ccc2cc(O)c(O)cc2o1
REMARK SMILES IDX 4 1 3 2 2 3 1 4 13 5 12 6 11 7 9 8 7 9 6 10 5 11 8 12 10 14
REMARK H PARENT 8 13 10 15
REMARK Flexibility Score: inf
ROOT
ATOM      1  C   UNL     1      95.919 -62.103 103.977  1.00  0.00     0.019 A 
ATOM      2  C   UNL     1      96.955 -61.589 104.755  1.00  0.00     0.094 A 
ATOM      3  C   UNL     1      96.919 -60.241 105.128  1.00  0.00     0.336 A 
ATOM      4  O   UNL     1      97.845 -59.759 105.831  1.00  0.00    -0.246 OA
ATOM      5  O   UNL     1      95.910 -59.463 104.744  1.00  0.00    -0.423 OA
ATOM      6  C   UNL     1      94.901 -59.914 104.002  1.00  0.00     0.142 A 
ATOM      7  C   UNL     1      93.869 -59.051 103.628  1.00  0.00     0.098 A 
ATOM      8  C   UNL     1      92.801 -59.510 102.846  1.00  0.00     0.161 A 
ATOM      9  C   UNL     1      92.769 -60.864 102.431  1.00  0.00     0.158 A 
ATOM     10  C   UNL     1      93.807 -61.728 102.808  1.00  0.00     0.062 A 
ATOM     11  C   UNL     1      94.871 -61.261 103.589  1.00  0.00     0.022 A 
ENDROOT
BRANCH   9  12
ATOM     12  O   UNL     1      91.736 -61.389 101.652  1.00  0.00    -0.504 OA
ATOM     13  H   UNL     1      90.892 -60.887 101.421  1.00  0.00     0.293 HD
ENDBRANCH   9  12
BRANCH   8  14
ATOM     14  O   UNL     1      91.802 -58.594 102.509  1.00  0.00    -0.504 OA
ATOM     15  H   UNL     1      91.099 -58.761 101.803  1.00  0.00     0.293 HD
ENDBRANCH   8  14
TORSDOF 2
ENDMDL
MODEL 4
REMARK VINA RESULT:    -6.139      1.771      3.155
REMARK INTER + INTRA:          -6.498
REMARK INTER:                  -6.498
REMARK INTRA:                   0.000
REMARK UNBOUND:                 0.000
REMARK SMILES O=c1ccc2cc(O)c(O)cc2o1
REMARK SMILES IDX 4 1 3 2 2 3 1 4 13 5 12 6 11 7 9 8 7 9 6 10 5 11 8 12 10 14
REMARK H PARENT 8 13 10 15
REMARK Flexibility Score: inf
ROOT
ATOM      1  C   UNL     1      94.508 -62.033 102.653  1.00  0.00     0.019 A 
ATOM      2  C   UNL     1      95.418 -61.894 103.699  1.00  0.00     0.094 A 
ATOM      3  C   UNL     1      95.501 -60.669 104.369  1.00  0.00     0.336 A 
ATOM      4  O   UNL     1      96.316 -60.524 105.318  1.00  0.00    -0.246 OA
ATOM      5  O   UNL     1      94.720 -59.652 104.011  1.00  0.00    -0.423 OA
ATOM      6  C   UNL     1      93.837 -59.742 103.018  1.00  0.00     0.142 A 
ATOM      7  C   UNL     1      93.045 -58.642 102.687  1.00  0.00     0.098 A 
ATOM      8  C   UNL     1      92.112 -58.721 101.644  1.00  0.00     0.161 A 
ATOM      9  C   UNL     1      91.973 -59.931 100.920  1.00  0.00     0.158 A 
ATOM     10  C   UNL     1      92.770 -61.034 101.255  1.00  0.00     0.062 A 
ATOM     11  C   UNL     1      93.700 -60.947 102.299  1.00  0.00     0.022 A 
ENDROOT
BRANCH   9  12
ATOM     12  O   UNL     1      91.064 -60.081  99.870  1.00  0.00    -0.504 OA
ATOM     13  H   UNL     1      90.440 -60.868  99.771  1.00  0.00     0.293 HD
ENDBRANCH   9  12
BRANCH   8  14
ATOM     14  O   UNL     1      91.352 -57.584 101.364  1.00  0.00    -0.504 OA
ATOM     15  H   UNL     1      91.034 -56.930 102.066  1.00  0.00     0.293 HD
ENDBRANCH   8  14
TORSDOF 2
ENDMDL
MODEL 5
REMARK VINA RESULT:    -6.060      1.827      4.907
REMARK INTER + INTRA:          -6.414
REMARK INTER:                  -6.414
REMARK INTRA:                   0.000
REMARK UNBOUND:                 0.000
REMARK SMILES O=c1ccc2cc(O)c(O)cc2o1
REMARK SMILES IDX 4 1 3 2 2 3 1 4 13 5 12 6 11 7 9 8 7 9 6 10 5 11 8 12 10 14
REMARK H PARENT 8 13 10 15
REMARK Flexibility Score: inf
ROOT
ATOM      1  C   UNL     1      92.433 -58.593 101.879  1.00  0.00     0.019 A 
ATOM      2  C   UNL     1      91.755 -59.024 100.740  1.00  0.00     0.094 A 
ATOM      3  C   UNL     1      91.981 -60.320 100.265  1.00  0.00     0.336 A 
ATOM      4  O   UNL     1      91.378 -60.728  99.238  1.00  0.00    -0.246 OA
ATOM      5  O   UNL     1      92.832 -61.128 100.894  1.00  0.00    -0.423 OA
ATOM      6  C   UNL     1      93.499 -60.756 101.984  1.00  0.00     0.142 A 
ATOM      7  C   UNL     1      94.379 -61.647 102.602  1.00  0.00     0.098 A 
ATOM      8  C   UNL     1      95.089 -61.271 103.750  1.00  0.00     0.161 A 
ATOM      9  C   UNL     1      94.910 -59.972 104.288  1.00  0.00     0.158 A 
ATOM     10  C   UNL     1      94.026 -59.080 103.666  1.00  0.00     0.062 A 
ATOM     11  C   UNL     1      93.320 -59.464 102.519  1.00  0.00     0.022 A 
ENDROOT
BRANCH   9  12
ATOM     12  O   UNL     1      95.584 -59.531 105.429  1.00  0.00    -0.504 OA
ATOM     13  H   UNL     1      96.186 -60.115 105.991  1.00  0.00     0.293 HD
ENDBRANCH   9  12
BRANCH   8  14
ATOM     14  O   UNL     1      95.952 -62.210 104.317  1.00  0.00    -0.504 OA
ATOM     15  H   UNL     1      96.559 -62.018 105.101  1.00  0.00     0.293 HD
ENDBRANCH   8  14
TORSDOF 2
ENDMDL
MODEL 6
REMARK VINA RESULT:    -6.055      1.434      5.173
REMARK INTER + INTRA:          -6.409
REMARK INTER:                  -6.409
REMARK INTRA:                   0.000
REMARK UNBOUND:                 0.000
REMARK SMILES O=c1ccc2cc(O)c(O)cc2o1
REMARK SMILES IDX 4 1 3 2 2 3 1 4 13 5 12 6 11 7 9 8 7 9 6 10 5 11 8 12 10 14
REMARK H PARENT 8 13 10 15
REMARK Flexibility Score: inf
ROOT
ATOM      1  C   UNL     1      93.049 -61.260 101.713  1.00  0.00     0.019 A 
ATOM      2  C   UNL     1      92.151 -60.378 101.114  1.00  0.00     0.094 A 
ATOM      3  C   UNL     1      92.117 -59.048 101.545  1.00  0.00     0.336 A 
ATOM      4  O   UNL     1      91.314 -58.236 101.016  1.00  0.00    -0.246 OA
ATOM      5  O   UNL     1      92.930 -58.633 102.514  1.00  0.00    -0.423 OA
ATOM      6  C   UNL     1      93.802 -59.442 103.112  1.00  0.00     0.142 A 
ATOM      7  C   UNL     1      94.630 -58.952 104.123  1.00  0.00     0.098 A 
ATOM      8  C   UNL     1      95.552 -59.791 104.763  1.00  0.00     0.161 A 
ATOM      9  C   UNL     1      95.643 -61.151 104.379  1.00  0.00     0.158 A 
ATOM     10  C   UNL     1      94.810 -61.641 103.363  1.00  0.00     0.062 A 
ATOM     11  C   UNL     1      93.891 -60.796 102.729  1.00  0.00     0.022 A 
ENDROOT
BRANCH   9  12
ATOM     12  O   UNL     1      96.539 -62.043 104.972  1.00  0.00    -0.504 OA
ATOM     13  H   UNL     1      97.518 -62.102 104.735  1.00  0.00     0.293 HD
ENDBRANCH   9  12
BRANCH   8  14
ATOM     14  O   UNL     1      96.349 -59.235 105.766  1.00  0.00    -0.504 OA
ATOM     15  H   UNL     1      96.099 -59.223 106.745  1.00  0.00     0.293 HD
ENDBRANCH   8  14
TORSDOF 2
ENDMDL
MODEL 7
REMARK VINA RESULT:    -5.882      2.332      3.440
REMARK INTER + INTRA:          -6.226
REMARK INTER:                  -6.226
REMARK INTRA:                   0.000
REMARK UNBOUND:                 0.000
REMARK SMILES O=c1ccc2cc(O)c(O)cc2o1
REMARK SMILES IDX 4 1 3 2 2 3 1 4 13 5 12 6 11 7 9 8 7 9 6 10 5 11 8 12 10 14
REMARK H PARENT 8 13 10 15
REMARK Flexibility Score: inf
ROOT
ATOM      1  C   UNL     1      96.090 -62.532 103.385  1.00  0.00     0.019 A 
ATOM      2  C   UNL     1      95.984 -63.650 102.560  1.00  0.00     0.094 A 
ATOM      3  C   UNL     1      94.903 -63.741 101.677  1.00  0.00     0.336 A 
ATOM      4  O   UNL     1      94.790 -64.742 100.922  1.00  0.00    -0.246 OA
ATOM      5  O   UNL     1      93.990 -62.773 101.627  1.00  0.00    -0.423 OA
ATOM      6  C   UNL     1      94.054 -61.689 102.397  1.00  0.00     0.142 A 
ATOM      7  C   UNL     1      93.068 -60.706 102.303  1.00  0.00     0.098 A 
ATOM      8  C   UNL     1      93.120 -59.560 103.107  1.00  0.00     0.161 A 
ATOM      9  C   UNL     1      94.187 -59.399 104.026  1.00  0.00     0.158 A 
ATOM     10  C   UNL     1      95.176 -60.388 104.119  1.00  0.00     0.062 A 
ATOM     11  C   UNL     1      95.116 -61.530 103.311  1.00  0.00     0.022 A 
ENDROOT
BRANCH   9  12
ATOM     12  O   UNL     1      94.303 -58.283 104.857  1.00  0.00    -0.504 OA
ATOM     13  H   UNL     1      93.518 -57.812 105.283  1.00  0.00     0.293 HD
ENDBRANCH   9  12
BRANCH   8  14
ATOM     14  O   UNL     1      92.102 -58.616 102.961  1.00  0.00    -0.504 OA
ATOM     15  H   UNL     1      91.391 -58.658 102.244  1.00  0.00     0.293 HD
ENDBRANCH   8  14
TORSDOF 2
ENDMDL
MODEL 8
REMARK VINA RESULT:    -5.833      1.785      2.604
REMARK INTER + INTRA:          -6.174
REMARK INTER:                  -6.174
REMARK INTRA:                   0.000
REMARK UNBOUND:                 0.000
REMARK SMILES O=c1ccc2cc(O)c(O)cc2o1
REMARK SMILES IDX 4 1 3 2 2 3 1 4 13 5 12 6 11 7 9 8 7 9 6 10 5 11 8 12 10 14
REMARK H PARENT 8 13 10 15
REMARK Flexibility Score: inf
ROOT
ATOM      1  C   UNL     1      93.944 -59.107 103.629  1.00  0.00     0.019 A 
ATOM      2  C   UNL     1      95.003 -58.877 104.506  1.00  0.00     0.094 A 
ATOM      3  C   UNL     1      95.930 -59.899 104.733  1.00  0.00     0.336 A 
ATOM      4  O   UNL     1      96.894 -59.711 105.521  1.00  0.00    -0.246 OA
ATOM      5  O   UNL     1      95.801 -61.073 104.119  1.00  0.00    -0.423 OA
ATOM      6  C   UNL     1      94.806 -61.334 103.274  1.00  0.00     0.142 A 
ATOM      7  C   UNL     1      94.721 -62.584 102.659  1.00  0.00     0.098 A 
ATOM      8  C   UNL     1      93.679 -62.874 101.769  1.00  0.00     0.161 A 
ATOM      9  C   UNL     1      92.702 -61.886 101.491  1.00  0.00     0.158 A 
ATOM     10  C   UNL     1      92.790 -60.632 102.109  1.00  0.00     0.062 A 
ATOM     11  C   UNL     1      93.835 -60.351 102.998  1.00  0.00     0.022 A 
ENDROOT
BRANCH   9  12
ATOM     12  O   UNL     1      91.637 -62.106 100.613  1.00  0.00    -0.504 OA
ATOM     13  H   UNL     1      90.848 -61.484 100.516  1.00  0.00     0.293 HD
ENDBRANCH   9  12
BRANCH   8  14
ATOM     14  O   UNL     1      93.653 -64.144 101.189  1.00  0.00    -0.504 OA
ATOM     15  H   UNL     1      92.939 -64.458 100.547  1.00  0.00     0.293 HD
ENDBRANCH   8  14
TORSDOF 2
ENDMDL
MODEL 9
REMARK VINA RESULT:    -5.700      1.093      4.549
REMARK INTER + INTRA:          -6.033
REMARK INTER:                  -6.033
REMARK INTRA:                   0.000
REMARK UNBOUND:                 0.000
REMARK SMILES O=c1ccc2cc(O)c(O)cc2o1
REMARK SMILES IDX 4 1 3 2 2 3 1 4 13 5 12 6 11 7 9 8 7 9 6 10 5 11 8 12 10 14
REMARK H PARENT 8 13 10 15
REMARK Flexibility Score: inf
ROOT
ATOM      1  C   UNL     1      94.465 -58.945 104.125  1.00  0.00     0.019 A 
ATOM      2  C   UNL     1      93.358 -59.305 103.357  1.00  0.00     0.094 A 
ATOM      3  C   UNL     1      93.268 -60.612 102.867  1.00  0.00     0.336 A 
ATOM      4  O   UNL     1      92.276 -60.956 102.173  1.00  0.00    -0.246 OA
ATOM      5  O   UNL     1      94.226 -61.497 103.131  1.00  0.00    -0.423 OA
ATOM      6  C   UNL     1      95.299 -61.195 103.860  1.00  0.00     0.142 A 
ATOM      7  C   UNL     1      96.272 -62.166 104.104  1.00  0.00     0.098 A 
ATOM      8  C   UNL     1      97.407 -61.863 104.868  1.00  0.00     0.161 A 
ATOM      9  C   UNL     1      97.567 -60.559 105.398  1.00  0.00     0.158 A 
ATOM     10  C   UNL     1      96.588 -59.587 105.151  1.00  0.00     0.062 A 
ATOM     11  C   UNL     1      95.456 -59.897 104.386  1.00  0.00     0.022 A 
ENDROOT
BRANCH   9  12
ATOM     12  O   UNL     1      98.672 -60.188 106.168  1.00  0.00    -0.504 OA
ATOM     13  H   UNL     1      99.556 -59.893 105.782  1.00  0.00     0.293 HD
ENDBRANCH   9  12
BRANCH   8  14
ATOM     14  O   UNL     1      98.342 -62.880 105.074  1.00  0.00    -0.504 OA
ATOM     15  H   UNL     1      98.147 -63.862 104.939  1.00  0.00     0.293 HD
ENDBRANCH   8  14
TORSDOF 2
ENDMDL
