MODEL 1
REMARK VINA RESULT:    -3.107      0.000      0.000
REMARK INTER + INTRA:         -11.566
REMARK INTER:                  -7.102
REMARK INTRA:                  -4.464
REMARK UNBOUND:                -4.464
REMARK SMILES CCCCCCCCCCCCCCCCCCCCCCCC(=O)[O-]
REMARK SMILES IDX 13 1 14 2 15 3 16 4 17 5 18 6 19 7 20 8 21 9 22 10 23 11
REMARK SMILES IDX 24 12 25 13 26 14 12 15 11 16 10 17 9 18 8 19 7 20 6 21 5 22
REMARK SMILES IDX 4 23 3 24 2 25 1 26
REMARK H PARENT
REMARK Flexibility Score: inf
ROOT
ATOM      1  C   UNL     1      54.763  53.472  48.211  1.00  0.00     0.000 C 
ENDROOT
BRANCH   1   2
ATOM      2  C   UNL     1      55.571  54.322  47.216  1.00  0.00     0.000 C 
BRANCH   2   3
ATOM      3  C   UNL     1      55.032  54.222  45.779  1.00  0.00     0.000 C 
BRANCH   3   4
ATOM      4  C   UNL     1      55.404  55.443  44.918  1.00  0.00     0.000 C 
BRANCH   4   5
ATOM      5  C   UNL     1      54.243  56.411  44.615  1.00  0.00     0.000 C 
BRANCH   5   6
ATOM      6  C   UNL     1      52.861  55.959  45.122  1.00  0.00     0.000 C 
BRANCH   6   7
ATOM      7  C   UNL     1      52.436  56.677  46.416  1.00  0.00     0.000 C 
BRANCH   7   8
ATOM      8  C   UNL     1      53.377  57.836  46.780  1.00  0.00     0.000 C 
BRANCH   8   9
ATOM      9  C   UNL     1      54.090  57.608  48.125  1.00  0.00     0.000 C 
BRANCH   9  10
ATOM     10  C   UNL     1      53.291  56.702  49.075  1.00  0.00     0.006 C 
BRANCH  10  11
ATOM     11  C   UNL     1      53.545  57.020  50.554  1.00  0.00     0.053 C 
BRANCH  11  12
ATOM     12  C   UNL     1      52.317  57.596  51.185  1.00  0.00     0.041 C 
ATOM     13  O   UNL     1      52.045  58.819  51.045  1.00  0.00    -0.550 OA
ATOM     14  O   UNL     1      51.491  56.791  51.960  1.00  0.00    -0.550 OA
ENDBRANCH  11  12
ENDBRANCH  10  11
ENDBRANCH   9  10
ENDBRANCH   8   9
ENDBRANCH   7   8
ENDBRANCH   6   7
ENDBRANCH   5   6
ENDBRANCH   4   5
ENDBRANCH   3   4
ENDBRANCH   2   3
ENDBRANCH   1   2
BRANCH   1  15
ATOM     15  C   UNL     1      53.615  52.701  47.543  1.00  0.00     0.000 C 
BRANCH  15  16
ATOM     16  C   UNL     1      52.336  52.773  48.392  1.00  0.00     0.000 C 
BRANCH  16  17
ATOM     17  C   UNL     1      52.594  53.326  49.803  1.00  0.00     0.000 C 
BRANCH  17  18
ATOM     18  C   UNL     1      52.001  52.430  50.905  1.00  0.00    -0.000 C 
BRANCH  18  19
ATOM     19  C   UNL     1      52.270  50.938  50.663  1.00  0.00    -0.000 C 
BRANCH  19  20
ATOM     20  C   UNL     1      53.480  50.416  51.459  1.00  0.00    -0.000 C 
BRANCH  20  21
ATOM     21  C   UNL     1      54.798  50.532  50.663  1.00  0.00    -0.000 C 
BRANCH  21  22
ATOM     22  C   UNL     1      55.716  51.669  51.152  1.00  0.00    -0.000 C 
BRANCH  22  23
ATOM     23  C   UNL     1      55.342  52.254  52.525  1.00  0.00    -0.000 C 
BRANCH  23  24
ATOM     24  C   UNL     1      55.237  53.789  52.506  1.00  0.00    -0.000 C 
BRANCH  24  25
ATOM     25  C   UNL     1      54.028  54.302  53.304  1.00  0.00    -0.003 C 
ATOM     26  C   UNL     1      54.279  55.671  53.937  1.00  0.00     0.004 C 
ENDBRANCH  24  25
ENDBRANCH  23  24
ENDBRANCH  22  23
ENDBRANCH  21  22
ENDBRANCH  20  21
ENDBRANCH  19  20
ENDBRANCH  18  19
ENDBRANCH  17  18
ENDBRANCH  16  17
ENDBRANCH  15  16
ENDBRANCH   1  15
TORSDOF 22
ENDMDL
MODEL 2
REMARK VINA RESULT:    -3.065      3.343      7.520
REMARK INTER + INTRA:         -11.471
REMARK INTER:                  -7.258
REMARK INTRA:                  -4.213
REMARK UNBOUND:                -4.464
REMARK SMILES CCCCCCCCCCCCCCCCCCCCCCCC(=O)[O-]
REMARK SMILES IDX 13 1 14 2 15 3 16 4 17 5 18 6 19 7 20 8 21 9 22 10 23 11
REMARK SMILES IDX 24 12 25 13 26 14 12 15 11 16 10 17 9 18 8 19 7 20 6 21 5 22
REMARK SMILES IDX 4 23 3 24 2 25 1 26
REMARK H PARENT
REMARK Flexibility Score: inf
ROOT
ATOM      1  C   UNL     1      52.729  52.298  47.832  1.00  0.00     0.000 C 
ENDROOT
BRANCH   1   2
ATOM      2  C   UNL     1      52.762  52.008  49.342  1.00  0.00     0.000 C 
BRANCH   2   3
ATOM      3  C   UNL     1      52.189  53.164  50.179  1.00  0.00     0.000 C 
BRANCH   3   4
ATOM      4  C   UNL     1      52.282  52.904  51.693  1.00  0.00     0.000 C 
BRANCH   4   5
ATOM      5  C   UNL     1      53.234  53.844  52.462  1.00  0.00     0.000 C 
BRANCH   5   6
ATOM      6  C   UNL     1      54.730  53.500  52.347  1.00  0.00     0.000 C 
BRANCH   6   7
ATOM      7  C   UNL     1      55.063  52.094  52.876  1.00  0.00     0.000 C 
BRANCH   7   8
ATOM      8  C   UNL     1      55.969  51.305  51.916  1.00  0.00     0.000 C 
BRANCH   8   9
ATOM      9  C   UNL     1      55.261  50.074  51.325  1.00  0.00     0.000 C 
BRANCH   9  10
ATOM     10  C   UNL     1      54.020  49.658  52.131  1.00  0.00     0.006 C 
BRANCH  10  11
ATOM     11  C   UNL     1      52.998  48.879  51.291  1.00  0.00     0.053 C 
BRANCH  11  12
ATOM     12  C   UNL     1      52.943  47.449  51.727  1.00  0.00     0.041 C 
ATOM     13  O   UNL     1      53.651  47.051  52.690  1.00  0.00    -0.550 OA
ATOM     14  O   UNL     1      52.137  46.546  51.045  1.00  0.00    -0.550 OA
ENDBRANCH  11  12
ENDBRANCH  10  11
ENDBRANCH   9  10
ENDBRANCH   8   9
ENDBRANCH   7   8
ENDBRANCH   6   7
ENDBRANCH   5   6
ENDBRANCH   4   5
ENDBRANCH   3   4
ENDBRANCH   2   3
ENDBRANCH   1   2
BRANCH   1  15
ATOM     15  C   UNL     1      54.128  52.519  47.236  1.00  0.00     0.000 C 
BRANCH  15  16
ATOM     16  C   UNL     1      55.217  51.958  48.163  1.00  0.00     0.000 C 
BRANCH  16  17
ATOM     17  C   UNL     1      56.191  53.041  48.654  1.00  0.00     0.000 C 
BRANCH  17  18
ATOM     18  C   UNL     1      55.872  54.429  48.072  1.00  0.00    -0.000 C 
BRANCH  18  19
ATOM     19  C   UNL     1      55.511  55.456  49.155  1.00  0.00    -0.000 C 
BRANCH  19  20
ATOM     20  C   UNL     1      54.024  55.849  49.127  1.00  0.00    -0.000 C 
BRANCH  20  21
ATOM     21  C   UNL     1      53.799  57.247  48.510  1.00  0.00    -0.000 C 
BRANCH  21  22
ATOM     22  C   UNL     1      52.762  57.261  47.371  1.00  0.00    -0.000 C 
BRANCH  22  23
ATOM     23  C   UNL     1      52.623  55.930  46.612  1.00  0.00    -0.000 C 
BRANCH  23  24
ATOM     24  C   UNL     1      53.587  55.826  45.417  1.00  0.00    -0.000 C 
BRANCH  24  25
ATOM     25  C   UNL     1      52.970  56.369  44.119  1.00  0.00    -0.003 C 
ATOM     26  C   UNL     1      51.442  56.383  44.154  1.00  0.00     0.004 C 
ENDBRANCH  24  25
ENDBRANCH  23  24
ENDBRANCH  22  23
ENDBRANCH  21  22
ENDBRANCH  20  21
ENDBRANCH  19  20
ENDBRANCH  18  19
ENDBRANCH  17  18
ENDBRANCH  16  17
ENDBRANCH  15  16
ENDBRANCH   1  15
TORSDOF 22
ENDMDL
MODEL 3
REMARK VINA RESULT:    -3.061      1.978      6.116
REMARK INTER + INTRA:         -11.462
REMARK INTER:                  -6.560
REMARK INTRA:                  -4.902
REMARK UNBOUND:                -4.464
REMARK SMILES CCCCCCCCCCCCCCCCCCCCCCCC(=O)[O-]
REMARK SMILES IDX 13 1 14 2 15 3 16 4 17 5 18 6 19 7 20 8 21 9 22 10 23 11
REMARK SMILES IDX 24 12 25 13 26 14 12 15 11 16 10 17 9 18 8 19 7 20 6 21 5 22
REMARK SMILES IDX 4 23 3 24 2 25 1 26
REMARK H PARENT
REMARK Flexibility Score: inf
ROOT
ATOM      1  C   UNL     1      54.450  56.282  50.175  1.00  0.00     0.000 C 
ENDROOT
BRANCH   1   2
ATOM      2  C   UNL     1      55.460  55.230  49.686  1.00  0.00     0.000 C 
BRANCH   2   3
ATOM      3  C   UNL     1      55.547  55.162  48.152  1.00  0.00     0.000 C 
BRANCH   3   4
ATOM      4  C   UNL     1      55.585  53.717  47.622  1.00  0.00     0.000 C 
BRANCH   4   5
ATOM      5  C   UNL     1      54.300  53.245  46.912  1.00  0.00     0.000 C 
BRANCH   5   6
ATOM      6  C   UNL     1      53.451  52.230  47.699  1.00  0.00     0.000 C 
BRANCH   6   7
ATOM      7  C   UNL     1      52.286  52.889  48.461  1.00  0.00     0.000 C 
BRANCH   7   8
ATOM      8  C   UNL     1      52.478  52.835  49.985  1.00  0.00     0.000 C 
BRANCH   8   9
ATOM      9  C   UNL     1      53.682  51.968  50.392  1.00  0.00     0.000 C 
BRANCH   9  10
ATOM     10  C   UNL     1      54.252  52.352  51.767  1.00  0.00     0.006 C 
BRANCH  10  11
ATOM     11  C   UNL     1      53.387  53.383  52.503  1.00  0.00     0.053 C 
BRANCH  11  12
ATOM     12  C   UNL     1      53.970  53.693  53.846  1.00  0.00     0.041 C 
ATOM     13  O   UNL     1      53.987  52.813  54.748  1.00  0.00    -0.550 OA
ATOM     14  O   UNL     1      54.460  54.965  54.114  1.00  0.00    -0.550 OA
ENDBRANCH  11  12
ENDBRANCH  10  11
ENDBRANCH   9  10
ENDBRANCH   8   9
ENDBRANCH   7   8
ENDBRANCH   6   7
ENDBRANCH   5   6
ENDBRANCH   4   5
ENDBRANCH   3   4
ENDBRANCH   2   3
ENDBRANCH   1   2
BRANCH   1  15
ATOM     15  C   UNL     1      53.192  56.356  49.297  1.00  0.00     0.000 C 
BRANCH  15  16
ATOM     16  C   UNL     1      53.049  57.745  48.656  1.00  0.00     0.000 C 
BRANCH  16  17
ATOM     17  C   UNL     1      52.328  57.698  47.299  1.00  0.00     0.000 C 
BRANCH  17  18
ATOM     18  C   UNL     1      52.332  56.291  46.677  1.00  0.00    -0.000 C 
BRANCH  18  19
ATOM     19  C   UNL     1      51.867  56.289  45.214  1.00  0.00    -0.000 C 
BRANCH  19  20
ATOM     20  C   UNL     1      53.015  56.568  44.227  1.00  0.00    -0.000 C 
BRANCH  20  21
ATOM     21  C   UNL     1      54.368  56.023  44.735  1.00  0.00    -0.000 C 
BRANCH  21  22
ATOM     22  C   UNL     1      55.452  57.107  44.888  1.00  0.00    -0.000 C 
BRANCH  22  23
ATOM     23  C   UNL     1      54.923  58.551  44.890  1.00  0.00    -0.000 C 
BRANCH  23  24
ATOM     24  C   UNL     1      55.323  59.326  46.158  1.00  0.00    -0.000 C 
BRANCH  24  25
ATOM     25  C   UNL     1      56.637  58.813  46.766  1.00  0.00    -0.003 C 
ATOM     26  C   UNL     1      56.593  58.749  48.294  1.00  0.00     0.004 C 
ENDBRANCH  24  25
ENDBRANCH  23  24
ENDBRANCH  22  23
ENDBRANCH  21  22
ENDBRANCH  20  21
ENDBRANCH  19  20
ENDBRANCH  18  19
ENDBRANCH  17  18
ENDBRANCH  16  17
ENDBRANCH  15  16
ENDBRANCH   1  15
TORSDOF 22
ENDMDL
MODEL 4
REMARK VINA RESULT:    -3.006      3.202      7.094
REMARK INTER + INTRA:         -11.337
REMARK INTER:                  -7.484
REMARK INTRA:                  -3.853
REMARK UNBOUND:                -4.464
REMARK SMILES CCCCCCCCCCCCCCCCCCCCCCCC(=O)[O-]
REMARK SMILES IDX 13 1 14 2 15 3 16 4 17 5 18 6 19 7 20 8 21 9 22 10 23 11
REMARK SMILES IDX 24 12 25 13 26 14 12 15 11 16 10 17 9 18 8 19 7 20 6 21 5 22
REMARK SMILES IDX 4 23 3 24 2 25 1 26
REMARK H PARENT
REMARK Flexibility Score: inf
ROOT
ATOM      1  C   UNL     1      53.750  53.119  47.148  1.00  0.00     0.000 C 
ENDROOT
BRANCH   1   2
ATOM      2  C   UNL     1      52.936  52.285  48.152  1.00  0.00     0.000 C 
BRANCH   2   3
ATOM      3  C   UNL     1      52.184  53.156  49.172  1.00  0.00     0.000 C 
BRANCH   3   4
ATOM      4  C   UNL     1      52.010  52.459  50.534  1.00  0.00     0.000 C 
BRANCH   4   5
ATOM      5  C   UNL     1      52.362  53.323  51.762  1.00  0.00     0.000 C 
BRANCH   5   6
ATOM      6  C   UNL     1      53.759  53.075  52.360  1.00  0.00     0.000 C 
BRANCH   6   7
ATOM      7  C   UNL     1      54.887  53.218  51.323  1.00  0.00     0.000 C 
BRANCH   7   8
ATOM      8  C   UNL     1      55.691  51.920  51.147  1.00  0.00     0.000 C 
BRANCH   8   9
ATOM      9  C   UNL     1      55.002  50.713  51.807  1.00  0.00     0.000 C 
BRANCH   9  10
ATOM     10  C   UNL     1      54.485  49.691  50.782  1.00  0.00     0.006 C 
BRANCH  10  11
ATOM     11  C   UNL     1      53.104  49.130  51.145  1.00  0.00     0.053 C 
BRANCH  11  12
ATOM     12  C   UNL     1      53.133  47.634  51.161  1.00  0.00     0.041 C 
ATOM     13  O   UNL     1      52.758  47.003  52.186  1.00  0.00    -0.550 OA
ATOM     14  O   UNL     1      53.610  46.937  50.058  1.00  0.00    -0.550 OA
ENDBRANCH  11  12
ENDBRANCH  10  11
ENDBRANCH   9  10
ENDBRANCH   8   9
ENDBRANCH   7   8
ENDBRANCH   6   7
ENDBRANCH   5   6
ENDBRANCH   4   5
ENDBRANCH   3   4
ENDBRANCH   2   3
ENDBRANCH   1   2
BRANCH   1  15
ATOM     15  C   UNL     1      55.181  53.404  47.631  1.00  0.00     0.000 C 
BRANCH  15  16
ATOM     16  C   UNL     1      55.918  54.331  46.652  1.00  0.00     0.000 C 
BRANCH  16  17
ATOM     17  C   UNL     1      55.078  54.664  45.408  1.00  0.00     0.000 C 
BRANCH  17  18
ATOM     18  C   UNL     1      55.407  56.051  44.828  1.00  0.00    -0.000 C 
BRANCH  18  19
ATOM     19  C   UNL     1      54.206  57.007  44.862  1.00  0.00    -0.000 C 
BRANCH  19  20
ATOM     20  C   UNL     1      52.859  56.269  44.770  1.00  0.00    -0.000 C 
BRANCH  20  21
ATOM     21  C   UNL     1      52.003  56.452  46.042  1.00  0.00    -0.000 C 
BRANCH  21  22
ATOM     22  C   UNL     1      52.686  57.302  47.130  1.00  0.00    -0.000 C 
BRANCH  22  23
ATOM     23  C   UNL     1      53.258  56.498  48.311  1.00  0.00    -0.000 C 
BRANCH  23  24
ATOM     24  C   UNL     1      53.388  57.339  49.592  1.00  0.00    -0.000 C 
BRANCH  24  25
ATOM     25  C   UNL     1      52.672  56.696  50.790  1.00  0.00    -0.003 C 
ATOM     26  C   UNL     1      53.324  57.052  52.126  1.00  0.00     0.004 C 
ENDBRANCH  24  25
ENDBRANCH  23  24
ENDBRANCH  22  23
ENDBRANCH  21  22
ENDBRANCH  20  21
ENDBRANCH  19  20
ENDBRANCH  18  19
ENDBRANCH  17  18
ENDBRANCH  16  17
ENDBRANCH  15  16
ENDBRANCH   1  15
TORSDOF 22
ENDMDL
MODEL 5
REMARK VINA RESULT:    -2.969      2.571      5.156
REMARK INTER + INTRA:         -11.252
REMARK INTER:                  -7.250
REMARK INTRA:                  -4.003
REMARK UNBOUND:                -4.464
REMARK SMILES CCCCCCCCCCCCCCCCCCCCCCCC(=O)[O-]
REMARK SMILES IDX 13 1 14 2 15 3 16 4 17 5 18 6 19 7 20 8 21 9 22 10 23 11
REMARK SMILES IDX 24 12 25 13 26 14 12 15 11 16 10 17 9 18 8 19 7 20 6 21 5 22
REMARK SMILES IDX 4 23 3 24 2 25 1 26
REMARK H PARENT
REMARK Flexibility Score: inf
ROOT
ATOM      1  C   UNL     1      52.119  52.643  50.237  1.00  0.00     0.000 C 
ENDROOT
BRANCH   1   2
ATOM      2  C   UNL     1      51.971  53.567  51.458  1.00  0.00     0.000 C 
BRANCH   2   3
ATOM      3  C   UNL     1      53.156  53.456  52.431  1.00  0.00     0.000 C 
BRANCH   3   4
ATOM      4  C   UNL     1      53.962  54.763  52.539  1.00  0.00     0.000 C 
BRANCH   4   5
ATOM      5  C   UNL     1      53.647  55.819  51.460  1.00  0.00     0.000 C 
BRANCH   5   6
ATOM      6  C   UNL     1      54.876  56.455  50.785  1.00  0.00     0.000 C 
BRANCH   6   7
ATOM      7  C   UNL     1      54.671  56.699  49.279  1.00  0.00     0.000 C 
BRANCH   7   8
ATOM      8  C   UNL     1      53.928  58.015  48.994  1.00  0.00     0.000 C 
BRANCH   8   9
ATOM      9  C   UNL     1      53.161  57.975  47.661  1.00  0.00     0.000 C 
BRANCH   9  10
ATOM     10  C   UNL     1      53.265  56.613  46.957  1.00  0.00     0.006 C 
BRANCH  10  11
ATOM     11  C   UNL     1      51.983  56.233  46.204  1.00  0.00     0.053 C 
BRANCH  11  12
ATOM     12  C   UNL     1      52.192  56.338  44.726  1.00  0.00     0.041 C 
ATOM     13  O   UNL     1      53.359  56.375  44.252  1.00  0.00    -0.550 OA
ATOM     14  O   UNL     1      51.098  56.433  43.875  1.00  0.00    -0.550 OA
ENDBRANCH  11  12
ENDBRANCH  10  11
ENDBRANCH   9  10
ENDBRANCH   8   9
ENDBRANCH   7   8
ENDBRANCH   6   7
ENDBRANCH   5   6
ENDBRANCH   4   5
ENDBRANCH   3   4
ENDBRANCH   2   3
ENDBRANCH   1   2
BRANCH   1  15
ATOM     15  C   UNL     1      52.361  53.415  48.931  1.00  0.00     0.000 C 
BRANCH  15  16
ATOM     16  C   UNL     1      52.842  52.472  47.816  1.00  0.00     0.000 C 
BRANCH  16  17
ATOM     17  C   UNL     1      54.103  52.991  47.107  1.00  0.00     0.000 C 
BRANCH  17  18
ATOM     18  C   UNL     1      55.397  52.409  47.704  1.00  0.00    -0.000 C 
BRANCH  18  19
ATOM     19  C   UNL     1      56.030  53.331  48.756  1.00  0.00    -0.000 C 
BRANCH  19  20
ATOM     20  C   UNL     1      56.052  52.700  50.160  1.00  0.00    -0.000 C 
BRANCH  20  21
ATOM     21  C   UNL     1      55.431  51.287  50.176  1.00  0.00    -0.000 C 
BRANCH  21  22
ATOM     22  C   UNL     1      55.518  50.589  51.548  1.00  0.00    -0.000 C 
BRANCH  22  23
ATOM     23  C   UNL     1      54.202  49.957  52.033  1.00  0.00    -0.000 C 
BRANCH  23  24
ATOM     24  C   UNL     1      53.415  49.282  50.896  1.00  0.00    -0.000 C 
BRANCH  24  25
ATOM     25  C   UNL     1      52.733  47.981  51.348  1.00  0.00    -0.003 C 
ATOM     26  C   UNL     1      53.256  46.753  50.602  1.00  0.00     0.004 C 
ENDBRANCH  24  25
ENDBRANCH  23  24
ENDBRANCH  22  23
ENDBRANCH  21  22
ENDBRANCH  20  21
ENDBRANCH  19  20
ENDBRANCH  18  19
ENDBRANCH  17  18
ENDBRANCH  16  17
ENDBRANCH  15  16
ENDBRANCH   1  15
TORSDOF 22
ENDMDL
MODEL 6
REMARK VINA RESULT:    -2.968      2.371      5.135
REMARK INTER + INTRA:         -11.249
REMARK INTER:                  -6.552
REMARK INTRA:                  -4.697
REMARK UNBOUND:                -4.464
REMARK SMILES CCCCCCCCCCCCCCCCCCCCCCCC(=O)[O-]
REMARK SMILES IDX 13 1 14 2 15 3 16 4 17 5 18 6 19 7 20 8 21 9 22 10 23 11
REMARK SMILES IDX 24 12 25 13 26 14 12 15 11 16 10 17 9 18 8 19 7 20 6 21 5 22
REMARK SMILES IDX 4 23 3 24 2 25 1 26
REMARK H PARENT
REMARK Flexibility Score: inf
ROOT
ATOM      1  C   UNL     1      52.370  52.962  48.626  1.00  0.00     0.000 C 
ENDROOT
BRANCH   1   2
ATOM      2  C   UNL     1      53.217  53.274  47.381  1.00  0.00     0.000 C 
BRANCH   2   3
ATOM      3  C   UNL     1      54.415  52.323  47.227  1.00  0.00     0.000 C 
BRANCH   3   4
ATOM      4  C   UNL     1      55.458  52.838  46.219  1.00  0.00     0.000 C 
BRANCH   4   5
ATOM      5  C   UNL     1      55.308  54.320  45.820  1.00  0.00     0.000 C 
BRANCH   5   6
ATOM      6  C   UNL     1      56.627  55.055  45.518  1.00  0.00     0.000 C 
BRANCH   6   7
ATOM      7  C   UNL     1      57.083  55.963  46.674  1.00  0.00     0.000 C 
BRANCH   7   8
ATOM      8  C   UNL     1      57.398  55.171  47.953  1.00  0.00     0.000 C 
BRANCH   8   9
ATOM      9  C   UNL     1      57.146  55.997  49.227  1.00  0.00     0.000 C 
BRANCH   9  10
ATOM     10  C   UNL     1      56.734  55.127  50.426  1.00  0.00     0.006 C 
BRANCH  10  11
ATOM     11  C   UNL     1      55.902  53.905  50.016  1.00  0.00     0.053 C 
BRANCH  11  12
ATOM     12  C   UNL     1      56.278  52.715  50.842  1.00  0.00     0.041 C 
ATOM     13  O   UNL     1      56.489  51.601  50.291  1.00  0.00    -0.550 OA
ATOM     14  O   UNL     1      56.359  52.827  52.225  1.00  0.00    -0.550 OA
ENDBRANCH  11  12
ENDBRANCH  10  11
ENDBRANCH   9  10
ENDBRANCH   8   9
ENDBRANCH   7   8
ENDBRANCH   6   7
ENDBRANCH   5   6
ENDBRANCH   4   5
ENDBRANCH   3   4
ENDBRANCH   2   3
ENDBRANCH   1   2
BRANCH   1  15
ATOM     15  C   UNL     1      52.919  51.782  49.442  1.00  0.00     0.000 C 
BRANCH  15  16
ATOM     16  C   UNL     1      52.329  51.771  50.861  1.00  0.00     0.000 C 
BRANCH  16  17
ATOM     17  C   UNL     1      51.978  53.180  51.366  1.00  0.00     0.000 C 
BRANCH  17  18
ATOM     18  C   UNL     1      52.985  53.702  52.406  1.00  0.00    -0.000 C 
BRANCH  18  19
ATOM     19  C   UNL     1      53.369  55.170  52.173  1.00  0.00    -0.000 C 
BRANCH  19  20
ATOM     20  C   UNL     1      52.319  55.934  51.348  1.00  0.00    -0.000 C 
BRANCH  20  21
ATOM     21  C   UNL     1      52.960  56.966  50.395  1.00  0.00    -0.000 C 
BRANCH  21  22
ATOM     22  C   UNL     1      53.298  56.396  49.003  1.00  0.00    -0.000 C 
BRANCH  22  23
ATOM     23  C   UNL     1      54.030  57.374  48.068  1.00  0.00    -0.000 C 
BRANCH  23  24
ATOM     24  C   UNL     1      53.179  57.776  46.850  1.00  0.00    -0.000 C 
BRANCH  24  25
ATOM     25  C   UNL     1      52.269  56.635  46.370  1.00  0.00    -0.003 C 
ATOM     26  C   UNL     1      52.435  56.338  44.879  1.00  0.00     0.004 C 
ENDBRANCH  24  25
ENDBRANCH  23  24
ENDBRANCH  22  23
ENDBRANCH  21  22
ENDBRANCH  20  21
ENDBRANCH  19  20
ENDBRANCH  18  19
ENDBRANCH  17  18
ENDBRANCH  16  17
ENDBRANCH  15  16
ENDBRANCH   1  15
TORSDOF 22
ENDMDL
MODEL 7
REMARK VINA RESULT:    -2.956      2.342      4.553
REMARK INTER + INTRA:         -11.222
REMARK INTER:                  -7.148
REMARK INTRA:                  -4.075
REMARK UNBOUND:                -4.464
REMARK SMILES CCCCCCCCCCCCCCCCCCCCCCCC(=O)[O-]
REMARK SMILES IDX 13 1 14 2 15 3 16 4 17 5 18 6 19 7 20 8 21 9 22 10 23 11
REMARK SMILES IDX 24 12 25 13 26 14 12 15 11 16 10 17 9 18 8 19 7 20 6 21 5 22
REMARK SMILES IDX 4 23 3 24 2 25 1 26
REMARK H PARENT
REMARK Flexibility Score: inf
ROOT
ATOM      1  C   UNL     1      52.408  52.772  48.695  1.00  0.00     0.000 C 
ENDROOT
BRANCH   1   2
ATOM      2  C   UNL     1      53.352  52.390  47.543  1.00  0.00     0.000 C 
BRANCH   2   3
ATOM      3  C   UNL     1      54.600  51.633  48.026  1.00  0.00     0.000 C 
BRANCH   3   4
ATOM      4  C   UNL     1      55.710  51.574  46.961  1.00  0.00     0.000 C 
BRANCH   4   5
ATOM      5  C   UNL     1      56.414  52.916  46.672  1.00  0.00     0.000 C 
BRANCH   5   6
ATOM      6  C   UNL     1      57.194  52.976  45.347  1.00  0.00     0.000 C 
BRANCH   6   7
ATOM      7  C   UNL     1      56.842  54.213  44.502  1.00  0.00     0.000 C 
BRANCH   7   8
ATOM      8  C   UNL     1      56.171  55.319  45.333  1.00  0.00     0.000 C 
BRANCH   8   9
ATOM      9  C   UNL     1      54.751  55.642  44.836  1.00  0.00     0.000 C 
BRANCH   9  10
ATOM     10  C   UNL     1      53.884  56.317  45.911  1.00  0.00     0.006 C 
BRANCH  10  11
ATOM     11  C   UNL     1      52.502  55.668  46.055  1.00  0.00     0.053 C 
BRANCH  11  12
ATOM     12  C   UNL     1      51.502  56.366  45.187  1.00  0.00     0.041 C 
ATOM     13  O   UNL     1      51.630  56.351  43.933  1.00  0.00    -0.550 OA
ATOM     14  O   UNL     1      50.450  57.065  45.764  1.00  0.00    -0.550 OA
ENDBRANCH  11  12
ENDBRANCH  10  11
ENDBRANCH   9  10
ENDBRANCH   8   9
ENDBRANCH   7   8
ENDBRANCH   6   7
ENDBRANCH   5   6
ENDBRANCH   4   5
ENDBRANCH   3   4
ENDBRANCH   2   3
ENDBRANCH   1   2
BRANCH   1  15
ATOM     15  C   UNL     1      52.710  52.007  49.993  1.00  0.00     0.000 C 
BRANCH  15  16
ATOM     16  C   UNL     1      51.945  52.613  51.180  1.00  0.00     0.000 C 
BRANCH  16  17
ATOM     17  C   UNL     1      52.826  53.529  52.044  1.00  0.00     0.000 C 
BRANCH  17  18
ATOM     18  C   UNL     1      54.328  53.244  51.865  1.00  0.00    -0.000 C 
BRANCH  18  19
ATOM     19  C   UNL     1      55.150  54.521  51.639  1.00  0.00    -0.000 C 
BRANCH  19  20
ATOM     20  C   UNL     1      55.971  54.475  50.337  1.00  0.00    -0.000 C 
BRANCH  20  21
ATOM     21  C   UNL     1      55.247  55.171  49.164  1.00  0.00    -0.000 C 
BRANCH  21  22
ATOM     22  C   UNL     1      54.028  56.007  49.599  1.00  0.00    -0.000 C 
BRANCH  22  23
ATOM     23  C   UNL     1      54.227  57.530  49.508  1.00  0.00    -0.000 C 
BRANCH  23  24
ATOM     24  C   UNL     1      53.279  58.307  50.438  1.00  0.00    -0.000 C 
BRANCH  24  25
ATOM     25  C   UNL     1      53.059  57.591  51.780  1.00  0.00    -0.003 C 
ATOM     26  C   UNL     1      51.619  57.110  51.961  1.00  0.00     0.004 C 
ENDBRANCH  24  25
ENDBRANCH  23  24
ENDBRANCH  22  23
ENDBRANCH  21  22
ENDBRANCH  20  21
ENDBRANCH  19  20
ENDBRANCH  18  19
ENDBRANCH  17  18
ENDBRANCH  16  17
ENDBRANCH  15  16
ENDBRANCH   1  15
TORSDOF 22
ENDMDL
MODEL 8
REMARK VINA RESULT:    -2.949      1.795      3.763
REMARK INTER + INTRA:         -11.206
REMARK INTER:                  -6.558
REMARK INTRA:                  -4.649
REMARK UNBOUND:                -4.464
REMARK SMILES CCCCCCCCCCCCCCCCCCCCCCCC(=O)[O-]
REMARK SMILES IDX 13 1 14 2 15 3 16 4 17 5 18 6 19 7 20 8 21 9 22 10 23 11
REMARK SMILES IDX 24 12 25 13 26 14 12 15 11 16 10 17 9 18 8 19 7 20 6 21 5 22
REMARK SMILES IDX 4 23 3 24 2 25 1 26
REMARK H PARENT
REMARK Flexibility Score: inf
ROOT
ATOM      1  C   UNL     1      53.029  55.803  47.505  1.00  0.00     0.000 C 
ENDROOT
BRANCH   1   2
ATOM      2  C   UNL     1      52.162  56.511  46.450  1.00  0.00     0.000 C 
BRANCH   2   3
ATOM      3  C   UNL     1      52.474  56.045  45.018  1.00  0.00     0.000 C 
BRANCH   3   4
ATOM      4  C   UNL     1      53.544  56.913  44.330  1.00  0.00     0.000 C 
BRANCH   4   5
ATOM      5  C   UNL     1      54.956  56.295  44.278  1.00  0.00     0.000 C 
BRANCH   5   6
ATOM      6  C   UNL     1      56.052  57.101  44.999  1.00  0.00     0.000 C 
BRANCH   6   7
ATOM      7  C   UNL     1      56.005  58.604  44.667  1.00  0.00     0.000 C 
BRANCH   7   8
ATOM      8  C   UNL     1      55.670  59.465  45.896  1.00  0.00     0.000 C 
BRANCH   8   9
ATOM      9  C   UNL     1      55.375  58.614  47.143  1.00  0.00     0.000 C 
BRANCH   9  10
ATOM     10  C   UNL     1      54.618  59.395  48.229  1.00  0.00     0.006 C 
BRANCH  10  11
ATOM     11  C   UNL     1      53.220  59.840  47.777  1.00  0.00     0.053 C 
BRANCH  11  12
ATOM     12  C   UNL     1      52.192  59.447  48.791  1.00  0.00     0.041 C 
ATOM     13  O   UNL     1      51.055  59.990  48.784  1.00  0.00    -0.550 OA
ATOM     14  O   UNL     1      52.502  58.509  49.767  1.00  0.00    -0.550 OA
ENDBRANCH  11  12
ENDBRANCH  10  11
ENDBRANCH   9  10
ENDBRANCH   8   9
ENDBRANCH   7   8
ENDBRANCH   6   7
ENDBRANCH   5   6
ENDBRANCH   4   5
ENDBRANCH   3   4
ENDBRANCH   2   3
ENDBRANCH   1   2
BRANCH   1  15
ATOM     15  C   UNL     1      53.127  54.287  47.277  1.00  0.00     0.000 C 
BRANCH  15  16
ATOM     16  C   UNL     1      54.593  53.824  47.281  1.00  0.00     0.000 C 
BRANCH  16  17
ATOM     17  C   UNL     1      55.550  54.896  47.826  1.00  0.00     0.000 C 
BRANCH  17  18
ATOM     18  C   UNL     1      56.520  54.337  48.882  1.00  0.00    -0.000 C 
BRANCH  18  19
ATOM     19  C   UNL     1      55.833  54.051  50.225  1.00  0.00    -0.000 C 
BRANCH  19  20
ATOM     20  C   UNL     1      54.878  55.179  50.654  1.00  0.00    -0.000 C 
BRANCH  20  21
ATOM     21  C   UNL     1      53.803  54.688  51.648  1.00  0.00    -0.000 C 
BRANCH  21  22
ATOM     22  C   UNL     1      52.428  54.439  50.998  1.00  0.00    -0.000 C 
BRANCH  22  23
ATOM     23  C   UNL     1      51.826  53.050  51.277  1.00  0.00    -0.000 C 
BRANCH  23  24
ATOM     24  C   UNL     1      52.862  51.920  51.144  1.00  0.00    -0.000 C 
BRANCH  24  25
ATOM     25  C   UNL     1      53.055  51.472  49.687  1.00  0.00    -0.003 C 
ATOM     26  C   UNL     1      54.380  50.741  49.467  1.00  0.00     0.004 C 
ENDBRANCH  24  25
ENDBRANCH  23  24
ENDBRANCH  22  23
ENDBRANCH  21  22
ENDBRANCH  20  21
ENDBRANCH  19  20
ENDBRANCH  18  19
ENDBRANCH  17  18
ENDBRANCH  16  17
ENDBRANCH  15  16
ENDBRANCH   1  15
TORSDOF 22
ENDMDL
MODEL 9
REMARK VINA RESULT:    -2.930      1.970      2.676
REMARK INTER + INTRA:         -11.163
REMARK INTER:                  -6.504
REMARK INTRA:                  -4.659
REMARK UNBOUND:                -4.464
REMARK SMILES CCCCCCCCCCCCCCCCCCCCCCCC(=O)[O-]
REMARK SMILES IDX 13 1 14 2 15 3 16 4 17 5 18 6 19 7 20 8 21 9 22 10 23 11
REMARK SMILES IDX 24 12 25 13 26 14 12 15 11 16 10 17 9 18 8 19 7 20 6 21 5 22
REMARK SMILES IDX 4 23 3 24 2 25 1 26
REMARK H PARENT
REMARK Flexibility Score: inf
ROOT
ATOM      1  C   UNL     1      54.813  53.355  48.027  1.00  0.00     0.000 C 
ENDROOT
BRANCH   1   2
ATOM      2  C   UNL     1      55.538  54.417  47.184  1.00  0.00     0.000 C 
BRANCH   2   3
ATOM      3  C   UNL     1      55.081  54.421  45.716  1.00  0.00     0.000 C 
BRANCH   3   4
ATOM      4  C   UNL     1      55.383  55.752  45.003  1.00  0.00     0.000 C 
BRANCH   4   5
ATOM      5  C   UNL     1      54.161  56.661  44.766  1.00  0.00     0.000 C 
BRANCH   5   6
ATOM      6  C   UNL     1      52.797  55.946  44.782  1.00  0.00     0.000 C 
BRANCH   6   7
ATOM      7  C   UNL     1      52.009  56.192  46.081  1.00  0.00     0.000 C 
BRANCH   7   8
ATOM      8  C   UNL     1      52.548  57.393  46.876  1.00  0.00     0.000 C 
BRANCH   8   9
ATOM      9  C   UNL     1      53.229  56.966  48.188  1.00  0.00     0.000 C 
BRANCH   9  10
ATOM     10  C   UNL     1      54.193  58.032  48.731  1.00  0.00     0.006 C 
BRANCH  10  11
ATOM     11  C   UNL     1      55.598  57.480  49.004  1.00  0.00     0.053 C 
BRANCH  11  12
ATOM     12  C   UNL     1      56.613  58.189  48.164  1.00  0.00     0.041 C 
ATOM     13  O   UNL     1      57.281  57.555  47.304  1.00  0.00    -0.550 OA
ATOM     14  O   UNL     1      56.848  59.545  48.356  1.00  0.00    -0.550 OA
ENDBRANCH  11  12
ENDBRANCH  10  11
ENDBRANCH   9  10
ENDBRANCH   8   9
ENDBRANCH   7   8
ENDBRANCH   6   7
ENDBRANCH   5   6
ENDBRANCH   4   5
ENDBRANCH   3   4
ENDBRANCH   2   3
ENDBRANCH   1   2
BRANCH   1  15
ATOM     15  C   UNL     1      53.693  52.642  47.254  1.00  0.00     0.000 C 
BRANCH  15  16
ATOM     16  C   UNL     1      52.397  52.597  48.078  1.00  0.00     0.000 C 
BRANCH  16  17
ATOM     17  C   UNL     1      52.480  53.449  49.356  1.00  0.00     0.000 C 
BRANCH  17  18
ATOM     18  C   UNL     1      51.982  52.694  50.601  1.00  0.00    -0.000 C 
BRANCH  18  19
ATOM     19  C   UNL     1      52.916  51.546  51.009  1.00  0.00    -0.000 C 
BRANCH  19  20
ATOM     20  C   UNL     1      53.868  51.935  52.155  1.00  0.00    -0.000 C 
BRANCH  20  21
ATOM     21  C   UNL     1      55.224  52.460  51.636  1.00  0.00    -0.000 C 
BRANCH  21  22
ATOM     22  C   UNL     1      55.378  53.990  51.749  1.00  0.00    -0.000 C 
BRANCH  22  23
ATOM     23  C   UNL     1      54.237  54.697  52.501  1.00  0.00    -0.000 C 
BRANCH  23  24
ATOM     24  C   UNL     1      53.848  56.039  51.858  1.00  0.00    -0.000 C 
BRANCH  24  25
ATOM     25  C   UNL     1      52.326  56.245  51.809  1.00  0.00    -0.003 C 
ATOM     26  C   UNL     1      51.935  57.717  51.676  1.00  0.00     0.004 C 
ENDBRANCH  24  25
ENDBRANCH  23  24
ENDBRANCH  22  23
ENDBRANCH  21  22
ENDBRANCH  20  21
ENDBRANCH  19  20
ENDBRANCH  18  19
ENDBRANCH  17  18
ENDBRANCH  16  17
ENDBRANCH  15  16
ENDBRANCH   1  15
TORSDOF 22
ENDMDL
