MODEL 1
REMARK VINA RESULT:    -1.740      0.000      0.000
REMARK INTER + INTRA:          -1.740
REMARK INTER:                  -1.740
REMARK INTRA:                   0.000
REMARK UNBOUND:                 0.000
REMARK SMILES C=C1CCC[C@]2(C)CC(=O)C(=C(C)C)C[C@H]12
REMARK SMILES IDX 13 1 12 2 11 3 15 4 16 5 2 6 1 7 3 8 4 9 5 10 6 11 8 12 9 13
REMARK SMILES IDX 10 14 7 15 14 16
REMARK H PARENT
REMARK Flexibility Score: inf
ROOT
ATOM      1  C   UNL     1      12.116  66.719  23.204  1.00  0.00     0.039 C 
ATOM      2  C   UNL     1      11.540  66.266  24.526  1.00  0.00    -0.070 C 
ATOM      3  C   UNL     1      10.603  65.277  24.593  1.00  0.00    -0.006 C 
ATOM      4  C   UNL     1       9.930  64.853  25.884  1.00  0.00     0.047 C 
ATOM      5  C   UNL     1       8.374  64.987  25.822  1.00  0.00     0.025 C 
ATOM      6  C   UNL     1       7.672  64.204  26.954  1.00  0.00    -0.073 C 
ATOM      7  C   UNL     1       8.285  63.918  28.120  1.00  0.00     0.008 C 
ATOM      8  C   UNL     1       6.196  63.875  26.877  1.00  0.00     0.031 C 
ATOM      9  C   UNL     1       5.555  64.338  25.576  1.00  0.00     0.005 C 
ATOM     10  C   UNL     1       6.431  63.923  24.400  1.00  0.00     0.008 C 
ATOM     11  C   UNL     1       7.777  64.706  24.365  1.00  0.00    -0.018 C 
ATOM     12  C   UNL     1       8.767  63.876  23.496  1.00  0.00     0.088 C 
ATOM     13  C   UNL     1      10.109  64.535  23.409  1.00  0.00     0.159 C 
ATOM     14  O   UNL     1      10.813  64.376  22.376  1.00  0.00    -0.295 OA
ATOM     15  C   UNL     1       7.520  66.063  23.649  1.00  0.00     0.012 C 
ATOM     16  C   UNL     1      12.012  66.986  25.767  1.00  0.00     0.039 C 
ENDROOT
TORSDOF 0
ENDMDL
MODEL 2
REMARK VINA RESULT:    -0.009      1.850      5.248
REMARK INTER + INTRA:          -0.009
REMARK INTER:                  -0.009
REMARK INTRA:                   0.000
REMARK UNBOUND:                 0.000
REMARK SMILES C=C1CCC[C@]2(C)CC(=O)C(=C(C)C)C[C@H]12
REMARK SMILES IDX 13 1 12 2 11 3 15 4 16 5 2 6 1 7 3 8 4 9 5 10 6 11 8 12 9 13
REMARK SMILES IDX 10 14 7 15 14 16
REMARK H PARENT
REMARK Flexibility Score: inf
ROOT
ATOM      1  C   UNL     1       6.519  64.588  27.691  1.00  0.00     0.039 C 
ATOM      2  C   UNL     1       6.913  64.325  26.256  1.00  0.00    -0.070 C 
ATOM      3  C   UNL     1       8.220  64.187  25.890  1.00  0.00    -0.006 C 
ATOM      4  C   UNL     1       8.669  64.014  24.452  1.00  0.00     0.047 C 
ATOM      5  C   UNL     1       9.670  65.125  23.998  1.00  0.00     0.025 C 
ATOM      6  C   UNL     1      10.420  64.744  22.703  1.00  0.00    -0.073 C 
ATOM      7  C   UNL     1       9.915  63.875  21.804  1.00  0.00     0.008 C 
ATOM      8  C   UNL     1      11.685  65.468  22.292  1.00  0.00     0.031 C 
ATOM      9  C   UNL     1      12.122  66.515  23.306  1.00  0.00     0.005 C 
ATOM     10  C   UNL     1      12.077  65.918  24.707  1.00  0.00     0.008 C 
ATOM     11  C   UNL     1      10.620  65.635  25.178  1.00  0.00    -0.018 C 
ATOM     12  C   UNL     1      10.706  64.591  26.330  1.00  0.00     0.088 C 
ATOM     13  C   UNL     1       9.348  64.231  26.850  1.00  0.00     0.159 C 
ATOM     14  O   UNL     1       9.214  63.899  28.058  1.00  0.00    -0.295 OA
ATOM     15  C   UNL     1      10.043  66.957  25.762  1.00  0.00     0.012 C 
ATOM     16  C   UNL     1       5.801  64.265  25.235  1.00  0.00     0.039 C 
ENDROOT
TORSDOF 0
ENDMDL
