MODEL 1
REMARK VINA RESULT:    -4.369      0.000      0.000
REMARK INTER + INTRA:         -12.890
REMARK INTER:                  -9.478
REMARK INTRA:                  -3.412
REMARK UNBOUND:                -3.412
REMARK SMILES CCCCCCCCCCCCCCCCCCCCCC(=O)[O-]
REMARK SMILES IDX 12 1 11 2 10 3 9 4 8 5 7 6 6 7 5 8 4 9 3 10 2 11 1 12 13 13
REMARK SMILES IDX 14 14 15 15 16 16 17 17 18 18 19 19 20 20 21 21 22 22 23 23
REMARK SMILES IDX 24 24
REMARK H PARENT
REMARK Flexibility Score: inf
ROOT
ATOM      1  C   UNL     1      -8.446  -4.278   6.550  1.00  0.00     0.000 C 
ENDROOT
BRANCH   1   2
ATOM      2  C   UNL     1      -9.316  -5.493   6.922  1.00  0.00     0.000 C 
BRANCH   2   3
ATOM      3  C   UNL     1      -9.163  -6.657   5.919  1.00  0.00     0.000 C 
BRANCH   3   4
ATOM      4  C   UNL     1     -10.368  -6.832   4.970  1.00  0.00    -0.000 C 
BRANCH   4   5
ATOM      5  C   UNL     1     -11.582  -5.942   5.286  1.00  0.00    -0.000 C 
BRANCH   5   6
ATOM      6  C   UNL     1     -12.795  -6.245   4.395  1.00  0.00    -0.000 C 
BRANCH   6   7
ATOM      7  C   UNL     1     -13.124  -5.045   3.495  1.00  0.00    -0.000 C 
BRANCH   7   8
ATOM      8  C   UNL     1     -13.819  -3.904   4.258  1.00  0.00    -0.000 C 
BRANCH   8   9
ATOM      9  C   UNL     1     -13.044  -2.579   4.177  1.00  0.00    -0.000 C 
BRANCH   9  10
ATOM     10  C   UNL     1     -12.694  -2.061   5.580  1.00  0.00    -0.000 C 
BRANCH  10  11
ATOM     11  C   UNL     1     -13.412  -2.840   6.694  1.00  0.00    -0.003 C 
ATOM     12  C   UNL     1     -13.811  -1.954   7.874  1.00  0.00     0.004 C 
ENDBRANCH  10  11
ENDBRANCH   9  10
ENDBRANCH   8   9
ENDBRANCH   7   8
ENDBRANCH   6   7
ENDBRANCH   5   6
ENDBRANCH   4   5
ENDBRANCH   3   4
ENDBRANCH   2   3
ENDBRANCH   1   2
BRANCH   1  13
ATOM     13  C   UNL     1      -9.137  -3.321   5.563  1.00  0.00     0.000 C 
BRANCH  13  14
ATOM     14  C   UNL     1      -8.623  -3.389   4.112  1.00  0.00     0.000 C 
BRANCH  14  15
ATOM     15  C   UNL     1      -9.757  -3.475   3.075  1.00  0.00     0.000 C 
BRANCH  15  16
ATOM     16  C   UNL     1     -10.018  -2.137   2.357  1.00  0.00     0.000 C 
BRANCH  16  17
ATOM     17  C   UNL     1      -8.793  -1.214   2.227  1.00  0.00     0.000 C 
BRANCH  17  18
ATOM     18  C   UNL     1      -9.022   0.175   2.844  1.00  0.00     0.000 C 
BRANCH  18  19
ATOM     19  C   UNL     1     -10.168   0.192   3.870  1.00  0.00     0.000 C 
BRANCH  19  20
ATOM     20  C   UNL     1     -10.995   1.494   3.900  1.00  0.00     0.006 C 
BRANCH  20  21
ATOM     21  C   UNL     1     -12.432   1.330   4.422  1.00  0.00     0.053 C 
BRANCH  21  22
ATOM     22  C   UNL     1     -13.437   1.317   3.309  1.00  0.00     0.041 C 
ATOM     23  O   UNL     1     -13.085   1.001   2.142  1.00  0.00    -0.550 OA
ATOM     24  O   UNL     1     -14.765   1.634   3.565  1.00  0.00    -0.550 OA
ENDBRANCH  21  22
ENDBRANCH  20  21
ENDBRANCH  19  20
ENDBRANCH  18  19
ENDBRANCH  17  18
ENDBRANCH  16  17
ENDBRANCH  15  16
ENDBRANCH  14  15
ENDBRANCH  13  14
ENDBRANCH   1  13
TORSDOF 20
ENDMDL
MODEL 2
REMARK VINA RESULT:    -4.350      1.427      2.617
REMARK INTER + INTRA:         -12.849
REMARK INTER:                  -9.222
REMARK INTRA:                  -3.627
REMARK UNBOUND:                -3.412
REMARK SMILES CCCCCCCCCCCCCCCCCCCCCC(=O)[O-]
REMARK SMILES IDX 12 1 11 2 10 3 9 4 8 5 7 6 6 7 5 8 4 9 3 10 2 11 1 12 13 13
REMARK SMILES IDX 14 14 15 15 16 16 17 17 18 18 19 19 20 20 21 21 22 22 23 23
REMARK SMILES IDX 24 24
REMARK H PARENT
REMARK Flexibility Score: inf
ROOT
ATOM      1  C   UNL     1      -8.424  -4.670   6.371  1.00  0.00     0.000 C 
ENDROOT
BRANCH   1   2
ATOM      2  C   UNL     1      -9.456  -5.773   6.670  1.00  0.00     0.000 C 
BRANCH   2   3
ATOM      3  C   UNL     1      -9.890  -6.533   5.398  1.00  0.00     0.000 C 
BRANCH   3   4
ATOM      4  C   UNL     1     -11.343  -6.253   4.961  1.00  0.00    -0.000 C 
BRANCH   4   5
ATOM      5  C   UNL     1     -12.204  -5.509   5.997  1.00  0.00    -0.000 C 
BRANCH   5   6
ATOM      6  C   UNL     1     -12.645  -4.118   5.520  1.00  0.00    -0.000 C 
BRANCH   6   7
ATOM      7  C   UNL     1     -13.308  -4.199   4.138  1.00  0.00    -0.000 C 
BRANCH   7   8
ATOM      8  C   UNL     1     -14.835  -4.031   4.202  1.00  0.00    -0.000 C 
BRANCH   8   9
ATOM      9  C   UNL     1     -15.584  -5.107   3.399  1.00  0.00    -0.000 C 
BRANCH   9  10
ATOM     10  C   UNL     1     -14.604  -6.130   2.804  1.00  0.00    -0.000 C 
BRANCH  10  11
ATOM     11  C   UNL     1     -14.961  -7.577   3.179  1.00  0.00    -0.003 C 
ATOM     12  C   UNL     1     -14.707  -7.888   4.654  1.00  0.00     0.004 C 
ENDBRANCH  10  11
ENDBRANCH   9  10
ENDBRANCH   8   9
ENDBRANCH   7   8
ENDBRANCH   6   7
ENDBRANCH   5   6
ENDBRANCH   4   5
ENDBRANCH   3   4
ENDBRANCH   2   3
ENDBRANCH   1   2
BRANCH   1  13
ATOM     13  C   UNL     1      -9.041  -3.432   5.697  1.00  0.00     0.000 C 
BRANCH  13  14
ATOM     14  C   UNL     1      -8.616  -3.201   4.234  1.00  0.00     0.000 C 
BRANCH  14  15
ATOM     15  C   UNL     1      -9.760  -3.432   3.231  1.00  0.00     0.000 C 
BRANCH  15  16
ATOM     16  C   UNL     1      -9.894  -2.296   2.200  1.00  0.00     0.000 C 
BRANCH  16  17
ATOM     17  C   UNL     1      -8.819  -1.198   2.292  1.00  0.00     0.000 C 
BRANCH  17  18
ATOM     18  C   UNL     1      -9.403   0.221   2.190  1.00  0.00     0.000 C 
BRANCH  18  19
ATOM     19  C   UNL     1     -10.755   0.364   2.910  1.00  0.00     0.000 C 
BRANCH  19  20
ATOM     20  C   UNL     1     -10.684   0.290   4.449  1.00  0.00     0.006 C 
BRANCH  20  21
ATOM     21  C   UNL     1     -11.824  -0.503   5.108  1.00  0.00     0.053 C 
BRANCH  21  22
ATOM     22  C   UNL     1     -13.162   0.127   4.865  1.00  0.00     0.041 C 
ATOM     23  O   UNL     1     -13.422   1.264   5.338  1.00  0.00    -0.550 OA
ATOM     24  O   UNL     1     -14.114  -0.533   4.099  1.00  0.00    -0.550 OA
ENDBRANCH  21  22
ENDBRANCH  20  21
ENDBRANCH  19  20
ENDBRANCH  18  19
ENDBRANCH  17  18
ENDBRANCH  16  17
ENDBRANCH  15  16
ENDBRANCH  14  15
ENDBRANCH  13  14
ENDBRANCH   1  13
TORSDOF 20
ENDMDL
MODEL 3
REMARK VINA RESULT:    -4.284      2.642      5.716
REMARK INTER + INTRA:         -12.705
REMARK INTER:                  -9.070
REMARK INTRA:                  -3.635
REMARK UNBOUND:                -3.412
REMARK SMILES CCCCCCCCCCCCCCCCCCCCCC(=O)[O-]
REMARK SMILES IDX 12 1 11 2 10 3 9 4 8 5 7 6 6 7 5 8 4 9 3 10 2 11 1 12 13 13
REMARK SMILES IDX 14 14 15 15 16 16 17 17 18 18 19 19 20 20 21 21 22 22 23 23
REMARK SMILES IDX 24 24
REMARK H PARENT
REMARK Flexibility Score: inf
ROOT
ATOM      1  C   UNL     1      -9.776  -2.611   4.406  1.00  0.00     0.000 C 
ENDROOT
BRANCH   1   2
ATOM      2  C   UNL     1     -10.517  -3.064   3.134  1.00  0.00     0.000 C 
BRANCH   2   3
ATOM      3  C   UNL     1     -10.370  -2.054   1.975  1.00  0.00     0.000 C 
BRANCH   3   4
ATOM      4  C   UNL     1      -9.015  -1.317   1.951  1.00  0.00    -0.000 C 
BRANCH   4   5
ATOM      5  C   UNL     1      -9.107   0.217   1.905  1.00  0.00    -0.000 C 
BRANCH   5   6
ATOM      6  C   UNL     1     -10.483   0.748   2.333  1.00  0.00    -0.000 C 
BRANCH   6   7
ATOM      7  C   UNL     1     -10.460   1.202   3.799  1.00  0.00    -0.000 C 
BRANCH   7   8
ATOM      8  C   UNL     1     -11.681   0.708   4.593  1.00  0.00    -0.000 C 
BRANCH   8   9
ATOM      9  C   UNL     1     -12.694  -0.045   3.715  1.00  0.00    -0.000 C 
BRANCH   9  10
ATOM     10  C   UNL     1     -13.625  -0.914   4.572  1.00  0.00    -0.000 C 
BRANCH  10  11
ATOM     11  C   UNL     1     -12.995  -1.306   5.919  1.00  0.00    -0.003 C 
ATOM     12  C   UNL     1     -14.027  -1.786   6.939  1.00  0.00     0.004 C 
ENDBRANCH  10  11
ENDBRANCH   9  10
ENDBRANCH   8   9
ENDBRANCH   7   8
ENDBRANCH   6   7
ENDBRANCH   5   6
ENDBRANCH   4   5
ENDBRANCH   3   4
ENDBRANCH   2   3
ENDBRANCH   1   2
BRANCH   1  13
ATOM     13  C   UNL     1      -8.594  -3.525   4.774  1.00  0.00     0.000 C 
BRANCH  13  14
ATOM     14  C   UNL     1      -8.512  -3.927   6.258  1.00  0.00     0.000 C 
BRANCH  14  15
ATOM     15  C   UNL     1      -9.258  -5.237   6.569  1.00  0.00     0.000 C 
BRANCH  15  16
ATOM     16  C   UNL     1      -9.391  -6.159   5.343  1.00  0.00     0.000 C 
BRANCH  16  17
ATOM     17  C   UNL     1     -10.836  -6.434   4.885  1.00  0.00     0.000 C 
BRANCH  17  18
ATOM     18  C   UNL     1     -11.883  -6.037   5.938  1.00  0.00     0.000 C 
BRANCH  18  19
ATOM     19  C   UNL     1     -12.804  -4.898   5.465  1.00  0.00     0.000 C 
BRANCH  19  20
ATOM     20  C   UNL     1     -13.293  -5.021   4.007  1.00  0.00     0.006 C 
BRANCH  20  21
ATOM     21  C   UNL     1     -14.814  -4.881   3.826  1.00  0.00     0.053 C 
BRANCH  21  22
ATOM     22  C   UNL     1     -15.450  -6.167   3.393  1.00  0.00     0.041 C 
ATOM     23  O   UNL     1     -15.813  -7.014   4.250  1.00  0.00    -0.550 OA
ATOM     24  O   UNL     1     -15.660  -6.420   2.043  1.00  0.00    -0.550 OA
ENDBRANCH  21  22
ENDBRANCH  20  21
ENDBRANCH  19  20
ENDBRANCH  18  19
ENDBRANCH  17  18
ENDBRANCH  16  17
ENDBRANCH  15  16
ENDBRANCH  14  15
ENDBRANCH  13  14
ENDBRANCH   1  13
TORSDOF 20
ENDMDL
MODEL 4
REMARK VINA RESULT:    -4.144      2.277      5.759
REMARK INTER + INTRA:         -12.402
REMARK INTER:                  -9.160
REMARK INTRA:                  -3.241
REMARK UNBOUND:                -3.412
REMARK SMILES CCCCCCCCCCCCCCCCCCCCCC(=O)[O-]
REMARK SMILES IDX 12 1 11 2 10 3 9 4 8 5 7 6 6 7 5 8 4 9 3 10 2 11 1 12 13 13
REMARK SMILES IDX 14 14 15 15 16 16 17 17 18 18 19 19 20 20 21 21 22 22 23 23
REMARK SMILES IDX 24 24
REMARK H PARENT
REMARK Flexibility Score: inf
ROOT
ATOM      1  C   UNL     1     -10.599   0.747   2.190  1.00  0.00     0.000 C 
ENDROOT
BRANCH   1   2
ATOM      2  C   UNL     1      -9.374   0.496   3.087  1.00  0.00     0.000 C 
BRANCH   2   3
ATOM      3  C   UNL     1      -8.621  -0.798   2.707  1.00  0.00     0.000 C 
BRANCH   3   4
ATOM      4  C   UNL     1      -9.535  -1.931   2.194  1.00  0.00    -0.000 C 
BRANCH   4   5
ATOM      5  C   UNL     1      -9.470  -3.238   3.002  1.00  0.00    -0.000 C 
BRANCH   5   6
ATOM      6  C   UNL     1      -8.507  -3.157   4.195  1.00  0.00    -0.000 C 
BRANCH   6   7
ATOM      7  C   UNL     1      -9.242  -3.451   5.510  1.00  0.00    -0.000 C 
BRANCH   7   8
ATOM      8  C   UNL     1      -8.462  -4.410   6.425  1.00  0.00    -0.000 C 
BRANCH   8   9
ATOM      9  C   UNL     1      -9.147  -5.778   6.570  1.00  0.00    -0.000 C 
BRANCH   9  10
ATOM     10  C   UNL     1      -9.643  -6.291   5.210  1.00  0.00    -0.000 C 
BRANCH  10  11
ATOM     11  C   UNL     1     -11.139  -6.648   5.223  1.00  0.00    -0.003 C 
ATOM     12  C   UNL     1     -11.844  -6.198   6.502  1.00  0.00     0.004 C 
ENDBRANCH  10  11
ENDBRANCH   9  10
ENDBRANCH   8   9
ENDBRANCH   7   8
ENDBRANCH   6   7
ENDBRANCH   5   6
ENDBRANCH   4   5
ENDBRANCH   3   4
ENDBRANCH   2   3
ENDBRANCH   1   2
BRANCH   1  13
ATOM     13  C   UNL     1     -11.451   1.942   2.653  1.00  0.00     0.000 C 
BRANCH  13  14
ATOM     14  C   UNL     1     -12.933   1.894   2.235  1.00  0.00     0.000 C 
BRANCH  14  15
ATOM     15  C   UNL     1     -13.854   1.350   3.342  1.00  0.00     0.000 C 
BRANCH  15  16
ATOM     16  C   UNL     1     -13.174   1.309   4.723  1.00  0.00     0.000 C 
BRANCH  16  17
ATOM     17  C   UNL     1     -13.273  -0.039   5.462  1.00  0.00     0.000 C 
BRANCH  17  18
ATOM     18  C   UNL     1     -12.255  -1.074   4.957  1.00  0.00     0.000 C 
BRANCH  18  19
ATOM     19  C   UNL     1     -12.842  -2.023   3.898  1.00  0.00     0.000 C 
BRANCH  19  20
ATOM     20  C   UNL     1     -12.838  -3.516   4.288  1.00  0.00     0.006 C 
BRANCH  20  21
ATOM     21  C   UNL     1     -14.215  -4.083   4.670  1.00  0.00     0.053 C 
BRANCH  21  22
ATOM     22  C   UNL     1     -14.770  -4.978   3.603  1.00  0.00     0.041 C 
ATOM     23  O   UNL     1     -14.009  -5.755   2.969  1.00  0.00    -0.550 OA
ATOM     24  O   UNL     1     -16.131  -4.968   3.323  1.00  0.00    -0.550 OA
ENDBRANCH  21  22
ENDBRANCH  20  21
ENDBRANCH  19  20
ENDBRANCH  18  19
ENDBRANCH  17  18
ENDBRANCH  16  17
ENDBRANCH  15  16
ENDBRANCH  14  15
ENDBRANCH  13  14
ENDBRANCH   1  13
TORSDOF 20
ENDMDL
MODEL 5
REMARK VINA RESULT:    -4.141      1.809      3.718
REMARK INTER + INTRA:         -12.394
REMARK INTER:                  -9.397
REMARK INTRA:                  -2.996
REMARK UNBOUND:                -3.412
REMARK SMILES CCCCCCCCCCCCCCCCCCCCCC(=O)[O-]
REMARK SMILES IDX 12 1 11 2 10 3 9 4 8 5 7 6 6 7 5 8 4 9 3 10 2 11 1 12 13 13
REMARK SMILES IDX 14 14 15 15 16 16 17 17 18 18 19 19 20 20 21 21 22 22 23 23
REMARK SMILES IDX 24 24
REMARK H PARENT
REMARK Flexibility Score: inf
ROOT
ATOM      1  C   UNL     1     -10.186  -3.202   3.199  1.00  0.00     0.000 C 
ENDROOT
BRANCH   1   2
ATOM      2  C   UNL     1      -9.746  -2.851   4.632  1.00  0.00     0.000 C 
BRANCH   2   3
ATOM      3  C   UNL     1      -8.563  -3.719   5.114  1.00  0.00     0.000 C 
BRANCH   3   4
ATOM      4  C   UNL     1      -8.840  -4.490   6.422  1.00  0.00    -0.000 C 
BRANCH   4   5
ATOM      5  C   UNL     1      -9.183  -5.979   6.242  1.00  0.00    -0.000 C 
BRANCH   5   6
ATOM      6  C   UNL     1     -10.686  -6.267   6.363  1.00  0.00    -0.000 C 
BRANCH   6   7
ATOM      7  C   UNL     1     -11.343  -6.330   4.977  1.00  0.00    -0.000 C 
BRANCH   7   8
ATOM      8  C   UNL     1     -12.546  -5.381   4.846  1.00  0.00    -0.000 C 
BRANCH   8   9
ATOM      9  C   UNL     1     -13.214  -5.457   3.464  1.00  0.00    -0.000 C 
BRANCH   9  10
ATOM     10  C   UNL     1     -14.219  -6.617   3.404  1.00  0.00    -0.000 C 
BRANCH  10  11
ATOM     11  C   UNL     1     -15.369  -6.352   2.418  1.00  0.00    -0.003 C 
ATOM     12  C   UNL     1     -16.612  -5.779   3.099  1.00  0.00     0.004 C 
ENDBRANCH  10  11
ENDBRANCH   9  10
ENDBRANCH   8   9
ENDBRANCH   7   8
ENDBRANCH   6   7
ENDBRANCH   5   6
ENDBRANCH   4   5
ENDBRANCH   3   4
ENDBRANCH   2   3
ENDBRANCH   1   2
BRANCH   1  13
ATOM     13  C   UNL     1      -9.932  -2.065   2.194  1.00  0.00     0.000 C 
BRANCH  13  14
ATOM     14  C   UNL     1      -8.754  -1.134   2.540  1.00  0.00     0.000 C 
BRANCH  14  15
ATOM     15  C   UNL     1      -9.075   0.354   2.313  1.00  0.00     0.000 C 
BRANCH  15  16
ATOM     16  C   UNL     1     -10.544   0.599   1.921  1.00  0.00     0.000 C 
BRANCH  16  17
ATOM     17  C   UNL     1     -11.352   1.457   2.911  1.00  0.00     0.000 C 
BRANCH  17  18
ATOM     18  C   UNL     1     -11.080   1.092   4.380  1.00  0.00     0.000 C 
BRANCH  18  19
ATOM     19  C   UNL     1     -11.971  -0.055   4.886  1.00  0.00     0.000 C 
BRANCH  19  20
ATOM     20  C   UNL     1     -13.067  -0.510   3.900  1.00  0.00     0.006 C 
BRANCH  20  21
ATOM     21  C   UNL     1     -13.694  -1.876   4.224  1.00  0.00     0.053 C 
BRANCH  21  22
ATOM     22  C   UNL     1     -15.086  -1.743   4.766  1.00  0.00     0.041 C 
ATOM     23  O   UNL     1     -16.042  -2.342   4.207  1.00  0.00    -0.550 OA
ATOM     24  O   UNL     1     -15.322  -0.974   5.898  1.00  0.00    -0.550 OA
ENDBRANCH  21  22
ENDBRANCH  20  21
ENDBRANCH  19  20
ENDBRANCH  18  19
ENDBRANCH  17  18
ENDBRANCH  16  17
ENDBRANCH  15  16
ENDBRANCH  14  15
ENDBRANCH  13  14
ENDBRANCH   1  13
TORSDOF 20
ENDMDL
MODEL 6
REMARK VINA RESULT:    -4.114      2.865      5.679
REMARK INTER + INTRA:         -12.336
REMARK INTER:                  -9.213
REMARK INTRA:                  -3.123
REMARK UNBOUND:                -3.412
REMARK SMILES CCCCCCCCCCCCCCCCCCCCCC(=O)[O-]
REMARK SMILES IDX 12 1 11 2 10 3 9 4 8 5 7 6 6 7 5 8 4 9 3 10 2 11 1 12 13 13
REMARK SMILES IDX 14 14 15 15 16 16 17 17 18 18 19 19 20 20 21 21 22 22 23 23
REMARK SMILES IDX 24 24
REMARK H PARENT
REMARK Flexibility Score: inf
ROOT
ATOM      1  C   UNL     1      -8.403  -4.368   6.382  1.00  0.00     0.000 C 
ENDROOT
BRANCH   1   2
ATOM      2  C   UNL     1      -9.220  -3.362   5.550  1.00  0.00     0.000 C 
BRANCH   2   3
ATOM      3  C   UNL     1      -8.617  -3.131   4.147  1.00  0.00     0.000 C 
BRANCH   3   4
ATOM      4  C   UNL     1      -9.648  -3.194   3.000  1.00  0.00    -0.000 C 
BRANCH   4   5
ATOM      5  C   UNL     1      -9.760  -1.916   2.153  1.00  0.00    -0.000 C 
BRANCH   5   6
ATOM      6  C   UNL     1      -8.793  -0.811   2.603  1.00  0.00    -0.000 C 
BRANCH   6   7
ATOM      7  C   UNL     1      -9.538   0.515   2.809  1.00  0.00    -0.000 C 
BRANCH   7   8
ATOM      8  C   UNL     1     -11.042   0.318   3.064  1.00  0.00    -0.000 C 
BRANCH   8   9
ATOM      9  C   UNL     1     -11.382   0.224   4.560  1.00  0.00    -0.000 C 
BRANCH   9  10
ATOM     10  C   UNL     1     -12.057  -1.116   4.887  1.00  0.00    -0.000 C 
BRANCH  10  11
ATOM     11  C   UNL     1     -13.405  -1.289   4.169  1.00  0.00    -0.003 C 
ATOM     12  C   UNL     1     -14.360  -0.119   4.411  1.00  0.00     0.004 C 
ENDBRANCH  10  11
ENDBRANCH   9  10
ENDBRANCH   8   9
ENDBRANCH   7   8
ENDBRANCH   6   7
ENDBRANCH   5   6
ENDBRANCH   4   5
ENDBRANCH   3   4
ENDBRANCH   2   3
ENDBRANCH   1   2
BRANCH   1  13
ATOM     13  C   UNL     1      -9.186  -5.649   6.719  1.00  0.00     0.000 C 
BRANCH  13  14
ATOM     14  C   UNL     1      -9.289  -6.676   5.575  1.00  0.00     0.000 C 
BRANCH  14  15
ATOM     15  C   UNL     1     -10.664  -6.673   4.884  1.00  0.00     0.000 C 
BRANCH  15  16
ATOM     16  C   UNL     1     -11.802  -6.204   5.811  1.00  0.00     0.000 C 
BRANCH  16  17
ATOM     17  C   UNL     1     -12.561  -4.952   5.334  1.00  0.00     0.000 C 
BRANCH  17  18
ATOM     18  C   UNL     1     -12.684  -4.873   3.804  1.00  0.00     0.000 C 
BRANCH  18  19
ATOM     19  C   UNL     1     -13.797  -5.777   3.246  1.00  0.00     0.000 C 
BRANCH  19  20
ATOM     20  C   UNL     1     -15.102  -5.784   4.069  1.00  0.00     0.006 C 
BRANCH  20  21
ATOM     21  C   UNL     1     -16.278  -5.041   3.413  1.00  0.00     0.053 C 
BRANCH  21  22
ATOM     22  C   UNL     1     -17.343  -5.982   2.936  1.00  0.00     0.041 C 
ATOM     23  O   UNL     1     -18.488  -5.958   3.459  1.00  0.00    -0.550 OA
ATOM     24  O   UNL     1     -17.076  -6.869   1.902  1.00  0.00    -0.550 OA
ENDBRANCH  21  22
ENDBRANCH  20  21
ENDBRANCH  19  20
ENDBRANCH  18  19
ENDBRANCH  17  18
ENDBRANCH  16  17
ENDBRANCH  15  16
ENDBRANCH  14  15
ENDBRANCH  13  14
ENDBRANCH   1  13
TORSDOF 20
ENDMDL
MODEL 7
REMARK VINA RESULT:    -4.106      2.204      5.417
REMARK INTER + INTRA:         -12.319
REMARK INTER:                  -9.337
REMARK INTRA:                  -2.982
REMARK UNBOUND:                -3.412
REMARK SMILES CCCCCCCCCCCCCCCCCCCCCC(=O)[O-]
REMARK SMILES IDX 12 1 11 2 10 3 9 4 8 5 7 6 6 7 5 8 4 9 3 10 2 11 1 12 13 13
REMARK SMILES IDX 14 14 15 15 16 16 17 17 18 18 19 19 20 20 21 21 22 22 23 23
REMARK SMILES IDX 24 24
REMARK H PARENT
REMARK Flexibility Score: inf
ROOT
ATOM      1  C   UNL     1     -10.065   0.609   3.584  1.00  0.00     0.000 C 
ENDROOT
BRANCH   1   2
ATOM      2  C   UNL     1      -8.898   0.307   2.627  1.00  0.00     0.000 C 
BRANCH   2   3
ATOM      3  C   UNL     1      -8.570  -1.200   2.554  1.00  0.00     0.000 C 
BRANCH   3   4
ATOM      4  C   UNL     1      -9.445  -2.080   3.470  1.00  0.00    -0.000 C 
BRANCH   4   5
ATOM      5  C   UNL     1     -10.571  -2.848   2.757  1.00  0.00    -0.000 C 
BRANCH   5   6
ATOM      6  C   UNL     1     -11.940  -2.664   3.428  1.00  0.00    -0.000 C 
BRANCH   6   7
ATOM      7  C   UNL     1     -11.780  -2.413   4.934  1.00  0.00    -0.000 C 
BRANCH   7   8
ATOM      8  C   UNL     1     -12.320  -3.571   5.790  1.00  0.00    -0.000 C 
BRANCH   8   9
ATOM      9  C   UNL     1     -11.761  -4.937   5.359  1.00  0.00    -0.000 C 
BRANCH   9  10
ATOM     10  C   UNL     1     -10.589  -5.359   6.258  1.00  0.00    -0.000 C 
BRANCH  10  11
ATOM     11  C   UNL     1      -9.221  -5.083   5.614  1.00  0.00    -0.003 C 
ATOM     12  C   UNL     1      -8.376  -4.096   6.419  1.00  0.00     0.004 C 
ENDBRANCH  10  11
ENDBRANCH   9  10
ENDBRANCH   8   9
ENDBRANCH   7   8
ENDBRANCH   6   7
ENDBRANCH   5   6
ENDBRANCH   4   5
ENDBRANCH   3   4
ENDBRANCH   2   3
ENDBRANCH   1   2
BRANCH   1  13
ATOM     13  C   UNL     1     -11.086   1.600   2.997  1.00  0.00     0.000 C 
BRANCH  13  14
ATOM     14  C   UNL     1     -12.299   0.956   2.299  1.00  0.00     0.000 C 
BRANCH  14  15
ATOM     15  C   UNL     1     -13.634   1.277   2.993  1.00  0.00     0.000 C 
BRANCH  15  16
ATOM     16  C   UNL     1     -13.466   2.161   4.242  1.00  0.00     0.000 C 
BRANCH  16  17
ATOM     17  C   UNL     1     -14.416   3.370   4.322  1.00  0.00     0.000 C 
BRANCH  17  18
ATOM     18  C   UNL     1     -14.962   3.794   2.949  1.00  0.00     0.000 C 
BRANCH  18  19
ATOM     19  C   UNL     1     -16.498   3.858   2.910  1.00  0.00     0.000 C 
BRANCH  19  20
ATOM     20  C   UNL     1     -17.214   2.903   3.888  1.00  0.00     0.006 C 
BRANCH  20  21
ATOM     21  C   UNL     1     -17.392   1.467   3.367  1.00  0.00     0.053 C 
BRANCH  21  22
ATOM     22  C   UNL     1     -16.979   0.444   4.382  1.00  0.00     0.041 C 
ATOM     23  O   UNL     1     -16.598   0.806   5.526  1.00  0.00    -0.550 OA
ATOM     24  O   UNL     1     -17.034  -0.908   4.071  1.00  0.00    -0.550 OA
ENDBRANCH  21  22
ENDBRANCH  20  21
ENDBRANCH  19  20
ENDBRANCH  18  19
ENDBRANCH  17  18
ENDBRANCH  16  17
ENDBRANCH  15  16
ENDBRANCH  14  15
ENDBRANCH  13  14
ENDBRANCH   1  13
TORSDOF 20
ENDMDL
MODEL 8
REMARK VINA RESULT:    -4.091      2.936      5.599
REMARK INTER + INTRA:         -12.285
REMARK INTER:                  -8.302
REMARK INTRA:                  -3.984
REMARK UNBOUND:                -3.412
REMARK SMILES CCCCCCCCCCCCCCCCCCCCCC(=O)[O-]
REMARK SMILES IDX 12 1 11 2 10 3 9 4 8 5 7 6 6 7 5 8 4 9 3 10 2 11 1 12 13 13
REMARK SMILES IDX 14 14 15 15 16 16 17 17 18 18 19 19 20 20 21 21 22 22 23 23
REMARK SMILES IDX 24 24
REMARK H PARENT
REMARK Flexibility Score: inf
ROOT
ATOM      1  C   UNL     1     -11.714  -0.709   4.875  1.00  0.00     0.000 C 
ENDROOT
BRANCH   1   2
ATOM      2  C   UNL     1     -12.694  -1.156   3.775  1.00  0.00     0.000 C 
BRANCH   2   3
ATOM      3  C   UNL     1     -13.655  -2.265   4.256  1.00  0.00     0.000 C 
BRANCH   3   4
ATOM      4  C   UNL     1     -12.950  -3.451   4.949  1.00  0.00    -0.000 C 
BRANCH   4   5
ATOM      5  C   UNL     1     -13.269  -3.616   6.444  1.00  0.00    -0.000 C 
BRANCH   5   6
ATOM      6  C   UNL     1     -14.362  -2.655   6.934  1.00  0.00    -0.000 C 
BRANCH   6   7
ATOM      7  C   UNL     1     -13.773  -1.589   7.868  1.00  0.00    -0.000 C 
BRANCH   7   8
ATOM      8  C   UNL     1     -14.627  -0.312   7.925  1.00  0.00    -0.000 C 
BRANCH   8   9
ATOM      9  C   UNL     1     -13.962   0.877   7.213  1.00  0.00    -0.000 C 
BRANCH   9  10
ATOM     10  C   UNL     1     -14.699   1.220   5.910  1.00  0.00    -0.000 C 
BRANCH  10  11
ATOM     11  C   UNL     1     -13.934   2.237   5.048  1.00  0.00    -0.003 C 
ATOM     12  C   UNL     1     -14.331   2.182   3.573  1.00  0.00     0.004 C 
ENDBRANCH  10  11
ENDBRANCH   9  10
ENDBRANCH   8   9
ENDBRANCH   7   8
ENDBRANCH   6   7
ENDBRANCH   5   6
ENDBRANCH   4   5
ENDBRANCH   3   4
ENDBRANCH   2   3
ENDBRANCH   1   2
BRANCH   1  13
ATOM     13  C   UNL     1     -10.723   0.369   4.400  1.00  0.00     0.000 C 
BRANCH  13  14
ATOM     14  C   UNL     1     -10.683   0.599   2.878  1.00  0.00     0.000 C 
BRANCH  14  15
ATOM     15  C   UNL     1      -9.304   0.311   2.261  1.00  0.00     0.000 C 
BRANCH  15  16
ATOM     16  C   UNL     1      -8.792  -1.109   2.567  1.00  0.00     0.000 C 
BRANCH  16  17
ATOM     17  C   UNL     1      -9.735  -2.251   2.143  1.00  0.00     0.000 C 
BRANCH  17  18
ATOM     18  C   UNL     1      -9.736  -3.426   3.134  1.00  0.00     0.000 C 
BRANCH  18  19
ATOM     19  C   UNL     1      -8.718  -3.247   4.274  1.00  0.00     0.000 C 
BRANCH  19  20
ATOM     20  C   UNL     1      -9.271  -3.520   5.689  1.00  0.00     0.006 C 
BRANCH  20  21
ATOM     21  C   UNL     1      -8.612  -4.702   6.418  1.00  0.00     0.053 C 
BRANCH  21  22
ATOM     22  C   UNL     1      -9.252  -6.011   6.063  1.00  0.00     0.041 C 
ATOM     23  O   UNL     1      -8.628  -7.089   6.243  1.00  0.00    -0.550 OA
ATOM     24  O   UNL     1     -10.543  -6.039   5.553  1.00  0.00    -0.550 OA
ENDBRANCH  21  22
ENDBRANCH  20  21
ENDBRANCH  19  20
ENDBRANCH  18  19
ENDBRANCH  17  18
ENDBRANCH  16  17
ENDBRANCH  15  16
ENDBRANCH  14  15
ENDBRANCH  13  14
ENDBRANCH   1  13
TORSDOF 20
ENDMDL
MODEL 9
REMARK VINA RESULT:    -4.060      2.459      5.740
REMARK INTER + INTRA:         -12.218
REMARK INTER:                  -8.402
REMARK INTRA:                  -3.817
REMARK UNBOUND:                -3.412
REMARK SMILES CCCCCCCCCCCCCCCCCCCCCC(=O)[O-]
REMARK SMILES IDX 12 1 11 2 10 3 9 4 8 5 7 6 6 7 5 8 4 9 3 10 2 11 1 12 13 13
REMARK SMILES IDX 14 14 15 15 16 16 17 17 18 18 19 19 20 20 21 21 22 22 23 23
REMARK SMILES IDX 24 24
REMARK H PARENT
REMARK Flexibility Score: inf
ROOT
ATOM      1  C   UNL     1      -9.607  -3.499   5.327  1.00  0.00     0.000 C 
ENDROOT
BRANCH   1   2
ATOM      2  C   UNL     1      -9.730  -3.971   3.867  1.00  0.00     0.000 C 
BRANCH   2   3
ATOM      3  C   UNL     1      -9.646  -2.802   2.861  1.00  0.00     0.000 C 
BRANCH   3   4
ATOM      4  C   UNL     1      -8.736  -1.643   3.317  1.00  0.00    -0.000 C 
BRANCH   4   5
ATOM      5  C   UNL     1      -8.522  -0.532   2.275  1.00  0.00    -0.000 C 
BRANCH   5   6
ATOM      6  C   UNL     1      -9.827   0.173   1.875  1.00  0.00    -0.000 C 
BRANCH   6   7
ATOM      7  C   UNL     1     -10.316   1.094   3.001  1.00  0.00    -0.000 C 
BRANCH   7   8
ATOM      8  C   UNL     1     -11.810   0.908   3.314  1.00  0.00    -0.000 C 
BRANCH   8   9
ATOM      9  C   UNL     1     -12.386  -0.381   2.706  1.00  0.00    -0.000 C 
BRANCH   9  10
ATOM     10  C   UNL     1     -12.983  -1.282   3.797  1.00  0.00    -0.000 C 
BRANCH  10  11
ATOM     11  C   UNL     1     -12.306  -1.085   5.163  1.00  0.00    -0.003 C 
ATOM     12  C   UNL     1     -13.309  -0.870   6.296  1.00  0.00     0.004 C 
ENDBRANCH  10  11
ENDBRANCH   9  10
ENDBRANCH   8   9
ENDBRANCH   7   8
ENDBRANCH   6   7
ENDBRANCH   5   6
ENDBRANCH   4   5
ENDBRANCH   3   4
ENDBRANCH   2   3
ENDBRANCH   1   2
BRANCH   1  13
ATOM     13  C   UNL     1      -8.672  -4.384   6.171  1.00  0.00     0.000 C 
BRANCH  13  14
ATOM     14  C   UNL     1      -8.934  -5.898   6.071  1.00  0.00     0.000 C 
BRANCH  14  15
ATOM     15  C   UNL     1      -9.511  -6.497   7.366  1.00  0.00     0.000 C 
BRANCH  15  16
ATOM     16  C   UNL     1     -10.619  -7.535   7.107  1.00  0.00     0.000 C 
BRANCH  16  17
ATOM     17  C   UNL     1     -11.074  -7.655   5.641  1.00  0.00     0.000 C 
BRANCH  17  18
ATOM     18  C   UNL     1     -12.542  -7.247   5.435  1.00  0.00     0.000 C 
BRANCH  18  19
ATOM     19  C   UNL     1     -12.709  -6.118   4.404  1.00  0.00     0.000 C 
BRANCH  19  20
ATOM     20  C   UNL     1     -13.115  -4.752   4.996  1.00  0.00     0.006 C 
BRANCH  20  21
ATOM     21  C   UNL     1     -12.932  -4.633   6.518  1.00  0.00     0.053 C 
BRANCH  21  22
ATOM     22  C   UNL     1     -14.239  -4.444   7.229  1.00  0.00     0.041 C 
ATOM     23  O   UNL     1     -15.274  -5.028   6.816  1.00  0.00    -0.550 OA
ATOM     24  O   UNL     1     -14.307  -3.639   8.359  1.00  0.00    -0.550 OA
ENDBRANCH  21  22
ENDBRANCH  20  21
ENDBRANCH  19  20
ENDBRANCH  18  19
ENDBRANCH  17  18
ENDBRANCH  16  17
ENDBRANCH  15  16
ENDBRANCH  14  15
ENDBRANCH  13  14
ENDBRANCH   1  13
TORSDOF 20
ENDMDL
