MODEL 1
REMARK VINA RESULT:    -3.878      0.000      0.000
REMARK INTER + INTRA:          -5.409
REMARK INTER:                  -5.011
REMARK INTRA:                  -0.398
REMARK UNBOUND:                -0.398
REMARK SMILES CCCCCCC(=O)[O-]
REMARK SMILES IDX 5 1 6 2 7 3 8 4 9 5 4 6 3 7 2 8 1 9
REMARK H PARENT
REMARK Flexibility Score: inf
ROOT
ATOM      1  C   UNL     1       9.626   4.982  27.649  1.00  0.00     0.006 C 
ENDROOT
BRANCH   1   2
ATOM      2  C   UNL     1       9.712   3.864  28.696  1.00  0.00     0.053 C 
BRANCH   2   3
ATOM      3  C   UNL     1      10.650   4.216  29.811  1.00  0.00     0.041 C 
ATOM      4  O   UNL     1      10.321   3.999  31.007  1.00  0.00    -0.550 OA
ATOM      5  O   UNL     1      11.875   4.807  29.532  1.00  0.00    -0.550 OA
ENDBRANCH   2   3
ENDBRANCH   1   2
BRANCH   1   6
ATOM      6  C   UNL     1       8.800   6.180  28.145  1.00  0.00     0.000 C 
BRANCH   6   7
ATOM      7  C   UNL     1       9.644   7.454  28.331  1.00  0.00    -0.000 C 
BRANCH   7   8
ATOM      8  C   UNL     1       9.371   8.228  29.633  1.00  0.00    -0.003 C 
ATOM      9  C   UNL     1       8.876   7.333  30.769  1.00  0.00     0.004 C 
ENDBRANCH   7   8
ENDBRANCH   6   7
ENDBRANCH   1   6
TORSDOF 5
ENDMDL
MODEL 2
REMARK VINA RESULT:    -3.793     15.796     16.870
REMARK INTER + INTRA:          -5.300
REMARK INTER:                  -4.883
REMARK INTRA:                  -0.417
REMARK UNBOUND:                -0.398
REMARK SMILES CCCCCCC(=O)[O-]
REMARK SMILES IDX 5 1 6 2 7 3 8 4 9 5 4 6 3 7 2 8 1 9
REMARK H PARENT
REMARK Flexibility Score: inf
ROOT
ATOM      1  C   UNL     1       7.214   5.820  14.110  1.00  0.00     0.006 C 
ENDROOT
BRANCH   1   2
ATOM      2  C   UNL     1       6.720   5.502  12.693  1.00  0.00     0.053 C 
BRANCH   2   3
ATOM      3  C   UNL     1       5.502   6.299  12.336  1.00  0.00     0.041 C 
ATOM      4  O   UNL     1       5.349   6.730  11.162  1.00  0.00    -0.550 OA
ATOM      5  O   UNL     1       4.550   6.590  13.304  1.00  0.00    -0.550 OA
ENDBRANCH   2   3
ENDBRANCH   1   2
BRANCH   1   6
ATOM      6  C   UNL     1       8.350   6.858  14.110  1.00  0.00     0.000 C 
BRANCH   6   7
ATOM      7  C   UNL     1       7.862   8.280  14.442  1.00  0.00    -0.000 C 
BRANCH   7   8
ATOM      8  C   UNL     1       7.825   9.248  13.245  1.00  0.00    -0.003 C 
ATOM      9  C   UNL     1       8.436   8.655  11.977  1.00  0.00     0.004 C 
ENDBRANCH   7   8
ENDBRANCH   6   7
ENDBRANCH   1   6
TORSDOF 5
ENDMDL
MODEL 3
REMARK VINA RESULT:    -3.749      1.822      2.967
REMARK INTER + INTRA:          -5.243
REMARK INTER:                  -4.862
REMARK INTRA:                  -0.381
REMARK UNBOUND:                -0.398
REMARK SMILES CCCCCCC(=O)[O-]
REMARK SMILES IDX 5 1 6 2 7 3 8 4 9 5 4 6 3 7 2 8 1 9
REMARK H PARENT
REMARK Flexibility Score: inf
ROOT
ATOM      1  C   UNL     1       9.581   6.758  28.562  1.00  0.00     0.006 C 
ENDROOT
BRANCH   1   2
ATOM      2  C   UNL     1       9.011   5.639  27.680  1.00  0.00     0.053 C 
BRANCH   2   3
ATOM      3  C   UNL     1      10.044   4.603  27.357  1.00  0.00     0.041 C 
ATOM      4  O   UNL     1       9.721   3.388  27.279  1.00  0.00    -0.550 OA
ATOM      5  O   UNL     1      11.369   4.975  27.169  1.00  0.00    -0.550 OA
ENDBRANCH   2   3
ENDBRANCH   1   2
BRANCH   1   6
ATOM      6  C   UNL     1       8.963   6.760  29.970  1.00  0.00     0.000 C 
BRANCH   6   7
ATOM      7  C   UNL     1       9.946   6.287  31.056  1.00  0.00    -0.000 C 
BRANCH   7   8
ATOM      8  C   UNL     1      10.248   4.778  31.045  1.00  0.00    -0.003 C 
ATOM      9  C   UNL     1      11.706   4.462  30.718  1.00  0.00     0.004 C 
ENDBRANCH   7   8
ENDBRANCH   6   7
ENDBRANCH   1   6
TORSDOF 5
ENDMDL
MODEL 4
REMARK VINA RESULT:    -3.740      2.136      3.631
REMARK INTER + INTRA:          -5.231
REMARK INTER:                  -4.825
REMARK INTRA:                  -0.407
REMARK UNBOUND:                -0.398
REMARK SMILES CCCCCCC(=O)[O-]
REMARK SMILES IDX 5 1 6 2 7 3 8 4 9 5 4 6 3 7 2 8 1 9
REMARK H PARENT
REMARK Flexibility Score: inf
ROOT
ATOM      1  C   UNL     1       8.956   6.392  27.936  1.00  0.00     0.006 C 
ENDROOT
BRANCH   1   2
ATOM      2  C   UNL     1       9.784   7.576  28.453  1.00  0.00     0.053 C 
BRANCH   2   3
ATOM      3  C   UNL     1       9.327   8.027  29.808  1.00  0.00     0.041 C 
ATOM      4  O   UNL     1       8.578   7.289  30.501  1.00  0.00    -0.550 OA
ATOM      5  O   UNL     1       9.706   9.272  30.293  1.00  0.00    -0.550 OA
ENDBRANCH   2   3
ENDBRANCH   1   2
BRANCH   1   6
ATOM      6  C   UNL     1       9.828   5.164  27.626  1.00  0.00     0.000 C 
BRANCH   6   7
ATOM      7  C   UNL     1       9.535   3.972  28.554  1.00  0.00    -0.000 C 
BRANCH   7   8
ATOM      8  C   UNL     1      10.051   4.130  29.996  1.00  0.00    -0.003 C 
ATOM      9  C   UNL     1      11.496   4.621  30.064  1.00  0.00     0.004 C 
ENDBRANCH   7   8
ENDBRANCH   6   7
ENDBRANCH   1   6
TORSDOF 5
ENDMDL
MODEL 5
REMARK VINA RESULT:    -3.678     16.189     16.799
REMARK INTER + INTRA:          -5.150
REMARK INTER:                  -4.864
REMARK INTRA:                  -0.286
REMARK UNBOUND:                -0.398
REMARK SMILES CCCCCCC(=O)[O-]
REMARK SMILES IDX 5 1 6 2 7 3 8 4 9 5 4 6 3 7 2 8 1 9
REMARK H PARENT
REMARK Flexibility Score: inf
ROOT
ATOM      1  C   UNL     1       6.684   5.603  12.666  1.00  0.00     0.006 C 
ENDROOT
BRANCH   1   2
ATOM      2  C   UNL     1       5.371   6.371  12.461  1.00  0.00     0.053 C 
BRANCH   2   3
ATOM      3  C   UNL     1       4.723   6.724  13.766  1.00  0.00     0.041 C 
ATOM      4  O   UNL     1       3.535   7.140  13.790  1.00  0.00    -0.550 OA
ATOM      5  O   UNL     1       5.439   6.619  14.951  1.00  0.00    -0.550 OA
ENDBRANCH   2   3
ENDBRANCH   1   2
BRANCH   1   6
ATOM      6  C   UNL     1       7.896   6.367  12.107  1.00  0.00     0.000 C 
BRANCH   6   7
ATOM      7  C   UNL     1       8.316   7.555  12.992  1.00  0.00    -0.000 C 
BRANCH   7   8
ATOM      8  C   UNL     1       8.153   8.939  12.339  1.00  0.00    -0.003 C 
ATOM      9  C   UNL     1       7.686  10.013  13.321  1.00  0.00     0.004 C 
ENDBRANCH   7   8
ENDBRANCH   6   7
ENDBRANCH   1   6
TORSDOF 5
ENDMDL
MODEL 6
REMARK VINA RESULT:    -3.648      2.028      2.714
REMARK INTER + INTRA:          -5.112
REMARK INTER:                  -4.761
REMARK INTRA:                  -0.351
REMARK UNBOUND:                -0.398
REMARK SMILES CCCCCCC(=O)[O-]
REMARK SMILES IDX 5 1 6 2 7 3 8 4 9 5 4 6 3 7 2 8 1 9
REMARK H PARENT
REMARK Flexibility Score: inf
ROOT
ATOM      1  C   UNL     1       9.384   4.359  28.395  1.00  0.00     0.006 C 
ENDROOT
BRANCH   1   2
ATOM      2  C   UNL     1      10.402   4.448  27.250  1.00  0.00     0.053 C 
BRANCH   2   3
ATOM      3  C   UNL     1      11.296   5.642  27.390  1.00  0.00     0.041 C 
ATOM      4  O   UNL     1      12.527   5.490  27.609  1.00  0.00    -0.550 OA
ATOM      5  O   UNL     1      10.766   6.923  27.308  1.00  0.00    -0.550 OA
ENDBRANCH   2   3
ENDBRANCH   1   2
BRANCH   1   6
ATOM      6  C   UNL     1      10.053   4.040  29.742  1.00  0.00     0.000 C 
BRANCH   6   7
ATOM      7  C   UNL     1       9.809   5.127  30.804  1.00  0.00    -0.000 C 
BRANCH   7   8
ATOM      8  C   UNL     1       9.039   6.362  30.303  1.00  0.00    -0.003 C 
ATOM      9  C   UNL     1       9.429   7.647  31.033  1.00  0.00     0.004 C 
ENDBRANCH   7   8
ENDBRANCH   6   7
ENDBRANCH   1   6
TORSDOF 5
ENDMDL
MODEL 7
REMARK VINA RESULT:    -3.637     15.034     16.247
REMARK INTER + INTRA:          -5.098
REMARK INTER:                  -4.716
REMARK INTRA:                  -0.382
REMARK UNBOUND:                -0.398
REMARK SMILES CCCCCCC(=O)[O-]
REMARK SMILES IDX 5 1 6 2 7 3 8 4 9 5 4 6 3 7 2 8 1 9
REMARK H PARENT
REMARK Flexibility Score: inf
ROOT
ATOM      1  C   UNL     1       8.274   8.551  13.335  1.00  0.00     0.006 C 
ENDROOT
BRANCH   1   2
ATOM      2  C   UNL     1       8.372   7.566  14.507  1.00  0.00     0.053 C 
BRANCH   2   3
ATOM      3  C   UNL     1       7.147   7.604  15.370  1.00  0.00     0.041 C 
ATOM      4  O   UNL     1       6.686   8.706  15.767  1.00  0.00    -0.550 OA
ATOM      5  O   UNL     1       6.532   6.421  15.759  1.00  0.00    -0.550 OA
ENDBRANCH   2   3
ENDBRANCH   1   2
BRANCH   1   6
ATOM      6  C   UNL     1       7.878   7.855  12.022  1.00  0.00     0.000 C 
BRANCH   6   7
ATOM      7  C   UNL     1       7.997   6.322  12.097  1.00  0.00    -0.000 C 
BRANCH   7   8
ATOM      8  C   UNL     1       6.706   5.554  11.761  1.00  0.00    -0.003 C 
ATOM      9  C   UNL     1       5.449   6.229  12.305  1.00  0.00     0.004 C 
ENDBRANCH   7   8
ENDBRANCH   6   7
ENDBRANCH   1   6
TORSDOF 5
ENDMDL
MODEL 8
REMARK VINA RESULT:    -3.602     15.001     16.169
REMARK INTER + INTRA:          -5.052
REMARK INTER:                  -4.676
REMARK INTRA:                  -0.377
REMARK UNBOUND:                -0.398
REMARK SMILES CCCCCCC(=O)[O-]
REMARK SMILES IDX 5 1 6 2 7 3 8 4 9 5 4 6 3 7 2 8 1 9
REMARK H PARENT
REMARK Flexibility Score: inf
ROOT
ATOM      1  C   UNL     1       6.946   7.307  15.535  1.00  0.00     0.006 C 
ENDROOT
BRANCH   1   2
ATOM      2  C   UNL     1       5.703   7.999  14.960  1.00  0.00     0.053 C 
BRANCH   2   3
ATOM      3  C   UNL     1       4.664   7.009  14.528  1.00  0.00     0.041 C 
ATOM      4  O   UNL     1       4.620   6.617  13.332  1.00  0.00    -0.550 OA
ATOM      5  O   UNL     1       3.727   6.540  15.440  1.00  0.00    -0.550 OA
ENDBRANCH   2   3
ENDBRANCH   1   2
BRANCH   1   6
ATOM      6  C   UNL     1       8.172   7.461  14.620  1.00  0.00     0.000 C 
BRANCH   6   7
ATOM      7  C   UNL     1       8.164   6.477  13.437  1.00  0.00    -0.000 C 
BRANCH   7   8
ATOM      8  C   UNL     1       7.968   7.126  12.055  1.00  0.00    -0.003 C 
ATOM      9  C   UNL     1       8.288   8.620  12.045  1.00  0.00     0.004 C 
ENDBRANCH   7   8
ENDBRANCH   6   7
ENDBRANCH   1   6
TORSDOF 5
ENDMDL
MODEL 9
REMARK VINA RESULT:    -3.578      1.994      3.175
REMARK INTER + INTRA:          -5.021
REMARK INTER:                  -4.636
REMARK INTRA:                  -0.385
REMARK UNBOUND:                -0.398
REMARK SMILES CCCCCCC(=O)[O-]
REMARK SMILES IDX 5 1 6 2 7 3 8 4 9 5 4 6 3 7 2 8 1 9
REMARK H PARENT
REMARK Flexibility Score: inf
ROOT
ATOM      1  C   UNL     1       9.417   4.807  28.328  1.00  0.00     0.006 C 
ENDROOT
BRANCH   1   2
ATOM      2  C   UNL     1      10.111   5.245  27.031  1.00  0.00     0.053 C 
BRANCH   2   3
ATOM      3  C   UNL     1      11.425   5.915  27.301  1.00  0.00     0.041 C 
ATOM      4  O   UNL     1      12.363   5.273  27.842  1.00  0.00    -0.550 OA
ATOM      5  O   UNL     1      11.603   7.254  26.981  1.00  0.00    -0.550 OA
ENDBRANCH   2   3
ENDBRANCH   1   2
BRANCH   1   6
ATOM      6  C   UNL     1       9.258   5.969  29.323  1.00  0.00     0.000 C 
BRANCH   6   7
ATOM      7  C   UNL     1       9.730   5.610  30.743  1.00  0.00    -0.000 C 
BRANCH   7   8
ATOM      8  C   UNL     1      10.507   4.285  30.853  1.00  0.00    -0.003 C 
ATOM      9  C   UNL     1      11.997   4.487  31.125  1.00  0.00     0.004 C 
ENDBRANCH   7   8
ENDBRANCH   6   7
ENDBRANCH   1   6
TORSDOF 5
ENDMDL
