MODEL 1
REMARK VINA RESULT:    -3.654      0.000      0.000
REMARK INTER + INTRA:          -6.832
REMARK INTER:                  -5.576
REMARK INTRA:                  -1.256
REMARK UNBOUND:                -1.256
REMARK SMILES CCCCCCCCCC=CC(=O)[O-]
REMARK SMILES IDX 7 1 8 2 9 3 10 4 11 5 12 6 13 7 14 8 6 9 5 10 4 11 3 12 2 13
REMARK SMILES IDX 1 14
REMARK H PARENT
REMARK Flexibility Score: inf
ROOT
ATOM      1  C   UNL     1       7.605  -5.384  -8.208  1.00  0.00     0.000 C 
ENDROOT
BRANCH   1   2
ATOM      2  C   UNL     1       7.012  -5.376  -9.626  1.00  0.00     0.004 C 
BRANCH   2   3
ATOM      3  C   UNL     1       6.225  -4.093  -9.930  1.00  0.00     0.027 C 
BRANCH   3   4
ATOM      4  C   UNL     1       4.745  -4.356  -9.948  1.00  0.00    -0.025 C 
ATOM      5  C   UNL     1       3.979  -4.107  -8.882  1.00  0.00     0.020 C 
BRANCH   5   6
ATOM      6  C   UNL     1       2.533  -4.373  -8.882  1.00  0.00     0.064 C 
ATOM      7  O   UNL     1       1.789  -3.765  -8.068  1.00  0.00    -0.545 OA
ATOM      8  O   UNL     1       1.972  -5.286  -9.767  1.00  0.00    -0.545 OA
ENDBRANCH   5   6
ENDBRANCH   3   4
ENDBRANCH   2   3
ENDBRANCH   1   2
BRANCH   1   9
ATOM      9  C   UNL     1       8.633  -6.507  -8.004  1.00  0.00     0.000 C 
BRANCH   9  10
ATOM     10  C   UNL     1       7.982  -7.733  -7.345  1.00  0.00     0.000 C 
BRANCH  10  11
ATOM     11  C   UNL     1       7.059  -7.359  -6.174  1.00  0.00    -0.000 C 
BRANCH  11  12
ATOM     12  C   UNL     1       5.683  -8.042  -6.265  1.00  0.00    -0.000 C 
BRANCH  12  13
ATOM     13  C   UNL     1       4.695  -7.259  -7.142  1.00  0.00    -0.003 C 
ATOM     14  C   UNL     1       4.484  -7.899  -8.515  1.00  0.00     0.004 C 
ENDBRANCH  12  13
ENDBRANCH  11  12
ENDBRANCH  10  11
ENDBRANCH   9  10
ENDBRANCH   1   9
TORSDOF 9
ENDMDL
MODEL 2
REMARK VINA RESULT:    -3.643     15.386     17.529
REMARK INTER + INTRA:          -6.815
REMARK INTER:                  -5.631
REMARK INTRA:                  -1.185
REMARK UNBOUND:                -1.256
REMARK SMILES CCCCCCCCCC=CC(=O)[O-]
REMARK SMILES IDX 7 1 8 2 9 3 10 4 11 5 12 6 13 7 14 8 6 9 5 10 4 11 3 12 2 13
REMARK SMILES IDX 1 14
REMARK H PARENT
REMARK Flexibility Score: inf
ROOT
ATOM      1  C   UNL     1      -6.303  -8.503   6.074  1.00  0.00     0.000 C 
ENDROOT
BRANCH   1   2
ATOM      2  C   UNL     1      -5.115  -8.955   6.939  1.00  0.00     0.004 C 
BRANCH   2   3
ATOM      3  C   UNL     1      -4.111  -9.818   6.161  1.00  0.00     0.027 C 
BRANCH   3   4
ATOM      4  C   UNL     1      -2.735  -9.718   6.757  1.00  0.00    -0.025 C 
ATOM      5  C   UNL     1      -2.226  -8.546   7.146  1.00  0.00     0.020 C 
BRANCH   5   6
ATOM      6  C   UNL     1      -0.876  -8.432   7.719  1.00  0.00     0.064 C 
ATOM      7  O   UNL     1      -0.014  -9.311   7.457  1.00  0.00    -0.545 OA
ATOM      8  O   UNL     1      -0.536  -7.367   8.544  1.00  0.00    -0.545 OA
ENDBRANCH   5   6
ENDBRANCH   3   4
ENDBRANCH   2   3
ENDBRANCH   1   2
BRANCH   1   9
ATOM      9  C   UNL     1      -6.036  -8.670   4.570  1.00  0.00     0.000 C 
BRANCH   9  10
ATOM     10  C   UNL     1      -6.145  -7.322   3.842  1.00  0.00     0.000 C 
BRANCH  10  11
ATOM     11  C   UNL     1      -4.839  -6.916   3.141  1.00  0.00    -0.000 C 
BRANCH  11  12
ATOM     12  C   UNL     1      -4.246  -8.055   2.292  1.00  0.00    -0.000 C 
BRANCH  12  13
ATOM     13  C   UNL     1      -2.885  -8.535   2.820  1.00  0.00    -0.003 C 
ATOM     14  C   UNL     1      -2.240  -7.540   3.786  1.00  0.00     0.004 C 
ENDBRANCH  12  13
ENDBRANCH  11  12
ENDBRANCH  10  11
ENDBRANCH   9  10
ENDBRANCH   1   9
TORSDOF 9
ENDMDL
MODEL 3
REMARK VINA RESULT:    -3.584     15.176     17.278
REMARK INTER + INTRA:          -6.726
REMARK INTER:                  -5.739
REMARK INTRA:                  -0.987
REMARK UNBOUND:                -1.256
REMARK SMILES CCCCCCCCCC=CC(=O)[O-]
REMARK SMILES IDX 7 1 8 2 9 3 10 4 11 5 12 6 13 7 14 8 6 9 5 10 4 11 3 12 2 13
REMARK SMILES IDX 1 14
REMARK H PARENT
REMARK Flexibility Score: inf
ROOT
ATOM      1  C   UNL     1      -4.159  -9.051   6.727  1.00  0.00     0.000 C 
ENDROOT
BRANCH   1   2
ATOM      2  C   UNL     1      -2.959  -9.751   7.385  1.00  0.00     0.004 C 
BRANCH   2   3
ATOM      3  C   UNL     1      -1.612  -9.200   6.894  1.00  0.00     0.027 C 
BRANCH   3   4
ATOM      4  C   UNL     1      -0.992  -8.292   7.919  1.00  0.00    -0.025 C 
ATOM      5  C   UNL     1      -1.072  -6.963   7.813  1.00  0.00     0.020 C 
BRANCH   5   6
ATOM      6  C   UNL     1      -0.458  -6.063   8.801  1.00  0.00     0.064 C 
ATOM      7  O   UNL     1       0.761  -6.192   9.086  1.00  0.00    -0.545 OA
ATOM      8  O   UNL     1      -1.204  -5.070   9.426  1.00  0.00    -0.545 OA
ENDBRANCH   5   6
ENDBRANCH   3   4
ENDBRANCH   2   3
ENDBRANCH   1   2
BRANCH   1   9
ATOM      9  C   UNL     1      -4.309  -9.408   5.240  1.00  0.00     0.000 C 
BRANCH   9  10
ATOM     10  C   UNL     1      -4.948  -8.249   4.461  1.00  0.00     0.000 C 
BRANCH  10  11
ATOM     11  C   UNL     1      -4.019  -7.677   3.378  1.00  0.00    -0.000 C 
BRANCH  11  12
ATOM     12  C   UNL     1      -2.614  -7.354   3.914  1.00  0.00    -0.000 C 
BRANCH  12  13
ATOM     13  C   UNL     1      -1.505  -8.067   3.126  1.00  0.00    -0.003 C 
ATOM     14  C   UNL     1      -2.037  -8.834   1.915  1.00  0.00     0.004 C 
ENDBRANCH  12  13
ENDBRANCH  11  12
ENDBRANCH  10  11
ENDBRANCH   9  10
ENDBRANCH   1   9
TORSDOF 9
ENDMDL
MODEL 4
REMARK VINA RESULT:    -3.563     15.636     17.595
REMARK INTER + INTRA:          -6.694
REMARK INTER:                  -6.117
REMARK INTRA:                  -0.576
REMARK UNBOUND:                -1.256
REMARK SMILES CCCCCCCCCC=CC(=O)[O-]
REMARK SMILES IDX 7 1 8 2 9 3 10 4 11 5 12 6 13 7 14 8 6 9 5 10 4 11 3 12 2 13
REMARK SMILES IDX 1 14
REMARK H PARENT
REMARK Flexibility Score: inf
ROOT
ATOM      1  C   UNL     1      -3.292  -8.999   5.209  1.00  0.00     0.000 C 
ENDROOT
BRANCH   1   2
ATOM      2  C   UNL     1      -2.883  -8.722   6.664  1.00  0.00     0.004 C 
BRANCH   2   3
ATOM      3  C   UNL     1      -1.455  -9.194   6.978  1.00  0.00     0.027 C 
BRANCH   3   4
ATOM      4  C   UNL     1      -0.660  -8.108   7.646  1.00  0.00    -0.025 C 
ATOM      5  C   UNL     1      -1.257  -7.081   8.258  1.00  0.00     0.020 C 
BRANCH   5   6
ATOM      6  C   UNL     1      -0.492  -6.005   8.904  1.00  0.00     0.064 C 
ATOM      7  O   UNL     1      -1.079  -4.948   9.254  1.00  0.00    -0.545 OA
ATOM      8  O   UNL     1       0.872  -6.135   9.135  1.00  0.00    -0.545 OA
ENDBRANCH   5   6
ENDBRANCH   3   4
ENDBRANCH   2   3
ENDBRANCH   1   2
BRANCH   1   9
ATOM      9  C   UNL     1      -2.635  -8.027   4.215  1.00  0.00     0.000 C 
BRANCH   9  10
ATOM     10  C   UNL     1      -3.603  -7.672   3.077  1.00  0.00     0.000 C 
BRANCH  10  11
ATOM     11  C   UNL     1      -4.929  -7.083   3.584  1.00  0.00    -0.000 C 
BRANCH  11  12
ATOM     12  C   UNL     1      -6.126  -8.017   3.331  1.00  0.00    -0.000 C 
BRANCH  12  13
ATOM     13  C   UNL     1      -7.092  -8.070   4.524  1.00  0.00    -0.003 C 
ATOM     14  C   UNL     1      -8.234  -7.059   4.410  1.00  0.00     0.004 C 
ENDBRANCH  12  13
ENDBRANCH  11  12
ENDBRANCH  10  11
ENDBRANCH   9  10
ENDBRANCH   1   9
TORSDOF 9
ENDMDL
MODEL 5
REMARK VINA RESULT:    -3.525     13.770     15.836
REMARK INTER + INTRA:          -6.635
REMARK INTER:                  -5.472
REMARK INTRA:                  -1.163
REMARK UNBOUND:                -1.256
REMARK SMILES CCCCCCCCCC=CC(=O)[O-]
REMARK SMILES IDX 7 1 8 2 9 3 10 4 11 5 12 6 13 7 14 8 6 9 5 10 4 11 3 12 2 13
REMARK SMILES IDX 1 14
REMARK H PARENT
REMARK Flexibility Score: inf
ROOT
ATOM      1  C   UNL     1      -4.874  -6.894   3.134  1.00  0.00     0.000 C 
ENDROOT
BRANCH   1   2
ATOM      2  C   UNL     1      -3.437  -7.161   3.609  1.00  0.00     0.004 C 
BRANCH   2   3
ATOM      3  C   UNL     1      -3.336  -8.392   4.523  1.00  0.00     0.027 C 
BRANCH   3   4
ATOM      4  C   UNL     1      -2.091  -8.340   5.364  1.00  0.00    -0.025 C 
ATOM      5  C   UNL     1      -2.101  -8.708   6.648  1.00  0.00     0.020 C 
BRANCH   5   6
ATOM      6  C   UNL     1      -0.894  -8.650   7.487  1.00  0.00     0.064 C 
ATOM      7  O   UNL     1      -0.154  -9.665   7.581  1.00  0.00    -0.545 OA
ATOM      8  O   UNL     1      -0.557  -7.492   8.176  1.00  0.00    -0.545 OA
ENDBRANCH   5   6
ENDBRANCH   3   4
ENDBRANCH   2   3
ENDBRANCH   1   2
BRANCH   1   9
ATOM      9  C   UNL     1      -5.423  -8.023   2.248  1.00  0.00     0.000 C 
BRANCH   9  10
ATOM     10  C   UNL     1      -5.182  -7.719   0.761  1.00  0.00     0.000 C 
BRANCH  10  11
ATOM     11  C   UNL     1      -4.062  -8.579   0.153  1.00  0.00    -0.000 C 
BRANCH  11  12
ATOM     12  C   UNL     1      -3.770  -9.843   0.981  1.00  0.00    -0.000 C 
BRANCH  12  13
ATOM     13  C   UNL     1      -2.280  -9.991   1.322  1.00  0.00    -0.003 C 
ATOM     14  C   UNL     1      -1.454  -8.769   0.917  1.00  0.00     0.004 C 
ENDBRANCH  12  13
ENDBRANCH  11  12
ENDBRANCH  10  11
ENDBRANCH   9  10
ENDBRANCH   1   9
TORSDOF 9
ENDMDL
MODEL 6
REMARK VINA RESULT:    -3.518     15.378     17.309
REMARK INTER + INTRA:          -6.624
REMARK INTER:                  -5.656
REMARK INTRA:                  -0.969
REMARK UNBOUND:                -1.256
REMARK SMILES CCCCCCCCCC=CC(=O)[O-]
REMARK SMILES IDX 7 1 8 2 9 3 10 4 11 5 12 6 13 7 14 8 6 9 5 10 4 11 3 12 2 13
REMARK SMILES IDX 1 14
REMARK H PARENT
REMARK Flexibility Score: inf
ROOT
ATOM      1  C   UNL     1      -2.635  -7.497   3.863  1.00  0.00     0.000 C 
ENDROOT
BRANCH   1   2
ATOM      2  C   UNL     1      -1.683  -8.129   4.892  1.00  0.00     0.004 C 
BRANCH   2   3
ATOM      3  C   UNL     1      -2.430  -8.831   6.036  1.00  0.00     0.027 C 
BRANCH   3   4
ATOM      4  C   UNL     1      -2.090  -8.214   7.363  1.00  0.00    -0.025 C 
ATOM      5  C   UNL     1      -1.017  -7.433   7.516  1.00  0.00     0.020 C 
BRANCH   5   6
ATOM      6  C   UNL     1      -0.665  -6.834   8.812  1.00  0.00     0.064 C 
ATOM      7  O   UNL     1       0.421  -6.209   8.934  1.00  0.00    -0.545 OA
ATOM      8  O   UNL     1      -1.514  -6.946   9.907  1.00  0.00    -0.545 OA
ENDBRANCH   5   6
ENDBRANCH   3   4
ENDBRANCH   2   3
ENDBRANCH   1   2
BRANCH   1   9
ATOM      9  C   UNL     1      -3.226  -8.532   2.892  1.00  0.00     0.000 C 
BRANCH   9  10
ATOM     10  C   UNL     1      -4.619  -8.097   2.411  1.00  0.00     0.000 C 
BRANCH  10  11
ATOM     11  C   UNL     1      -5.221  -6.972   3.268  1.00  0.00    -0.000 C 
BRANCH  11  12
ATOM     12  C   UNL     1      -6.618  -7.324   3.809  1.00  0.00    -0.000 C 
BRANCH  12  13
ATOM     13  C   UNL     1      -6.638  -8.667   4.555  1.00  0.00    -0.003 C 
ATOM     14  C   UNL     1      -6.032  -8.576   5.956  1.00  0.00     0.004 C 
ENDBRANCH  12  13
ENDBRANCH  11  12
ENDBRANCH  10  11
ENDBRANCH   9  10
ENDBRANCH   1   9
TORSDOF 9
ENDMDL
MODEL 7
REMARK VINA RESULT:    -3.481     15.678     17.395
REMARK INTER + INTRA:          -6.569
REMARK INTER:                  -5.636
REMARK INTRA:                  -0.933
REMARK UNBOUND:                -1.256
REMARK SMILES CCCCCCCCCC=CC(=O)[O-]
REMARK SMILES IDX 7 1 8 2 9 3 10 4 11 5 12 6 13 7 14 8 6 9 5 10 4 11 3 12 2 13
REMARK SMILES IDX 1 14
REMARK H PARENT
REMARK Flexibility Score: inf
ROOT
ATOM      1  C   UNL     1      -3.802  -8.905   3.109  1.00  0.00     0.000 C 
ENDROOT
BRANCH   1   2
ATOM      2  C   UNL     1      -3.594  -9.772   4.361  1.00  0.00     0.004 C 
BRANCH   2   3
ATOM      3  C   UNL     1      -4.121  -9.102   5.639  1.00  0.00     0.027 C 
BRANCH   3   4
ATOM      4  C   UNL     1      -3.063  -9.062   6.705  1.00  0.00    -0.025 C 
ATOM      5  C   UNL     1      -1.856  -8.539   6.472  1.00  0.00     0.020 C 
BRANCH   5   6
ATOM      6  C   UNL     1      -0.807  -8.506   7.502  1.00  0.00     0.064 C 
ATOM      7  O   UNL     1      -0.025  -9.486   7.625  1.00  0.00    -0.545 OA
ATOM      8  O   UNL     1      -0.663  -7.409   8.343  1.00  0.00    -0.545 OA
ENDBRANCH   5   6
ENDBRANCH   3   4
ENDBRANCH   2   3
ENDBRANCH   1   2
BRANCH   1   9
ATOM      9  C   UNL     1      -3.771  -7.401   3.420  1.00  0.00     0.000 C 
BRANCH   9  10
ATOM     10  C   UNL     1      -5.102  -6.736   3.037  1.00  0.00     0.000 C 
BRANCH  10  11
ATOM     11  C   UNL     1      -6.040  -7.679   2.267  1.00  0.00    -0.000 C 
BRANCH  11  12
ATOM     12  C   UNL     1      -7.234  -8.149   3.116  1.00  0.00    -0.000 C 
BRANCH  12  13
ATOM     13  C   UNL     1      -7.456  -7.269   4.356  1.00  0.00    -0.003 C 
ATOM     14  C   UNL     1      -8.928  -6.924   4.582  1.00  0.00     0.004 C 
ENDBRANCH  12  13
ENDBRANCH  11  12
ENDBRANCH  10  11
ENDBRANCH   9  10
ENDBRANCH   1   9
TORSDOF 9
ENDMDL
MODEL 8
REMARK VINA RESULT:    -3.479     16.091     18.134
REMARK INTER + INTRA:          -6.566
REMARK INTER:                  -5.787
REMARK INTRA:                  -0.779
REMARK UNBOUND:                -1.256
REMARK SMILES CCCCCCCCCC=CC(=O)[O-]
REMARK SMILES IDX 7 1 8 2 9 3 10 4 11 5 12 6 13 7 14 8 6 9 5 10 4 11 3 12 2 13
REMARK SMILES IDX 1 14
REMARK H PARENT
REMARK Flexibility Score: inf
ROOT
ATOM      1  C   UNL     1      -4.300  -9.244   6.608  1.00  0.00     0.000 C 
ENDROOT
BRANCH   1   2
ATOM      2  C   UNL     1      -3.154  -9.210   7.632  1.00  0.00     0.004 C 
BRANCH   2   3
ATOM      3  C   UNL     1      -1.776  -9.060   6.971  1.00  0.00     0.027 C 
BRANCH   3   4
ATOM      4  C   UNL     1      -0.911  -8.097   7.735  1.00  0.00    -0.025 C 
ATOM      5  C   UNL     1      -1.370  -6.904   8.124  1.00  0.00     0.020 C 
BRANCH   5   6
ATOM      6  C   UNL     1      -0.531  -5.947   8.860  1.00  0.00     0.064 C 
ATOM      7  O   UNL     1      -1.043  -4.887   9.308  1.00  0.00    -0.545 OA
ATOM      8  O   UNL     1       0.820  -6.193   9.071  1.00  0.00    -0.545 OA
ENDBRANCH   5   6
ENDBRANCH   3   4
ENDBRANCH   2   3
ENDBRANCH   1   2
BRANCH   1   9
ATOM      9  C   UNL     1      -5.574  -8.555   7.124  1.00  0.00     0.000 C 
BRANCH   9  10
ATOM     10  C   UNL     1      -6.657  -8.521   6.036  1.00  0.00     0.000 C 
BRANCH  10  11
ATOM     11  C   UNL     1      -6.078  -8.631   4.616  1.00  0.00    -0.000 C 
BRANCH  11  12
ATOM     12  C   UNL     1      -5.945  -7.263   3.924  1.00  0.00    -0.000 C 
BRANCH  12  13
ATOM     13  C   UNL     1      -4.799  -7.230   2.902  1.00  0.00    -0.003 C 
ATOM     14  C   UNL     1      -3.429  -7.471   3.538  1.00  0.00     0.004 C 
ENDBRANCH  12  13
ENDBRANCH  11  12
ENDBRANCH  10  11
ENDBRANCH   9  10
ENDBRANCH   1   9
TORSDOF 9
ENDMDL
MODEL 9
REMARK VINA RESULT:    -3.367     15.107     16.725
REMARK INTER + INTRA:          -6.394
REMARK INTER:                  -5.663
REMARK INTRA:                  -0.731
REMARK UNBOUND:                -1.256
REMARK SMILES CCCCCCCCCC=CC(=O)[O-]
REMARK SMILES IDX 7 1 8 2 9 3 10 4 11 5 12 6 13 7 14 8 6 9 5 10 4 11 3 12 2 13
REMARK SMILES IDX 1 14
REMARK H PARENT
REMARK Flexibility Score: inf
ROOT
ATOM      1  C   UNL     1      -2.759  -8.628   2.739  1.00  0.00     0.000 C 
ENDROOT
BRANCH   1   2
ATOM      2  C   UNL     1      -4.133  -8.380   2.096  1.00  0.00     0.004 C 
BRANCH   2   3
ATOM      3  C   UNL     1      -4.819  -7.116   2.635  1.00  0.00     0.027 C 
BRANCH   3   4
ATOM      4  C   UNL     1      -6.266  -7.377   2.946  1.00  0.00    -0.025 C 
ATOM      5  C   UNL     1      -6.726  -7.354   4.200  1.00  0.00     0.020 C 
BRANCH   5   6
ATOM      6  C   UNL     1      -8.136  -7.620   4.520  1.00  0.00     0.064 C 
ATOM      7  O   UNL     1      -8.480  -8.769   4.903  1.00  0.00    -0.545 OA
ATOM      8  O   UNL     1      -9.096  -6.622   4.407  1.00  0.00    -0.545 OA
ENDBRANCH   5   6
ENDBRANCH   3   4
ENDBRANCH   2   3
ENDBRANCH   1   2
BRANCH   1   9
ATOM      9  C   UNL     1      -2.686  -8.125   4.189  1.00  0.00     0.000 C 
BRANCH   9  10
ATOM     10  C   UNL     1      -3.315  -9.142   5.154  1.00  0.00     0.000 C 
BRANCH  10  11
ATOM     11  C   UNL     1      -2.838  -8.961   6.604  1.00  0.00    -0.000 C 
BRANCH  11  12
ATOM     12  C   UNL     1      -1.499  -8.208   6.696  1.00  0.00    -0.000 C 
BRANCH  12  13
ATOM     13  C   UNL     1      -0.436  -8.993   7.479  1.00  0.00    -0.003 C 
ATOM     14  C   UNL     1      -0.930 -10.364   7.941  1.00  0.00     0.004 C 
ENDBRANCH  12  13
ENDBRANCH  11  12
ENDBRANCH  10  11
ENDBRANCH   9  10
ENDBRANCH   1   9
TORSDOF 9
ENDMDL
