MODEL 1
REMARK VINA RESULT:    -7.055      0.000      0.000
REMARK INTER + INTRA:         -10.183
REMARK INTER:                  -8.911
REMARK INTRA:                  -1.272
REMARK UNBOUND:                -1.272
REMARK SMILES CC(C)[C@@H](C)C=C[C@@H](C)[C@H]1CC[C@@H]2C3=CC=C4C[C@@H](O)CC[C@@]4(C)[C@@H]3CC[C@]21C
REMARK SMILES IDX 8 1 9 2 7 3 6 4 4 5 5 6 2 7 1 8 3 9 10 10 11 11 28 12 12 13
REMARK SMILES IDX 13 14 27 15 29 16 14 17 26 18 25 19 15 20 23 21 16 22 17 23
REMARK SMILES IDX 22 24 24 25 18 26 21 27 19 28 20 29
REMARK H PARENT 20 30
REMARK Flexibility Score: inf
ROOT
ATOM      1  C   UNL     1     117.982 119.507 129.355  1.00  0.00     0.012 C 
ATOM      2  C   UNL     1     118.236 118.018 129.030  1.00  0.00     0.012 C 
ENDROOT
BRANCH   1   3
ATOM      3  C   UNL     1     116.742 119.584 130.229  1.00  0.00    -0.028 C 
ATOM      4  C   UNL     1     116.716 120.269 131.386  1.00  0.00    -0.028 C 
BRANCH   4   5
ATOM      5  C   UNL     1     115.504 120.335 132.294  1.00  0.00     0.011 C 
ATOM      6  C   UNL     1     114.660 121.598 132.037  1.00  0.00     0.012 C 
BRANCH   5   7
ATOM      7  C   UNL     1     115.871 120.089 133.789  1.00  0.00    -0.011 C 
ATOM      8  C   UNL     1     117.328 120.423 134.149  1.00  0.00     0.008 C 
ATOM      9  C   UNL     1     114.915 120.830 134.736  1.00  0.00     0.008 C 
ENDBRANCH   5   7
ENDBRANCH   4   5
ENDBRANCH   1   3
BRANCH   1  10
ATOM     10  C   UNL     1     117.850 120.408 128.070  1.00  0.00     0.002 C 
ATOM     11  C   UNL     1     116.361 120.627 127.643  1.00  0.00     0.005 C 
ATOM     12  C   UNL     1     118.412 121.869 128.162  1.00  0.00    -0.023 C 
ATOM     13  C   UNL     1     116.045 122.121 127.779  1.00  0.00     0.009 C 
ATOM     14  C   UNL     1     117.187 122.661 128.622  1.00  0.00     0.021 C 
ATOM     15  C   UNL     1     119.549 122.157 129.174  1.00  0.00     0.008 C 
ATOM     16  C   UNL     1     118.880 122.283 126.729  1.00  0.00     0.012 C 
ATOM     17  C   UNL     1     117.446 124.152 128.657  1.00  0.00    -0.063 C 
ATOM     18  C   UNL     1     119.921 123.656 129.199  1.00  0.00     0.009 C 
ATOM     19  C   UNL     1     118.703 124.618 129.388  1.00  0.00     0.025 C 
ATOM     20  C   UNL     1     116.443 125.024 128.464  1.00  0.00    -0.000 C 
ATOM     21  C   UNL     1     119.039 126.130 129.081  1.00  0.00    -0.005 C 
ATOM     22  C   UNL     1     116.584 126.444 128.817  1.00  0.00    -0.000 C 
ATOM     23  C   UNL     1     117.760 126.965 129.203  1.00  0.00    -0.061 C 
ATOM     24  C   UNL     1     120.105 126.626 130.103  1.00  0.00     0.014 C 
ATOM     25  C   UNL     1     119.571 126.315 127.635  1.00  0.00     0.017 C 
ATOM     26  C   UNL     1     117.845 128.458 129.442  1.00  0.00     0.063 C 
ATOM     27  C   UNL     1     120.241 128.153 130.155  1.00  0.00     0.033 C 
ATOM     28  C   UNL     1     118.899 128.815 130.492  1.00  0.00     0.118 C 
BRANCH  28  29
ATOM     29  O   UNL     1     118.452 128.412 131.762  1.00  0.00    -0.393 OA
ATOM     30  H   UNL     1     117.465 128.321 131.702  1.00  0.00     0.210 HD
ENDBRANCH  28  29
ENDBRANCH   1  10
TORSDOF 5
ENDMDL
MODEL 2
REMARK VINA RESULT:    -7.036      1.855      2.800
REMARK INTER + INTRA:         -10.159
REMARK INTER:                  -8.108
REMARK INTRA:                  -2.052
REMARK UNBOUND:                -1.272
REMARK SMILES CC(C)[C@@H](C)C=C[C@@H](C)[C@H]1CC[C@@H]2C3=CC=C4C[C@@H](O)CC[C@@]4(C)[C@@H]3CC[C@]21C
REMARK SMILES IDX 8 1 9 2 7 3 6 4 4 5 5 6 2 7 1 8 3 9 10 10 11 11 28 12 12 13
REMARK SMILES IDX 13 14 27 15 29 16 14 17 26 18 25 19 15 20 23 21 16 22 17 23
REMARK SMILES IDX 22 24 24 25 18 26 21 27 19 28 20 29
REMARK H PARENT 20 30
REMARK Flexibility Score: inf
ROOT
ATOM      1  C   UNL     1     118.063 118.911 129.354  1.00  0.00     0.012 C 
ATOM      2  C   UNL     1     117.764 117.409 129.147  1.00  0.00     0.012 C 
ENDROOT
BRANCH   1   3
ATOM      3  C   UNL     1     118.711 119.070 130.719  1.00  0.00    -0.028 C 
ATOM      4  C   UNL     1     119.801 119.833 130.916  1.00  0.00    -0.028 C 
BRANCH   4   5
ATOM      5  C   UNL     1     120.488 119.982 132.259  1.00  0.00     0.011 C 
ATOM      6  C   UNL     1     120.336 118.717 133.126  1.00  0.00     0.012 C 
BRANCH   5   7
ATOM      7  C   UNL     1     120.103 121.313 132.976  1.00  0.00    -0.011 C 
ATOM      8  C   UNL     1     120.230 122.568 132.096  1.00  0.00     0.008 C 
ATOM      9  C   UNL     1     118.695 121.241 133.585  1.00  0.00     0.008 C 
ENDBRANCH   5   7
ENDBRANCH   4   5
ENDBRANCH   1   3
BRANCH   1  10
ATOM     10  C   UNL     1     116.787 119.823 129.203  1.00  0.00     0.002 C 
ATOM     11  C   UNL     1     115.951 119.907 130.523  1.00  0.00     0.005 C 
ATOM     12  C   UNL     1     117.027 121.329 128.837  1.00  0.00    -0.023 C 
ATOM     13  C   UNL     1     115.981 121.360 131.010  1.00  0.00     0.009 C 
ATOM     14  C   UNL     1     117.112 121.989 130.213  1.00  0.00     0.021 C 
ATOM     15  C   UNL     1     118.319 121.704 128.070  1.00  0.00     0.008 C 
ATOM     16  C   UNL     1     115.784 121.817 128.023  1.00  0.00     0.012 C 
ATOM     17  C   UNL     1     117.210 123.497 130.123  1.00  0.00    -0.063 C 
ATOM     18  C   UNL     1     118.439 123.230 127.869  1.00  0.00     0.009 C 
ATOM     19  C   UNL     1     118.265 124.066 129.179  1.00  0.00     0.025 C 
ATOM     20  C   UNL     1     116.732 124.273 131.110  1.00  0.00    -0.000 C 
ATOM     21  C   UNL     1     118.057 125.610 128.920  1.00  0.00    -0.005 C 
ATOM     22  C   UNL     1     117.101 125.692 131.216  1.00  0.00    -0.000 C 
ATOM     23  C   UNL     1     117.803 126.315 130.256  1.00  0.00    -0.061 C 
ATOM     24  C   UNL     1     119.338 126.184 128.244  1.00  0.00     0.014 C 
ATOM     25  C   UNL     1     116.823 125.876 128.018  1.00  0.00     0.017 C 
ATOM     26  C   UNL     1     118.047 127.804 130.390  1.00  0.00     0.063 C 
ATOM     27  C   UNL     1     119.416 127.715 128.278  1.00  0.00     0.033 C 
ATOM     28  C   UNL     1     119.352 128.237 129.719  1.00  0.00     0.118 C 
BRANCH  28  29
ATOM     29  O   UNL     1     120.444 127.766 130.468  1.00  0.00    -0.393 OA
ATOM     30  H   UNL     1     120.897 128.565 130.845  1.00  0.00     0.210 HD
ENDBRANCH  28  29
ENDBRANCH   1  10
TORSDOF 5
ENDMDL
MODEL 3
REMARK VINA RESULT:    -7.007      2.756      6.757
REMARK INTER + INTRA:         -10.122
REMARK INTER:                  -8.838
REMARK INTRA:                  -1.284
REMARK UNBOUND:                -1.272
REMARK SMILES CC(C)[C@@H](C)C=C[C@@H](C)[C@H]1CC[C@@H]2C3=CC=C4C[C@@H](O)CC[C@@]4(C)[C@@H]3CC[C@]21C
REMARK SMILES IDX 8 1 9 2 7 3 6 4 4 5 5 6 2 7 1 8 3 9 10 10 11 11 28 12 12 13
REMARK SMILES IDX 13 14 27 15 29 16 14 17 26 18 25 19 15 20 23 21 16 22 17 23
REMARK SMILES IDX 22 24 24 25 18 26 21 27 19 28 20 29
REMARK H PARENT 20 30
REMARK Flexibility Score: inf
ROOT
ATOM      1  C   UNL     1     114.736 122.502 128.657  1.00  0.00     0.012 C 
ATOM      2  C   UNL     1     113.402 122.750 127.919  1.00  0.00     0.012 C 
ENDROOT
BRANCH   1   3
ATOM      3  C   UNL     1     115.850 122.538 127.624  1.00  0.00    -0.028 C 
ATOM      4  C   UNL     1     116.899 123.374 127.721  1.00  0.00    -0.028 C 
BRANCH   4   5
ATOM      5  C   UNL     1     118.005 123.453 126.688  1.00  0.00     0.011 C 
ATOM      6  C   UNL     1     119.095 122.391 126.929  1.00  0.00     0.012 C 
BRANCH   5   7
ATOM      7  C   UNL     1     118.541 124.907 126.507  1.00  0.00    -0.011 C 
ATOM      8  C   UNL     1     117.729 125.981 127.250  1.00  0.00     0.008 C 
ATOM      9  C   UNL     1     120.025 125.015 126.888  1.00  0.00     0.008 C 
ENDBRANCH   5   7
ENDBRANCH   4   5
ENDBRANCH   1   3
BRANCH   1  10
ATOM     10  C   UNL     1     114.747 121.162 129.484  1.00  0.00     0.002 C 
ATOM     11  C   UNL     1     115.137 119.923 128.611  1.00  0.00     0.005 C 
ATOM     12  C   UNL     1     115.746 121.076 130.690  1.00  0.00    -0.023 C 
ATOM     13  C   UNL     1     116.457 119.361 129.150  1.00  0.00     0.009 C 
ATOM     14  C   UNL     1     116.991 120.471 130.039  1.00  0.00     0.021 C 
ATOM     15  C   UNL     1     116.184 122.392 131.378  1.00  0.00     0.008 C 
ATOM     16  C   UNL     1     115.114 120.121 131.755  1.00  0.00     0.012 C 
ATOM     17  C   UNL     1     118.075 120.160 131.049  1.00  0.00    -0.063 C 
ATOM     18  C   UNL     1     117.232 122.135 132.483  1.00  0.00     0.009 C 
ATOM     19  C   UNL     1     118.453 121.274 132.021  1.00  0.00     0.025 C 
ATOM     20  C   UNL     1     118.946 119.162 130.830  1.00  0.00    -0.000 C 
ATOM     21  C   UNL     1     119.337 120.741 133.216  1.00  0.00    -0.005 C 
ATOM     22  C   UNL     1     120.190 119.047 131.605  1.00  0.00    -0.000 C 
ATOM     23  C   UNL     1     120.443 119.837 132.661  1.00  0.00    -0.061 C 
ATOM     24  C   UNL     1     119.962 121.958 133.962  1.00  0.00     0.014 C 
ATOM     25  C   UNL     1     118.502 119.889 134.209  1.00  0.00     0.017 C 
ATOM     26  C   UNL     1     121.696 119.581 133.471  1.00  0.00     0.063 C 
ATOM     27  C   UNL     1     121.120 121.578 134.893  1.00  0.00     0.033 C 
ATOM     28  C   UNL     1     122.233 120.858 134.122  1.00  0.00     0.118 C 
BRANCH  28  29
ATOM     29  O   UNL     1     122.776 121.696 133.133  1.00  0.00    -0.393 OA
ATOM     30  H   UNL     1     123.677 121.338 132.919  1.00  0.00     0.210 HD
ENDBRANCH  28  29
ENDBRANCH   1  10
TORSDOF 5
ENDMDL
MODEL 4
REMARK VINA RESULT:    -6.957      3.388      8.124
REMARK INTER + INTRA:         -10.060
REMARK INTER:                  -9.216
REMARK INTRA:                  -0.843
REMARK UNBOUND:                -1.272
REMARK SMILES CC(C)[C@@H](C)C=C[C@@H](C)[C@H]1CC[C@@H]2C3=CC=C4C[C@@H](O)CC[C@@]4(C)[C@@H]3CC[C@]21C
REMARK SMILES IDX 8 1 9 2 7 3 6 4 4 5 5 6 2 7 1 8 3 9 10 10 11 11 28 12 12 13
REMARK SMILES IDX 13 14 27 15 29 16 14 17 26 18 25 19 15 20 23 21 16 22 17 23
REMARK SMILES IDX 22 24 24 25 18 26 21 27 19 28 20 29
REMARK H PARENT 20 30
REMARK Flexibility Score: inf
ROOT
ATOM      1  C   UNL     1     118.365 127.768 130.636  1.00  0.00     0.012 C 
ATOM      2  C   UNL     1     117.619 128.859 131.436  1.00  0.00     0.012 C 
ENDROOT
BRANCH   1   3
ATOM      3  C   UNL     1     119.106 128.453 129.500  1.00  0.00    -0.028 C 
ATOM      4  C   UNL     1     119.652 129.676 129.628  1.00  0.00    -0.028 C 
BRANCH   4   5
ATOM      5  C   UNL     1     120.367 130.396 128.501  1.00  0.00     0.011 C 
ATOM      6  C   UNL     1     121.891 130.436 128.719  1.00  0.00     0.012 C 
BRANCH   5   7
ATOM      7  C   UNL     1     119.718 131.777 128.177  1.00  0.00    -0.011 C 
ATOM      8  C   UNL     1     118.472 132.106 129.015  1.00  0.00     0.008 C 
ATOM      9  C   UNL     1     120.738 132.920 128.284  1.00  0.00     0.008 C 
ENDBRANCH   5   7
ENDBRANCH   4   5
ENDBRANCH   1   3
BRANCH   1  10
ATOM     10  C   UNL     1     117.415 126.626 130.111  1.00  0.00     0.002 C 
ATOM     11  C   UNL     1     116.720 127.000 128.760  1.00  0.00     0.005 C 
ATOM     12  C   UNL     1     118.074 125.238 129.800  1.00  0.00    -0.023 C 
ATOM     13  C   UNL     1     117.212 126.021 127.688  1.00  0.00     0.009 C 
ATOM     14  C   UNL     1     118.432 125.371 128.319  1.00  0.00     0.021 C 
ATOM     15  C   UNL     1     119.373 124.854 130.551  1.00  0.00     0.008 C 
ATOM     16  C   UNL     1     116.990 124.138 130.049  1.00  0.00     0.012 C 
ATOM     17  C   UNL     1     118.972 124.082 127.739  1.00  0.00    -0.063 C 
ATOM     18  C   UNL     1     119.933 123.500 130.063  1.00  0.00     0.009 C 
ATOM     19  C   UNL     1     120.094 123.393 128.511  1.00  0.00     0.025 C 
ATOM     20  C   UNL     1     118.806 123.796 126.437  1.00  0.00    -0.000 C 
ATOM     21  C   UNL     1     120.344 121.919 128.003  1.00  0.00    -0.005 C 
ATOM     22  C   UNL     1     119.589 122.740 125.778  1.00  0.00    -0.000 C 
ATOM     23  C   UNL     1     120.389 121.915 126.472  1.00  0.00    -0.061 C 
ATOM     24  C   UNL     1     121.697 121.409 128.583  1.00  0.00     0.014 C 
ATOM     25  C   UNL     1     119.196 120.965 128.430  1.00  0.00     0.017 C 
ATOM     26  C   UNL     1     121.075 120.785 125.733  1.00  0.00     0.063 C 
ATOM     27  C   UNL     1     122.232 120.155 127.880  1.00  0.00     0.033 C 
ATOM     28  C   UNL     1     122.410 120.401 126.377  1.00  0.00     0.118 C 
BRANCH  28  29
ATOM     29  O   UNL     1     123.351 121.419 126.147  1.00  0.00    -0.393 OA
ATOM     30  H   UNL     1     124.173 120.977 125.806  1.00  0.00     0.210 HD
ENDBRANCH  28  29
ENDBRANCH   1  10
TORSDOF 5
ENDMDL
MODEL 5
REMARK VINA RESULT:    -6.919      2.185      3.936
REMARK INTER + INTRA:         -10.012
REMARK INTER:                  -7.936
REMARK INTRA:                  -2.076
REMARK UNBOUND:                -1.272
REMARK SMILES CC(C)[C@@H](C)C=C[C@@H](C)[C@H]1CC[C@@H]2C3=CC=C4C[C@@H](O)CC[C@@]4(C)[C@@H]3CC[C@]21C
REMARK SMILES IDX 8 1 9 2 7 3 6 4 4 5 5 6 2 7 1 8 3 9 10 10 11 11 28 12 12 13
REMARK SMILES IDX 13 14 27 15 29 16 14 17 26 18 25 19 15 20 23 21 16 22 17 23
REMARK SMILES IDX 22 24 24 25 18 26 21 27 19 28 20 29
REMARK H PARENT 20 30
REMARK Flexibility Score: inf
ROOT
ATOM      1  C   UNL     1     120.323 119.971 133.826  1.00  0.00     0.012 C 
ATOM      2  C   UNL     1     120.905 119.003 134.880  1.00  0.00     0.012 C 
ENDROOT
BRANCH   1   3
ATOM      3  C   UNL     1     118.811 119.966 133.979  1.00  0.00    -0.028 C 
ATOM      4  C   UNL     1     118.067 121.078 133.840  1.00  0.00    -0.028 C 
BRANCH   4   5
ATOM      5  C   UNL     1     116.563 121.107 134.020  1.00  0.00     0.011 C 
ATOM      6  C   UNL     1     116.052 119.877 134.794  1.00  0.00     0.012 C 
BRANCH   5   7
ATOM      7  C   UNL     1     115.812 121.393 132.683  1.00  0.00    -0.011 C 
ATOM      8  C   UNL     1     116.361 122.591 131.890  1.00  0.00     0.008 C 
ATOM      9  C   UNL     1     115.764 120.149 131.784  1.00  0.00     0.008 C 
ENDBRANCH   5   7
ENDBRANCH   4   5
ENDBRANCH   1   3
BRANCH   1  10
ATOM     10  C   UNL     1     120.764 119.623 132.354  1.00  0.00     0.002 C 
ATOM     11  C   UNL     1     119.859 118.525 131.702  1.00  0.00     0.005 C 
ATOM     12  C   UNL     1     120.723 120.787 131.304  1.00  0.00    -0.023 C 
ATOM     13  C   UNL     1     119.132 119.157 130.510  1.00  0.00     0.009 C 
ATOM     14  C   UNL     1     119.316 120.651 130.720  1.00  0.00     0.021 C 
ATOM     15  C   UNL     1     120.869 122.242 131.812  1.00  0.00     0.008 C 
ATOM     16  C   UNL     1     121.834 120.498 130.241  1.00  0.00     0.012 C 
ATOM     17  C   UNL     1     119.078 121.600 129.565  1.00  0.00    -0.063 C 
ATOM     18  C   UNL     1     120.719 123.263 130.662  1.00  0.00     0.009 C 
ATOM     19  C   UNL     1     119.436 123.066 129.791  1.00  0.00     0.025 C 
ATOM     20  C   UNL     1     118.213 121.283 128.589  1.00  0.00    -0.000 C 
ATOM     21  C   UNL     1     119.458 123.885 128.441  1.00  0.00    -0.005 C 
ATOM     22  C   UNL     1     117.712 122.298 127.649  1.00  0.00    -0.000 C 
ATOM     23  C   UNL     1     118.206 123.546 127.626  1.00  0.00    -0.061 C 
ATOM     24  C   UNL     1     119.488 125.406 128.775  1.00  0.00     0.014 C 
ATOM     25  C   UNL     1     120.687 123.514 127.569  1.00  0.00     0.017 C 
ATOM     26  C   UNL     1     117.713 124.497 126.556  1.00  0.00     0.063 C 
ATOM     27  C   UNL     1     119.139 126.303 127.580  1.00  0.00     0.033 C 
ATOM     28  C   UNL     1     117.755 125.956 127.017  1.00  0.00     0.118 C 
BRANCH  28  29
ATOM     29  O   UNL     1     116.757 126.173 127.982  1.00  0.00    -0.393 OA
ATOM     30  H   UNL     1     117.003 127.004 128.466  1.00  0.00     0.210 HD
ENDBRANCH  28  29
ENDBRANCH   1  10
TORSDOF 5
ENDMDL
MODEL 6
REMARK VINA RESULT:    -6.845      7.926     10.629
REMARK INTER + INTRA:          -9.918
REMARK INTER:                  -9.086
REMARK INTRA:                  -0.833
REMARK UNBOUND:                -1.272
REMARK SMILES CC(C)[C@@H](C)C=C[C@@H](C)[C@H]1CC[C@@H]2C3=CC=C4C[C@@H](O)CC[C@@]4(C)[C@@H]3CC[C@]21C
REMARK SMILES IDX 8 1 9 2 7 3 6 4 4 5 5 6 2 7 1 8 3 9 10 10 11 11 28 12 12 13
REMARK SMILES IDX 13 14 27 15 29 16 14 17 26 18 25 19 15 20 23 21 16 22 17 23
REMARK SMILES IDX 22 24 24 25 18 26 21 27 19 28 20 29
REMARK H PARENT 20 30
REMARK Flexibility Score: inf
ROOT
ATOM      1  C   UNL     1     121.729 120.573 125.684  1.00  0.00     0.012 C 
ATOM      2  C   UNL     1     121.975 120.289 127.183  1.00  0.00     0.012 C 
ENDROOT
BRANCH   1   3
ATOM      3  C   UNL     1     120.400 121.299 125.564  1.00  0.00    -0.028 C 
ATOM      4  C   UNL     1     119.979 122.192 126.478  1.00  0.00    -0.028 C 
BRANCH   4   5
ATOM      5  C   UNL     1     118.644 122.905 126.400  1.00  0.00     0.011 C 
ATOM      6  C   UNL     1     118.811 124.411 126.124  1.00  0.00     0.012 C 
BRANCH   5   7
ATOM      7  C   UNL     1     117.719 122.562 127.608  1.00  0.00    -0.011 C 
ATOM      8  C   UNL     1     116.246 122.958 127.412  1.00  0.00     0.008 C 
ATOM      9  C   UNL     1     117.816 121.078 127.992  1.00  0.00     0.008 C 
ENDBRANCH   5   7
ENDBRANCH   4   5
ENDBRANCH   1   3
BRANCH   1  10
ATOM     10  C   UNL     1     121.770 119.275 124.792  1.00  0.00     0.002 C 
ATOM     11  C   UNL     1     120.672 119.281 123.677  1.00  0.00     0.005 C 
ATOM     12  C   UNL     1     123.090 119.002 123.991  1.00  0.00    -0.023 C 
ATOM     13  C   UNL     1     121.380 119.303 122.318  1.00  0.00     0.009 C 
ATOM     14  C   UNL     1     122.809 119.692 122.655  1.00  0.00     0.021 C 
ATOM     15  C   UNL     1     124.416 119.587 124.536  1.00  0.00     0.008 C 
ATOM     16  C   UNL     1     123.233 117.452 123.837  1.00  0.00     0.012 C 
ATOM     17  C   UNL     1     123.906 119.450 121.641  1.00  0.00    -0.063 C 
ATOM     18  C   UNL     1     125.598 119.300 123.584  1.00  0.00     0.009 C 
ATOM     19  C   UNL     1     125.339 119.709 122.097  1.00  0.00     0.025 C 
ATOM     20  C   UNL     1     123.631 119.446 120.326  1.00  0.00    -0.000 C 
ATOM     21  C   UNL     1     126.398 119.118 121.086  1.00  0.00    -0.005 C 
ATOM     22  C   UNL     1     124.699 119.548 119.320  1.00  0.00    -0.000 C 
ATOM     23  C   UNL     1     125.997 119.498 119.657  1.00  0.00    -0.061 C 
ATOM     24  C   UNL     1     127.801 119.705 121.426  1.00  0.00     0.014 C 
ATOM     25  C   UNL     1     126.447 117.568 121.152  1.00  0.00     0.017 C 
ATOM     26  C   UNL     1     127.031 119.500 118.551  1.00  0.00     0.063 C 
ATOM     27  C   UNL     1     128.835 119.510 120.310  1.00  0.00     0.033 C 
ATOM     28  C   UNL     1     128.351 120.136 118.996  1.00  0.00     0.118 C 
BRANCH  28  29
ATOM     29  O   UNL     1     128.178 121.523 119.140  1.00  0.00    -0.393 OA
ATOM     30  H   UNL     1     128.265 121.917 118.232  1.00  0.00     0.210 HD
ENDBRANCH  28  29
ENDBRANCH   1  10
TORSDOF 5
ENDMDL
MODEL 7
REMARK VINA RESULT:    -6.657      3.554      7.008
REMARK INTER + INTRA:          -9.681
REMARK INTER:                  -7.900
REMARK INTRA:                  -1.781
REMARK UNBOUND:                -1.272
REMARK SMILES CC(C)[C@@H](C)C=C[C@@H](C)[C@H]1CC[C@@H]2C3=CC=C4C[C@@H](O)CC[C@@]4(C)[C@@H]3CC[C@]21C
REMARK SMILES IDX 8 1 9 2 7 3 6 4 4 5 5 6 2 7 1 8 3 9 10 10 11 11 28 12 12 13
REMARK SMILES IDX 13 14 27 15 29 16 14 17 26 18 25 19 15 20 23 21 16 22 17 23
REMARK SMILES IDX 22 24 24 25 18 26 21 27 19 28 20 29
REMARK H PARENT 20 30
REMARK Flexibility Score: inf
ROOT
ATOM      1  C   UNL     1     116.905 125.011 127.672  1.00  0.00     0.012 C 
ATOM      2  C   UNL     1     116.383 126.429 127.994  1.00  0.00     0.012 C 
ENDROOT
BRANCH   1   3
ATOM      3  C   UNL     1     115.803 124.023 128.013  1.00  0.00    -0.028 C 
ATOM      4  C   UNL     1     115.562 122.925 127.274  1.00  0.00    -0.028 C 
BRANCH   4   5
ATOM      5  C   UNL     1     114.448 121.942 127.573  1.00  0.00     0.011 C 
ATOM      6  C   UNL     1     113.170 122.651 128.060  1.00  0.00     0.012 C 
BRANCH   5   7
ATOM      7  C   UNL     1     114.926 120.765 128.478  1.00  0.00    -0.011 C 
ATOM      8  C   UNL     1     116.151 120.006 127.941  1.00  0.00     0.008 C 
ATOM      9  C   UNL     1     115.188 121.229 129.919  1.00  0.00     0.008 C 
ENDBRANCH   5   7
ENDBRANCH   4   5
ENDBRANCH   1   3
BRANCH   1  10
ATOM     10  C   UNL     1     118.252 124.663 128.410  1.00  0.00     0.002 C 
ATOM     11  C   UNL     1     118.015 124.026 129.819  1.00  0.00     0.005 C 
ATOM     12  C   UNL     1     119.205 123.634 127.709  1.00  0.00    -0.023 C 
ATOM     13  C   UNL     1     118.563 122.595 129.789  1.00  0.00     0.009 C 
ATOM     14  C   UNL     1     118.745 122.304 128.309  1.00  0.00     0.021 C 
ATOM     15  C   UNL     1     119.129 123.491 126.169  1.00  0.00     0.008 C 
ATOM     16  C   UNL     1     120.670 123.993 128.123  1.00  0.00     0.012 C 
ATOM     17  C   UNL     1     119.620 121.146 127.880  1.00  0.00    -0.063 C 
ATOM     18  C   UNL     1     120.067 122.376 125.655  1.00  0.00     0.009 C 
ATOM     19  C   UNL     1     119.895 121.004 126.385  1.00  0.00     0.025 C 
ATOM     20  C   UNL     1     119.774 120.075 128.675  1.00  0.00    -0.000 C 
ATOM     21  C   UNL     1     121.063 119.983 126.092  1.00  0.00    -0.005 C 
ATOM     22  C   UNL     1     120.330 118.813 128.163  1.00  0.00    -0.000 C 
ATOM     23  C   UNL     1     120.847 118.717 126.928  1.00  0.00    -0.061 C 
ATOM     24  C   UNL     1     121.058 119.633 124.574  1.00  0.00     0.014 C 
ATOM     25  C   UNL     1     122.445 120.566 126.493  1.00  0.00     0.017 C 
ATOM     26  C   UNL     1     121.498 117.413 126.517  1.00  0.00     0.063 C 
ATOM     27  C   UNL     1     121.886 118.390 124.228  1.00  0.00     0.033 C 
ATOM     28  C   UNL     1     121.394 117.166 125.010  1.00  0.00     0.118 C 
BRANCH  28  29
ATOM     29  O   UNL     1     120.063 116.864 124.675  1.00  0.00    -0.393 OA
ATOM     30  H   UNL     1     119.495 117.548 125.117  1.00  0.00     0.210 HD
ENDBRANCH  28  29
ENDBRANCH   1  10
TORSDOF 5
ENDMDL
MODEL 8
REMARK VINA RESULT:    -6.573      2.530      4.044
REMARK INTER + INTRA:          -9.575
REMARK INTER:                  -7.902
REMARK INTRA:                  -1.672
REMARK UNBOUND:                -1.272
REMARK SMILES CC(C)[C@@H](C)C=C[C@@H](C)[C@H]1CC[C@@H]2C3=CC=C4C[C@@H](O)CC[C@@]4(C)[C@@H]3CC[C@]21C
REMARK SMILES IDX 8 1 9 2 7 3 6 4 4 5 5 6 2 7 1 8 3 9 10 10 11 11 28 12 12 13
REMARK SMILES IDX 13 14 27 15 29 16 14 17 26 18 25 19 15 20 23 21 16 22 17 23
REMARK SMILES IDX 22 24 24 25 18 26 21 27 19 28 20 29
REMARK H PARENT 20 30
REMARK Flexibility Score: inf
ROOT
ATOM      1  C   UNL     1     115.400 121.145 127.927  1.00  0.00     0.012 C 
ATOM      2  C   UNL     1     114.047 120.986 127.198  1.00  0.00     0.012 C 
ENDROOT
BRANCH   1   3
ATOM      3  C   UNL     1     115.117 121.211 129.418  1.00  0.00    -0.028 C 
ATOM      4  C   UNL     1     115.676 120.361 130.298  1.00  0.00    -0.028 C 
BRANCH   4   5
ATOM      5  C   UNL     1     115.385 120.383 131.785  1.00  0.00     0.011 C 
ATOM      6  C   UNL     1     114.474 121.562 132.176  1.00  0.00     0.012 C 
BRANCH   5   7
ATOM      7  C   UNL     1     116.681 120.248 132.643  1.00  0.00    -0.011 C 
ATOM      8  C   UNL     1     117.741 121.327 132.366  1.00  0.00     0.008 C 
ATOM      9  C   UNL     1     116.363 120.200 134.145  1.00  0.00     0.008 C 
ENDBRANCH   5   7
ENDBRANCH   4   5
ENDBRANCH   1   3
BRANCH   1  10
ATOM     10  C   UNL     1     116.228 122.390 127.433  1.00  0.00     0.002 C 
ATOM     11  C   UNL     1     115.703 123.736 128.035  1.00  0.00     0.005 C 
ATOM     12  C   UNL     1     117.756 122.415 127.785  1.00  0.00    -0.023 C 
ATOM     13  C   UNL     1     116.810 124.324 128.916  1.00  0.00     0.009 C 
ATOM     14  C   UNL     1     117.771 123.164 129.118  1.00  0.00     0.021 C 
ATOM     15  C   UNL     1     118.482 121.067 128.010  1.00  0.00     0.008 C 
ATOM     16  C   UNL     1     118.485 123.211 126.652  1.00  0.00     0.012 C 
ATOM     17  C   UNL     1     119.177 123.439 129.608  1.00  0.00    -0.063 C 
ATOM     18  C   UNL     1     119.953 121.276 128.432  1.00  0.00     0.009 C 
ATOM     19  C   UNL     1     120.142 122.257 129.635  1.00  0.00     0.025 C 
ATOM     20  C   UNL     1     119.435 124.509 130.377  1.00  0.00    -0.000 C 
ATOM     21  C   UNL     1     121.638 122.720 129.842  1.00  0.00    -0.005 C 
ATOM     22  C   UNL     1     120.690 124.624 131.134  1.00  0.00    -0.000 C 
ATOM     23  C   UNL     1     121.695 123.747 130.977  1.00  0.00    -0.061 C 
ATOM     24  C   UNL     1     122.505 121.476 130.199  1.00  0.00     0.014 C 
ATOM     25  C   UNL     1     122.204 123.409 128.571  1.00  0.00     0.017 C 
ATOM     26  C   UNL     1     122.994 123.999 131.712  1.00  0.00     0.063 C 
ATOM     27  C   UNL     1     123.878 121.832 130.782  1.00  0.00     0.033 C 
ATOM     28  C   UNL     1     123.734 122.699 132.039  1.00  0.00     0.118 C 
BRANCH  28  29
ATOM     29  O   UNL     1     123.041 122.005 133.045  1.00  0.00    -0.393 OA
ATOM     30  H   UNL     1     122.272 122.575 133.308  1.00  0.00     0.210 HD
ENDBRANCH  28  29
ENDBRANCH   1  10
TORSDOF 5
ENDMDL
MODEL 9
REMARK VINA RESULT:    -6.369      1.657      2.906
REMARK INTER + INTRA:          -9.316
REMARK INTER:                  -7.649
REMARK INTRA:                  -1.667
REMARK UNBOUND:                -1.272
REMARK SMILES CC(C)[C@@H](C)C=C[C@@H](C)[C@H]1CC[C@@H]2C3=CC=C4C[C@@H](O)CC[C@@]4(C)[C@@H]3CC[C@]21C
REMARK SMILES IDX 8 1 9 2 7 3 6 4 4 5 5 6 2 7 1 8 3 9 10 10 11 11 28 12 12 13
REMARK SMILES IDX 13 14 27 15 29 16 14 17 26 18 25 19 15 20 23 21 16 22 17 23
REMARK SMILES IDX 22 24 24 25 18 26 21 27 19 28 20 29
REMARK H PARENT 20 30
REMARK Flexibility Score: inf
ROOT
ATOM      1  C   UNL     1     120.315 118.229 130.438  1.00  0.00     0.012 C 
ATOM      2  C   UNL     1     120.792 116.777 130.663  1.00  0.00     0.012 C 
ENDROOT
BRANCH   1   3
ATOM      3  C   UNL     1     119.402 118.601 131.595  1.00  0.00    -0.028 C 
ATOM      4  C   UNL     1     119.486 119.784 132.229  1.00  0.00    -0.028 C 
BRANCH   4   5
ATOM      5  C   UNL     1     118.611 120.167 133.406  1.00  0.00     0.011 C 
ATOM      6  C   UNL     1     118.767 119.184 134.583  1.00  0.00     0.012 C 
BRANCH   5   7
ATOM      7  C   UNL     1     117.137 120.445 132.981  1.00  0.00    -0.011 C 
ATOM      8  C   UNL     1     116.118 120.360 134.130  1.00  0.00     0.008 C 
ATOM      9  C   UNL     1     117.000 121.793 132.258  1.00  0.00     0.008 C 
ENDBRANCH   5   7
ENDBRANCH   4   5
ENDBRANCH   1   3
BRANCH   1  10
ATOM     10  C   UNL     1     119.611 118.442 129.045  1.00  0.00     0.002 C 
ATOM     11  C   UNL     1     118.136 117.921 129.034  1.00  0.00     0.005 C 
ATOM     12  C   UNL     1     119.472 119.918 128.535  1.00  0.00    -0.023 C 
ATOM     13  C   UNL     1     117.212 119.124 128.814  1.00  0.00     0.009 C 
ATOM     14  C   UNL     1     118.103 120.324 129.083  1.00  0.00     0.021 C 
ATOM     15  C   UNL     1     120.494 120.969 129.033  1.00  0.00     0.008 C 
ATOM     16  C   UNL     1     119.494 119.878 126.971  1.00  0.00     0.012 C 
ATOM     17  C   UNL     1     117.674 121.694 128.602  1.00  0.00    -0.063 C 
ATOM     18  C   UNL     1     120.160 122.382 128.506  1.00  0.00     0.009 C 
ATOM     19  C   UNL     1     118.683 122.829 128.757  1.00  0.00     0.025 C 
ATOM     20  C   UNL     1     116.372 121.993 128.468  1.00  0.00    -0.000 C 
ATOM     21  C   UNL     1     118.263 124.110 127.935  1.00  0.00    -0.005 C 
ATOM     22  C   UNL     1     115.915 123.384 128.330  1.00  0.00    -0.000 C 
ATOM     23  C   UNL     1     116.778 124.402 128.180  1.00  0.00    -0.061 C 
ATOM     24  C   UNL     1     119.132 125.316 128.404  1.00  0.00     0.014 C 
ATOM     25  C   UNL     1     118.442 123.894 126.409  1.00  0.00     0.017 C 
ATOM     26  C   UNL     1     116.224 125.789 127.935  1.00  0.00     0.063 C 
ATOM     27  C   UNL     1     118.581 126.677 127.963  1.00  0.00     0.033 C 
ATOM     28  C   UNL     1     117.149 126.883 128.473  1.00  0.00     0.118 C 
BRANCH  28  29
ATOM     29  O   UNL     1     117.117 126.877 129.878  1.00  0.00    -0.393 OA
ATOM     30  H   UNL     1     117.738 127.590 130.181  1.00  0.00     0.210 HD
ENDBRANCH  28  29
ENDBRANCH   1  10
TORSDOF 5
ENDMDL
