MODEL 1
REMARK VINA RESULT:    -5.482      0.000      0.000
REMARK INTER + INTRA:         -14.799
REMARK INTER:                 -11.892
REMARK INTRA:                  -2.907
REMARK UNBOUND:                -2.907
REMARK SMILES CCCCCCCCCCCCCCCCCCCCCC(=O)[O-]
REMARK SMILES IDX 12 1 11 2 10 3 9 4 8 5 7 6 6 7 5 8 4 9 3 10 2 11 1 12 13 13
REMARK SMILES IDX 14 14 15 15 16 16 17 17 18 18 19 19 20 20 21 21 22 22 23 23
REMARK SMILES IDX 24 24
REMARK H PARENT
REMARK Flexibility Score: inf
ROOT
ATOM      1  C   UNL     1       4.320  45.825   9.395  1.00  0.00     0.000 C 
ENDROOT
BRANCH   1   2
ATOM      2  C   UNL     1       3.609  46.791  10.356  1.00  0.00     0.000 C 
BRANCH   2   3
ATOM      3  C   UNL     1       2.418  47.509   9.696  1.00  0.00     0.000 C 
BRANCH   3   4
ATOM      4  C   UNL     1       2.404  47.348   8.160  1.00  0.00    -0.000 C 
BRANCH   4   5
ATOM      5  C   UNL     1       3.146  48.471   7.411  1.00  0.00    -0.000 C 
BRANCH   5   6
ATOM      6  C   UNL     1       2.795  49.902   7.861  1.00  0.00    -0.000 C 
BRANCH   6   7
ATOM      7  C   UNL     1       3.965  50.701   8.465  1.00  0.00    -0.000 C 
BRANCH   7   8
ATOM      8  C   UNL     1       4.049  50.575   9.994  1.00  0.00    -0.000 C 
BRANCH   8   9
ATOM      9  C   UNL     1       5.458  50.154  10.437  1.00  0.00    -0.000 C 
BRANCH   9  10
ATOM     10  C   UNL     1       6.427  50.010   9.244  1.00  0.00    -0.000 C 
BRANCH  10  11
ATOM     11  C   UNL     1       6.533  48.574   8.705  1.00  0.00    -0.003 C 
ATOM     12  C   UNL     1       7.422  47.676   9.563  1.00  0.00     0.004 C 
ENDBRANCH  10  11
ENDBRANCH   9  10
ENDBRANCH   8   9
ENDBRANCH   7   8
ENDBRANCH   6   7
ENDBRANCH   5   6
ENDBRANCH   4   5
ENDBRANCH   3   4
ENDBRANCH   2   3
ENDBRANCH   1   2
BRANCH   1  13
ATOM     13  C   UNL     1       4.392  44.390   9.947  1.00  0.00     0.000 C 
BRANCH  13  14
ATOM     14  C   UNL     1       3.790  43.350   8.986  1.00  0.00     0.000 C 
BRANCH  14  15
ATOM     15  C   UNL     1       2.411  42.798   9.404  1.00  0.00     0.000 C 
BRANCH  15  16
ATOM     16  C   UNL     1       1.350  43.869   9.727  1.00  0.00     0.000 C 
BRANCH  16  17
ATOM     17  C   UNL     1       0.961  43.967  11.216  1.00  0.00     0.000 C 
BRANCH  17  18
ATOM     18  C   UNL     1       1.782  43.070  12.164  1.00  0.00     0.000 C 
BRANCH  18  19
ATOM     19  C   UNL     1       0.956  42.081  13.007  1.00  0.00     0.000 C 
BRANCH  19  20
ATOM     20  C   UNL     1       1.515  40.647  12.968  1.00  0.00     0.006 C 
BRANCH  20  21
ATOM     21  C   UNL     1       2.941  40.598  12.403  1.00  0.00     0.053 C 
BRANCH  21  22
ATOM     22  C   UNL     1       3.649  39.334  12.786  1.00  0.00     0.041 C 
ATOM     23  O   UNL     1       3.144  38.216  12.503  1.00  0.00    -0.550 OA
ATOM     24  O   UNL     1       4.852  39.389  13.479  1.00  0.00    -0.550 OA
ENDBRANCH  21  22
ENDBRANCH  20  21
ENDBRANCH  19  20
ENDBRANCH  18  19
ENDBRANCH  17  18
ENDBRANCH  16  17
ENDBRANCH  15  16
ENDBRANCH  14  15
ENDBRANCH  13  14
ENDBRANCH   1  13
TORSDOF 20
ENDMDL
MODEL 2
REMARK VINA RESULT:    -5.471      1.427      3.986
REMARK INTER + INTRA:         -14.774
REMARK INTER:                 -12.220
REMARK INTRA:                  -2.554
REMARK UNBOUND:                -2.907
REMARK SMILES CCCCCCCCCCCCCCCCCCCCCC(=O)[O-]
REMARK SMILES IDX 12 1 11 2 10 3 9 4 8 5 7 6 6 7 5 8 4 9 3 10 2 11 1 12 13 13
REMARK SMILES IDX 14 14 15 15 16 16 17 17 18 18 19 19 20 20 21 21 22 22 23 23
REMARK SMILES IDX 24 24
REMARK H PARENT
REMARK Flexibility Score: inf
ROOT
ATOM      1  C   UNL     1       6.540  47.736   9.372  1.00  0.00     0.000 C 
ENDROOT
BRANCH   1   2
ATOM      2  C   UNL     1       6.302  49.091   8.689  1.00  0.00     0.000 C 
BRANCH   2   3
ATOM      3  C   UNL     1       5.571  50.091   9.603  1.00  0.00     0.000 C 
BRANCH   3   4
ATOM      4  C   UNL     1       4.348  50.740   8.917  1.00  0.00    -0.000 C 
BRANCH   4   5
ATOM      5  C   UNL     1       3.641  49.818   7.906  1.00  0.00    -0.000 C 
BRANCH   5   6
ATOM      6  C   UNL     1       2.145  50.111   7.688  1.00  0.00    -0.000 C 
BRANCH   6   7
ATOM      7  C   UNL     1       1.233  48.869   7.669  1.00  0.00    -0.000 C 
BRANCH   7   8
ATOM      8  C   UNL     1       2.010  47.555   7.840  1.00  0.00    -0.000 C 
BRANCH   8   9
ATOM      9  C   UNL     1       1.264  46.590   8.775  1.00  0.00    -0.000 C 
BRANCH   9  10
ATOM     10  C   UNL     1      -0.027  46.037   8.136  1.00  0.00    -0.000 C 
BRANCH  10  11
ATOM     11  C   UNL     1       0.135  44.630   7.536  1.00  0.00    -0.003 C 
ATOM     12  C   UNL     1      -0.735  44.401   6.302  1.00  0.00     0.004 C 
ENDBRANCH  10  11
ENDBRANCH   9  10
ENDBRANCH   8   9
ENDBRANCH   7   8
ENDBRANCH   6   7
ENDBRANCH   5   6
ENDBRANCH   4   5
ENDBRANCH   3   4
ENDBRANCH   2   3
ENDBRANCH   1   2
BRANCH   1  13
ATOM     13  C   UNL     1       5.344  46.779   9.218  1.00  0.00     0.000 C 
BRANCH  13  14
ATOM     14  C   UNL     1       4.481  46.692  10.490  1.00  0.00     0.000 C 
BRANCH  14  15
ATOM     15  C   UNL     1       4.035  45.268  10.878  1.00  0.00     0.000 C 
BRANCH  15  16
ATOM     16  C   UNL     1       4.109  44.228   9.742  1.00  0.00     0.000 C 
BRANCH  16  17
ATOM     17  C   UNL     1       2.919  43.250   9.681  1.00  0.00     0.000 C 
BRANCH  17  18
ATOM     18  C   UNL     1       1.820  43.495  10.735  1.00  0.00     0.000 C 
BRANCH  18  19
ATOM     19  C   UNL     1       1.921  42.626  12.001  1.00  0.00     0.000 C 
BRANCH  19  20
ATOM     20  C   UNL     1       2.794  41.374  11.802  1.00  0.00     0.006 C 
BRANCH  20  21
ATOM     21  C   UNL     1       2.428  40.253  12.785  1.00  0.00     0.053 C 
BRANCH  21  22
ATOM     22  C   UNL     1       3.408  39.120  12.728  1.00  0.00     0.041 C 
ATOM     23  O   UNL     1       3.044  37.990  12.308  1.00  0.00    -0.550 OA
ATOM     24  O   UNL     1       4.713  39.304  13.164  1.00  0.00    -0.550 OA
ENDBRANCH  21  22
ENDBRANCH  20  21
ENDBRANCH  19  20
ENDBRANCH  18  19
ENDBRANCH  17  18
ENDBRANCH  16  17
ENDBRANCH  15  16
ENDBRANCH  14  15
ENDBRANCH  13  14
ENDBRANCH   1  13
TORSDOF 20
ENDMDL
MODEL 3
REMARK VINA RESULT:    -5.389      1.233      2.264
REMARK INTER + INTRA:         -14.596
REMARK INTER:                 -12.088
REMARK INTRA:                  -2.508
REMARK UNBOUND:                -2.907
REMARK SMILES CCCCCCCCCCCCCCCCCCCCCC(=O)[O-]
REMARK SMILES IDX 12 1 11 2 10 3 9 4 8 5 7 6 6 7 5 8 4 9 3 10 2 11 1 12 13 13
REMARK SMILES IDX 14 14 15 15 16 16 17 17 18 18 19 19 20 20 21 21 22 22 23 23
REMARK SMILES IDX 24 24
REMARK H PARENT
REMARK Flexibility Score: inf
ROOT
ATOM      1  C   UNL     1       1.271  44.109   9.230  1.00  0.00     0.000 C 
ENDROOT
BRANCH   1   2
ATOM      2  C   UNL     1       0.498  44.642   8.013  1.00  0.00     0.000 C 
BRANCH   2   3
ATOM      3  C   UNL     1      -0.204  45.981   8.302  1.00  0.00     0.000 C 
BRANCH   3   4
ATOM      4  C   UNL     1       0.404  47.156   7.504  1.00  0.00    -0.000 C 
BRANCH   4   5
ATOM      5  C   UNL     1       1.858  47.484   7.892  1.00  0.00    -0.000 C 
BRANCH   5   6
ATOM      6  C   UNL     1       2.085  47.783   9.386  1.00  0.00    -0.000 C 
BRANCH   6   7
ATOM      7  C   UNL     1       2.252  49.274   9.735  1.00  0.00    -0.000 C 
BRANCH   7   8
ATOM      8  C   UNL     1       3.406  49.533  10.715  1.00  0.00    -0.000 C 
BRANCH   8   9
ATOM      9  C   UNL     1       4.468  50.449  10.088  1.00  0.00    -0.000 C 
BRANCH   9  10
ATOM     10  C   UNL     1       5.897  49.895  10.267  1.00  0.00    -0.000 C 
BRANCH  10  11
ATOM     11  C   UNL     1       6.437  49.164   9.027  1.00  0.00    -0.003 C 
ATOM     12  C   UNL     1       6.255  47.649   9.097  1.00  0.00     0.004 C 
ENDBRANCH  10  11
ENDBRANCH   9  10
ENDBRANCH   8   9
ENDBRANCH   7   8
ENDBRANCH   6   7
ENDBRANCH   5   6
ENDBRANCH   4   5
ENDBRANCH   3   4
ENDBRANCH   2   3
ENDBRANCH   1   2
BRANCH   1  13
ATOM     13  C   UNL     1       2.225  42.958   8.866  1.00  0.00     0.000 C 
BRANCH  13  14
ATOM     14  C   UNL     1       3.707  43.329   9.049  1.00  0.00     0.000 C 
BRANCH  14  15
ATOM     15  C   UNL     1       3.964  44.787   9.482  1.00  0.00     0.000 C 
BRANCH  15  16
ATOM     16  C   UNL     1       4.217  44.986  10.990  1.00  0.00     0.000 C 
BRANCH  16  17
ATOM     17  C   UNL     1       3.927  43.749  11.864  1.00  0.00     0.000 C 
BRANCH  17  18
ATOM     18  C   UNL     1       2.515  43.706  12.484  1.00  0.00     0.000 C 
BRANCH  18  19
ATOM     19  C   UNL     1       1.797  42.349  12.384  1.00  0.00     0.000 C 
BRANCH  19  20
ATOM     20  C   UNL     1       2.751  41.188  12.049  1.00  0.00     0.006 C 
BRANCH  20  21
ATOM     21  C   UNL     1       2.386  39.904  12.806  1.00  0.00     0.053 C 
BRANCH  21  22
ATOM     22  C   UNL     1       3.446  38.854  12.666  1.00  0.00     0.041 C 
ATOM     23  O   UNL     1       4.620  39.085  13.058  1.00  0.00    -0.550 OA
ATOM     24  O   UNL     1       3.145  37.631  12.079  1.00  0.00    -0.550 OA
ENDBRANCH  21  22
ENDBRANCH  20  21
ENDBRANCH  19  20
ENDBRANCH  18  19
ENDBRANCH  17  18
ENDBRANCH  16  17
ENDBRANCH  15  16
ENDBRANCH  14  15
ENDBRANCH  13  14
ENDBRANCH   1  13
TORSDOF 20
ENDMDL
MODEL 4
REMARK VINA RESULT:    -5.302      1.450      3.710
REMARK INTER + INTRA:         -14.409
REMARK INTER:                 -11.637
REMARK INTRA:                  -2.771
REMARK UNBOUND:                -2.907
REMARK SMILES CCCCCCCCCCCCCCCCCCCCCC(=O)[O-]
REMARK SMILES IDX 12 1 11 2 10 3 9 4 8 5 7 6 6 7 5 8 4 9 3 10 2 11 1 12 13 13
REMARK SMILES IDX 14 14 15 15 16 16 17 17 18 18 19 19 20 20 21 21 22 22 23 23
REMARK SMILES IDX 24 24
REMARK H PARENT
REMARK Flexibility Score: inf
ROOT
ATOM      1  C   UNL     1       4.605  47.428  10.391  1.00  0.00     0.000 C 
ENDROOT
BRANCH   1   2
ATOM      2  C   UNL     1       5.835  47.516   9.473  1.00  0.00     0.000 C 
BRANCH   2   3
ATOM      3  C   UNL     1       5.804  48.757   8.564  1.00  0.00     0.000 C 
BRANCH   3   4
ATOM      4  C   UNL     1       5.036  49.939   9.196  1.00  0.00    -0.000 C 
BRANCH   4   5
ATOM      5  C   UNL     1       3.741  50.310   8.449  1.00  0.00    -0.000 C 
BRANCH   5   6
ATOM      6  C   UNL     1       3.263  49.274   7.414  1.00  0.00    -0.000 C 
BRANCH   6   7
ATOM      7  C   UNL     1       1.843  48.725   7.649  1.00  0.00    -0.000 C 
BRANCH   7   8
ATOM      8  C   UNL     1       1.822  47.211   7.904  1.00  0.00    -0.000 C 
BRANCH   8   9
ATOM      9  C   UNL     1       0.807  46.849   9.000  1.00  0.00    -0.000 C 
BRANCH   9  10
ATOM     10  C   UNL     1      -0.362  46.000   8.458  1.00  0.00    -0.000 C 
BRANCH  10  11
ATOM     11  C   UNL     1       0.074  44.918   7.457  1.00  0.00    -0.003 C 
ATOM     12  C   UNL     1      -0.940  44.695   6.336  1.00  0.00     0.004 C 
ENDBRANCH  10  11
ENDBRANCH   9  10
ENDBRANCH   8   9
ENDBRANCH   7   8
ENDBRANCH   6   7
ENDBRANCH   5   6
ENDBRANCH   4   5
ENDBRANCH   3   4
ENDBRANCH   2   3
ENDBRANCH   1   2
BRANCH   1  13
ATOM     13  C   UNL     1       4.166  45.977  10.652  1.00  0.00     0.000 C 
BRANCH  13  14
ATOM     14  C   UNL     1       4.253  45.091   9.397  1.00  0.00     0.000 C 
BRANCH  14  15
ATOM     15  C   UNL     1       3.970  43.594   9.635  1.00  0.00     0.000 C 
BRANCH  15  16
ATOM     16  C   UNL     1       2.502  43.168   9.438  1.00  0.00     0.000 C 
BRANCH  16  17
ATOM     17  C   UNL     1       1.564  43.513  10.612  1.00  0.00     0.000 C 
BRANCH  17  18
ATOM     18  C   UNL     1       2.041  43.018  11.993  1.00  0.00     0.000 C 
BRANCH  18  19
ATOM     19  C   UNL     1       1.063  42.082  12.726  1.00  0.00     0.000 C 
BRANCH  19  20
ATOM     20  C   UNL     1       1.654  40.687  12.994  1.00  0.00     0.006 C 
BRANCH  20  21
ATOM     21  C   UNL     1       3.034  40.510  12.346  1.00  0.00     0.053 C 
BRANCH  21  22
ATOM     22  C   UNL     1       3.680  39.221  12.753  1.00  0.00     0.041 C 
ATOM     23  O   UNL     1       3.091  38.127  12.551  1.00  0.00    -0.550 OA
ATOM     24  O   UNL     1       4.919  39.228  13.381  1.00  0.00    -0.550 OA
ENDBRANCH  21  22
ENDBRANCH  20  21
ENDBRANCH  19  20
ENDBRANCH  18  19
ENDBRANCH  17  18
ENDBRANCH  16  17
ENDBRANCH  15  16
ENDBRANCH  14  15
ENDBRANCH  13  14
ENDBRANCH   1  13
TORSDOF 20
ENDMDL
MODEL 5
REMARK VINA RESULT:    -5.281      1.303      2.137
REMARK INTER + INTRA:         -14.362
REMARK INTER:                 -11.598
REMARK INTRA:                  -2.764
REMARK UNBOUND:                -2.907
REMARK SMILES CCCCCCCCCCCCCCCCCCCCCC(=O)[O-]
REMARK SMILES IDX 12 1 11 2 10 3 9 4 8 5 7 6 6 7 5 8 4 9 3 10 2 11 1 12 13 13
REMARK SMILES IDX 14 14 15 15 16 16 17 17 18 18 19 19 20 20 21 21 22 22 23 23
REMARK SMILES IDX 24 24
REMARK H PARENT
REMARK Flexibility Score: inf
ROOT
ATOM      1  C   UNL     1       0.305  46.159   7.790  1.00  0.00     0.000 C 
ENDROOT
BRANCH   1   2
ATOM      2  C   UNL     1       0.520  46.959   9.084  1.00  0.00     0.000 C 
BRANCH   2   3
ATOM      3  C   UNL     1       1.761  47.867   9.016  1.00  0.00     0.000 C 
BRANCH   3   4
ATOM      4  C   UNL     1       2.827  47.345   8.027  1.00  0.00    -0.000 C 
BRANCH   4   5
ATOM      5  C   UNL     1       3.503  48.455   7.200  1.00  0.00    -0.000 C 
BRANCH   5   6
ATOM      6  C   UNL     1       3.098  49.892   7.577  1.00  0.00    -0.000 C 
BRANCH   6   7
ATOM      7  C   UNL     1       4.172  50.695   8.336  1.00  0.00    -0.000 C 
BRANCH   7   8
ATOM      8  C   UNL     1       4.148  50.442   9.851  1.00  0.00    -0.000 C 
BRANCH   8   9
ATOM      9  C   UNL     1       5.471  49.825  10.329  1.00  0.00    -0.000 C 
BRANCH   9  10
ATOM     10  C   UNL     1       6.426  49.511   9.159  1.00  0.00    -0.000 C 
BRANCH  10  11
ATOM     11  C   UNL     1       6.785  48.020   9.038  1.00  0.00    -0.003 C 
ATOM     12  C   UNL     1       5.797  47.106   9.760  1.00  0.00     0.004 C 
ENDBRANCH  10  11
ENDBRANCH   9  10
ENDBRANCH   8   9
ENDBRANCH   7   8
ENDBRANCH   6   7
ENDBRANCH   5   6
ENDBRANCH   4   5
ENDBRANCH   3   4
ENDBRANCH   2   3
ENDBRANCH   1   2
BRANCH   1  13
ATOM     13  C   UNL     1       0.257  44.641   8.036  1.00  0.00     0.000 C 
BRANCH  13  14
ATOM     14  C   UNL     1       1.069  44.209   9.269  1.00  0.00     0.000 C 
BRANCH  14  15
ATOM     15  C   UNL     1       2.273  43.293   8.968  1.00  0.00     0.000 C 
BRANCH  15  16
ATOM     16  C   UNL     1       3.631  43.808   9.486  1.00  0.00     0.000 C 
BRANCH  16  17
ATOM     17  C   UNL     1       3.583  44.479  10.872  1.00  0.00     0.000 C 
BRANCH  17  18
ATOM     18  C   UNL     1       3.183  43.548  12.034  1.00  0.00     0.000 C 
BRANCH  18  19
ATOM     19  C   UNL     1       3.894  42.183  12.054  1.00  0.00     0.000 C 
BRANCH  19  20
ATOM     20  C   UNL     1       2.917  40.995  11.990  1.00  0.00     0.006 C 
BRANCH  20  21
ATOM     21  C   UNL     1       3.450  39.768  12.742  1.00  0.00     0.053 C 
BRANCH  21  22
ATOM     22  C   UNL     1       2.544  38.584  12.589  1.00  0.00     0.041 C 
ATOM     23  O   UNL     1       2.940  37.561  11.972  1.00  0.00    -0.550 OA
ATOM     24  O   UNL     1       1.254  38.621  13.103  1.00  0.00    -0.550 OA
ENDBRANCH  21  22
ENDBRANCH  20  21
ENDBRANCH  19  20
ENDBRANCH  18  19
ENDBRANCH  17  18
ENDBRANCH  16  17
ENDBRANCH  15  16
ENDBRANCH  14  15
ENDBRANCH  13  14
ENDBRANCH   1  13
TORSDOF 20
ENDMDL
MODEL 6
REMARK VINA RESULT:    -5.206      3.011      7.466
REMARK INTER + INTRA:         -14.200
REMARK INTER:                 -11.299
REMARK INTRA:                  -2.901
REMARK UNBOUND:                -2.907
REMARK SMILES CCCCCCCCCCCCCCCCCCCCCC(=O)[O-]
REMARK SMILES IDX 12 1 11 2 10 3 9 4 8 5 7 6 6 7 5 8 4 9 3 10 2 11 1 12 13 13
REMARK SMILES IDX 14 14 15 15 16 16 17 17 18 18 19 19 20 20 21 21 22 22 23 23
REMARK SMILES IDX 24 24
REMARK H PARENT
REMARK Flexibility Score: inf
ROOT
ATOM      1  C   UNL     1      -0.018  45.465   7.966  1.00  0.00     0.000 C 
ENDROOT
BRANCH   1   2
ATOM      2  C   UNL     1       0.485  44.016   7.867  1.00  0.00     0.000 C 
BRANCH   2   3
ATOM      3  C   UNL     1       1.395  43.626   9.045  1.00  0.00     0.000 C 
BRANCH   3   4
ATOM      4  C   UNL     1       2.738  43.017   8.583  1.00  0.00    -0.000 C 
BRANCH   4   5
ATOM      5  C   UNL     1       3.971  43.646   9.260  1.00  0.00    -0.000 C 
BRANCH   5   6
ATOM      6  C   UNL     1       3.762  45.071   9.807  1.00  0.00    -0.000 C 
BRANCH   6   7
ATOM      7  C   UNL     1       4.073  45.247  11.305  1.00  0.00    -0.000 C 
BRANCH   7   8
ATOM      8  C   UNL     1       3.849  43.962  12.117  1.00  0.00    -0.000 C 
BRANCH   8   9
ATOM      9  C   UNL     1       2.352  43.716  12.361  1.00  0.00    -0.000 C 
BRANCH   9  10
ATOM     10  C   UNL     1       1.964  42.235  12.169  1.00  0.00    -0.000 C 
BRANCH  10  11
ATOM     11  C   UNL     1       3.171  41.288  12.068  1.00  0.00    -0.003 C 
ATOM     12  C   UNL     1       2.861  39.869  12.541  1.00  0.00     0.004 C 
ENDBRANCH  10  11
ENDBRANCH   9  10
ENDBRANCH   8   9
ENDBRANCH   7   8
ENDBRANCH   6   7
ENDBRANCH   5   6
ENDBRANCH   4   5
ENDBRANCH   3   4
ENDBRANCH   2   3
ENDBRANCH   1   2
BRANCH   1  13
ATOM     13  C   UNL     1       0.168  46.059   9.374  1.00  0.00     0.000 C 
BRANCH  13  14
ATOM     14  C   UNL     1       0.836  47.445   9.353  1.00  0.00     0.000 C 
BRANCH  14  15
ATOM     15  C   UNL     1       1.779  47.696   8.158  1.00  0.00     0.000 C 
BRANCH  15  16
ATOM     16  C   UNL     1       1.962  49.178   7.772  1.00  0.00     0.000 C 
BRANCH  16  17
ATOM     17  C   UNL     1       3.381  49.553   7.302  1.00  0.00     0.000 C 
BRANCH  17  18
ATOM     18  C   UNL     1       4.123  50.556   8.208  1.00  0.00     0.000 C 
BRANCH  18  19
ATOM     19  C   UNL     1       3.829  50.421   9.713  1.00  0.00     0.000 C 
BRANCH  19  20
ATOM     20  C   UNL     1       4.830  49.506  10.440  1.00  0.00     0.006 C 
BRANCH  20  21
ATOM     21  C   UNL     1       6.191  49.458   9.731  1.00  0.00     0.053 C 
BRANCH  21  22
ATOM     22  C   UNL     1       6.566  48.062   9.337  1.00  0.00     0.041 C 
ATOM     23  O   UNL     1       5.764  47.356   8.671  1.00  0.00    -0.550 OA
ATOM     24  O   UNL     1       7.788  47.531   9.728  1.00  0.00    -0.550 OA
ENDBRANCH  21  22
ENDBRANCH  20  21
ENDBRANCH  19  20
ENDBRANCH  18  19
ENDBRANCH  17  18
ENDBRANCH  16  17
ENDBRANCH  15  16
ENDBRANCH  14  15
ENDBRANCH  13  14
ENDBRANCH   1  13
TORSDOF 20
ENDMDL
MODEL 7
REMARK VINA RESULT:    -5.179      2.642      7.775
REMARK INTER + INTRA:         -14.140
REMARK INTER:                 -11.914
REMARK INTRA:                  -2.227
REMARK UNBOUND:                -2.907
REMARK SMILES CCCCCCCCCCCCCCCCCCCCCC(=O)[O-]
REMARK SMILES IDX 12 1 11 2 10 3 9 4 8 5 7 6 6 7 5 8 4 9 3 10 2 11 1 12 13 13
REMARK SMILES IDX 14 14 15 15 16 16 17 17 18 18 19 19 20 20 21 21 22 22 23 23
REMARK SMILES IDX 24 24
REMARK H PARENT
REMARK Flexibility Score: inf
ROOT
ATOM      1  C   UNL     1       6.520  47.753   9.273  1.00  0.00     0.000 C 
ENDROOT
BRANCH   1   2
ATOM      2  C   UNL     1       5.198  47.267   9.887  1.00  0.00     0.000 C 
BRANCH   2   3
ATOM      3  C   UNL     1       4.479  46.236   8.998  1.00  0.00     0.000 C 
BRANCH   3   4
ATOM      4  C   UNL     1       4.148  44.929   9.751  1.00  0.00    -0.000 C 
BRANCH   4   5
ATOM      5  C   UNL     1       4.064  45.098  11.280  1.00  0.00    -0.000 C 
BRANCH   5   6
ATOM      6  C   UNL     1       3.546  43.867  12.047  1.00  0.00    -0.000 C 
BRANCH   6   7
ATOM      7  C   UNL     1       3.273  42.625  11.178  1.00  0.00    -0.000 C 
BRANCH   7   8
ATOM      8  C   UNL     1       3.028  41.356  12.010  1.00  0.00    -0.000 C 
BRANCH   8   9
ATOM      9  C   UNL     1       4.355  40.703  12.425  1.00  0.00    -0.000 C 
BRANCH   9  10
ATOM     10  C   UNL     1       4.150  39.313  13.062  1.00  0.00    -0.000 C 
BRANCH  10  11
ATOM     11  C   UNL     1       2.778  38.690  12.756  1.00  0.00    -0.003 C 
ATOM     12  C   UNL     1       2.868  37.447  11.871  1.00  0.00     0.004 C 
ENDBRANCH  10  11
ENDBRANCH   9  10
ENDBRANCH   8   9
ENDBRANCH   7   8
ENDBRANCH   6   7
ENDBRANCH   5   6
ENDBRANCH   4   5
ENDBRANCH   3   4
ENDBRANCH   2   3
ENDBRANCH   1   2
BRANCH   1  13
ATOM     13  C   UNL     1       6.536  49.273   9.031  1.00  0.00     0.000 C 
BRANCH  13  14
ATOM     14  C   UNL     1       5.768  50.056  10.110  1.00  0.00     0.000 C 
BRANCH  14  15
ATOM     15  C   UNL     1       4.646  50.971   9.575  1.00  0.00     0.000 C 
BRANCH  15  16
ATOM     16  C   UNL     1       4.237  50.715   8.110  1.00  0.00     0.000 C 
BRANCH  16  17
ATOM     17  C   UNL     1       2.743  50.399   7.901  1.00  0.00     0.000 C 
BRANCH  17  18
ATOM     18  C   UNL     1       2.434  48.938   7.518  1.00  0.00     0.000 C 
BRANCH  18  19
ATOM     19  C   UNL     1       1.369  48.244   8.387  1.00  0.00     0.000 C 
BRANCH  19  20
ATOM     20  C   UNL     1       0.788  46.980   7.729  1.00  0.00     0.006 C 
BRANCH  20  21
ATOM     21  C   UNL     1       0.725  45.798   8.706  1.00  0.00     0.053 C 
BRANCH  21  22
ATOM     22  C   UNL     1       0.514  44.497   7.993  1.00  0.00     0.041 C 
ATOM     23  O   UNL     1      -0.272  44.434   7.012  1.00  0.00    -0.550 OA
ATOM     24  O   UNL     1       1.162  43.348   8.429  1.00  0.00    -0.550 OA
ENDBRANCH  21  22
ENDBRANCH  20  21
ENDBRANCH  19  20
ENDBRANCH  18  19
ENDBRANCH  17  18
ENDBRANCH  16  17
ENDBRANCH  15  16
ENDBRANCH  14  15
ENDBRANCH  13  14
ENDBRANCH   1  13
TORSDOF 20
ENDMDL
MODEL 8
REMARK VINA RESULT:    -5.100      1.269      2.606
REMARK INTER + INTRA:         -13.971
REMARK INTER:                 -11.859
REMARK INTRA:                  -2.112
REMARK UNBOUND:                -2.907
REMARK SMILES CCCCCCCCCCCCCCCCCCCCCC(=O)[O-]
REMARK SMILES IDX 12 1 11 2 10 3 9 4 8 5 7 6 6 7 5 8 4 9 3 10 2 11 1 12 13 13
REMARK SMILES IDX 14 14 15 15 16 16 17 17 18 18 19 19 20 20 21 21 22 22 23 23
REMARK SMILES IDX 24 24
REMARK H PARENT
REMARK Flexibility Score: inf
ROOT
ATOM      1  C   UNL     1       1.432  47.269   8.432  1.00  0.00     0.000 C 
ENDROOT
BRANCH   1   2
ATOM      2  C   UNL     1       1.536  48.747   8.840  1.00  0.00     0.000 C 
BRANCH   2   3
ATOM      3  C   UNL     1       1.095  49.700   7.715  1.00  0.00     0.000 C 
BRANCH   3   4
ATOM      4  C   UNL     1       2.199  50.707   7.321  1.00  0.00    -0.000 C 
BRANCH   4   5
ATOM      5  C   UNL     1       3.621  50.245   7.693  1.00  0.00    -0.000 C 
BRANCH   5   6
ATOM      6  C   UNL     1       4.322  51.089   8.774  1.00  0.00    -0.000 C 
BRANCH   6   7
ATOM      7  C   UNL     1       4.702  50.322  10.055  1.00  0.00    -0.000 C 
BRANCH   7   8
ATOM      8  C   UNL     1       6.204  50.015  10.144  1.00  0.00    -0.000 C 
BRANCH   8   9
ATOM      9  C   UNL     1       6.648  49.093   8.999  1.00  0.00    -0.000 C 
BRANCH   9  10
ATOM     10  C   UNL     1       6.522  47.600   9.367  1.00  0.00    -0.000 C 
BRANCH  10  11
ATOM     11  C   UNL     1       5.140  47.002   9.057  1.00  0.00    -0.003 C 
ATOM     12  C   UNL     1       4.693  45.962  10.084  1.00  0.00     0.004 C 
ENDBRANCH  10  11
ENDBRANCH   9  10
ENDBRANCH   8   9
ENDBRANCH   7   8
ENDBRANCH   6   7
ENDBRANCH   5   6
ENDBRANCH   4   5
ENDBRANCH   3   4
ENDBRANCH   2   3
ENDBRANCH   1   2
BRANCH   1  13
ATOM     13  C   UNL     1       0.230  46.993   7.511  1.00  0.00     0.000 C 
BRANCH  13  14
ATOM     14  C   UNL     1      -0.074  45.493   7.360  1.00  0.00     0.000 C 
BRANCH  14  15
ATOM     15  C   UNL     1       0.327  44.621   8.567  1.00  0.00     0.000 C 
BRANCH  15  16
ATOM     16  C   UNL     1       1.363  43.520   8.263  1.00  0.00     0.000 C 
BRANCH  16  17
ATOM     17  C   UNL     1       2.236  43.103   9.462  1.00  0.00     0.000 C 
BRANCH  17  18
ATOM     18  C   UNL     1       1.808  43.699  10.818  1.00  0.00     0.000 C 
BRANCH  18  19
ATOM     19  C   UNL     1       1.726  42.692  11.980  1.00  0.00     0.000 C 
BRANCH  19  20
ATOM     20  C   UNL     1       2.782  41.577  11.884  1.00  0.00     0.006 C 
BRANCH  20  21
ATOM     21  C   UNL     1       2.420  40.362  12.748  1.00  0.00     0.053 C 
BRANCH  21  22
ATOM     22  C   UNL     1       3.513  39.336  12.755  1.00  0.00     0.041 C 
ATOM     23  O   UNL     1       3.263  38.145  12.435  1.00  0.00    -0.550 OA
ATOM     24  O   UNL     1       4.800  39.690  13.140  1.00  0.00    -0.550 OA
ENDBRANCH  21  22
ENDBRANCH  20  21
ENDBRANCH  19  20
ENDBRANCH  18  19
ENDBRANCH  17  18
ENDBRANCH  16  17
ENDBRANCH  15  16
ENDBRANCH  14  15
ENDBRANCH  13  14
ENDBRANCH   1  13
TORSDOF 20
ENDMDL
MODEL 9
REMARK VINA RESULT:    -5.002      2.895      7.525
REMARK INTER + INTRA:         -13.757
REMARK INTER:                 -10.970
REMARK INTRA:                  -2.788
REMARK UNBOUND:                -2.907
REMARK SMILES CCCCCCCCCCCCCCCCCCCCCC(=O)[O-]
REMARK SMILES IDX 12 1 11 2 10 3 9 4 8 5 7 6 6 7 5 8 4 9 3 10 2 11 1 12 13 13
REMARK SMILES IDX 14 14 15 15 16 16 17 17 18 18 19 19 20 20 21 21 22 22 23 23
REMARK SMILES IDX 24 24
REMARK H PARENT
REMARK Flexibility Score: inf
ROOT
ATOM      1  C   UNL     1       5.286  47.171   9.943  1.00  0.00     0.000 C 
ENDROOT
BRANCH   1   2
ATOM      2  C   UNL     1       4.414  46.131   9.222  1.00  0.00     0.000 C 
BRANCH   2   3
ATOM      3  C   UNL     1       4.396  44.773   9.947  1.00  0.00     0.000 C 
BRANCH   3   4
ATOM      4  C   UNL     1       3.731  43.660   9.108  1.00  0.00    -0.000 C 
BRANCH   4   5
ATOM      5  C   UNL     1       2.308  43.297   9.575  1.00  0.00    -0.000 C 
BRANCH   5   6
ATOM      6  C   UNL     1       1.765  44.145  10.741  1.00  0.00    -0.000 C 
BRANCH   6   7
ATOM      7  C   UNL     1       1.922  43.511  12.136  1.00  0.00    -0.000 C 
BRANCH   7   8
ATOM      8  C   UNL     1       1.327  42.097  12.220  1.00  0.00    -0.000 C 
BRANCH   8   9
ATOM      9  C   UNL     1       2.398  41.070  12.618  1.00  0.00    -0.000 C 
BRANCH   9  10
ATOM     10  C   UNL     1       3.828  41.577  12.338  1.00  0.00    -0.000 C 
BRANCH  10  11
ATOM     11  C   UNL     1       4.924  40.553  12.674  1.00  0.00    -0.003 C 
ATOM     12  C   UNL     1       4.365  39.197  13.103  1.00  0.00     0.004 C 
ENDBRANCH  10  11
ENDBRANCH   9  10
ENDBRANCH   8   9
ENDBRANCH   7   8
ENDBRANCH   6   7
ENDBRANCH   5   6
ENDBRANCH   4   5
ENDBRANCH   3   4
ENDBRANCH   2   3
ENDBRANCH   1   2
BRANCH   1  13
ATOM     13  C   UNL     1       6.381  47.756   9.034  1.00  0.00     0.000 C 
BRANCH  13  14
ATOM     14  C   UNL     1       6.485  49.287   9.134  1.00  0.00     0.000 C 
BRANCH  14  15
ATOM     15  C   UNL     1       5.402  49.959  10.003  1.00  0.00     0.000 C 
BRANCH  15  16
ATOM     16  C   UNL     1       4.262  50.638   9.218  1.00  0.00     0.000 C 
BRANCH  16  17
ATOM     17  C   UNL     1       3.938  49.990   7.857  1.00  0.00     0.000 C 
BRANCH  17  18
ATOM     18  C   UNL     1       2.598  49.229   7.801  1.00  0.00     0.000 C 
BRANCH  18  19
ATOM     19  C   UNL     1       1.926  48.985   9.165  1.00  0.00     0.000 C 
BRANCH  19  20
ATOM     20  C   UNL     1       1.240  47.611   9.259  1.00  0.00     0.006 C 
BRANCH  20  21
ATOM     21  C   UNL     1       1.041  46.969   7.879  1.00  0.00     0.053 C 
BRANCH  21  22
ATOM     22  C   UNL     1       0.045  45.850   7.923  1.00  0.00     0.041 C 
ATOM     23  O   UNL     1       0.030  44.981   7.013  1.00  0.00    -0.550 OA
ATOM     24  O   UNL     1      -0.884  45.783   8.954  1.00  0.00    -0.550 OA
ENDBRANCH  21  22
ENDBRANCH  20  21
ENDBRANCH  19  20
ENDBRANCH  18  19
ENDBRANCH  17  18
ENDBRANCH  16  17
ENDBRANCH  15  16
ENDBRANCH  14  15
ENDBRANCH  13  14
ENDBRANCH   1  13
TORSDOF 20
ENDMDL
