MODEL 1
REMARK VINA RESULT:    -6.364      0.000      0.000
REMARK INTER + INTRA:         -11.175
REMARK INTER:                  -9.898
REMARK INTRA:                  -1.278
REMARK UNBOUND:                -1.278
REMARK SMILES C[C@@]12C[C@@]3(O)O[C@@H](O1)[C@]1(COC(=O)c4ccccc4)[C@H]3C[C@@]12O[C@H]1O[C@@H](CO)[C@H](O)[C@@H](O)[C@H]1O
REMARK SMILES IDX 1 1 2 2 3 3 4 4 20 5 21 6 22 7 9 8 7 9 8 10 6 11 23 12 24 13
REMARK SMILES IDX 33 14 25 15 31 16 26 17 29 18 34 19 32 21 27 23 28 24 30 26
REMARK SMILES IDX 5 28 10 30 11 31 12 32 13 33 14 34 15 35 19 36 16 37 18 38
REMARK SMILES IDX 17 39
REMARK H PARENT 34 20 32 22 28 25 30 27 5 29
REMARK Flexibility Score: inf
ROOT
ATOM      1  C   UNL     1       6.381   9.708  22.195  1.00  0.00     0.046 C 
ATOM      2  C   UNL     1       6.399  11.046  21.446  1.00  0.00     0.104 C 
ATOM      3  C   UNL     1       4.990  11.358  20.819  1.00  0.00     0.104 C 
ATOM      4  C   UNL     1       5.200  12.749  20.116  1.00  0.00     0.175 C 
ATOM      5  C   UNL     1       6.485  12.736  19.227  1.00  0.00     0.070 C 
ATOM      6  C   UNL     1       6.968  11.325  18.883  1.00  0.00     0.050 C 
ATOM      7  C   UNL     1       7.519  11.228  20.330  1.00  0.00     0.115 C 
ATOM      8  C   UNL     1       7.521  12.771  20.333  1.00  0.00     0.096 C 
ATOM      9  C   UNL     1       6.791  13.236  21.584  1.00  0.00     0.267 C 
ATOM     10  O   UNL     1       6.639  12.086  22.385  1.00  0.00    -0.342 OA
ATOM     11  O   UNL     1       5.507  13.669  21.147  1.00  0.00    -0.320 OA
ENDROOT
BRANCH   7  12
ATOM     12  O   UNL     1       8.830  10.733  20.565  1.00  0.00    -0.339 OA
BRANCH  12  13
ATOM     13  C   UNL     1       9.279   9.548  19.899  1.00  0.00     0.282 C 
ATOM     14  C   UNL     1       9.601   8.273  20.726  1.00  0.00     0.202 C 
ATOM     15  O   UNL     1      10.367   9.861  19.047  1.00  0.00    -0.341 OA
ATOM     16  C   UNL     1       9.769   7.102  19.724  1.00  0.00     0.179 C 
ATOM     17  C   UNL     1      10.520   8.877  18.036  1.00  0.00     0.178 C 
ATOM     18  C   UNL     1      10.810   7.475  18.643  1.00  0.00     0.177 C 
BRANCH  14  19
ATOM     19  O   UNL     1      10.809   8.449  21.431  1.00  0.00    -0.385 OA
ATOM     20  H   UNL     1      10.676   9.151  22.126  1.00  0.00     0.211 HD
ENDBRANCH  14  19
BRANCH  16  21
ATOM     21  O   UNL     1      10.190   5.931  20.369  1.00  0.00    -0.387 OA
ATOM     22  H   UNL     1      11.175   5.869  20.242  1.00  0.00     0.211 HD
ENDBRANCH  16  21
BRANCH  17  23
ATOM     23  C   UNL     1      11.689   9.301  17.135  1.00  0.00     0.191 C 
BRANCH  23  24
ATOM     24  O   UNL     1      11.506   8.798  15.829  1.00  0.00    -0.394 OA
ATOM     25  H   UNL     1      12.185   8.087  15.703  1.00  0.00     0.210 HD
ENDBRANCH  23  24
ENDBRANCH  17  23
BRANCH  18  26
ATOM     26  O   UNL     1      10.855   6.488  17.632  1.00  0.00    -0.387 OA
ATOM     27  H   UNL     1      11.721   6.586  17.173  1.00  0.00     0.211 HD
ENDBRANCH  18  26
ENDBRANCH  12  13
ENDBRANCH   7  12
BRANCH   4  28
ATOM     28  O   UNL     1       4.075  13.145  19.375  1.00  0.00    -0.365 OA
ATOM     29  H   UNL     1       3.299  13.135  19.989  1.00  0.00     0.214 HD
ENDBRANCH   4  28
BRANCH   8  30
ATOM     30  C   UNL     1       8.833  13.542  20.030  1.00  0.00     0.249 C 
BRANCH  30  31
ATOM     31  O   UNL     1       8.927  14.759  20.782  1.00  0.00    -0.461 OA
BRANCH  31  32
ATOM     32  C   UNL     1      10.039  15.097  21.566  1.00  0.00     0.338 C 
ATOM     33  O   UNL     1       9.979  15.007  22.823  1.00  0.00    -0.246 OA
BRANCH  32  34
ATOM     34  C   UNL     1      11.272  15.614  20.924  1.00  0.00     0.060 A 
ATOM     35  C   UNL     1      12.543  15.311  21.460  1.00  0.00     0.015 A 
ATOM     36  C   UNL     1      11.203  16.383  19.752  1.00  0.00     0.015 A 
ATOM     37  C   UNL     1      13.710  15.783  20.844  1.00  0.00     0.001 A 
ATOM     38  C   UNL     1      12.374  16.851  19.140  1.00  0.00     0.001 A 
ATOM     39  C   UNL     1      13.623  16.564  19.688  1.00  0.00     0.000 A 
ENDBRANCH  32  34
ENDBRANCH  31  32
ENDBRANCH  30  31
ENDBRANCH   8  30
TORSDOF 12
ENDMDL
MODEL 2
REMARK VINA RESULT:    -6.174      4.491      8.054
REMARK INTER + INTRA:         -10.881
REMARK INTER:                  -9.750
REMARK INTRA:                  -1.131
REMARK UNBOUND:                -1.278
REMARK SMILES C[C@@]12C[C@@]3(O)O[C@@H](O1)[C@]1(COC(=O)c4ccccc4)[C@H]3C[C@@]12O[C@H]1O[C@@H](CO)[C@H](O)[C@@H](O)[C@H]1O
REMARK SMILES IDX 1 1 2 2 3 3 4 4 20 5 21 6 22 7 9 8 7 9 8 10 6 11 23 12 24 13
REMARK SMILES IDX 33 14 25 15 31 16 26 17 29 18 34 19 32 21 27 23 28 24 30 26
REMARK SMILES IDX 5 28 10 30 11 31 12 32 13 33 14 34 15 35 19 36 16 37 18 38
REMARK SMILES IDX 17 39
REMARK H PARENT 34 20 32 22 28 25 30 27 5 29
REMARK Flexibility Score: inf
ROOT
ATOM      1  C   UNL     1      13.792   4.744  17.634  1.00  0.00     0.046 C 
ATOM      2  C   UNL     1      13.633   6.212  17.225  1.00  0.00     0.104 C 
ATOM      3  C   UNL     1      14.937   6.745  16.526  1.00  0.00     0.104 C 
ATOM      4  C   UNL     1      14.584   8.237  16.174  1.00  0.00     0.175 C 
ATOM      5  C   UNL     1      13.984   8.974  17.414  1.00  0.00     0.070 C 
ATOM      6  C   UNL     1      14.286   8.273  18.740  1.00  0.00     0.050 C 
ATOM      7  C   UNL     1      13.198   7.233  18.367  1.00  0.00     0.115 C 
ATOM      8  C   UNL     1      12.620   8.312  17.429  1.00  0.00     0.096 C 
ATOM      9  C   UNL     1      12.438   7.686  16.054  1.00  0.00     0.267 C 
ATOM     10  O   UNL     1      12.609   6.299  16.242  1.00  0.00    -0.342 OA
ATOM     11  O   UNL     1      13.508   8.181  15.256  1.00  0.00    -0.320 OA
ENDROOT
BRANCH   7  12
ATOM     12  O   UNL     1      12.226   6.840  19.325  1.00  0.00    -0.339 OA
BRANCH  12  13
ATOM     13  C   UNL     1      12.634   6.407  20.627  1.00  0.00     0.282 C 
ATOM     14  C   UNL     1      11.960   5.167  21.276  1.00  0.00     0.202 C 
ATOM     15  O   UNL     1      12.602   7.502  21.526  1.00  0.00    -0.341 OA
ATOM     16  C   UNL     1      12.801   4.781  22.519  1.00  0.00     0.179 C 
ATOM     17  C   UNL     1      13.434   7.260  22.650  1.00  0.00     0.178 C 
ATOM     18  C   UNL     1      12.970   6.008  23.446  1.00  0.00     0.177 C 
BRANCH  14  19
ATOM     19  O   UNL     1      10.652   5.491  21.690  1.00  0.00    -0.385 OA
ATOM     20  H   UNL     1      10.302   6.219  21.106  1.00  0.00     0.211 HD
ENDBRANCH  14  19
BRANCH  16  21
ATOM     21  O   UNL     1      12.197   3.747  23.247  1.00  0.00    -0.387 OA
ATOM     22  H   UNL     1      11.512   3.337  22.653  1.00  0.00     0.211 HD
ENDBRANCH  16  21
BRANCH  17  23
ATOM     23  C   UNL     1      13.378   8.498  23.557  1.00  0.00     0.191 C 
BRANCH  23  24
ATOM     24  O   UNL     1      14.522   8.552  24.382  1.00  0.00    -0.394 OA
ATOM     25  H   UNL     1      15.276   8.828  23.801  1.00  0.00     0.210 HD
ENDBRANCH  23  24
ENDBRANCH  17  23
BRANCH  18  26
ATOM     26  O   UNL     1      13.868   5.718  24.498  1.00  0.00    -0.387 OA
ATOM     27  H   UNL     1      14.725   5.466  24.083  1.00  0.00     0.211 HD
ENDBRANCH  18  26
ENDBRANCH  12  13
ENDBRANCH   7  12
BRANCH   4  28
ATOM     28  O   UNL     1      15.685   8.935  15.653  1.00  0.00    -0.365 OA
ATOM     29  H   UNL     1      15.391   9.864  15.481  1.00  0.00     0.214 HD
ENDBRANCH   4  28
BRANCH   8  30
ATOM     30  C   UNL     1      11.429   9.187  17.900  1.00  0.00     0.249 C 
BRANCH  30  31
ATOM     31  O   UNL     1      10.169   8.530  17.705  1.00  0.00    -0.461 OA
BRANCH  31  32
ATOM     32  C   UNL     1       9.281   8.241  18.751  1.00  0.00     0.338 C 
ATOM     33  O   UNL     1       9.404   7.172  19.409  1.00  0.00    -0.246 OA
BRANCH  32  34
ATOM     34  C   UNL     1       8.161   9.165  19.050  1.00  0.00     0.060 A 
ATOM     35  C   UNL     1       6.884   8.663  19.389  1.00  0.00     0.015 A 
ATOM     36  C   UNL     1       8.353  10.555  19.038  1.00  0.00     0.015 A 
ATOM     37  C   UNL     1       5.829   9.534  19.691  1.00  0.00     0.001 A 
ATOM     38  C   UNL     1       7.294  11.422  19.341  1.00  0.00     0.001 A 
ATOM     39  C   UNL     1       6.033  10.916  19.655  1.00  0.00     0.000 A 
ENDBRANCH  32  34
ENDBRANCH  31  32
ENDBRANCH  30  31
ENDBRANCH   8  30
TORSDOF 12
ENDMDL
MODEL 3
REMARK VINA RESULT:    -6.116      1.329      1.837
REMARK INTER + INTRA:         -10.790
REMARK INTER:                  -9.649
REMARK INTRA:                  -1.142
REMARK UNBOUND:                -1.278
REMARK SMILES C[C@@]12C[C@@]3(O)O[C@@H](O1)[C@]1(COC(=O)c4ccccc4)[C@H]3C[C@@]12O[C@H]1O[C@@H](CO)[C@H](O)[C@@H](O)[C@H]1O
REMARK SMILES IDX 1 1 2 2 3 3 4 4 20 5 21 6 22 7 9 8 7 9 8 10 6 11 23 12 24 13
REMARK SMILES IDX 33 14 25 15 31 16 26 17 29 18 34 19 32 21 27 23 28 24 30 26
REMARK SMILES IDX 5 28 10 30 11 31 12 32 13 33 14 34 15 35 19 36 16 37 18 38
REMARK SMILES IDX 17 39
REMARK H PARENT 34 20 32 22 28 25 30 27 5 29
REMARK Flexibility Score: inf
ROOT
ATOM      1  C   UNL     1       5.328  10.888  23.341  1.00  0.00     0.046 C 
ATOM      2  C   UNL     1       5.424  11.920  22.211  1.00  0.00     0.104 C 
ATOM      3  C   UNL     1       4.030  12.113  21.507  1.00  0.00     0.104 C 
ATOM      4  C   UNL     1       4.321  13.196  20.405  1.00  0.00     0.175 C 
ATOM      5  C   UNL     1       5.590  12.820  19.575  1.00  0.00     0.070 C 
ATOM      6  C   UNL     1       5.976  11.344  19.694  1.00  0.00     0.050 C 
ATOM      7  C   UNL     1       6.538  11.668  21.102  1.00  0.00     0.115 C 
ATOM      8  C   UNL     1       6.641  13.131  20.622  1.00  0.00     0.096 C 
ATOM      9  C   UNL     1       5.960  14.012  21.658  1.00  0.00     0.267 C 
ATOM     10  O   UNL     1       5.744  13.184  22.779  1.00  0.00    -0.342 OA
ATOM     11  O   UNL     1       4.702  14.370  21.098  1.00  0.00    -0.320 OA
ENDROOT
BRANCH   7  12
ATOM     12  O   UNL     1       7.817  11.186  21.491  1.00  0.00    -0.339 OA
BRANCH  12  13
ATOM     13  C   UNL     1       8.147   9.805  21.312  1.00  0.00     0.282 C 
ATOM     14  C   UNL     1       8.764   9.000  22.489  1.00  0.00     0.202 C 
ATOM     15  O   UNL     1       8.941   9.650  20.149  1.00  0.00    -0.341 OA
ATOM     16  C   UNL     1       8.732   7.502  22.091  1.00  0.00     0.179 C 
ATOM     17  C   UNL     1       8.881   8.316  19.667  1.00  0.00     0.178 C 
ATOM     18  C   UNL     1       9.416   7.303  20.718  1.00  0.00     0.177 C 
BRANCH  14  19
ATOM     19  O   UNL     1      10.103   9.392  22.690  1.00  0.00    -0.385 OA
ATOM     20  H   UNL     1      10.337  10.091  22.020  1.00  0.00     0.211 HD
ENDBRANCH  14  19
BRANCH  16  21
ATOM     21  O   UNL     1       9.388   6.705  23.040  1.00  0.00    -0.387 OA
ATOM     22  H   UNL     1       8.698   6.399  23.687  1.00  0.00     0.211 HD
ENDBRANCH  16  21
BRANCH  17  23
ATOM     23  C   UNL     1       9.732   8.234  18.391  1.00  0.00     0.191 C 
BRANCH  23  24
ATOM     24  O   UNL     1       9.074   8.879  17.322  1.00  0.00    -0.394 OA
ATOM     25  H   UNL     1       8.913   8.186  16.631  1.00  0.00     0.210 HD
ENDBRANCH  23  24
ENDBRANCH  17  23
BRANCH  18  26
ATOM     26  O   UNL     1       9.251   5.974  20.267  1.00  0.00    -0.387 OA
ATOM     27  H   UNL     1      10.010   5.455  20.619  1.00  0.00     0.211 HD
ENDBRANCH  18  26
ENDBRANCH  12  13
ENDBRANCH   7  12
BRANCH   4  28
ATOM     28  O   UNL     1       3.214  13.414  19.569  1.00  0.00    -0.365 OA
ATOM     29  H   UNL     1       3.242  14.361  19.283  1.00  0.00     0.214 HD
ENDBRANCH   4  28
BRANCH   8  30
ATOM     30  C   UNL     1       7.996  13.680  20.103  1.00  0.00     0.249 C 
BRANCH  30  31
ATOM     31  O   UNL     1       8.414  14.848  20.821  1.00  0.00    -0.461 OA
BRANCH  31  32
ATOM     32  C   UNL     1       9.553  14.886  21.637  1.00  0.00     0.338 C 
ATOM     33  O   UNL     1       9.497  14.461  22.824  1.00  0.00    -0.246 OA
BRANCH  32  34
ATOM     34  C   UNL     1      10.813  15.477  21.126  1.00  0.00     0.060 A 
ATOM     35  C   UNL     1      10.792  16.419  20.074  1.00  0.00     0.015 A 
ATOM     36  C   UNL     1      12.049  15.141  21.701  1.00  0.00     0.015 A 
ATOM     37  C   UNL     1      11.980  16.993  19.603  1.00  0.00     0.001 A 
ATOM     38  C   UNL     1      13.235  15.719  21.225  1.00  0.00     0.001 A 
ATOM     39  C   UNL     1      13.204  16.633  20.173  1.00  0.00     0.000 A 
ENDBRANCH  32  34
ENDBRANCH  31  32
ENDBRANCH  30  31
ENDBRANCH   8  30
TORSDOF 12
ENDMDL
MODEL 4
REMARK VINA RESULT:    -6.102      4.690      8.098
REMARK INTER + INTRA:         -10.768
REMARK INTER:                  -9.639
REMARK INTRA:                  -1.129
REMARK UNBOUND:                -1.278
REMARK SMILES C[C@@]12C[C@@]3(O)O[C@@H](O1)[C@]1(COC(=O)c4ccccc4)[C@H]3C[C@@]12O[C@H]1O[C@@H](CO)[C@H](O)[C@@H](O)[C@H]1O
REMARK SMILES IDX 1 1 2 2 3 3 4 4 20 5 21 6 22 7 9 8 7 9 8 10 6 11 23 12 24 13
REMARK SMILES IDX 33 14 25 15 31 16 26 17 29 18 34 19 32 21 27 23 28 24 30 26
REMARK SMILES IDX 5 28 10 30 11 31 12 32 13 33 14 34 15 35 19 36 16 37 18 38
REMARK SMILES IDX 17 39
REMARK H PARENT 34 20 32 22 28 25 30 27 5 29
REMARK Flexibility Score: inf
ROOT
ATOM      1  C   UNL     1      14.826   7.714  19.962  1.00  0.00     0.046 C 
ATOM      2  C   UNL     1      13.733   7.166  20.887  1.00  0.00     0.104 C 
ATOM      3  C   UNL     1      14.345   6.685  22.254  1.00  0.00     0.104 C 
ATOM      4  C   UNL     1      13.093   6.177  23.059  1.00  0.00     0.175 C 
ATOM      5  C   UNL     1      12.225   5.212  22.189  1.00  0.00     0.070 C 
ATOM      6  C   UNL     1      12.978   4.639  20.987  1.00  0.00     0.050 C 
ATOM      7  C   UNL     1      12.804   6.016  20.297  1.00  0.00     0.115 C 
ATOM      8  C   UNL     1      11.616   6.241  21.256  1.00  0.00     0.096 C 
ATOM      9  C   UNL     1      11.810   7.592  21.929  1.00  0.00     0.267 C 
ATOM     10  O   UNL     1      12.846   8.228  21.216  1.00  0.00    -0.342 OA
ATOM     11  O   UNL     1      12.262   7.307  23.249  1.00  0.00    -0.320 OA
ENDROOT
BRANCH   7  12
ATOM     12  O   UNL     1      12.369   6.091  18.947  1.00  0.00    -0.339 OA
BRANCH  12  13
ATOM     13  C   UNL     1      13.182   5.551  17.900  1.00  0.00     0.282 C 
ATOM     14  C   UNL     1      13.513   6.419  16.654  1.00  0.00     0.202 C 
ATOM     15  O   UNL     1      12.667   4.296  17.493  1.00  0.00    -0.341 OA
ATOM     16  C   UNL     1      14.626   5.686  15.863  1.00  0.00     0.179 C 
ATOM     17  C   UNL     1      13.666   3.523  16.845  1.00  0.00     0.178 C 
ATOM     18  C   UNL     1      14.194   4.231  15.565  1.00  0.00     0.177 C 
BRANCH  14  19
ATOM     19  O   UNL     1      12.372   6.540  15.835  1.00  0.00    -0.385 OA
ATOM     20  H   UNL     1      12.009   5.630  15.655  1.00  0.00     0.211 HD
ENDBRANCH  14  19
BRANCH  16  21
ATOM     21  O   UNL     1      14.903   6.331  14.650  1.00  0.00    -0.387 OA
ATOM     22  H   UNL     1      14.638   7.283  14.761  1.00  0.00     0.211 HD
ENDBRANCH  16  21
BRANCH  17  23
ATOM     23  C   UNL     1      13.048   2.169  16.467  1.00  0.00     0.191 C 
BRANCH  23  24
ATOM     24  O   UNL     1      11.930   2.359  15.628  1.00  0.00    -0.394 OA
ATOM     25  H   UNL     1      11.134   2.385  16.219  1.00  0.00     0.210 HD
ENDBRANCH  23  24
ENDBRANCH  17  23
BRANCH  18  26
ATOM     26  O   UNL     1      15.261   3.503  14.990  1.00  0.00    -0.387 OA
ATOM     27  H   UNL     1      15.252   2.608  15.402  1.00  0.00     0.211 HD
ENDBRANCH  18  26
ENDBRANCH  12  13
ENDBRANCH   7  12
BRANCH   4  28
ATOM     28  O   UNL     1      13.451   5.577  24.277  1.00  0.00    -0.365 OA
ATOM     29  H   UNL     1      14.306   5.101  24.131  1.00  0.00     0.214 HD
ENDBRANCH   4  28
BRANCH   8  30
ATOM     30  C   UNL     1      10.169   5.967  20.770  1.00  0.00     0.249 C 
BRANCH  30  31
ATOM     31  O   UNL     1       9.362   7.152  20.785  1.00  0.00    -0.461 OA
BRANCH  31  32
ATOM     32  C   UNL     1       9.056   7.891  19.634  1.00  0.00     0.338 C 
ATOM     33  O   UNL     1       9.756   7.761  18.592  1.00  0.00    -0.246 OA
BRANCH  32  34
ATOM     34  C   UNL     1       7.942   8.869  19.653  1.00  0.00     0.060 A 
ATOM     35  C   UNL     1       8.080  10.131  19.033  1.00  0.00     0.015 A 
ATOM     36  C   UNL     1       6.716   8.550  20.256  1.00  0.00     0.015 A 
ATOM     37  C   UNL     1       7.023  11.049  19.034  1.00  0.00     0.001 A 
ATOM     38  C   UNL     1       5.660   9.472  20.254  1.00  0.00     0.001 A 
ATOM     39  C   UNL     1       5.814  10.723  19.656  1.00  0.00     0.000 A 
ENDBRANCH  32  34
ENDBRANCH  31  32
ENDBRANCH  30  31
ENDBRANCH   8  30
TORSDOF 12
ENDMDL
MODEL 5
REMARK VINA RESULT:    -6.033      6.543     10.292
REMARK INTER + INTRA:         -10.661
REMARK INTER:                  -8.799
REMARK INTRA:                  -1.863
REMARK UNBOUND:                -1.278
REMARK SMILES C[C@@]12C[C@@]3(O)O[C@@H](O1)[C@]1(COC(=O)c4ccccc4)[C@H]3C[C@@]12O[C@H]1O[C@@H](CO)[C@H](O)[C@@H](O)[C@H]1O
REMARK SMILES IDX 1 1 2 2 3 3 4 4 20 5 21 6 22 7 9 8 7 9 8 10 6 11 23 12 24 13
REMARK SMILES IDX 33 14 25 15 31 16 26 17 29 18 34 19 32 21 27 23 28 24 30 26
REMARK SMILES IDX 5 28 10 30 11 31 12 32 13 33 14 34 15 35 19 36 16 37 18 38
REMARK SMILES IDX 17 39
REMARK H PARENT 34 20 32 22 28 25 30 27 5 29
REMARK Flexibility Score: inf
ROOT
ATOM      1  C   UNL     1      15.795   6.850  21.525  1.00  0.00     0.046 C 
ATOM      2  C   UNL     1      15.403   6.438  20.101  1.00  0.00     0.104 C 
ATOM      3  C   UNL     1      15.717   7.589  19.076  1.00  0.00     0.104 C 
ATOM      4  C   UNL     1      15.267   6.987  17.696  1.00  0.00     0.175 C 
ATOM      5  C   UNL     1      13.832   6.376  17.796  1.00  0.00     0.070 C 
ATOM      6  C   UNL     1      13.043   6.880  19.005  1.00  0.00     0.050 C 
ATOM      7  C   UNL     1      13.907   5.940  19.884  1.00  0.00     0.115 C 
ATOM      8  C   UNL     1      14.175   5.134  18.596  1.00  0.00     0.096 C 
ATOM      9  C   UNL     1      15.679   4.947  18.466  1.00  0.00     0.267 C 
ATOM     10  O   UNL     1      16.219   5.342  19.707  1.00  0.00    -0.342 OA
ATOM     11  O   UNL     1      16.100   5.866  17.464  1.00  0.00    -0.320 OA
ENDROOT
BRANCH   7  12
ATOM     12  O   UNL     1      13.295   5.113  20.864  1.00  0.00    -0.339 OA
BRANCH  12  13
ATOM     13  C   UNL     1      12.462   5.693  21.874  1.00  0.00     0.282 C 
ATOM     14  C   UNL     1      12.644   5.274  23.359  1.00  0.00     0.202 C 
ATOM     15  O   UNL     1      11.101   5.572  21.499  1.00  0.00    -0.341 OA
ATOM     16  C   UNL     1      11.826   6.269  24.222  1.00  0.00     0.179 C 
ATOM     17  C   UNL     1      10.300   6.525  22.180  1.00  0.00     0.178 C 
ATOM     18  C   UNL     1      10.364   6.327  23.721  1.00  0.00     0.177 C 
BRANCH  14  19
ATOM     19  O   UNL     1      12.140   3.973  23.557  1.00  0.00    -0.385 OA
ATOM     20  H   UNL     1      11.407   3.809  22.902  1.00  0.00     0.211 HD
ENDBRANCH  14  19
BRANCH  16  21
ATOM     21  O   UNL     1      11.824   5.894  25.573  1.00  0.00    -0.387 OA
ATOM     22  H   UNL     1      12.768   5.706  25.822  1.00  0.00     0.211 HD
ENDBRANCH  16  21
BRANCH  17  23
ATOM     23  C   UNL     1       8.851   6.359  21.699  1.00  0.00     0.191 C 
BRANCH  23  24
ATOM     24  O   UNL     1       8.107   5.613  22.636  1.00  0.00    -0.394 OA
ATOM     25  H   UNL     1       8.765   5.155  23.220  1.00  0.00     0.210 HD
ENDBRANCH  23  24
ENDBRANCH  17  23
BRANCH  18  26
ATOM     26  O   UNL     1       9.648   7.346  24.390  1.00  0.00    -0.387 OA
ATOM     27  H   UNL     1       8.695   7.210  24.184  1.00  0.00     0.211 HD
ENDBRANCH  18  26
ENDBRANCH  12  13
ENDBRANCH   7  12
BRANCH   4  28
ATOM     28  O   UNL     1      15.347   7.926  16.654  1.00  0.00    -0.365 OA
ATOM     29  H   UNL     1      15.215   8.821  17.054  1.00  0.00     0.214 HD
ENDBRANCH   4  28
BRANCH   8  30
ATOM     30  C   UNL     1      13.340   3.862  18.293  1.00  0.00     0.249 C 
BRANCH  30  31
ATOM     31  O   UNL     1      14.012   2.982  17.382  1.00  0.00    -0.461 OA
BRANCH  31  32
ATOM     32  C   UNL     1      13.575   2.750  16.070  1.00  0.00     0.338 C 
ATOM     33  O   UNL     1      13.232   1.589  15.714  1.00  0.00    -0.246 OA
BRANCH  32  34
ATOM     34  C   UNL     1      13.566   3.855  15.083  1.00  0.00     0.060 A 
ATOM     35  C   UNL     1      12.351   4.323  14.535  1.00  0.00     0.015 A 
ATOM     36  C   UNL     1      14.760   4.485  14.699  1.00  0.00     0.015 A 
ATOM     37  C   UNL     1      12.339   5.380  13.617  1.00  0.00     0.001 A 
ATOM     38  C   UNL     1      14.743   5.543  13.779  1.00  0.00     0.001 A 
ATOM     39  C   UNL     1      13.539   5.983  13.230  1.00  0.00     0.000 A 
ENDBRANCH  32  34
ENDBRANCH  31  32
ENDBRANCH  30  31
ENDBRANCH   8  30
TORSDOF 12
ENDMDL
MODEL 6
REMARK VINA RESULT:    -6.010      4.800      7.543
REMARK INTER + INTRA:         -10.625
REMARK INTER:                  -9.579
REMARK INTRA:                  -1.046
REMARK UNBOUND:                -1.278
REMARK SMILES C[C@@]12C[C@@]3(O)O[C@@H](O1)[C@]1(COC(=O)c4ccccc4)[C@H]3C[C@@]12O[C@H]1O[C@@H](CO)[C@H](O)[C@@H](O)[C@H]1O
REMARK SMILES IDX 1 1 2 2 3 3 4 4 20 5 21 6 22 7 9 8 7 9 8 10 6 11 23 12 24 13
REMARK SMILES IDX 33 14 25 15 31 16 26 17 29 18 34 19 32 21 27 23 28 24 30 26
REMARK SMILES IDX 5 28 10 30 11 31 12 32 13 33 14 34 15 35 19 36 16 37 18 38
REMARK SMILES IDX 17 39
REMARK H PARENT 34 20 32 22 28 25 30 27 5 29
REMARK Flexibility Score: inf
ROOT
ATOM      1  C   UNL     1      16.693   8.274  22.476  1.00  0.00     0.046 C 
ATOM      2  C   UNL     1      16.243   9.559  23.178  1.00  0.00     0.104 C 
ATOM      3  C   UNL     1      17.125   9.844  24.450  1.00  0.00     0.104 C 
ATOM      4  C   UNL     1      16.531  11.184  25.018  1.00  0.00     0.175 C 
ATOM      5  C   UNL     1      14.974  11.101  25.129  1.00  0.00     0.070 C 
ATOM      6  C   UNL     1      14.442   9.667  25.105  1.00  0.00     0.050 C 
ATOM      7  C   UNL     1      14.705   9.658  23.577  1.00  0.00     0.115 C 
ATOM      8  C   UNL     1      14.642  11.198  23.653  1.00  0.00     0.096 C 
ATOM      9  C   UNL     1      15.885  11.750  22.972  1.00  0.00     0.267 C 
ATOM     10  O   UNL     1      16.470  10.656  22.302  1.00  0.00    -0.342 OA
ATOM     11  O   UNL     1      16.751  12.166  24.023  1.00  0.00    -0.320 OA
ENDROOT
BRANCH   7  12
ATOM     12  O   UNL     1      13.716   9.167  22.683  1.00  0.00    -0.339 OA
BRANCH  12  13
ATOM     13  C   UNL     1      13.511   7.757  22.544  1.00  0.00     0.282 C 
ATOM     14  C   UNL     1      13.336   7.139  21.130  1.00  0.00     0.202 C 
ATOM     15  O   UNL     1      12.453   7.342  23.389  1.00  0.00    -0.341 OA
ATOM     16  C   UNL     1      13.431   5.599  21.284  1.00  0.00     0.179 C 
ATOM     17  C   UNL     1      12.533   5.951  23.658  1.00  0.00     0.178 C 
ATOM     18  C   UNL     1      12.426   5.111  22.354  1.00  0.00     0.177 C 
BRANCH  14  19
ATOM     19  O   UNL     1      12.067   7.470  20.613  1.00  0.00    -0.385 OA
ATOM     20  H   UNL     1      11.622   8.105  21.239  1.00  0.00     0.211 HD
ENDBRANCH  14  19
BRANCH  16  21
ATOM     21  O   UNL     1      13.156   4.944  20.076  1.00  0.00    -0.387 OA
ATOM     22  H   UNL     1      12.992   5.651  19.395  1.00  0.00     0.211 HD
ENDBRANCH  16  21
BRANCH  17  23
ATOM     23  C   UNL     1      11.381   5.583  24.604  1.00  0.00     0.191 C 
BRANCH  23  24
ATOM     24  O   UNL     1      11.505   4.242  25.027  1.00  0.00    -0.394 OA
ATOM     25  H   UNL     1      11.006   3.692  24.371  1.00  0.00     0.210 HD
ENDBRANCH  23  24
ENDBRANCH  17  23
BRANCH  18  26
ATOM     26  O   UNL     1      12.614   3.736  22.623  1.00  0.00    -0.387 OA
ATOM     27  H   UNL     1      12.044   3.239  21.992  1.00  0.00     0.211 HD
ENDBRANCH  18  26
ENDBRANCH  12  13
ENDBRANCH   7  12
BRANCH   4  28
ATOM     28  O   UNL     1      17.108  11.541  26.248  1.00  0.00    -0.365 OA
ATOM     29  H   UNL     1      17.164  12.529  26.271  1.00  0.00     0.214 HD
ENDBRANCH   4  28
BRANCH   8  30
ATOM     30  C   UNL     1      13.327  11.936  23.285  1.00  0.00     0.249 C 
BRANCH  30  31
ATOM     31  O   UNL     1      13.531  12.922  22.264  1.00  0.00    -0.461 OA
BRANCH  31  32
ATOM     32  C   UNL     1      13.454  14.302  22.499  1.00  0.00     0.338 C 
ATOM     33  O   UNL     1      14.041  14.809  23.495  1.00  0.00    -0.246 OA
BRANCH  32  34
ATOM     34  C   UNL     1      12.637  15.162  21.610  1.00  0.00     0.060 A 
ATOM     35  C   UNL     1      13.248  16.146  20.801  1.00  0.00     0.015 A 
ATOM     36  C   UNL     1      11.246  14.994  21.527  1.00  0.00     0.015 A 
ATOM     37  C   UNL     1      12.480  16.947  19.946  1.00  0.00     0.001 A 
ATOM     38  C   UNL     1      10.483  15.798  20.669  1.00  0.00     0.001 A 
ATOM     39  C   UNL     1      11.094  16.780  19.889  1.00  0.00     0.000 A 
ENDBRANCH  32  34
ENDBRANCH  31  32
ENDBRANCH  30  31
ENDBRANCH   8  30
TORSDOF 12
ENDMDL
MODEL 7
REMARK VINA RESULT:    -5.985      3.772      7.188
REMARK INTER + INTRA:         -10.587
REMARK INTER:                  -9.274
REMARK INTRA:                  -1.313
REMARK UNBOUND:                -1.278
REMARK SMILES C[C@@]12C[C@@]3(O)O[C@@H](O1)[C@]1(COC(=O)c4ccccc4)[C@H]3C[C@@]12O[C@H]1O[C@@H](CO)[C@H](O)[C@@H](O)[C@H]1O
REMARK SMILES IDX 1 1 2 2 3 3 4 4 20 5 21 6 22 7 9 8 7 9 8 10 6 11 23 12 24 13
REMARK SMILES IDX 33 14 25 15 31 16 26 17 29 18 34 19 32 21 27 23 28 24 30 26
REMARK SMILES IDX 5 28 10 30 11 31 12 32 13 33 14 34 15 35 19 36 16 37 18 38
REMARK SMILES IDX 17 39
REMARK H PARENT 34 20 32 22 28 25 30 27 5 29
REMARK Flexibility Score: inf
ROOT
ATOM      1  C   UNL     1      14.471   7.549  19.664  1.00  0.00     0.046 C 
ATOM      2  C   UNL     1      13.658   7.293  20.938  1.00  0.00     0.104 C 
ATOM      3  C   UNL     1      14.582   6.765  22.097  1.00  0.00     0.104 C 
ATOM      4  C   UNL     1      13.590   6.576  23.302  1.00  0.00     0.175 C 
ATOM      5  C   UNL     1      12.324   5.773  22.860  1.00  0.00     0.070 C 
ATOM      6  C   UNL     1      12.526   4.992  21.561  1.00  0.00     0.050 C 
ATOM      7  C   UNL     1      12.393   6.338  20.802  1.00  0.00     0.115 C 
ATOM      8  C   UNL     1      11.645   6.858  22.048  1.00  0.00     0.096 C 
ATOM      9  C   UNL     1      12.292   8.170  22.466  1.00  0.00     0.267 C 
ATOM     10  O   UNL     1      13.138   8.534  21.399  1.00  0.00    -0.342 OA
ATOM     11  O   UNL     1      13.089   7.864  23.605  1.00  0.00    -0.320 OA
ENDROOT
BRANCH   7  12
ATOM     12  O   UNL     1      11.563   6.433  19.653  1.00  0.00    -0.339 OA
BRANCH  12  13
ATOM     13  C   UNL     1      12.051   7.067  18.466  1.00  0.00     0.282 C 
ATOM     14  C   UNL     1      11.437   8.417  18.004  1.00  0.00     0.202 C 
ATOM     15  O   UNL     1      12.049   6.140  17.394  1.00  0.00    -0.341 OA
ATOM     16  C   UNL     1      12.354   8.983  16.888  1.00  0.00     0.179 C 
ATOM     17  C   UNL     1      12.946   6.544  16.372  1.00  0.00     0.178 C 
ATOM     18  C   UNL     1      12.550   7.925  15.777  1.00  0.00     0.177 C 
BRANCH  14  19
ATOM     19  O   UNL     1      10.149   8.203  17.473  1.00  0.00    -0.385 OA
ATOM     20  H   UNL     1       9.474   8.529  18.130  1.00  0.00     0.211 HD
ENDBRANCH  14  19
BRANCH  16  21
ATOM     21  O   UNL     1      11.810  10.141  16.316  1.00  0.00    -0.387 OA
ATOM     22  H   UNL     1      12.093  10.906  16.886  1.00  0.00     0.211 HD
ENDBRANCH  16  21
BRANCH  17  23
ATOM     23  C   UNL     1      12.918   5.479  15.266  1.00  0.00     0.191 C 
BRANCH  23  24
ATOM     24  O   UNL     1      11.775   4.663  15.403  1.00  0.00    -0.394 OA
ATOM     25  H   UNL     1      11.386   4.869  16.291  1.00  0.00     0.210 HD
ENDBRANCH  23  24
ENDBRANCH  17  23
BRANCH  18  26
ATOM     26  O   UNL     1      13.511   8.364  14.837  1.00  0.00    -0.387 OA
ATOM     27  H   UNL     1      14.340   7.863  15.019  1.00  0.00     0.211 HD
ENDBRANCH  18  26
ENDBRANCH  12  13
ENDBRANCH   7  12
BRANCH   4  28
ATOM     28  O   UNL     1      14.208   5.977  24.411  1.00  0.00    -0.365 OA
ATOM     29  H   UNL     1      13.663   5.190  24.663  1.00  0.00     0.214 HD
ENDBRANCH   4  28
BRANCH   8  30
ATOM     30  C   UNL     1      10.094   6.872  22.067  1.00  0.00     0.249 C 
BRANCH  30  31
ATOM     31  O   UNL     1       9.563   8.158  21.720  1.00  0.00    -0.461 OA
BRANCH  31  32
ATOM     32  C   UNL     1       8.775   8.386  20.583  1.00  0.00     0.338 C 
ATOM     33  O   UNL     1       8.402   7.417  19.866  1.00  0.00    -0.246 OA
BRANCH  32  34
ATOM     34  C   UNL     1       8.423   9.771  20.189  1.00  0.00     0.060 A 
ATOM     35  C   UNL     1       9.148  10.871  20.699  1.00  0.00     0.015 A 
ATOM     36  C   UNL     1       7.387  10.016  19.274  1.00  0.00     0.015 A 
ATOM     37  C   UNL     1       8.830  12.179  20.313  1.00  0.00     0.001 A 
ATOM     38  C   UNL     1       7.073  11.328  18.891  1.00  0.00     0.001 A 
ATOM     39  C   UNL     1       7.782  12.408  19.416  1.00  0.00     0.000 A 
ENDBRANCH  32  34
ENDBRANCH  31  32
ENDBRANCH  30  31
ENDBRANCH   8  30
TORSDOF 12
ENDMDL
MODEL 8
REMARK VINA RESULT:    -5.966      4.359      7.744
REMARK INTER + INTRA:         -10.557
REMARK INTER:                  -9.470
REMARK INTRA:                  -1.087
REMARK UNBOUND:                -1.278
REMARK SMILES C[C@@]12C[C@@]3(O)O[C@@H](O1)[C@]1(COC(=O)c4ccccc4)[C@H]3C[C@@]12O[C@H]1O[C@@H](CO)[C@H](O)[C@@H](O)[C@H]1O
REMARK SMILES IDX 1 1 2 2 3 3 4 4 20 5 21 6 22 7 9 8 7 9 8 10 6 11 23 12 24 13
REMARK SMILES IDX 33 14 25 15 31 16 26 17 29 18 34 19 32 21 27 23 28 24 30 26
REMARK SMILES IDX 5 28 10 30 11 31 12 32 13 33 14 34 15 35 19 36 16 37 18 38
REMARK SMILES IDX 17 39
REMARK H PARENT 34 20 32 22 28 25 30 27 5 29
REMARK Flexibility Score: inf
ROOT
ATOM      1  C   UNL     1      14.710   7.954  19.563  1.00  0.00     0.046 C 
ATOM      2  C   UNL     1      13.535   7.312  20.309  1.00  0.00     0.104 C 
ATOM      3  C   UNL     1      14.047   6.299  21.399  1.00  0.00     0.104 C 
ATOM      4  C   UNL     1      12.723   5.761  22.053  1.00  0.00     0.175 C 
ATOM      5  C   UNL     1      11.704   5.309  20.958  1.00  0.00     0.070 C 
ATOM      6  C   UNL     1      12.351   5.064  19.594  1.00  0.00     0.050 C 
ATOM      7  C   UNL     1      12.422   6.603  19.419  1.00  0.00     0.115 C 
ATOM      8  C   UNL     1      11.287   6.679  20.462  1.00  0.00     0.096 C 
ATOM      9  C   UNL     1      11.710   7.667  21.539  1.00  0.00     0.267 C 
ATOM     10  O   UNL     1      12.845   8.328  21.025  1.00  0.00    -0.342 OA
ATOM     11  O   UNL     1      12.100   6.879  22.658  1.00  0.00    -0.320 OA
ENDROOT
BRANCH   7  12
ATOM     12  O   UNL     1      12.012   7.204  18.199  1.00  0.00    -0.339 OA
BRANCH  12  13
ATOM     13  C   UNL     1      12.771   6.993  17.004  1.00  0.00     0.282 C 
ATOM     14  C   UNL     1      13.034   8.180  16.037  1.00  0.00     0.202 C 
ATOM     15  O   UNL     1      12.240   5.892  16.289  1.00  0.00    -0.341 OA
ATOM     16  C   UNL     1      14.107   7.716  15.018  1.00  0.00     0.179 C 
ATOM     17  C   UNL     1      13.206   5.349  15.402  1.00  0.00     0.178 C 
ATOM     18  C   UNL     1      13.664   6.395  14.347  1.00  0.00     0.177 C 
BRANCH  14  19
ATOM     19  O   UNL     1      11.851   8.504  15.341  1.00  0.00    -0.385 OA
ATOM     20  H   UNL     1      11.069   8.279  15.915  1.00  0.00     0.211 HD
ENDBRANCH  14  19
BRANCH  16  21
ATOM     21  O   UNL     1      14.317   8.679  14.021  1.00  0.00    -0.387 OA
ATOM     22  H   UNL     1      14.984   9.325  14.380  1.00  0.00     0.211 HD
ENDBRANCH  16  21
BRANCH  17  23
ATOM     23  C   UNL     1      12.574   4.143  14.691  1.00  0.00     0.191 C 
BRANCH  23  24
ATOM     24  O   UNL     1      11.280   4.470  14.233  1.00  0.00    -0.394 OA
ATOM     25  H   UNL     1      11.285   5.442  14.039  1.00  0.00     0.210 HD
ENDBRANCH  23  24
ENDBRANCH  17  23
BRANCH  18  26
ATOM     26  O   UNL     1      14.702   5.875  13.539  1.00  0.00    -0.387 OA
ATOM     27  H   UNL     1      14.428   6.005  12.602  1.00  0.00     0.211 HD
ENDBRANCH  18  26
ENDBRANCH  12  13
ENDBRANCH   7  12
BRANCH   4  28
ATOM     28  O   UNL     1      12.966   4.731  22.976  1.00  0.00    -0.365 OA
ATOM     29  H   UNL     1      13.913   4.800  23.252  1.00  0.00     0.214 HD
ENDBRANCH   4  28
BRANCH   8  30
ATOM     30  C   UNL     1       9.816   6.831  19.993  1.00  0.00     0.249 C 
BRANCH  30  31
ATOM     31  O   UNL     1       9.381   8.197  20.019  1.00  0.00    -0.461 OA
BRANCH  31  32
ATOM     32  C   UNL     1       8.620   8.783  18.998  1.00  0.00     0.338 C 
ATOM     33  O   UNL     1       8.974   8.660  17.793  1.00  0.00    -0.246 OA
BRANCH  32  34
ATOM     34  C   UNL     1       7.426   9.595  19.334  1.00  0.00     0.060 A 
ATOM     35  C   UNL     1       6.237   8.976  19.782  1.00  0.00     0.015 A 
ATOM     36  C   UNL     1       7.463  10.995  19.250  1.00  0.00     0.015 A 
ATOM     37  C   UNL     1       5.114   9.743  20.119  1.00  0.00     0.001 A 
ATOM     38  C   UNL     1       6.336  11.758  19.588  1.00  0.00     0.001 A 
ATOM     39  C   UNL     1       5.161  11.136  20.010  1.00  0.00     0.000 A 
ENDBRANCH  32  34
ENDBRANCH  31  32
ENDBRANCH  30  31
ENDBRANCH   8  30
TORSDOF 12
ENDMDL
MODEL 9
REMARK VINA RESULT:    -5.929      2.665      4.153
REMARK INTER + INTRA:         -10.500
REMARK INTER:                  -8.779
REMARK INTRA:                  -1.721
REMARK UNBOUND:                -1.278
REMARK SMILES C[C@@]12C[C@@]3(O)O[C@@H](O1)[C@]1(COC(=O)c4ccccc4)[C@H]3C[C@@]12O[C@H]1O[C@@H](CO)[C@H](O)[C@@H](O)[C@H]1O
REMARK SMILES IDX 1 1 2 2 3 3 4 4 20 5 21 6 22 7 9 8 7 9 8 10 6 11 23 12 24 13
REMARK SMILES IDX 33 14 25 15 31 16 26 17 29 18 34 19 32 21 27 23 28 24 30 26
REMARK SMILES IDX 5 28 10 30 11 31 12 32 13 33 14 34 15 35 19 36 16 37 18 38
REMARK SMILES IDX 17 39
REMARK H PARENT 34 20 32 22 28 25 30 27 5 29
REMARK Flexibility Score: inf
ROOT
ATOM      1  C   UNL     1       8.558   6.878  21.268  1.00  0.00     0.046 C 
ATOM      2  C   UNL     1       8.015   8.259  20.885  1.00  0.00     0.104 C 
ATOM      3  C   UNL     1       6.491   8.176  20.501  1.00  0.00     0.104 C 
ATOM      4  C   UNL     1       6.117   9.664  20.156  1.00  0.00     0.175 C 
ATOM      5  C   UNL     1       7.157  10.286  19.170  1.00  0.00     0.070 C 
ATOM      6  C   UNL     1       7.995   9.239  18.434  1.00  0.00     0.050 C 
ATOM      7  C   UNL     1       8.799   9.048  19.746  1.00  0.00     0.115 C 
ATOM      8  C   UNL     1       8.309  10.457  20.141  1.00  0.00     0.096 C 
ATOM      9  C   UNL     1       7.707  10.369  21.535  1.00  0.00     0.267 C 
ATOM     10  O   UNL     1       8.075   9.101  22.029  1.00  0.00    -0.342 OA
ATOM     11  O   UNL     1       6.295  10.402  21.351  1.00  0.00    -0.320 OA
ENDROOT
BRANCH   7  12
ATOM     12  O   UNL     1      10.218   9.009  19.717  1.00  0.00    -0.339 OA
BRANCH  12  13
ATOM     13  C   UNL     1      10.895   8.252  18.709  1.00  0.00     0.282 C 
ATOM     14  C   UNL     1      11.314   6.783  18.997  1.00  0.00     0.202 C 
ATOM     15  O   UNL     1      12.005   8.986  18.223  1.00  0.00    -0.341 OA
ATOM     16  C   UNL     1      11.744   6.153  17.647  1.00  0.00     0.179 C 
ATOM     17  C   UNL     1      12.395   8.527  16.938  1.00  0.00     0.178 C 
ATOM     18  C   UNL     1      12.821   7.032  16.971  1.00  0.00     0.177 C 
BRANCH  14  19
ATOM     19  O   UNL     1      12.409   6.760  19.883  1.00  0.00    -0.385 OA
ATOM     20  H   UNL     1      12.081   6.523  20.793  1.00  0.00     0.211 HD
ENDBRANCH  14  19
BRANCH  16  21
ATOM     21  O   UNL     1      12.262   4.863  17.826  1.00  0.00    -0.387 OA
ATOM     22  H   UNL     1      12.875   4.689  17.061  1.00  0.00     0.211 HD
ENDBRANCH  16  21
BRANCH  17  23
ATOM     23  C   UNL     1      13.573   9.389  16.463  1.00  0.00     0.191 C 
BRANCH  23  24
ATOM     24  O   UNL     1      14.797   8.774  16.804  1.00  0.00    -0.394 OA
ATOM     25  H   UNL     1      14.940   8.046  16.147  1.00  0.00     0.210 HD
ENDBRANCH  23  24
ENDBRANCH  17  23
BRANCH  18  26
ATOM     26  O   UNL     1      13.104   6.560  15.669  1.00  0.00    -0.387 OA
ATOM     27  H   UNL     1      12.764   5.637  15.618  1.00  0.00     0.211 HD
ENDBRANCH  18  26
ENDBRANCH  12  13
ENDBRANCH   7  12
BRANCH   4  28
ATOM     28  O   UNL     1       4.811   9.782  19.655  1.00  0.00    -0.365 OA
ATOM     29  H   UNL     1       4.747   9.201  18.857  1.00  0.00     0.214 HD
ENDBRANCH   4  28
BRANCH   8  30
ATOM     30  C   UNL     1       9.230  11.685  19.915  1.00  0.00     0.249 C 
BRANCH  30  31
ATOM     31  O   UNL     1       8.961  12.738  20.850  1.00  0.00    -0.461 OA
BRANCH  31  32
ATOM     32  C   UNL     1       8.234  13.892  20.524  1.00  0.00     0.338 C 
ATOM     33  O   UNL     1       8.838  14.958  20.222  1.00  0.00    -0.246 OA
BRANCH  32  34
ATOM     34  C   UNL     1       6.752  13.879  20.586  1.00  0.00     0.060 A 
ATOM     35  C   UNL     1       6.079  14.207  21.784  1.00  0.00     0.015 A 
ATOM     36  C   UNL     1       5.988  13.576  19.448  1.00  0.00     0.015 A 
ATOM     37  C   UNL     1       4.679  14.214  21.840  1.00  0.00     0.001 A 
ATOM     38  C   UNL     1       4.588  13.585  19.510  1.00  0.00     0.001 A 
ATOM     39  C   UNL     1       3.933  13.891  20.703  1.00  0.00     0.000 A 
ENDBRANCH  32  34
ENDBRANCH  31  32
ENDBRANCH  30  31
ENDBRANCH   8  30
TORSDOF 12
ENDMDL
