MODEL 1
REMARK VINA RESULT:    -3.171      0.000      0.000
REMARK INTER + INTRA:          -4.011
REMARK INTER:                  -3.913
REMARK INTRA:                  -0.098
REMARK UNBOUND:                -0.098
REMARK SMILES CCCCCC(=O)[O-]
REMARK SMILES IDX 4 1 5 2 6 3 7 4 8 5 3 6 2 7 1 8
REMARK H PARENT
REMARK Flexibility Score: inf
ROOT
ATOM      1  C   UNL     1     155.741 132.558 167.064  1.00  0.00     0.006 C 
ENDROOT
BRANCH   1   2
ATOM      2  C   UNL     1     154.866 131.914 165.981  1.00  0.00     0.053 C 
BRANCH   2   3
ATOM      3  C   UNL     1     154.163 132.967 165.184  1.00  0.00     0.041 C 
ATOM      4  O   UNL     1     154.378 134.186 165.413  1.00  0.00    -0.550 OA
ATOM      5  O   UNL     1     153.230 132.603 164.221  1.00  0.00    -0.550 OA
ENDBRANCH   2   3
ENDBRANCH   1   2
BRANCH   1   6
ATOM      6  C   UNL     1     157.230 132.212 166.904  1.00  0.00     0.000 C 
BRANCH   6   7
ATOM      7  C   UNL     1     158.125 132.987 167.881  1.00  0.00    -0.003 C 
ATOM      8  C   UNL     1     157.553 132.953 169.295  1.00  0.00     0.004 C 
ENDBRANCH   6   7
ENDBRANCH   1   6
TORSDOF 4
ENDMDL
MODEL 2
REMARK VINA RESULT:    -3.154      0.319      1.184
REMARK INTER + INTRA:          -3.989
REMARK INTER:                  -3.894
REMARK INTRA:                  -0.095
REMARK UNBOUND:                -0.098
REMARK SMILES CCCCCC(=O)[O-]
REMARK SMILES IDX 4 1 5 2 6 3 7 4 8 5 3 6 2 7 1 8
REMARK H PARENT
REMARK Flexibility Score: inf
ROOT
ATOM      1  C   UNL     1     155.537 132.469 167.142  1.00  0.00     0.006 C 
ENDROOT
BRANCH   1   2
ATOM      2  C   UNL     1     154.580 131.910 166.081  1.00  0.00     0.053 C 
BRANCH   2   3
ATOM      3  C   UNL     1     154.171 132.987 165.128  1.00  0.00     0.041 C 
ATOM      4  O   UNL     1     153.588 132.693 164.051  1.00  0.00    -0.550 OA
ATOM      5  O   UNL     1     154.478 134.314 165.403  1.00  0.00    -0.550 OA
ENDBRANCH   2   3
ENDBRANCH   1   2
BRANCH   1   6
ATOM      6  C   UNL     1     157.012 132.192 166.813  1.00  0.00     0.000 C 
BRANCH   6   7
ATOM      7  C   UNL     1     157.974 133.071 167.625  1.00  0.00    -0.003 C 
ATOM      8  C   UNL     1     157.990 132.657 169.093  1.00  0.00     0.004 C 
ENDBRANCH   6   7
ENDBRANCH   1   6
TORSDOF 4
ENDMDL
MODEL 3
REMARK VINA RESULT:    -3.086      2.696      5.121
REMARK INTER + INTRA:          -3.905
REMARK INTER:                  -3.796
REMARK INTRA:                  -0.109
REMARK UNBOUND:                -0.098
REMARK SMILES CCCCCC(=O)[O-]
REMARK SMILES IDX 4 1 5 2 6 3 7 4 8 5 3 6 2 7 1 8
REMARK H PARENT
REMARK Flexibility Score: inf
ROOT
ATOM      1  C   UNL     1     153.761 132.823 164.657  1.00  0.00     0.006 C 
ENDROOT
BRANCH   1   2
ATOM      2  C   UNL     1     154.380 131.876 165.692  1.00  0.00     0.053 C 
BRANCH   2   3
ATOM      3  C   UNL     1     154.363 132.502 167.050  1.00  0.00     0.041 C 
ATOM      4  O   UNL     1     155.274 132.242 167.880  1.00  0.00    -0.550 OA
ATOM      5  O   UNL     1     153.313 133.333 167.420  1.00  0.00    -0.550 OA
ENDBRANCH   2   3
ENDBRANCH   1   2
BRANCH   1   6
ATOM      6  C   UNL     1     152.840 132.096 163.665  1.00  0.00     0.000 C 
BRANCH   6   7
ATOM      7  C   UNL     1     151.423 131.884 164.219  1.00  0.00    -0.003 C 
ATOM      8  C   UNL     1     150.405 132.729 163.460  1.00  0.00     0.004 C 
ENDBRANCH   6   7
ENDBRANCH   1   6
TORSDOF 4
ENDMDL
MODEL 4
REMARK VINA RESULT:    -3.063      2.596      4.885
REMARK INTER + INTRA:          -3.876
REMARK INTER:                  -3.708
REMARK INTRA:                  -0.169
REMARK UNBOUND:                -0.098
REMARK SMILES CCCCCC(=O)[O-]
REMARK SMILES IDX 4 1 5 2 6 3 7 4 8 5 3 6 2 7 1 8
REMARK H PARENT
REMARK Flexibility Score: inf
ROOT
ATOM      1  C   UNL     1     153.650 132.822 164.812  1.00  0.00     0.006 C 
ENDROOT
BRANCH   1   2
ATOM      2  C   UNL     1     154.798 132.155 165.580  1.00  0.00     0.053 C 
BRANCH   2   3
ATOM      3  C   UNL     1     154.650 132.393 167.050  1.00  0.00     0.041 C 
ATOM      4  O   UNL     1     153.532 132.714 167.531  1.00  0.00    -0.550 OA
ATOM      5  O   UNL     1     155.759 132.311 167.883  1.00  0.00    -0.550 OA
ENDBRANCH   2   3
ENDBRANCH   1   2
BRANCH   1   6
ATOM      6  C   UNL     1     152.988 131.875 163.799  1.00  0.00     0.000 C 
BRANCH   6   7
ATOM      7  C   UNL     1     151.455 131.905 163.876  1.00  0.00    -0.003 C 
ATOM      8  C   UNL     1     150.983 132.587 165.156  1.00  0.00     0.004 C 
ENDBRANCH   6   7
ENDBRANCH   1   6
TORSDOF 4
ENDMDL
MODEL 5
REMARK VINA RESULT:    -3.039      2.464      4.573
REMARK INTER + INTRA:          -3.847
REMARK INTER:                  -3.730
REMARK INTRA:                  -0.117
REMARK UNBOUND:                -0.098
REMARK SMILES CCCCCC(=O)[O-]
REMARK SMILES IDX 4 1 5 2 6 3 7 4 8 5 3 6 2 7 1 8
REMARK H PARENT
REMARK Flexibility Score: inf
ROOT
ATOM      1  C   UNL     1     154.804 131.925 165.839  1.00  0.00     0.006 C 
ENDROOT
BRANCH   1   2
ATOM      2  C   UNL     1     154.987 132.434 167.274  1.00  0.00     0.053 C 
BRANCH   2   3
ATOM      3  C   UNL     1     156.441 132.518 167.617  1.00  0.00     0.041 C 
ATOM      4  O   UNL     1     156.808 133.050 168.697  1.00  0.00    -0.550 OA
ATOM      5  O   UNL     1     157.395 132.055 166.720  1.00  0.00    -0.550 OA
ENDBRANCH   2   3
ENDBRANCH   1   2
BRANCH   1   6
ATOM      6  C   UNL     1     154.150 132.968 164.920  1.00  0.00     0.000 C 
BRANCH   6   7
ATOM      7  C   UNL     1     153.142 132.346 163.943  1.00  0.00    -0.003 C 
ATOM      8  C   UNL     1     151.884 131.884 164.671  1.00  0.00     0.004 C 
ENDBRANCH   6   7
ENDBRANCH   1   6
TORSDOF 4
ENDMDL
MODEL 6
REMARK VINA RESULT:    -2.909      7.746      9.640
REMARK INTER + INTRA:          -3.686
REMARK INTER:                  -3.591
REMARK INTRA:                  -0.095
REMARK UNBOUND:                -0.098
REMARK SMILES CCCCCC(=O)[O-]
REMARK SMILES IDX 4 1 5 2 6 3 7 4 8 5 3 6 2 7 1 8
REMARK H PARENT
REMARK Flexibility Score: inf
ROOT
ATOM      1  C   UNL     1     146.928 132.290 162.538  1.00  0.00     0.006 C 
ENDROOT
BRANCH   1   2
ATOM      2  C   UNL     1     147.181 133.142 161.288  1.00  0.00     0.053 C 
BRANCH   2   3
ATOM      3  C   UNL     1     145.891 133.450 160.595  1.00  0.00     0.041 C 
ATOM      4  O   UNL     1     145.481 132.712 159.661  1.00  0.00    -0.550 OA
ATOM      5  O   UNL     1     145.166 134.582 160.946  1.00  0.00    -0.550 OA
ENDBRANCH   2   3
ENDBRANCH   1   2
BRANCH   1   6
ATOM      6  C   UNL     1     147.956 132.551 163.649  1.00  0.00     0.000 C 
BRANCH   6   7
ATOM      7  C   UNL     1     149.339 132.929 163.099  1.00  0.00    -0.003 C 
ATOM      8  C   UNL     1     150.437 132.101 163.759  1.00  0.00     0.004 C 
ENDBRANCH   6   7
ENDBRANCH   1   6
TORSDOF 4
ENDMDL
MODEL 7
REMARK VINA RESULT:    -2.900      4.709      6.539
REMARK INTER + INTRA:          -3.676
REMARK INTER:                  -3.629
REMARK INTRA:                  -0.047
REMARK UNBOUND:                -0.098
REMARK SMILES CCCCCC(=O)[O-]
REMARK SMILES IDX 4 1 5 2 6 3 7 4 8 5 3 6 2 7 1 8
REMARK H PARENT
REMARK Flexibility Score: inf
ROOT
ATOM      1  C   UNL     1     150.475 132.925 163.349  1.00  0.00     0.006 C 
ENDROOT
BRANCH   1   2
ATOM      2  C   UNL     1     148.984 132.586 163.463  1.00  0.00     0.053 C 
BRANCH   2   3
ATOM      3  C   UNL     1     148.165 133.553 162.668  1.00  0.00     0.041 C 
ATOM      4  O   UNL     1     147.996 133.375 161.433  1.00  0.00    -0.550 OA
ATOM      5  O   UNL     1     147.631 134.680 163.280  1.00  0.00    -0.550 OA
ENDBRANCH   2   3
ENDBRANCH   1   2
BRANCH   1   6
ATOM      6  C   UNL     1     151.374 131.875 164.019  1.00  0.00     0.000 C 
BRANCH   6   7
ATOM      7  C   UNL     1     152.864 132.094 163.719  1.00  0.00    -0.003 C 
ATOM      8  C   UNL     1     153.645 132.384 164.997  1.00  0.00     0.004 C 
ENDBRANCH   6   7
ENDBRANCH   1   6
TORSDOF 4
ENDMDL
MODEL 8
REMARK VINA RESULT:    -1.665      3.964      6.819
REMARK INTER + INTRA:          -2.152
REMARK INTER:                  -2.082
REMARK INTRA:                  -0.070
REMARK UNBOUND:                -0.098
REMARK SMILES CCCCCC(=O)[O-]
REMARK SMILES IDX 4 1 5 2 6 3 7 4 8 5 3 6 2 7 1 8
REMARK H PARENT
REMARK Flexibility Score: inf
ROOT
ATOM      1  C   UNL     1     151.034 131.875 163.859  1.00  0.00     0.006 C 
ENDROOT
BRANCH   1   2
ATOM      2  C   UNL     1     152.511 132.085 163.501  1.00  0.00     0.053 C 
BRANCH   2   3
ATOM      3  C   UNL     1     153.293 132.470 164.717  1.00  0.00     0.041 C 
ATOM      4  O   UNL     1     153.010 131.972 165.838  1.00  0.00    -0.550 OA
ATOM      5  O   UNL     1     154.303 133.419 164.622  1.00  0.00    -0.550 OA
ENDBRANCH   2   3
ENDBRANCH   1   2
BRANCH   1   6
ATOM      6  C   UNL     1     150.141 133.032 163.387  1.00  0.00     0.000 C 
BRANCH   6   7
ATOM      7  C   UNL     1     148.664 132.629 163.271  1.00  0.00    -0.003 C 
ATOM      8  C   UNL     1     147.966 133.412 162.163  1.00  0.00     0.004 C 
ENDBRANCH   6   7
ENDBRANCH   1   6
TORSDOF 4
ENDMDL
