MODEL 1
REMARK VINA RESULT:    -6.315      0.000      0.000
REMARK INTER + INTRA:          -7.537
REMARK INTER:                  -7.238
REMARK INTRA:                  -0.299
REMARK UNBOUND:                -0.299
REMARK SMILES O=C1C[C@H](c2ccc(O)cc2)Oc2cc(O)cc(O)c21
REMARK SMILES IDX 3 1 4 2 12 3 13 4 14 5 15 6 17 7 18 8 20 9 2 10 1 11 5 12
REMARK SMILES IDX 6 13 11 14 7 15 10 16 8 17 9 18 19 20 16 22
REMARK H PARENT 9 19 19 21 16 23
REMARK Flexibility Score: inf
ROOT
ATOM      1  C   UNL     1      29.540 -92.665  36.745  1.00  0.00     0.131 C 
ATOM      2  C   UNL     1      30.390 -92.041  37.860  1.00  0.00     0.211 C 
ATOM      3  O   UNL     1      31.564 -92.824  38.098  1.00  0.00    -0.484 OA
ATOM      4  C   UNL     1      31.554 -94.225  38.077  1.00  0.00     0.138 A 
ATOM      5  C   UNL     1      32.656 -94.917  38.586  1.00  0.00     0.093 A 
ATOM      6  C   UNL     1      32.670 -96.314  38.591  1.00  0.00     0.123 A 
ATOM      7  C   UNL     1      31.589 -97.021  38.060  1.00  0.00     0.093 A 
ATOM      8  C   UNL     1      30.491 -96.348  37.509  1.00  0.00     0.133 A 
ATOM      9  C   UNL     1      30.453 -94.929  37.544  1.00  0.00     0.102 A 
ATOM     10  C   UNL     1      29.312 -94.115  37.054  1.00  0.00     0.174 C 
ATOM     11  O   UNL     1      28.153 -94.595  36.945  1.00  0.00    -0.294 OA
ENDROOT
BRANCH   2  12
ATOM     12  C   UNL     1      30.775 -90.625  37.509  1.00  0.00    -0.007 A 
ATOM     13  C   UNL     1      31.876 -90.378  36.671  1.00  0.00     0.011 A 
ATOM     14  C   UNL     1      30.075 -89.535  38.058  1.00  0.00     0.011 A 
ATOM     15  C   UNL     1      32.254 -89.067  36.369  1.00  0.00     0.046 A 
ATOM     16  C   UNL     1      30.455 -88.226  37.753  1.00  0.00     0.046 A 
ATOM     17  C   UNL     1      31.543 -87.987  36.908  1.00  0.00     0.115 A 
BRANCH  17  18
ATOM     18  O   UNL     1      31.911 -86.676  36.612  1.00  0.00    -0.508 OA
ATOM     19  H   UNL     1      32.775 -86.465  36.128  1.00  0.00     0.293 HD
ENDBRANCH  17  18
ENDBRANCH   2  12
BRANCH   8  20
ATOM     20  O   UNL     1      29.495 -97.125  36.914  1.00  0.00    -0.507 OA
ATOM     21  H   UNL     1      28.697 -97.495  37.410  1.00  0.00     0.293 HD
ENDBRANCH   8  20
BRANCH   6  22
ATOM     22  O   UNL     1      33.755 -97.012  39.117  1.00  0.00    -0.508 OA
ATOM     23  H   UNL     1      33.767 -97.326  40.080  1.00  0.00     0.293 HD
ENDBRANCH   6  22
TORSDOF 4
ENDMDL
MODEL 2
REMARK VINA RESULT:    -5.688      1.375      2.837
REMARK INTER + INTRA:          -6.819
REMARK INTER:                  -6.510
REMARK INTRA:                  -0.308
REMARK UNBOUND:                -0.299
REMARK SMILES O=C1C[C@H](c2ccc(O)cc2)Oc2cc(O)cc(O)c21
REMARK SMILES IDX 3 1 4 2 12 3 13 4 14 5 15 6 17 7 18 8 20 9 2 10 1 11 5 12
REMARK SMILES IDX 6 13 11 14 7 15 10 16 8 17 9 18 19 20 16 22
REMARK H PARENT 9 19 19 21 16 23
REMARK Flexibility Score: inf
ROOT
ATOM      1  C   UNL     1      32.248 -92.817  37.875  1.00  0.00     0.131 C 
ATOM      2  C   UNL     1      31.319 -92.269  36.783  1.00  0.00     0.211 C 
ATOM      3  O   UNL     1      30.005 -92.821  36.918  1.00  0.00    -0.484 OA
ATOM      4  C   UNL     1      29.780 -94.159  37.270  1.00  0.00     0.138 A 
ATOM      5  C   UNL     1      28.498 -94.693  37.112  1.00  0.00     0.093 A 
ATOM      6  C   UNL     1      28.246 -96.028  37.441  1.00  0.00     0.123 A 
ATOM      7  C   UNL     1      29.273 -96.821  37.957  1.00  0.00     0.093 A 
ATOM      8  C   UNL     1      30.554 -96.295  38.161  1.00  0.00     0.133 A 
ATOM      9  C   UNL     1      30.827 -94.953  37.784  1.00  0.00     0.102 A 
ATOM     10  C   UNL     1      32.162 -94.314  37.889  1.00  0.00     0.174 C 
ATOM     11  O   UNL     1      33.221 -94.993  37.934  1.00  0.00    -0.294 OA
ENDROOT
BRANCH   2  12
ATOM     12  C   UNL     1      31.255 -90.763  36.841  1.00  0.00    -0.007 A 
ATOM     13  C   UNL     1      32.284 -89.989  36.277  1.00  0.00     0.011 A 
ATOM     14  C   UNL     1      30.199 -90.116  37.507  1.00  0.00     0.011 A 
ATOM     15  C   UNL     1      32.244 -88.594  36.357  1.00  0.00     0.046 A 
ATOM     16  C   UNL     1      30.161 -88.721  37.585  1.00  0.00     0.046 A 
ATOM     17  C   UNL     1      31.180 -87.956  37.009  1.00  0.00     0.115 A 
BRANCH  17  18
ATOM     18  O   UNL     1      31.130 -86.567  37.094  1.00  0.00    -0.508 OA
ATOM     19  H   UNL     1      30.329 -86.089  37.487  1.00  0.00     0.293 HD
ENDBRANCH  17  18
ENDBRANCH   2  12
BRANCH   8  20
ATOM     20  O   UNL     1      31.500 -97.125  38.767  1.00  0.00    -0.507 OA
ATOM     21  H   UNL     1      31.330 -98.090  39.010  1.00  0.00     0.293 HD
ENDBRANCH   8  20
BRANCH   6  22
ATOM     22  O   UNL     1      26.977 -96.575  37.266  1.00  0.00    -0.508 OA
ATOM     23  H   UNL     1      26.410 -96.350  36.457  1.00  0.00     0.293 HD
ENDBRANCH   6  22
TORSDOF 4
ENDMDL
MODEL 3
REMARK VINA RESULT:    -5.366     15.517     17.100
REMARK INTER + INTRA:          -6.449
REMARK INTER:                  -6.128
REMARK INTRA:                  -0.321
REMARK UNBOUND:                -0.299
REMARK SMILES O=C1C[C@H](c2ccc(O)cc2)Oc2cc(O)cc(O)c21
REMARK SMILES IDX 3 1 4 2 12 3 13 4 14 5 15 6 17 7 18 8 20 9 2 10 1 11 5 12
REMARK SMILES IDX 6 13 11 14 7 15 10 16 8 17 9 18 19 20 16 22
REMARK H PARENT 9 19 19 21 16 23
REMARK Flexibility Score: inf
ROOT
ATOM      1  C   UNL     1      35.932 -77.618  33.608  1.00  0.00     0.131 C 
ATOM      2  C   UNL     1      37.357 -77.068  33.753  1.00  0.00     0.211 C 
ATOM      3  O   UNL     1      38.019 -77.673  34.869  1.00  0.00    -0.484 OA
ATOM      4  C   UNL     1      37.365 -77.946  36.078  1.00  0.00     0.138 A 
ATOM      5  C   UNL     1      38.128 -78.274  37.201  1.00  0.00     0.093 A 
ATOM      6  C   UNL     1      37.505 -78.538  38.424  1.00  0.00     0.123 A 
ATOM      7  C   UNL     1      36.113 -78.501  38.515  1.00  0.00     0.093 A 
ATOM      8  C   UNL     1      35.326 -78.214  37.393  1.00  0.00     0.133 A 
ATOM      9  C   UNL     1      35.956 -77.899  36.160  1.00  0.00     0.102 A 
ATOM     10  C   UNL     1      35.227 -77.512  34.927  1.00  0.00     0.174 C 
ATOM     11  O   UNL     1      34.057 -77.047  34.967  1.00  0.00    -0.294 OA
ENDROOT
BRANCH   2  12
ATOM     12  C   UNL     1      38.151 -77.302  32.492  1.00  0.00    -0.007 A 
ATOM     13  C   UNL     1      37.601 -76.980  31.239  1.00  0.00     0.011 A 
ATOM     14  C   UNL     1      39.425 -77.897  32.548  1.00  0.00     0.011 A 
ATOM     15  C   UNL     1      38.323 -77.224  30.067  1.00  0.00     0.046 A 
ATOM     16  C   UNL     1      40.143 -78.140  31.374  1.00  0.00     0.046 A 
ATOM     17  C   UNL     1      39.597 -77.804  30.132  1.00  0.00     0.115 A 
BRANCH  17  18
ATOM     18  O   UNL     1      40.324 -78.052  28.970  1.00  0.00    -0.508 OA
ATOM     19  H   UNL     1      39.897 -78.483  28.160  1.00  0.00     0.293 HD
ENDBRANCH  17  18
ENDBRANCH   2  12
BRANCH   8  20
ATOM     20  O   UNL     1      33.940 -78.288  37.545  1.00  0.00    -0.507 OA
ATOM     21  H   UNL     1      33.461 -78.163  38.425  1.00  0.00     0.293 HD
ENDBRANCH   8  20
BRANCH   6  22
ATOM     22  O   UNL     1      38.260 -78.844  39.554  1.00  0.00    -0.508 OA
ATOM     23  H   UNL     1      37.918 -79.480  40.264  1.00  0.00     0.293 HD
ENDBRANCH   6  22
TORSDOF 4
ENDMDL
MODEL 4
REMARK VINA RESULT:    -5.253      8.175     10.463
REMARK INTER + INTRA:          -6.320
REMARK INTER:                  -6.024
REMARK INTRA:                  -0.296
REMARK UNBOUND:                -0.299
REMARK SMILES O=C1C[C@H](c2ccc(O)cc2)Oc2cc(O)cc(O)c21
REMARK SMILES IDX 3 1 4 2 12 3 13 4 14 5 15 6 17 7 18 8 20 9 2 10 1 11 5 12
REMARK SMILES IDX 6 13 11 14 7 15 10 16 8 17 9 18 19 20 16 22
REMARK H PARENT 9 19 19 21 16 23
REMARK Flexibility Score: inf
ROOT
ATOM      1  C   UNL     1      41.012 -94.809  35.607  1.00  0.00     0.131 C 
ATOM      2  C   UNL     1      40.254 -95.925  34.875  1.00  0.00     0.211 C 
ATOM      3  O   UNL     1      38.916 -96.033  35.369  1.00  0.00    -0.484 OA
ATOM      4  C   UNL     1      38.598 -95.896  36.727  1.00  0.00     0.138 A 
ATOM      5  C   UNL     1      37.331 -96.285  37.168  1.00  0.00     0.093 A 
ATOM      6  C   UNL     1      36.990 -96.174  38.519  1.00  0.00     0.123 A 
ATOM      7  C   UNL     1      37.911 -95.645  39.425  1.00  0.00     0.093 A 
ATOM      8  C   UNL     1      39.172 -95.212  38.998  1.00  0.00     0.133 A 
ATOM      9  C   UNL     1      39.540 -95.366  37.635  1.00  0.00     0.102 A 
ATOM     10  C   UNL     1      40.871 -95.009  37.086  1.00  0.00     0.174 C 
ATOM     11  O   UNL     1      41.890 -94.922  37.821  1.00  0.00    -0.294 OA
ENDROOT
BRANCH   2  12
ATOM     12  C   UNL     1      40.238 -95.673  33.388  1.00  0.00    -0.007 A 
ATOM     13  C   UNL     1      39.380 -94.701  32.844  1.00  0.00     0.011 A 
ATOM     14  C   UNL     1      41.037 -96.442  32.522  1.00  0.00     0.011 A 
ATOM     15  C   UNL     1      39.340 -94.487  31.463  1.00  0.00     0.046 A 
ATOM     16  C   UNL     1      40.994 -96.225  31.142  1.00  0.00     0.046 A 
ATOM     17  C   UNL     1      40.149 -95.247  30.608  1.00  0.00     0.115 A 
BRANCH  17  18
ATOM     18  O   UNL     1      40.118 -95.041  29.231  1.00  0.00    -0.508 OA
ATOM     19  H   UNL     1      40.312 -94.133  28.827  1.00  0.00     0.293 HD
ENDBRANCH  17  18
ENDBRANCH   2  12
BRANCH   8  20
ATOM     20  O   UNL     1      39.999 -94.608  39.949  1.00  0.00    -0.507 OA
ATOM     21  H   UNL     1      40.806 -95.055  40.359  1.00  0.00     0.293 HD
ENDBRANCH   8  20
BRANCH   6  22
ATOM     22  O   UNL     1      35.736 -96.580  38.971  1.00  0.00    -0.508 OA
ATOM     23  H   UNL     1      34.894 -96.077  38.718  1.00  0.00     0.293 HD
ENDBRANCH   6  22
TORSDOF 4
ENDMDL
MODEL 5
REMARK VINA RESULT:    -5.236      9.517     10.890
REMARK INTER + INTRA:          -6.300
REMARK INTER:                  -5.998
REMARK INTRA:                  -0.302
REMARK UNBOUND:                -0.299
REMARK SMILES O=C1C[C@H](c2ccc(O)cc2)Oc2cc(O)cc(O)c21
REMARK SMILES IDX 3 1 4 2 12 3 13 4 14 5 15 6 17 7 18 8 20 9 2 10 1 11 5 12
REMARK SMILES IDX 6 13 11 14 7 15 10 16 8 17 9 18 19 20 16 22
REMARK H PARENT 9 19 19 21 16 23
REMARK Flexibility Score: inf
ROOT
ATOM      1  C   UNL     1      38.298 -96.267  30.120  1.00  0.00     0.131 C 
ATOM      2  C   UNL     1      37.837 -95.032  30.906  1.00  0.00     0.211 C 
ATOM      3  O   UNL     1      36.416 -94.885  30.825  1.00  0.00    -0.484 OA
ATOM      4  C   UNL     1      35.696 -95.141  29.650  1.00  0.00     0.138 A 
ATOM      5  C   UNL     1      34.368 -94.714  29.564  1.00  0.00     0.093 A 
ATOM      6  C   UNL     1      33.628 -94.942  28.401  1.00  0.00     0.123 A 
ATOM      7  C   UNL     1      34.211 -95.625  27.331  1.00  0.00     0.093 A 
ATOM      8  C   UNL     1      35.527 -96.096  27.410  1.00  0.00     0.133 A 
ATOM      9  C   UNL     1      36.297 -95.826  28.573  1.00  0.00     0.102 A 
ATOM     10  C   UNL     1      37.720 -96.214  28.738  1.00  0.00     0.174 C 
ATOM     11  O   UNL     1      38.463 -96.446  27.748  1.00  0.00    -0.294 OA
ENDROOT
BRANCH   2  12
ATOM     12  C   UNL     1      38.266 -95.126  32.349  1.00  0.00    -0.007 A 
ATOM     13  C   UNL     1      37.440 -95.760  33.293  1.00  0.00     0.011 A 
ATOM     14  C   UNL     1      39.467 -94.534  32.779  1.00  0.00     0.011 A 
ATOM     15  C   UNL     1      37.820 -95.822  34.636  1.00  0.00     0.046 A 
ATOM     16  C   UNL     1      39.844 -94.597  34.123  1.00  0.00     0.046 A 
ATOM     17  C   UNL     1      39.025 -95.242  35.055  1.00  0.00     0.115 A 
BRANCH  17  18
ATOM     18  O   UNL     1      39.414 -95.298  36.392  1.00  0.00    -0.508 OA
ATOM     19  H   UNL     1      40.229 -94.800  36.727  1.00  0.00     0.293 HD
ENDBRANCH  17  18
ENDBRANCH   2  12
BRANCH   8  20
ATOM     20  O   UNL     1      36.005 -96.850  26.336  1.00  0.00    -0.507 OA
ATOM     21  H   UNL     1      36.355 -97.794  26.421  1.00  0.00     0.293 HD
ENDBRANCH   8  20
BRANCH   6  22
ATOM     22  O   UNL     1      32.311 -94.501  28.298  1.00  0.00    -0.508 OA
ATOM     23  H   UNL     1      31.606 -95.044  27.814  1.00  0.00     0.293 HD
ENDBRANCH   6  22
TORSDOF 4
ENDMDL
MODEL 6
REMARK VINA RESULT:    -5.217     15.520     17.060
REMARK INTER + INTRA:          -6.279
REMARK INTER:                  -5.986
REMARK INTRA:                  -0.293
REMARK UNBOUND:                -0.299
REMARK SMILES O=C1C[C@H](c2ccc(O)cc2)Oc2cc(O)cc(O)c21
REMARK SMILES IDX 3 1 4 2 12 3 13 4 14 5 15 6 17 7 18 8 20 9 2 10 1 11 5 12
REMARK SMILES IDX 6 13 11 14 7 15 10 16 8 17 9 18 19 20 16 22
REMARK H PARENT 9 19 19 21 16 23
REMARK Flexibility Score: inf
ROOT
ATOM      1  C   UNL     1      35.905 -77.933  38.272  1.00  0.00     0.131 C 
ATOM      2  C   UNL     1      37.271 -78.578  38.006  1.00  0.00     0.211 C 
ATOM      3  O   UNL     1      37.854 -78.048  36.811  1.00  0.00    -0.484 OA
ATOM      4  C   UNL     1      37.100 -77.767  35.664  1.00  0.00     0.138 A 
ATOM      5  C   UNL     1      37.766 -77.520  34.460  1.00  0.00     0.093 A 
ATOM      6  C   UNL     1      37.041 -77.250  33.296  1.00  0.00     0.123 A 
ATOM      7  C   UNL     1      35.647 -77.199  33.344  1.00  0.00     0.093 A 
ATOM      8  C   UNL     1      34.960 -77.404  34.547  1.00  0.00     0.133 A 
ATOM      9  C   UNL     1      35.690 -77.724  35.722  1.00  0.00     0.102 A 
ATOM     10  C   UNL     1      35.066 -78.030  37.033  1.00  0.00     0.174 C 
ATOM     11  O   UNL     1      33.871 -78.418  37.124  1.00  0.00    -0.294 OA
ENDROOT
BRANCH   2  12
ATOM     12  C   UNL     1      38.201 -78.362  39.174  1.00  0.00    -0.007 A 
ATOM     13  C   UNL     1      38.682 -77.073  39.467  1.00  0.00     0.011 A 
ATOM     14  C   UNL     1      38.643 -79.450  39.949  1.00  0.00     0.011 A 
ATOM     15  C   UNL     1      39.567 -76.875  40.530  1.00  0.00     0.046 A 
ATOM     16  C   UNL     1      39.528 -79.247  41.011  1.00  0.00     0.046 A 
ATOM     17  C   UNL     1      39.991 -77.962  41.307  1.00  0.00     0.115 A 
BRANCH  17  18
ATOM     18  O   UNL     1      40.874 -77.774  42.368  1.00  0.00    -0.508 OA
ATOM     19  H   UNL     1      40.598 -77.959  43.325  1.00  0.00     0.293 HD
ENDBRANCH  17  18
ENDBRANCH   2  12
BRANCH   8  20
ATOM     20  O   UNL     1      33.573 -77.243  34.530  1.00  0.00    -0.507 OA
ATOM     21  H   UNL     1      32.917 -77.979  34.750  1.00  0.00     0.293 HD
ENDBRANCH   8  20
BRANCH   6  22
ATOM     22  O   UNL     1      37.696 -77.024  32.088  1.00  0.00    -0.508 OA
ATOM     23  H   UNL     1      38.687 -77.205  31.981  1.00  0.00     0.293 HD
ENDBRANCH   6  22
TORSDOF 4
ENDMDL
MODEL 7
REMARK VINA RESULT:    -5.205     15.170     16.656
REMARK INTER + INTRA:          -6.265
REMARK INTER:                  -5.955
REMARK INTRA:                  -0.310
REMARK UNBOUND:                -0.299
REMARK SMILES O=C1C[C@H](c2ccc(O)cc2)Oc2cc(O)cc(O)c21
REMARK SMILES IDX 3 1 4 2 12 3 13 4 14 5 15 6 17 7 18 8 20 9 2 10 1 11 5 12
REMARK SMILES IDX 6 13 11 14 7 15 10 16 8 17 9 18 19 20 16 22
REMARK H PARENT 9 19 19 21 16 23
REMARK Flexibility Score: inf
ROOT
ATOM      1  C   UNL     1      37.631 -77.863  36.065  1.00  0.00     0.131 C 
ATOM      2  C   UNL     1      36.961 -77.326  37.337  1.00  0.00     0.211 C 
ATOM      3  O   UNL     1      35.615 -77.802  37.436  1.00  0.00    -0.484 OA
ATOM      4  C   UNL     1      34.769 -77.912  36.325  1.00  0.00     0.138 A 
ATOM      5  C   UNL     1      33.402 -78.113  36.532  1.00  0.00     0.093 A 
ATOM      6  C   UNL     1      32.531 -78.213  35.444  1.00  0.00     0.123 A 
ATOM      7  C   UNL     1      33.034 -78.139  34.144  1.00  0.00     0.093 A 
ATOM      8  C   UNL     1      34.406 -77.977  33.912  1.00  0.00     0.133 A 
ATOM      9  C   UNL     1      35.288 -77.829  35.015  1.00  0.00     0.102 A 
ATOM     10  C   UNL     1      36.746 -77.582  34.888  1.00  0.00     0.174 C 
ATOM     11  O   UNL     1      37.247 -77.094  33.840  1.00  0.00    -0.294 OA
ENDROOT
BRANCH   2  12
ATOM     12  C   UNL     1      37.743 -77.729  38.563  1.00  0.00    -0.007 A 
ATOM     13  C   UNL     1      38.944 -77.072  38.884  1.00  0.00     0.011 A 
ATOM     14  C   UNL     1      37.313 -78.800  39.367  1.00  0.00     0.011 A 
ATOM     15  C   UNL     1      39.686 -77.464  40.001  1.00  0.00     0.046 A 
ATOM     16  C   UNL     1      38.058 -79.189  40.483  1.00  0.00     0.046 A 
ATOM     17  C   UNL     1      39.244 -78.523  40.806  1.00  0.00     0.115 A 
BRANCH  17  18
ATOM     18  O   UNL     1      39.976 -78.921  41.922  1.00  0.00    -0.508 OA
ATOM     19  H   UNL     1      40.984 -79.007  41.891  1.00  0.00     0.293 HD
ENDBRANCH  17  18
ENDBRANCH   2  12
BRANCH   8  20
ATOM     20  O   UNL     1      34.840 -78.007  32.585  1.00  0.00    -0.507 OA
ATOM     21  H   UNL     1      35.221 -77.208  32.098  1.00  0.00     0.293 HD
ENDBRANCH   8  20
BRANCH   6  22
ATOM     22  O   UNL     1      31.164 -78.392  35.642  1.00  0.00    -0.508 OA
ATOM     23  H   UNL     1      30.481 -78.018  34.994  1.00  0.00     0.293 HD
ENDBRANCH   6  22
TORSDOF 4
ENDMDL
MODEL 8
REMARK VINA RESULT:    -5.191      9.049     11.291
REMARK INTER + INTRA:          -6.249
REMARK INTER:                  -5.937
REMARK INTRA:                  -0.312
REMARK UNBOUND:                -0.299
REMARK SMILES O=C1C[C@H](c2ccc(O)cc2)Oc2cc(O)cc(O)c21
REMARK SMILES IDX 3 1 4 2 12 3 13 4 14 5 15 6 17 7 18 8 20 9 2 10 1 11 5 12
REMARK SMILES IDX 6 13 11 14 7 15 10 16 8 17 9 18 19 20 16 22
REMARK H PARENT 9 19 19 21 16 23
REMARK Flexibility Score: inf
ROOT
ATOM      1  C   UNL     1      41.783 -95.779  35.029  1.00  0.00     0.131 C 
ATOM      2  C   UNL     1      40.853 -94.771  35.718  1.00  0.00     0.211 C 
ATOM      3  O   UNL     1      39.533 -94.849  35.172  1.00  0.00    -0.484 OA
ATOM      4  C   UNL     1      39.291 -95.037  33.805  1.00  0.00     0.138 A 
ATOM      5  C   UNL     1      38.001 -94.827  33.311  1.00  0.00     0.093 A 
ATOM      6  C   UNL     1      37.732 -94.992  31.950  1.00  0.00     0.123 A 
ATOM      7  C   UNL     1      38.750 -95.397  31.085  1.00  0.00     0.093 A 
ATOM      8  C   UNL     1      40.041 -95.652  31.565  1.00  0.00     0.133 A 
ATOM      9  C   UNL     1      40.330 -95.440  32.939  1.00  0.00     0.102 A 
ATOM     10  C   UNL     1      41.675 -95.610  33.543  1.00  0.00     0.174 C 
ATOM     11  O   UNL     1      42.725 -95.562  32.849  1.00  0.00    -0.294 OA
ENDROOT
BRANCH   2  12
ATOM     12  C   UNL     1      40.812 -95.013  37.207  1.00  0.00    -0.007 A 
ATOM     13  C   UNL     1      39.676 -94.653  37.952  1.00  0.00     0.011 A 
ATOM     14  C   UNL     1      41.928 -95.550  37.876  1.00  0.00     0.011 A 
ATOM     15  C   UNL     1      39.648 -94.848  39.336  1.00  0.00     0.046 A 
ATOM     16  C   UNL     1      41.896 -95.743  39.259  1.00  0.00     0.046 A 
ATOM     17  C   UNL     1      40.758 -95.396  39.993  1.00  0.00     0.115 A 
BRANCH  17  18
ATOM     18  O   UNL     1      40.739 -95.595  41.372  1.00  0.00    -0.508 OA
ATOM     19  H   UNL     1      41.447 -96.150  41.836  1.00  0.00     0.293 HD
ENDBRANCH  17  18
ENDBRANCH   2  12
BRANCH   8  20
ATOM     20  O   UNL     1      40.979 -96.144  30.655  1.00  0.00    -0.507 OA
ATOM     21  H   UNL     1      40.737 -96.623  29.799  1.00  0.00     0.293 HD
ENDBRANCH   8  20
BRANCH   6  22
ATOM     22  O   UNL     1      36.453 -94.763  31.445  1.00  0.00    -0.508 OA
ATOM     23  H   UNL     1      36.224 -93.909  30.951  1.00  0.00     0.293 HD
ENDBRANCH   6  22
TORSDOF 4
ENDMDL
MODEL 9
REMARK VINA RESULT:    -5.166     15.950     17.375
REMARK INTER + INTRA:          -6.220
REMARK INTER:                  -5.900
REMARK INTRA:                  -0.320
REMARK UNBOUND:                -0.299
REMARK SMILES O=C1C[C@H](c2ccc(O)cc2)Oc2cc(O)cc(O)c21
REMARK SMILES IDX 3 1 4 2 12 3 13 4 14 5 15 6 17 7 18 8 20 9 2 10 1 11 5 12
REMARK SMILES IDX 6 13 11 14 7 15 10 16 8 17 9 18 19 20 16 22
REMARK H PARENT 9 19 19 21 16 23
REMARK Flexibility Score: inf
ROOT
ATOM      1  C   UNL     1      36.920 -77.632  34.814  1.00  0.00     0.131 C 
ATOM      2  C   UNL     1      38.339 -77.049  34.772  1.00  0.00     0.211 C 
ATOM      3  O   UNL     1      39.165 -77.661  35.768  1.00  0.00    -0.484 OA
ATOM      4  C   UNL     1      38.694 -77.978  37.049  1.00  0.00     0.138 A 
ATOM      5  C   UNL     1      39.616 -78.310  38.045  1.00  0.00     0.093 A 
ATOM      6  C   UNL     1      39.177 -78.617  39.336  1.00  0.00     0.123 A 
ATOM      7  C   UNL     1      37.811 -78.619  39.623  1.00  0.00     0.093 A 
ATOM      8  C   UNL     1      36.868 -78.327  38.630  1.00  0.00     0.133 A 
ATOM      9  C   UNL     1      37.311 -77.969  37.329  1.00  0.00     0.102 A 
ATOM     10  C   UNL     1      36.407 -77.573  36.221  1.00  0.00     0.174 C 
ATOM     11  O   UNL     1      35.244 -77.140  36.437  1.00  0.00    -0.294 OA
ENDROOT
BRANCH   2  12
ATOM     12  C   UNL     1      38.953 -77.234  33.406  1.00  0.00    -0.007 A 
ATOM     13  C   UNL     1      38.166 -77.087  32.250  1.00  0.00     0.011 A 
ATOM     14  C   UNL     1      40.301 -77.612  33.272  1.00  0.00     0.011 A 
ATOM     15  C   UNL     1      38.725 -77.288  30.985  1.00  0.00     0.046 A 
ATOM     16  C   UNL     1      40.856 -77.813  32.006  1.00  0.00     0.046 A 
ATOM     17  C   UNL     1      40.073 -77.650  30.860  1.00  0.00     0.115 A 
BRANCH  17  18
ATOM     18  O   UNL     1      40.639 -77.853  29.603  1.00  0.00    -0.508 OA
ATOM     19  H   UNL     1      40.133 -78.325  28.864  1.00  0.00     0.293 HD
ENDBRANCH  17  18
ENDBRANCH   2  12
BRANCH   8  20
ATOM     20  O   UNL     1      35.519 -78.441  38.973  1.00  0.00    -0.507 OA
ATOM     21  H   UNL     1      34.777 -78.591  38.304  1.00  0.00     0.293 HD
ENDBRANCH   8  20
BRANCH   6  22
ATOM     22  O   UNL     1      40.091 -78.929  40.341  1.00  0.00    -0.508 OA
ATOM     23  H   UNL     1      39.935 -78.652  41.303  1.00  0.00     0.293 HD
ENDBRANCH   6  22
TORSDOF 4
ENDMDL
