MODEL 1
REMARK VINA RESULT:    -4.517      0.000      0.000
REMARK INTER + INTRA:         -13.393
REMARK INTER:                  -9.798
REMARK INTRA:                  -3.596
REMARK UNBOUND:                -3.596
REMARK SMILES CCCCCCCCCCCCCCCCCCCCCC(=O)[O-]
REMARK SMILES IDX 12 1 11 2 10 3 9 4 8 5 7 6 6 7 5 8 4 9 3 10 2 11 1 12 13 13
REMARK SMILES IDX 14 14 15 15 16 16 17 17 18 18 19 19 20 20 21 21 22 22 23 23
REMARK SMILES IDX 24 24
REMARK H PARENT
REMARK Flexibility Score: inf
ROOT
ATOM      1  C   UNL     1      15.760   2.252   0.774  1.00  0.00     0.000 C 
ENDROOT
BRANCH   1   2
ATOM      2  C   UNL     1      16.482   3.162  -0.233  1.00  0.00     0.000 C 
BRANCH   2   3
ATOM      3  C   UNL     1      16.428   2.615  -1.669  1.00  0.00     0.000 C 
BRANCH   3   4
ATOM      4  C   UNL     1      16.852   1.131  -1.742  1.00  0.00    -0.000 C 
BRANCH   4   5
ATOM      5  C   UNL     1      15.870   0.248  -2.528  1.00  0.00    -0.000 C 
BRANCH   5   6
ATOM      6  C   UNL     1      14.926  -0.555  -1.616  1.00  0.00    -0.000 C 
BRANCH   6   7
ATOM      7  C   UNL     1      13.450  -0.130  -1.777  1.00  0.00    -0.000 C 
BRANCH   7   8
ATOM      8  C   UNL     1      13.268   1.352  -2.164  1.00  0.00    -0.000 C 
BRANCH   8   9
ATOM      9  C   UNL     1      12.318   2.151  -1.256  1.00  0.00    -0.000 C 
BRANCH   9  10
ATOM     10  C   UNL     1      12.091   1.477   0.108  1.00  0.00    -0.000 C 
BRANCH  10  11
ATOM     11  C   UNL     1      10.635   1.028   0.309  1.00  0.00    -0.003 C 
ATOM     12  C   UNL     1       9.795   1.143  -0.963  1.00  0.00     0.004 C 
ENDBRANCH  10  11
ENDBRANCH   9  10
ENDBRANCH   8   9
ENDBRANCH   7   8
ENDBRANCH   6   7
ENDBRANCH   5   6
ENDBRANCH   4   5
ENDBRANCH   3   4
ENDBRANCH   2   3
ENDBRANCH   1   2
BRANCH   1  13
ATOM     13  C   UNL     1      14.937   3.048   1.802  1.00  0.00     0.000 C 
BRANCH  13  14
ATOM     14  C   UNL     1      14.623   4.479   1.333  1.00  0.00     0.000 C 
BRANCH  14  15
ATOM     15  C   UNL     1      13.130   4.855   1.354  1.00  0.00     0.000 C 
BRANCH  15  16
ATOM     16  C   UNL     1      12.389   4.291   2.579  1.00  0.00     0.000 C 
BRANCH  16  17
ATOM     17  C   UNL     1      10.868   4.211   2.365  1.00  0.00     0.000 C 
BRANCH  17  18
ATOM     18  C   UNL     1      10.450   4.664   0.954  1.00  0.00     0.000 C 
BRANCH  18  19
ATOM     19  C   UNL     1       8.953   4.453   0.675  1.00  0.00     0.000 C 
BRANCH  19  20
ATOM     20  C   UNL     1       8.534   4.577  -0.803  1.00  0.00     0.006 C 
BRANCH  20  21
ATOM     21  C   UNL     1       8.169   6.010  -1.234  1.00  0.00     0.053 C 
BRANCH  21  22
ATOM     22  C   UNL     1       9.160   6.585  -2.202  1.00  0.00     0.041 C 
ATOM     23  O   UNL     1       8.964   7.723  -2.705  1.00  0.00    -0.550 OA
ATOM     24  O   UNL     1      10.309   5.879  -2.532  1.00  0.00    -0.550 OA
ENDBRANCH  21  22
ENDBRANCH  20  21
ENDBRANCH  19  20
ENDBRANCH  18  19
ENDBRANCH  17  18
ENDBRANCH  16  17
ENDBRANCH  15  16
ENDBRANCH  14  15
ENDBRANCH  13  14
ENDBRANCH   1  13
TORSDOF 20
ENDMDL
MODEL 2
REMARK VINA RESULT:    -4.383      3.408      6.871
REMARK INTER + INTRA:         -13.102
REMARK INTER:                  -9.680
REMARK INTRA:                  -3.423
REMARK UNBOUND:                -3.596
REMARK SMILES CCCCCCCCCCCCCCCCCCCCCC(=O)[O-]
REMARK SMILES IDX 12 1 11 2 10 3 9 4 8 5 7 6 6 7 5 8 4 9 3 10 2 11 1 12 13 13
REMARK SMILES IDX 14 14 15 15 16 16 17 17 18 18 19 19 20 20 21 21 22 22 23 23
REMARK SMILES IDX 24 24
REMARK H PARENT
REMARK Flexibility Score: inf
ROOT
ATOM      1  C   UNL     1      13.295   0.664  -1.027  1.00  0.00     0.000 C 
ENDROOT
BRANCH   1   2
ATOM      2  C   UNL     1      12.314   1.838  -0.882  1.00  0.00     0.000 C 
BRANCH   2   3
ATOM      3  C   UNL     1      10.989   1.424  -0.220  1.00  0.00     0.000 C 
BRANCH   3   4
ATOM      4  C   UNL     1       9.764   1.845  -1.062  1.00  0.00    -0.000 C 
BRANCH   4   5
ATOM      5  C   UNL     1       8.609   2.415  -0.223  1.00  0.00    -0.000 C 
BRANCH   5   6
ATOM      6  C   UNL     1       8.255   3.865  -0.597  1.00  0.00    -0.000 C 
BRANCH   6   7
ATOM      7  C   UNL     1       9.276   4.485  -1.574  1.00  0.00    -0.000 C 
BRANCH   7   8
ATOM      8  C   UNL     1      10.068   5.667  -0.978  1.00  0.00    -0.000 C 
BRANCH   8   9
ATOM      9  C   UNL     1      10.116   5.711   0.558  1.00  0.00    -0.000 C 
BRANCH   9  10
ATOM     10  C   UNL     1      11.384   5.057   1.134  1.00  0.00    -0.000 C 
BRANCH  10  11
ATOM     11  C   UNL     1      11.073   4.043   2.246  1.00  0.00    -0.003 C 
ATOM     12  C   UNL     1      11.574   4.492   3.619  1.00  0.00     0.004 C 
ENDBRANCH  10  11
ENDBRANCH   9  10
ENDBRANCH   8   9
ENDBRANCH   7   8
ENDBRANCH   6   7
ENDBRANCH   5   6
ENDBRANCH   4   5
ENDBRANCH   3   4
ENDBRANCH   2   3
ENDBRANCH   1   2
BRANCH   1  13
ATOM     13  C   UNL     1      14.288   0.866  -2.186  1.00  0.00     0.000 C 
BRANCH  13  14
ATOM     14  C   UNL     1      15.742   0.562  -1.783  1.00  0.00     0.000 C 
BRANCH  14  15
ATOM     15  C   UNL     1      16.683   1.780  -1.782  1.00  0.00     0.000 C 
BRANCH  15  16
ATOM     16  C   UNL     1      15.925   3.120  -1.797  1.00  0.00     0.000 C 
BRANCH  16  17
ATOM     17  C   UNL     1      16.200   3.968  -0.544  1.00  0.00     0.000 C 
BRANCH  17  18
ATOM     18  C   UNL     1      15.019   3.955   0.444  1.00  0.00     0.000 C 
BRANCH  18  19
ATOM     19  C   UNL     1      15.381   3.336   1.804  1.00  0.00     0.000 C 
BRANCH  19  20
ATOM     20  C   UNL     1      15.484   1.799   1.823  1.00  0.00     0.006 C 
BRANCH  20  21
ATOM     21  C   UNL     1      14.658   1.127   2.936  1.00  0.00     0.053 C 
BRANCH  21  22
ATOM     22  C   UNL     1      15.459   0.896   4.182  1.00  0.00     0.041 C 
ATOM     23  O   UNL     1      15.170  -0.058   4.951  1.00  0.00    -0.550 OA
ATOM     24  O   UNL     1      16.537   1.718   4.485  1.00  0.00    -0.550 OA
ENDBRANCH  21  22
ENDBRANCH  20  21
ENDBRANCH  19  20
ENDBRANCH  18  19
ENDBRANCH  17  18
ENDBRANCH  16  17
ENDBRANCH  15  16
ENDBRANCH  14  15
ENDBRANCH  13  14
ENDBRANCH   1  13
TORSDOF 20
ENDMDL
MODEL 3
REMARK VINA RESULT:    -4.381      2.170      6.032
REMARK INTER + INTRA:         -13.098
REMARK INTER:                  -9.353
REMARK INTRA:                  -3.745
REMARK UNBOUND:                -3.596
REMARK SMILES CCCCCCCCCCCCCCCCCCCCCC(=O)[O-]
REMARK SMILES IDX 12 1 11 2 10 3 9 4 8 5 7 6 6 7 5 8 4 9 3 10 2 11 1 12 13 13
REMARK SMILES IDX 14 14 15 15 16 16 17 17 18 18 19 19 20 20 21 21 22 22 23 23
REMARK SMILES IDX 24 24
REMARK H PARENT
REMARK Flexibility Score: inf
ROOT
ATOM      1  C   UNL     1      13.210   1.094  -2.445  1.00  0.00     0.000 C 
ENDROOT
BRANCH   1   2
ATOM      2  C   UNL     1      11.785   1.062  -1.869  1.00  0.00     0.000 C 
BRANCH   2   3
ATOM      3  C   UNL     1      11.767   1.110  -0.332  1.00  0.00     0.000 C 
BRANCH   3   4
ATOM      4  C   UNL     1      10.329   1.135   0.232  1.00  0.00    -0.000 C 
BRANCH   4   5
ATOM      5  C   UNL     1       9.281   1.627  -0.780  1.00  0.00    -0.000 C 
BRANCH   5   6
ATOM      6  C   UNL     1       8.260   2.597  -0.160  1.00  0.00    -0.000 C 
BRANCH   6   7
ATOM      7  C   UNL     1       8.466   4.051  -0.636  1.00  0.00    -0.000 C 
BRANCH   7   8
ATOM      8  C   UNL     1       8.651   5.062   0.513  1.00  0.00    -0.000 C 
BRANCH   8   9
ATOM      9  C   UNL     1       9.973   5.848   0.485  1.00  0.00    -0.000 C 
BRANCH   9  10
ATOM     10  C   UNL     1      11.188   4.983   0.864  1.00  0.00    -0.000 C 
BRANCH  10  11
ATOM     11  C   UNL     1      11.408   4.908   2.383  1.00  0.00    -0.003 C 
ATOM     12  C   UNL     1      11.384   3.476   2.919  1.00  0.00     0.004 C 
ENDBRANCH  10  11
ENDBRANCH   9  10
ENDBRANCH   8   9
ENDBRANCH   7   8
ENDBRANCH   6   7
ENDBRANCH   5   6
ENDBRANCH   4   5
ENDBRANCH   3   4
ENDBRANCH   2   3
ENDBRANCH   1   2
BRANCH   1  13
ATOM     13  C   UNL     1      14.071  -0.083  -1.952  1.00  0.00     0.000 C 
BRANCH  13  14
ATOM     14  C   UNL     1      15.572   0.253  -1.914  1.00  0.00     0.000 C 
BRANCH  14  15
ATOM     15  C   UNL     1      16.217   0.183  -0.518  1.00  0.00     0.000 C 
BRANCH  15  16
ATOM     16  C   UNL     1      15.301  -0.470   0.531  1.00  0.00     0.000 C 
BRANCH  16  17
ATOM     17  C   UNL     1      15.415   0.198   1.912  1.00  0.00     0.000 C 
BRANCH  17  18
ATOM     18  C   UNL     1      14.566   1.478   2.017  1.00  0.00     0.000 C 
BRANCH  18  19
ATOM     19  C   UNL     1      15.415   2.751   2.157  1.00  0.00     0.000 C 
BRANCH  19  20
ATOM     20  C   UNL     1      14.940   3.955   1.320  1.00  0.00     0.006 C 
BRANCH  20  21
ATOM     21  C   UNL     1      14.447   3.583  -0.092  1.00  0.00     0.053 C 
BRANCH  21  22
ATOM     22  C   UNL     1      15.498   3.800  -1.139  1.00  0.00     0.041 C 
ATOM     23  O   UNL     1      16.716   3.671  -0.848  1.00  0.00    -0.550 OA
ATOM     24  O   UNL     1      15.135   4.123  -2.440  1.00  0.00    -0.550 OA
ENDBRANCH  21  22
ENDBRANCH  20  21
ENDBRANCH  19  20
ENDBRANCH  18  19
ENDBRANCH  17  18
ENDBRANCH  16  17
ENDBRANCH  15  16
ENDBRANCH  14  15
ENDBRANCH  13  14
ENDBRANCH   1  13
TORSDOF 20
ENDMDL
MODEL 4
REMARK VINA RESULT:    -4.376      2.600      5.093
REMARK INTER + INTRA:         -13.088
REMARK INTER:                  -9.303
REMARK INTRA:                  -3.785
REMARK UNBOUND:                -3.596
REMARK SMILES CCCCCCCCCCCCCCCCCCCCCC(=O)[O-]
REMARK SMILES IDX 12 1 11 2 10 3 9 4 8 5 7 6 6 7 5 8 4 9 3 10 2 11 1 12 13 13
REMARK SMILES IDX 14 14 15 15 16 16 17 17 18 18 19 19 20 20 21 21 22 22 23 23
REMARK SMILES IDX 24 24
REMARK H PARENT
REMARK Flexibility Score: inf
ROOT
ATOM      1  C   UNL     1      17.070   1.093  -1.990  1.00  0.00     0.000 C 
ENDROOT
BRANCH   1   2
ATOM      2  C   UNL     1      17.139   2.285  -1.021  1.00  0.00     0.000 C 
BRANCH   2   3
ATOM      3  C   UNL     1      15.873   3.156  -1.063  1.00  0.00     0.000 C 
BRANCH   3   4
ATOM      4  C   UNL     1      15.681   3.966   0.238  1.00  0.00    -0.000 C 
BRANCH   4   5
ATOM      5  C   UNL     1      15.662   3.096   1.506  1.00  0.00    -0.000 C 
BRANCH   5   6
ATOM      6  C   UNL     1      14.237   2.754   1.975  1.00  0.00    -0.000 C 
BRANCH   6   7
ATOM      7  C   UNL     1      14.008   1.233   2.099  1.00  0.00    -0.000 C 
BRANCH   7   8
ATOM      8  C   UNL     1      15.280   0.392   1.871  1.00  0.00    -0.000 C 
BRANCH   8   9
ATOM      9  C   UNL     1      15.603  -0.618   2.986  1.00  0.00    -0.000 C 
BRANCH   9  10
ATOM     10  C   UNL     1      15.221  -0.103   4.384  1.00  0.00    -0.000 C 
BRANCH  10  11
ATOM     11  C   UNL     1      16.435   0.408   5.177  1.00  0.00    -0.003 C 
ATOM     12  C   UNL     1      16.720   1.891   4.938  1.00  0.00     0.004 C 
ENDBRANCH  10  11
ENDBRANCH   9  10
ENDBRANCH   8   9
ENDBRANCH   7   8
ENDBRANCH   6   7
ENDBRANCH   5   6
ENDBRANCH   4   5
ENDBRANCH   3   4
ENDBRANCH   2   3
ENDBRANCH   1   2
BRANCH   1  13
ATOM     13  C   UNL     1      15.633   0.795  -2.454  1.00  0.00     0.000 C 
BRANCH  13  14
ATOM     14  C   UNL     1      15.026  -0.435  -1.758  1.00  0.00     0.000 C 
BRANCH  14  15
ATOM     15  C   UNL     1      13.530  -0.315  -1.417  1.00  0.00     0.000 C 
BRANCH  15  16
ATOM     16  C   UNL     1      12.893   0.972  -1.969  1.00  0.00     0.000 C 
BRANCH  16  17
ATOM     17  C   UNL     1      12.029   1.700  -0.925  1.00  0.00     0.000 C 
BRANCH  17  18
ATOM     18  C   UNL     1      12.142   3.231  -1.034  1.00  0.00     0.000 C 
BRANCH  18  19
ATOM     19  C   UNL     1      10.783   3.922  -1.224  1.00  0.00     0.000 C 
BRANCH  19  20
ATOM     20  C   UNL     1      10.035   4.275   0.076  1.00  0.00     0.006 C 
BRANCH  20  21
ATOM     21  C   UNL     1      10.933   4.879   1.173  1.00  0.00     0.053 C 
BRANCH  21  22
ATOM     22  C   UNL     1      10.974   4.030   2.409  1.00  0.00     0.041 C 
ATOM     23  O   UNL     1      10.544   2.847   2.377  1.00  0.00    -0.550 OA
ATOM     24  O   UNL     1      11.507   4.535   3.588  1.00  0.00    -0.550 OA
ENDBRANCH  21  22
ENDBRANCH  20  21
ENDBRANCH  19  20
ENDBRANCH  18  19
ENDBRANCH  17  18
ENDBRANCH  16  17
ENDBRANCH  15  16
ENDBRANCH  14  15
ENDBRANCH  13  14
ENDBRANCH   1  13
TORSDOF 20
ENDMDL
MODEL 5
REMARK VINA RESULT:    -4.336      1.769      3.538
REMARK INTER + INTRA:         -13.001
REMARK INTER:                 -10.165
REMARK INTRA:                  -2.836
REMARK UNBOUND:                -3.596
REMARK SMILES CCCCCCCCCCCCCCCCCCCCCC(=O)[O-]
REMARK SMILES IDX 12 1 11 2 10 3 9 4 8 5 7 6 6 7 5 8 4 9 3 10 2 11 1 12 13 13
REMARK SMILES IDX 14 14 15 15 16 16 17 17 18 18 19 19 20 20 21 21 22 22 23 23
REMARK SMILES IDX 24 24
REMARK H PARENT
REMARK Flexibility Score: inf
ROOT
ATOM      1  C   UNL     1      16.616   1.928  -0.515  1.00  0.00     0.000 C 
ENDROOT
BRANCH   1   2
ATOM      2  C   UNL     1      16.600   1.529  -1.999  1.00  0.00     0.000 C 
BRANCH   2   3
ATOM      3  C   UNL     1      15.676   0.333  -2.280  1.00  0.00     0.000 C 
BRANCH   3   4
ATOM      4  C   UNL     1      14.239   0.779  -2.631  1.00  0.00    -0.000 C 
BRANCH   4   5
ATOM      5  C   UNL     1      13.206   0.432  -1.546  1.00  0.00    -0.000 C 
BRANCH   5   6
ATOM      6  C   UNL     1      13.755  -0.537  -0.485  1.00  0.00    -0.000 C 
BRANCH   6   7
ATOM      7  C   UNL     1      13.613   0.018   0.948  1.00  0.00    -0.000 C 
BRANCH   7   8
ATOM      8  C   UNL     1      14.931   0.019   1.748  1.00  0.00    -0.000 C 
BRANCH   8   9
ATOM      9  C   UNL     1      14.809   0.495   3.206  1.00  0.00    -0.000 C 
BRANCH   9  10
ATOM     10  C   UNL     1      15.870   1.545   3.581  1.00  0.00    -0.000 C 
BRANCH  10  11
ATOM     11  C   UNL     1      16.075   1.661   5.099  1.00  0.00    -0.003 C 
ATOM     12  C   UNL     1      17.387   2.352   5.472  1.00  0.00     0.004 C 
ENDBRANCH  10  11
ENDBRANCH   9  10
ENDBRANCH   8   9
ENDBRANCH   7   8
ENDBRANCH   6   7
ENDBRANCH   5   6
ENDBRANCH   4   5
ENDBRANCH   3   4
ENDBRANCH   2   3
ENDBRANCH   1   2
BRANCH   1  13
ATOM     13  C   UNL     1      16.165   3.383  -0.291  1.00  0.00     0.000 C 
BRANCH  13  14
ATOM     14  C   UNL     1      14.665   3.498   0.030  1.00  0.00     0.000 C 
BRANCH  14  15
ATOM     15  C   UNL     1      14.340   4.154   1.385  1.00  0.00     0.000 C 
BRANCH  15  16
ATOM     16  C   UNL     1      13.059   3.594   2.027  1.00  0.00     0.000 C 
BRANCH  16  17
ATOM     17  C   UNL     1      12.097   4.702   2.489  1.00  0.00     0.000 C 
BRANCH  17  18
ATOM     18  C   UNL     1      11.256   5.269   1.331  1.00  0.00     0.000 C 
BRANCH  18  19
ATOM     19  C   UNL     1      10.113   4.333   0.904  1.00  0.00     0.000 C 
BRANCH  19  20
ATOM     20  C   UNL     1       8.869   5.034   0.326  1.00  0.00     0.006 C 
BRANCH  20  21
ATOM     21  C   UNL     1       8.600   4.714  -1.157  1.00  0.00     0.053 C 
BRANCH  21  22
ATOM     22  C   UNL     1       9.256   5.696  -2.081  1.00  0.00     0.041 C 
ATOM     23  O   UNL     1      10.474   5.569  -2.375  1.00  0.00    -0.550 OA
ATOM     24  O   UNL     1       8.522   6.736  -2.635  1.00  0.00    -0.550 OA
ENDBRANCH  21  22
ENDBRANCH  20  21
ENDBRANCH  19  20
ENDBRANCH  18  19
ENDBRANCH  17  18
ENDBRANCH  16  17
ENDBRANCH  15  16
ENDBRANCH  14  15
ENDBRANCH  13  14
ENDBRANCH   1  13
TORSDOF 20
ENDMDL
MODEL 6
REMARK VINA RESULT:    -4.301      2.961      6.816
REMARK INTER + INTRA:         -12.925
REMARK INTER:                  -9.504
REMARK INTRA:                  -3.421
REMARK UNBOUND:                -3.596
REMARK SMILES CCCCCCCCCCCCCCCCCCCCCC(=O)[O-]
REMARK SMILES IDX 12 1 11 2 10 3 9 4 8 5 7 6 6 7 5 8 4 9 3 10 2 11 1 12 13 13
REMARK SMILES IDX 14 14 15 15 16 16 17 17 18 18 19 19 20 20 21 21 22 22 23 23
REMARK SMILES IDX 24 24
REMARK H PARENT
REMARK Flexibility Score: inf
ROOT
ATOM      1  C   UNL     1      11.830   1.975  -0.983  1.00  0.00     0.000 C 
ENDROOT
BRANCH   1   2
ATOM      2  C   UNL     1      11.767   1.246   0.368  1.00  0.00     0.000 C 
BRANCH   2   3
ATOM      3  C   UNL     1      10.402   1.397   1.059  1.00  0.00     0.000 C 
BRANCH   3   4
ATOM      4  C   UNL     1      10.533   1.987   2.481  1.00  0.00    -0.000 C 
BRANCH   4   5
ATOM      5  C   UNL     1      11.764   2.890   2.661  1.00  0.00    -0.000 C 
BRANCH   5   6
ATOM      6  C   UNL     1      11.415   4.389   2.645  1.00  0.00    -0.000 C 
BRANCH   6   7
ATOM      7  C   UNL     1      11.564   5.012   1.241  1.00  0.00    -0.000 C 
BRANCH   7   8
ATOM      8  C   UNL     1      10.262   5.632   0.695  1.00  0.00    -0.000 C 
BRANCH   8   9
ATOM      9  C   UNL     1       9.189   4.618   0.261  1.00  0.00    -0.000 C 
BRANCH   9  10
ATOM     10  C   UNL     1       9.004   4.564  -1.266  1.00  0.00    -0.000 C 
BRANCH  10  11
ATOM     11  C   UNL     1       9.753   5.692  -1.992  1.00  0.00    -0.003 C 
ATOM     12  C   UNL     1       8.819   6.770  -2.542  1.00  0.00     0.004 C 
ENDBRANCH  10  11
ENDBRANCH   9  10
ENDBRANCH   8   9
ENDBRANCH   7   8
ENDBRANCH   6   7
ENDBRANCH   5   6
ENDBRANCH   4   5
ENDBRANCH   3   4
ENDBRANCH   2   3
ENDBRANCH   1   2
BRANCH   1  13
ATOM     13  C   UNL     1      12.339   1.068  -2.118  1.00  0.00     0.000 C 
BRANCH  13  14
ATOM     14  C   UNL     1      13.440   0.098  -1.657  1.00  0.00     0.000 C 
BRANCH  14  15
ATOM     15  C   UNL     1      14.773   0.219  -2.419  1.00  0.00     0.000 C 
BRANCH  15  16
ATOM     16  C   UNL     1      15.980   0.407  -1.484  1.00  0.00     0.000 C 
BRANCH  16  17
ATOM     17  C   UNL     1      16.870   1.591  -1.899  1.00  0.00     0.000 C 
BRANCH  17  18
ATOM     18  C   UNL     1      16.871   2.719  -0.852  1.00  0.00     0.000 C 
BRANCH  18  19
ATOM     19  C   UNL     1      15.513   3.430  -0.734  1.00  0.00     0.000 C 
BRANCH  19  20
ATOM     20  C   UNL     1      14.808   3.283   0.628  1.00  0.00     0.006 C 
BRANCH  20  21
ATOM     21  C   UNL     1      15.755   2.935   1.792  1.00  0.00     0.053 C 
BRANCH  21  22
ATOM     22  C   UNL     1      15.335   1.693   2.519  1.00  0.00     0.041 C 
ATOM     23  O   UNL     1      14.938   1.762   3.712  1.00  0.00    -0.550 OA
ATOM     24  O   UNL     1      15.359   0.462   1.876  1.00  0.00    -0.550 OA
ENDBRANCH  21  22
ENDBRANCH  20  21
ENDBRANCH  19  20
ENDBRANCH  18  19
ENDBRANCH  17  18
ENDBRANCH  16  17
ENDBRANCH  15  16
ENDBRANCH  14  15
ENDBRANCH  13  14
ENDBRANCH   1  13
TORSDOF 20
ENDMDL
MODEL 7
REMARK VINA RESULT:    -4.294      2.377      5.183
REMARK INTER + INTRA:         -12.911
REMARK INTER:                  -9.300
REMARK INTRA:                  -3.611
REMARK UNBOUND:                -3.596
REMARK SMILES CCCCCCCCCCCCCCCCCCCCCC(=O)[O-]
REMARK SMILES IDX 12 1 11 2 10 3 9 4 8 5 7 6 6 7 5 8 4 9 3 10 2 11 1 12 13 13
REMARK SMILES IDX 14 14 15 15 16 16 17 17 18 18 19 19 20 20 21 21 22 22 23 23
REMARK SMILES IDX 24 24
REMARK H PARENT
REMARK Flexibility Score: inf
ROOT
ATOM      1  C   UNL     1      15.350   3.032  -2.006  1.00  0.00     0.000 C 
ENDROOT
BRANCH   1   2
ATOM      2  C   UNL     1      14.744   3.766  -0.798  1.00  0.00     0.000 C 
BRANCH   2   3
ATOM      3  C   UNL     1      15.760   3.974   0.337  1.00  0.00     0.000 C 
BRANCH   3   4
ATOM      4  C   UNL     1      15.438   3.103   1.571  1.00  0.00    -0.000 C 
BRANCH   4   5
ATOM      5  C   UNL     1      13.965   2.671   1.652  1.00  0.00    -0.000 C 
BRANCH   5   6
ATOM      6  C   UNL     1      13.794   1.147   1.771  1.00  0.00    -0.000 C 
BRANCH   6   7
ATOM      7  C   UNL     1      15.131   0.391   1.615  1.00  0.00    -0.000 C 
BRANCH   7   8
ATOM      8  C   UNL     1      15.504  -0.471   2.838  1.00  0.00    -0.000 C 
BRANCH   8   9
ATOM      9  C   UNL     1      14.813  -0.072   4.153  1.00  0.00    -0.000 C 
BRANCH   9  10
ATOM     10  C   UNL     1      15.780   0.565   5.165  1.00  0.00    -0.000 C 
BRANCH  10  11
ATOM     11  C   UNL     1      16.462   1.828   4.616  1.00  0.00    -0.003 C 
ATOM     12  C   UNL     1      17.438   2.458   5.610  1.00  0.00     0.004 C 
ENDBRANCH  10  11
ENDBRANCH   9  10
ENDBRANCH   8   9
ENDBRANCH   7   8
ENDBRANCH   6   7
ENDBRANCH   5   6
ENDBRANCH   4   5
ENDBRANCH   3   4
ENDBRANCH   2   3
ENDBRANCH   1   2
BRANCH   1  13
ATOM     13  C   UNL     1      16.535   2.132  -1.614  1.00  0.00     0.000 C 
BRANCH  13  14
ATOM     14  C   UNL     1      16.374   0.686  -2.114  1.00  0.00     0.000 C 
BRANCH  14  15
ATOM     15  C   UNL     1      14.959   0.321  -2.599  1.00  0.00     0.000 C 
BRANCH  15  16
ATOM     16  C   UNL     1      14.251  -0.682  -1.671  1.00  0.00     0.000 C 
BRANCH  16  17
ATOM     17  C   UNL     1      12.749  -0.385  -1.518  1.00  0.00     0.000 C 
BRANCH  17  18
ATOM     18  C   UNL     1      12.415   1.096  -1.768  1.00  0.00     0.000 C 
BRANCH  18  19
ATOM     19  C   UNL     1      11.173   1.570  -0.997  1.00  0.00     0.000 C 
BRANCH  19  20
ATOM     20  C   UNL     1      11.098   3.087  -0.736  1.00  0.00     0.006 C 
BRANCH  20  21
ATOM     21  C   UNL     1      10.223   3.475   0.472  1.00  0.00     0.053 C 
BRANCH  21  22
ATOM     22  C   UNL     1      10.469   4.883   0.926  1.00  0.00     0.041 C 
ATOM     23  O   UNL     1       9.525   5.716   0.938  1.00  0.00    -0.550 OA
ATOM     24  O   UNL     1      11.730   5.271   1.357  1.00  0.00    -0.550 OA
ENDBRANCH  21  22
ENDBRANCH  20  21
ENDBRANCH  19  20
ENDBRANCH  18  19
ENDBRANCH  17  18
ENDBRANCH  16  17
ENDBRANCH  15  16
ENDBRANCH  14  15
ENDBRANCH  13  14
ENDBRANCH   1  13
TORSDOF 20
ENDMDL
MODEL 8
REMARK VINA RESULT:    -4.282      3.108      6.353
REMARK INTER + INTRA:         -12.884
REMARK INTER:                  -9.385
REMARK INTRA:                  -3.499
REMARK UNBOUND:                -3.596
REMARK SMILES CCCCCCCCCCCCCCCCCCCCCC(=O)[O-]
REMARK SMILES IDX 12 1 11 2 10 3 9 4 8 5 7 6 6 7 5 8 4 9 3 10 2 11 1 12 13 13
REMARK SMILES IDX 14 14 15 15 16 16 17 17 18 18 19 19 20 20 21 21 22 22 23 23
REMARK SMILES IDX 24 24
REMARK H PARENT
REMARK Flexibility Score: inf
ROOT
ATOM      1  C   UNL     1      13.883  -0.278  -1.347  1.00  0.00     0.000 C 
ENDROOT
BRANCH   1   2
ATOM      2  C   UNL     1      12.840   0.637  -2.008  1.00  0.00     0.000 C 
BRANCH   2   3
ATOM      3  C   UNL     1      11.406   0.333  -1.541  1.00  0.00     0.000 C 
BRANCH   3   4
ATOM      4  C   UNL     1      10.592   1.622  -1.292  1.00  0.00    -0.000 C 
BRANCH   4   5
ATOM      5  C   UNL     1       9.083   1.375  -1.135  1.00  0.00    -0.000 C 
BRANCH   5   6
ATOM      6  C   UNL     1       8.394   2.424  -0.243  1.00  0.00    -0.000 C 
BRANCH   6   7
ATOM      7  C   UNL     1       8.691   3.868  -0.698  1.00  0.00    -0.000 C 
BRANCH   7   8
ATOM      8  C   UNL     1       8.973   4.841   0.464  1.00  0.00    -0.000 C 
BRANCH   8   9
ATOM      9  C   UNL     1      10.346   5.532   0.418  1.00  0.00    -0.000 C 
BRANCH   9  10
ATOM     10  C   UNL     1      11.481   4.637   0.945  1.00  0.00    -0.000 C 
BRANCH  10  11
ATOM     11  C   UNL     1      11.072   3.836   2.192  1.00  0.00    -0.003 C 
ATOM     12  C   UNL     1      11.525   4.493   3.496  1.00  0.00     0.004 C 
ENDBRANCH  10  11
ENDBRANCH   9  10
ENDBRANCH   8   9
ENDBRANCH   7   8
ENDBRANCH   6   7
ENDBRANCH   5   6
ENDBRANCH   4   5
ENDBRANCH   3   4
ENDBRANCH   2   3
ENDBRANCH   1   2
BRANCH   1  13
ATOM     13  C   UNL     1      13.741  -0.322   0.185  1.00  0.00     0.000 C 
BRANCH  13  14
ATOM     14  C   UNL     1      15.099  -0.286   0.909  1.00  0.00     0.000 C 
BRANCH  14  15
ATOM     15  C   UNL     1      15.284   0.894   1.881  1.00  0.00     0.000 C 
BRANCH  15  16
ATOM     16  C   UNL     1      14.287   2.038   1.628  1.00  0.00     0.000 C 
BRANCH  16  17
ATOM     17  C   UNL     1      14.897   3.424   1.895  1.00  0.00     0.000 C 
BRANCH  17  18
ATOM     18  C   UNL     1      15.233   4.178   0.596  1.00  0.00     0.000 C 
BRANCH  18  19
ATOM     19  C   UNL     1      14.705   3.471  -0.662  1.00  0.00     0.000 C 
BRANCH  19  20
ATOM     20  C   UNL     1      15.785   2.996  -1.653  1.00  0.00     0.006 C 
BRANCH  20  21
ATOM     21  C   UNL     1      16.981   2.288  -0.988  1.00  0.00     0.053 C 
BRANCH  21  22
ATOM     22  C   UNL     1      17.637   1.295  -1.900  1.00  0.00     0.041 C 
ATOM     23  O   UNL     1      18.887   1.149  -1.881  1.00  0.00    -0.550 OA
ATOM     24  O   UNL     1      16.870   0.516  -2.756  1.00  0.00    -0.550 OA
ENDBRANCH  21  22
ENDBRANCH  20  21
ENDBRANCH  19  20
ENDBRANCH  18  19
ENDBRANCH  17  18
ENDBRANCH  16  17
ENDBRANCH  15  16
ENDBRANCH  14  15
ENDBRANCH  13  14
ENDBRANCH   1  13
TORSDOF 20
ENDMDL
MODEL 9
REMARK VINA RESULT:    -4.248      2.884      6.549
REMARK INTER + INTRA:         -12.810
REMARK INTER:                  -8.966
REMARK INTRA:                  -3.843
REMARK UNBOUND:                -3.596
REMARK SMILES CCCCCCCCCCCCCCCCCCCCCC(=O)[O-]
REMARK SMILES IDX 12 1 11 2 10 3 9 4 8 5 7 6 6 7 5 8 4 9 3 10 2 11 1 12 13 13
REMARK SMILES IDX 14 14 15 15 16 16 17 17 18 18 19 19 20 20 21 21 22 22 23 23
REMARK SMILES IDX 24 24
REMARK H PARENT
REMARK Flexibility Score: inf
ROOT
ATOM      1  C   UNL     1      13.795   3.127  -0.343  1.00  0.00     0.000 C 
ENDROOT
BRANCH   1   2
ATOM      2  C   UNL     1      13.177   2.844  -1.721  1.00  0.00     0.000 C 
BRANCH   2   3
ATOM      3  C   UNL     1      12.142   1.708  -1.684  1.00  0.00     0.000 C 
BRANCH   3   4
ATOM      4  C   UNL     1      11.203   1.818  -0.462  1.00  0.00    -0.000 C 
BRANCH   4   5
ATOM      5  C   UNL     1       9.712   1.871  -0.835  1.00  0.00    -0.000 C 
BRANCH   5   6
ATOM      6  C   UNL     1       9.056   3.220  -0.492  1.00  0.00    -0.000 C 
BRANCH   6   7
ATOM      7  C   UNL     1       9.566   4.367  -1.391  1.00  0.00    -0.000 C 
BRANCH   7   8
ATOM      8  C   UNL     1       9.837   5.680  -0.629  1.00  0.00    -0.000 C 
BRANCH   8   9
ATOM      9  C   UNL     1      10.028   5.526   0.889  1.00  0.00    -0.000 C 
BRANCH   9  10
ATOM     10  C   UNL     1      11.497   5.291   1.283  1.00  0.00    -0.000 C 
BRANCH  10  11
ATOM     11  C   UNL     1      11.641   4.672   2.682  1.00  0.00    -0.003 C 
ATOM     12  C   UNL     1      10.942   3.318   2.809  1.00  0.00     0.004 C 
ENDBRANCH  10  11
ENDBRANCH   9  10
ENDBRANCH   8   9
ENDBRANCH   7   8
ENDBRANCH   6   7
ENDBRANCH   5   6
ENDBRANCH   4   5
ENDBRANCH   3   4
ENDBRANCH   2   3
ENDBRANCH   1   2
BRANCH   1  13
ATOM     13  C   UNL     1      15.227   3.682  -0.442  1.00  0.00     0.000 C 
BRANCH  13  14
ATOM     14  C   UNL     1      16.001   3.119  -1.647  1.00  0.00     0.000 C 
BRANCH  14  15
ATOM     15  C   UNL     1      16.865   1.882  -1.342  1.00  0.00     0.000 C 
BRANCH  15  16
ATOM     16  C   UNL     1      16.651   0.741  -2.352  1.00  0.00     0.000 C 
BRANCH  16  17
ATOM     17  C   UNL     1      15.331  -0.014  -2.121  1.00  0.00     0.000 C 
BRANCH  17  18
ATOM     18  C   UNL     1      15.380  -0.912  -0.871  1.00  0.00     0.000 C 
BRANCH  18  19
ATOM     19  C   UNL     1      14.384  -0.481   0.217  1.00  0.00     0.000 C 
BRANCH  19  20
ATOM     20  C   UNL     1      14.970  -0.363   1.638  1.00  0.00     0.006 C 
BRANCH  20  21
ATOM     21  C   UNL     1      15.762   0.935   1.885  1.00  0.00     0.053 C 
BRANCH  21  22
ATOM     22  C   UNL     1      15.302   1.659   3.115  1.00  0.00     0.041 C 
ATOM     23  O   UNL     1      14.189   2.248   3.122  1.00  0.00    -0.550 OA
ATOM     24  O   UNL     1      16.089   1.667   4.259  1.00  0.00    -0.550 OA
ENDBRANCH  21  22
ENDBRANCH  20  21
ENDBRANCH  19  20
ENDBRANCH  18  19
ENDBRANCH  17  18
ENDBRANCH  16  17
ENDBRANCH  15  16
ENDBRANCH  14  15
ENDBRANCH  13  14
ENDBRANCH   1  13
TORSDOF 20
ENDMDL
