MODEL 1
REMARK VINA RESULT:    -4.293      0.000      0.000
REMARK INTER + INTRA:          -5.244
REMARK INTER:                  -5.171
REMARK INTRA:                  -0.073
REMARK UNBOUND:                -0.073
REMARK SMILES OCCc1ccc(O)c(O)c1
REMARK SMILES IDX 3 1 4 2 5 3 6 4 7 5 11 6 9 7 8 8 10 10 2 12 1 13
REMARK H PARENT 8 9 10 11 1 14
REMARK Flexibility Score: inf
ROOT
ATOM      1  C   UNL     1      32.003  -6.402 -32.312  1.00  0.00     0.064 C 
ENDROOT
BRANCH   1   2
ATOM      2  C   UNL     1      30.647  -6.324 -31.661  1.00  0.00    -0.042 A 
ATOM      3  C   UNL     1      30.228  -5.137 -31.042  1.00  0.00     0.008 A 
ATOM      4  C   UNL     1      28.981  -5.072 -30.414  1.00  0.00     0.050 A 
ATOM      5  C   UNL     1      28.142  -6.195 -30.389  1.00  0.00     0.157 A 
ATOM      6  C   UNL     1      29.811  -7.452 -31.626  1.00  0.00     0.054 A 
ATOM      7  C   UNL     1      28.562  -7.390 -30.997  1.00  0.00     0.157 A 
BRANCH   5   8
ATOM      8  O   UNL     1      26.899  -6.127 -29.762  1.00  0.00    -0.504 OA
ATOM      9  H   UNL     1      26.107  -5.675 -30.202  1.00  0.00     0.293 HD
ENDBRANCH   5   8
BRANCH   7  10
ATOM     10  O   UNL     1      27.754  -8.527 -30.985  1.00  0.00    -0.504 OA
ATOM     11  H   UNL     1      27.619  -9.082 -30.147  1.00  0.00     0.293 HD
ENDBRANCH   7  10
ENDBRANCH   1   2
BRANCH   1  12
ATOM     12  C   UNL     1      32.677  -7.748 -32.034  1.00  0.00     0.161 C 
BRANCH  12  13
ATOM     13  O   UNL     1      33.472  -8.122 -33.125  1.00  0.00    -0.396 OA
ATOM     14  H   UNL     1      33.291  -9.086 -33.280  1.00  0.00     0.210 HD
ENDBRANCH  12  13
ENDBRANCH   1  12
TORSDOF 5
ENDMDL
MODEL 2
REMARK VINA RESULT:    -4.253      2.100      2.409
REMARK INTER + INTRA:          -5.196
REMARK INTER:                  -5.128
REMARK INTRA:                  -0.068
REMARK UNBOUND:                -0.073
REMARK SMILES OCCc1ccc(O)c(O)c1
REMARK SMILES IDX 3 1 4 2 5 3 6 4 7 5 11 6 9 7 8 8 10 10 2 12 1 13
REMARK H PARENT 8 9 10 11 1 14
REMARK Flexibility Score: inf
ROOT
ATOM      1  C   UNL     1      30.712  -4.589 -31.200  1.00  0.00     0.064 C 
ENDROOT
BRANCH   1   2
ATOM      2  C   UNL     1      29.626  -5.615 -31.007  1.00  0.00    -0.042 A 
ATOM      3  C   UNL     1      28.589  -5.382 -30.092  1.00  0.00     0.008 A 
ATOM      4  C   UNL     1      27.596  -6.345 -29.891  1.00  0.00     0.050 A 
ATOM      5  C   UNL     1      27.632  -7.556 -30.598  1.00  0.00     0.157 A 
ATOM      6  C   UNL     1      29.668  -6.833 -31.706  1.00  0.00     0.054 A 
ATOM      7  C   UNL     1      28.675  -7.799 -31.508  1.00  0.00     0.157 A 
BRANCH   5   8
ATOM      8  O   UNL     1      26.640  -8.514 -30.396  1.00  0.00    -0.504 OA
ATOM      9  H   UNL     1      26.817  -9.356 -29.862  1.00  0.00     0.293 HD
ENDBRANCH   5   8
BRANCH   7  10
ATOM     10  O   UNL     1      28.744  -8.996 -32.222  1.00  0.00    -0.504 OA
ATOM     11  H   UNL     1      28.218  -9.144 -33.075  1.00  0.00     0.293 HD
ENDBRANCH   7  10
ENDBRANCH   1   2
BRANCH   1  12
ATOM     12  C   UNL     1      31.370  -4.728 -32.575  1.00  0.00     0.161 C 
BRANCH  12  13
ATOM     13  O   UNL     1      31.609  -3.461 -33.124  1.00  0.00    -0.396 OA
ATOM     14  H   UNL     1      31.693  -2.840 -32.354  1.00  0.00     0.210 HD
ENDBRANCH  12  13
ENDBRANCH   1  12
TORSDOF 5
ENDMDL
MODEL 3
REMARK VINA RESULT:    -4.252      1.104      1.178
REMARK INTER + INTRA:          -5.195
REMARK INTER:                  -5.166
REMARK INTRA:                  -0.029
REMARK UNBOUND:                -0.073
REMARK SMILES OCCc1ccc(O)c(O)c1
REMARK SMILES IDX 3 1 4 2 5 3 6 4 7 5 11 6 9 7 8 8 10 10 2 12 1 13
REMARK H PARENT 8 9 10 11 1 14
REMARK Flexibility Score: inf
ROOT
ATOM      1  C   UNL     1      32.816  -6.986 -31.169  1.00  0.00     0.064 C 
ENDROOT
BRANCH   1   2
ATOM      2  C   UNL     1      31.310  -6.979 -31.182  1.00  0.00    -0.042 A 
ATOM      3  C   UNL     1      30.605  -5.871 -30.689  1.00  0.00     0.008 A 
ATOM      4  C   UNL     1      29.207  -5.874 -30.674  1.00  0.00     0.050 A 
ATOM      5  C   UNL     1      28.498  -6.988 -31.145  1.00  0.00     0.157 A 
ATOM      6  C   UNL     1      30.599  -8.099 -31.642  1.00  0.00     0.054 A 
ATOM      7  C   UNL     1      29.199  -8.106 -31.629  1.00  0.00     0.157 A 
BRANCH   5   8
ATOM      8  O   UNL     1      27.104  -6.988 -31.129  1.00  0.00    -0.504 OA
ATOM      9  H   UNL     1      26.564  -6.934 -31.984  1.00  0.00     0.293 HD
ENDBRANCH   5   8
BRANCH   7  10
ATOM     10  O   UNL     1      28.523  -9.232 -32.098  1.00  0.00    -0.504 OA
ATOM     11  H   UNL     1      27.546  -9.398 -31.892  1.00  0.00     0.293 HD
ENDBRANCH   7  10
ENDBRANCH   1   2
BRANCH   1  12
ATOM     12  C   UNL     1      33.384  -6.855 -32.584  1.00  0.00     0.161 C 
BRANCH  12  13
ATOM     13  O   UNL     1      33.625  -8.124 -33.125  1.00  0.00    -0.396 OA
ATOM     14  H   UNL     1      34.034  -8.661 -32.397  1.00  0.00     0.210 HD
ENDBRANCH  12  13
ENDBRANCH   1  12
TORSDOF 5
ENDMDL
MODEL 4
REMARK VINA RESULT:    -4.211      1.101      2.149
REMARK INTER + INTRA:          -5.145
REMARK INTER:                  -5.109
REMARK INTRA:                  -0.036
REMARK UNBOUND:                -0.073
REMARK SMILES OCCc1ccc(O)c(O)c1
REMARK SMILES IDX 3 1 4 2 5 3 6 4 7 5 11 6 9 7 8 8 10 10 2 12 1 13
REMARK H PARENT 8 9 10 11 1 14
REMARK Flexibility Score: inf
ROOT
ATOM      1  C   UNL     1      32.640  -6.905 -31.304  1.00  0.00     0.064 C 
ENDROOT
BRANCH   1   2
ATOM      2  C   UNL     1      31.141  -7.049 -31.288  1.00  0.00    -0.042 A 
ATOM      3  C   UNL     1      30.542  -8.241 -31.723  1.00  0.00     0.008 A 
ATOM      4  C   UNL     1      29.149  -8.366 -31.735  1.00  0.00     0.050 A 
ATOM      5  C   UNL     1      28.340  -7.299 -31.320  1.00  0.00     0.157 A 
ATOM      6  C   UNL     1      30.329  -5.977 -30.884  1.00  0.00     0.054 A 
ATOM      7  C   UNL     1      28.935  -6.099 -30.895  1.00  0.00     0.157 A 
BRANCH   5   8
ATOM      8  O   UNL     1      26.952  -7.427 -31.333  1.00  0.00    -0.504 OA
ATOM      9  H   UNL     1      26.344  -6.625 -31.222  1.00  0.00     0.293 HD
ENDBRANCH   5   8
BRANCH   7  10
ATOM     10  O   UNL     1      28.158  -5.016 -30.482  1.00  0.00    -0.504 OA
ATOM     11  H   UNL     1      27.758  -4.359 -31.142  1.00  0.00     0.293 HD
ENDBRANCH   7  10
ENDBRANCH   1   2
BRANCH   1  12
ATOM     12  C   UNL     1      33.180  -6.861 -32.735  1.00  0.00     0.161 C 
BRANCH  12  13
ATOM     13  O   UNL     1      33.615  -8.134 -33.125  1.00  0.00    -0.396 OA
ATOM     14  H   UNL     1      34.070  -8.523 -32.333  1.00  0.00     0.210 HD
ENDBRANCH  12  13
ENDBRANCH   1  12
TORSDOF 5
ENDMDL
MODEL 5
REMARK VINA RESULT:    -4.148      3.525      4.165
REMARK INTER + INTRA:          -5.069
REMARK INTER:                  -4.994
REMARK INTRA:                  -0.075
REMARK UNBOUND:                -0.073
REMARK SMILES OCCc1ccc(O)c(O)c1
REMARK SMILES IDX 3 1 4 2 5 3 6 4 7 5 11 6 9 7 8 8 10 10 2 12 1 13
REMARK H PARENT 8 9 10 11 1 14
REMARK Flexibility Score: inf
ROOT
ATOM      1  C   UNL     1      33.948  -7.813 -30.767  1.00  0.00     0.064 C 
ENDROOT
BRANCH   1   2
ATOM      2  C   UNL     1      33.136  -8.113 -29.533  1.00  0.00    -0.042 A 
ATOM      3  C   UNL     1      33.776  -8.469 -28.337  1.00  0.00     0.008 A 
ATOM      4  C   UNL     1      33.024  -8.775 -27.199  1.00  0.00     0.050 A 
ATOM      5  C   UNL     1      31.623  -8.737 -27.247  1.00  0.00     0.157 A 
ATOM      6  C   UNL     1      31.733  -8.087 -29.583  1.00  0.00     0.054 A 
ATOM      7  C   UNL     1      30.977  -8.393 -28.446  1.00  0.00     0.157 A 
BRANCH   5   8
ATOM      8  O   UNL     1      30.876  -9.042 -26.110  1.00  0.00    -0.504 OA
ATOM      9  H   UNL     1      31.182  -9.743 -25.446  1.00  0.00     0.293 HD
ENDBRANCH   5   8
BRANCH   7  10
ATOM     10  O   UNL     1      29.585  -8.352 -28.528  1.00  0.00    -0.504 OA
ATOM     11  H   UNL     1      29.096  -8.434 -29.411  1.00  0.00     0.293 HD
ENDBRANCH   7  10
ENDBRANCH   1   2
BRANCH   1  12
ATOM     12  C   UNL     1      33.053  -7.676 -32.001  1.00  0.00     0.161 C 
BRANCH  12  13
ATOM     13  O   UNL     1      33.696  -8.212 -33.123  1.00  0.00    -0.396 OA
ATOM     14  H   UNL     1      33.045  -8.148 -33.870  1.00  0.00     0.210 HD
ENDBRANCH  12  13
ENDBRANCH   1  12
TORSDOF 5
ENDMDL
MODEL 6
REMARK VINA RESULT:    -4.038      2.334      4.741
REMARK INTER + INTRA:          -4.937
REMARK INTER:                  -4.844
REMARK INTRA:                  -0.093
REMARK UNBOUND:                -0.073
REMARK SMILES OCCc1ccc(O)c(O)c1
REMARK SMILES IDX 3 1 4 2 5 3 6 4 7 5 11 6 9 7 8 8 10 10 2 12 1 13
REMARK H PARENT 8 9 10 11 1 14
REMARK Flexibility Score: inf
ROOT
ATOM      1  C   UNL     1      27.893  -4.172 -28.965  1.00  0.00     0.064 C 
ENDROOT
BRANCH   1   2
ATOM      2  C   UNL     1      28.115  -5.427 -29.768  1.00  0.00    -0.042 A 
ATOM      3  C   UNL     1      29.156  -5.489 -30.708  1.00  0.00     0.008 A 
ATOM      4  C   UNL     1      29.346  -6.643 -31.474  1.00  0.00     0.050 A 
ATOM      5  C   UNL     1      28.495  -7.745 -31.314  1.00  0.00     0.157 A 
ATOM      6  C   UNL     1      27.256  -6.528 -29.618  1.00  0.00     0.054 A 
ATOM      7  C   UNL     1      27.444  -7.685 -30.383  1.00  0.00     0.157 A 
BRANCH   5   8
ATOM      8  O   UNL     1      28.688  -8.895 -32.079  1.00  0.00    -0.504 OA
ATOM      9  H   UNL     1      29.382  -9.589 -31.828  1.00  0.00     0.293 HD
ENDBRANCH   5   8
BRANCH   7  10
ATOM     10  O   UNL     1      26.576  -8.762 -30.205  1.00  0.00    -0.504 OA
ATOM     11  H   UNL     1      25.779  -8.712 -29.582  1.00  0.00     0.293 HD
ENDBRANCH   7  10
ENDBRANCH   1   2
BRANCH   1  12
ATOM     12  C   UNL     1      26.443  -4.069 -28.486  1.00  0.00     0.161 C 
BRANCH  12  13
ATOM     13  O   UNL     1      25.714  -3.227 -29.336  1.00  0.00    -0.396 OA
ATOM     14  H   UNL     1      24.757  -3.431 -29.170  1.00  0.00     0.210 HD
ENDBRANCH  12  13
ENDBRANCH   1  12
TORSDOF 5
ENDMDL
MODEL 7
REMARK VINA RESULT:    -3.928      3.653      5.275
REMARK INTER + INTRA:          -4.805
REMARK INTER:                  -4.718
REMARK INTRA:                  -0.086
REMARK UNBOUND:                -0.073
REMARK SMILES OCCc1ccc(O)c(O)c1
REMARK SMILES IDX 3 1 4 2 5 3 6 4 7 5 11 6 9 7 8 8 10 10 2 12 1 13
REMARK H PARENT 8 9 10 11 1 14
REMARK Flexibility Score: inf
ROOT
ATOM      1  C   UNL     1      32.728  -8.382 -27.165  1.00  0.00     0.064 C 
ENDROOT
BRANCH   1   2
ATOM      2  C   UNL     1      32.811  -8.352 -28.668  1.00  0.00    -0.042 A 
ATOM      3  C   UNL     1      34.041  -8.124 -29.303  1.00  0.00     0.008 A 
ATOM      4  C   UNL     1      34.115  -8.068 -30.698  1.00  0.00     0.050 A 
ATOM      5  C   UNL     1      32.959  -8.231 -31.474  1.00  0.00     0.157 A 
ATOM      6  C   UNL     1      31.652  -8.504 -29.446  1.00  0.00     0.054 A 
ATOM      7  C   UNL     1      31.722  -8.448 -30.843  1.00  0.00     0.157 A 
BRANCH   5   8
ATOM      8  O   UNL     1      33.035  -8.175 -32.865  1.00  0.00    -0.504 OA
ATOM      9  H   UNL     1      32.819  -8.979 -33.441  1.00  0.00     0.293 HD
ENDBRANCH   5   8
BRANCH   7  10
ATOM     10  O   UNL     1      30.552  -8.608 -31.586  1.00  0.00    -0.504 OA
ATOM     11  H   UNL     1      30.163  -7.858 -32.145  1.00  0.00     0.293 HD
ENDBRANCH   7  10
ENDBRANCH   1   2
BRANCH   1  12
ATOM     12  C   UNL     1      31.628  -9.333 -26.688  1.00  0.00     0.161 C 
BRANCH  12  13
ATOM     13  O   UNL     1      32.191 -10.541 -26.255  1.00  0.00    -0.396 OA
ATOM     14  H   UNL     1      32.913 -10.755 -26.901  1.00  0.00     0.210 HD
ENDBRANCH  12  13
ENDBRANCH   1  12
TORSDOF 5
ENDMDL
MODEL 8
REMARK VINA RESULT:    -3.827      2.206      5.087
REMARK INTER + INTRA:          -4.683
REMARK INTER:                  -4.590
REMARK INTRA:                  -0.093
REMARK UNBOUND:                -0.073
REMARK SMILES OCCc1ccc(O)c(O)c1
REMARK SMILES IDX 3 1 4 2 5 3 6 4 7 5 11 6 9 7 8 8 10 10 2 12 1 13
REMARK H PARENT 8 9 10 11 1 14
REMARK Flexibility Score: inf
ROOT
ATOM      1  C   UNL     1      27.538  -4.341 -28.845  1.00  0.00     0.064 C 
ENDROOT
BRANCH   1   2
ATOM      2  C   UNL     1      27.847  -5.528 -29.720  1.00  0.00    -0.042 A 
ATOM      3  C   UNL     1      27.044  -6.677 -29.660  1.00  0.00     0.008 A 
ATOM      4  C   UNL     1      27.345  -7.789 -30.451  1.00  0.00     0.050 A 
ATOM      5  C   UNL     1      28.457  -7.769 -31.305  1.00  0.00     0.157 A 
ATOM      6  C   UNL     1      28.966  -5.513 -30.568  1.00  0.00     0.054 A 
ATOM      7  C   UNL     1      29.271  -6.625 -31.361  1.00  0.00     0.157 A 
BRANCH   5   8
ATOM      8  O   UNL     1      28.754  -8.880 -32.093  1.00  0.00    -0.504 OA
ATOM      9  H   UNL     1      29.251  -9.678 -31.718  1.00  0.00     0.293 HD
ENDBRANCH   5   8
BRANCH   7  10
ATOM     10  O   UNL     1      30.387  -6.575 -32.196  1.00  0.00    -0.504 OA
ATOM     11  H   UNL     1      30.777  -5.698 -32.520  1.00  0.00     0.293 HD
ENDBRANCH   7  10
ENDBRANCH   1   2
BRANCH   1  12
ATOM     12  C   UNL     1      26.081  -4.359 -28.377  1.00  0.00     0.161 C 
BRANCH  12  13
ATOM     13  O   UNL     1      25.330  -3.430 -29.109  1.00  0.00    -0.396 OA
ATOM     14  H   UNL     1      24.593  -3.140 -28.511  1.00  0.00     0.210 HD
ENDBRANCH  12  13
ENDBRANCH   1  12
TORSDOF 5
ENDMDL
MODEL 9
REMARK VINA RESULT:    -3.819      1.869      4.764
REMARK INTER + INTRA:          -4.673
REMARK INTER:                  -4.578
REMARK INTRA:                  -0.095
REMARK UNBOUND:                -0.073
REMARK SMILES OCCc1ccc(O)c(O)c1
REMARK SMILES IDX 3 1 4 2 5 3 6 4 7 5 11 6 9 7 8 8 10 10 2 12 1 13
REMARK H PARENT 8 9 10 11 1 14
REMARK Flexibility Score: inf
ROOT
ATOM      1  C   UNL     1      28.226  -7.371 -31.244  1.00  0.00     0.064 C 
ENDROOT
BRANCH   1   2
ATOM      2  C   UNL     1      29.639  -7.686 -30.826  1.00  0.00    -0.042 A 
ATOM      3  C   UNL     1      29.968  -7.783 -29.466  1.00  0.00     0.008 A 
ATOM      4  C   UNL     1      31.285  -8.048 -29.076  1.00  0.00     0.050 A 
ATOM      5  C   UNL     1      32.288  -8.212 -30.042  1.00  0.00     0.157 A 
ATOM      6  C   UNL     1      30.647  -7.839 -31.792  1.00  0.00     0.054 A 
ATOM      7  C   UNL     1      31.966  -8.105 -31.406  1.00  0.00     0.157 A 
BRANCH   5   8
ATOM      8  O   UNL     1      33.599  -8.476 -29.651  1.00  0.00    -0.504 OA
ATOM      9  H   UNL     1      34.280  -8.854 -30.298  1.00  0.00     0.293 HD
ENDBRANCH   5   8
BRANCH   7  10
ATOM     10  O   UNL     1      32.942  -8.256 -32.391  1.00  0.00    -0.504 OA
ATOM     11  H   UNL     1      32.958  -9.055 -33.013  1.00  0.00     0.293 HD
ENDBRANCH   7  10
ENDBRANCH   1   2
BRANCH   1  12
ATOM     12  C   UNL     1      27.258  -7.491 -30.065  1.00  0.00     0.161 C 
BRANCH  12  13
ATOM     13  O   UNL     1      26.560  -8.704 -30.137  1.00  0.00    -0.396 OA
ATOM     14  H   UNL     1      25.841  -8.567 -30.808  1.00  0.00     0.210 HD
ENDBRANCH  12  13
ENDBRANCH   1  12
TORSDOF 5
ENDMDL
