MODEL 1
REMARK VINA RESULT:    -6.685      0.000      0.000
REMARK INTER + INTRA:          -6.685
REMARK INTER:                  -6.685
REMARK INTRA:                   0.000
REMARK UNBOUND:                 0.000
REMARK SMILES C=C1CCC[C@@]2(C)CC(=O)C(=C(C)C)C[C@H]12
REMARK SMILES IDX 13 1 12 2 11 3 15 4 16 5 2 6 1 7 3 8 4 9 5 10 6 11 8 12 9 13
REMARK SMILES IDX 10 14 7 15 14 16
REMARK H PARENT
REMARK Flexibility Score: inf
ROOT
ATOM      1  C   UNL     1      18.083 -10.618  67.543  1.00  0.00     0.039 C 
ATOM      2  C   UNL     1      18.541 -10.126  66.188  1.00  0.00    -0.070 C 
ATOM      3  C   UNL     1      17.783 -10.322  65.069  1.00  0.00    -0.006 C 
ATOM      4  C   UNL     1      16.433 -11.024  65.146  1.00  0.00     0.047 C 
ATOM      5  C   UNL     1      15.438 -10.528  64.067  1.00  0.00     0.025 C 
ATOM      6  C   UNL     1      14.077 -11.226  64.069  1.00  0.00    -0.073 C 
ATOM      7  C   UNL     1      13.736 -12.211  64.921  1.00  0.00     0.008 C 
ATOM      8  C   UNL     1      13.066 -10.720  63.067  1.00  0.00     0.031 C 
ATOM      9  C   UNL     1      13.667 -10.719  61.658  1.00  0.00     0.005 C 
ATOM     10  C   UNL     1      15.017  -9.984  61.617  1.00  0.00     0.008 C 
ATOM     11  C   UNL     1      16.054 -10.552  62.634  1.00  0.00    -0.018 C 
ATOM     12  C   UNL     1      17.300  -9.633  62.615  1.00  0.00     0.088 C 
ATOM     13  C   UNL     1      18.275  -9.978  63.703  1.00  0.00     0.159 C 
ATOM     14  O   UNL     1      19.505  -9.983  63.431  1.00  0.00    -0.295 OA
ATOM     15  C   UNL     1      16.468 -11.987  62.207  1.00  0.00     0.012 C 
ATOM     16  C   UNL     1      19.854  -9.380  66.140  1.00  0.00     0.039 C 
ENDROOT
TORSDOF 0
ENDMDL
MODEL 2
REMARK VINA RESULT:    -6.543      1.935      5.505
REMARK INTER + INTRA:          -6.543
REMARK INTER:                  -6.543
REMARK INTRA:                   0.000
REMARK UNBOUND:                 0.000
REMARK SMILES C=C1CCC[C@@]2(C)CC(=O)C(=C(C)C)C[C@H]12
REMARK SMILES IDX 13 1 12 2 11 3 15 4 16 5 2 6 1 7 3 8 4 9 5 10 6 11 8 12 9 13
REMARK SMILES IDX 10 14 7 15 14 16
REMARK H PARENT
REMARK Flexibility Score: inf
ROOT
ATOM      1  C   UNL     1      15.927  -8.509  61.679  1.00  0.00     0.039 C 
ATOM      2  C   UNL     1      15.357  -9.309  62.829  1.00  0.00    -0.070 C 
ATOM      3  C   UNL     1      16.170  -9.958  63.714  1.00  0.00    -0.006 C 
ATOM      4  C   UNL     1      17.686  -9.881  63.592  1.00  0.00     0.047 C 
ATOM      5  C   UNL     1      18.404  -9.988  64.960  1.00  0.00     0.025 C 
ATOM      6  C   UNL     1      19.931  -9.958  64.897  1.00  0.00    -0.073 C 
ATOM      7  C   UNL     1      20.637  -9.858  63.754  1.00  0.00     0.008 C 
ATOM      8  C   UNL     1      20.655  -9.999  66.222  1.00  0.00     0.031 C 
ATOM      9  C   UNL     1      20.177 -11.194  67.053  1.00  0.00     0.005 C 
ATOM     10  C   UNL     1      18.644 -11.225  67.171  1.00  0.00     0.008 C 
ATOM     11  C   UNL     1      17.923 -11.221  65.788  1.00  0.00    -0.018 C 
ATOM     12  C   UNL     1      16.402 -11.086  66.039  1.00  0.00     0.088 C 
ATOM     13  C   UNL     1      15.635 -10.871  64.766  1.00  0.00     0.159 C 
ATOM     14  O   UNL     1      14.546 -11.486  64.606  1.00  0.00    -0.295 OA
ATOM     15  C   UNL     1      18.206 -12.558  65.051  1.00  0.00     0.012 C 
ATOM     16  C   UNL     1      13.852  -9.326  62.970  1.00  0.00     0.039 C 
ENDROOT
TORSDOF 0
ENDMDL
MODEL 3
REMARK VINA RESULT:    -6.541      3.326      5.615
REMARK INTER + INTRA:          -6.541
REMARK INTER:                  -6.541
REMARK INTRA:                   0.000
REMARK UNBOUND:                 0.000
REMARK SMILES C=C1CCC[C@@]2(C)CC(=O)C(=C(C)C)C[C@H]12
REMARK SMILES IDX 13 1 12 2 11 3 15 4 16 5 2 6 1 7 3 8 4 9 5 10 6 11 8 12 9 13
REMARK SMILES IDX 10 14 7 15 14 16
REMARK H PARENT
REMARK Flexibility Score: inf
ROOT
ATOM      1  C   UNL     1      23.229 -13.392  66.550  1.00  0.00     0.039 C 
ATOM      2  C   UNL     1      22.226 -13.295  67.678  1.00  0.00    -0.070 C 
ATOM      3  C   UNL     1      21.108 -12.518  67.569  1.00  0.00    -0.006 C 
ATOM      4  C   UNL     1      20.815 -11.735  66.296  1.00  0.00     0.047 C 
ATOM      5  C   UNL     1      19.298 -11.554  66.040  1.00  0.00     0.025 C 
ATOM      6  C   UNL     1      18.942 -10.740  64.796  1.00  0.00    -0.073 C 
ATOM      7  C   UNL     1      19.851 -10.194  63.965  1.00  0.00     0.008 C 
ATOM      8  C   UNL     1      17.469 -10.599  64.488  1.00  0.00     0.031 C 
ATOM      9  C   UNL     1      16.719 -10.064  65.712  1.00  0.00     0.005 C 
ATOM     10  C   UNL     1      17.024 -10.892  66.971  1.00  0.00     0.008 C 
ATOM     11  C   UNL     1      18.548 -10.989  67.286  1.00  0.00    -0.018 C 
ATOM     12  C   UNL     1      18.735 -11.974  68.465  1.00  0.00     0.088 C 
ATOM     13  C   UNL     1      20.181 -12.291  68.715  1.00  0.00     0.159 C 
ATOM     14  O   UNL     1      20.589 -12.344  69.907  1.00  0.00    -0.295 OA
ATOM     15  C   UNL     1      19.083  -9.589  67.697  1.00  0.00     0.012 C 
ATOM     16  C   UNL     1      22.502 -14.125  68.911  1.00  0.00     0.039 C 
ENDROOT
TORSDOF 0
ENDMDL
MODEL 4
REMARK VINA RESULT:    -6.380      2.650      4.426
REMARK INTER + INTRA:          -6.380
REMARK INTER:                  -6.380
REMARK INTRA:                   0.000
REMARK UNBOUND:                 0.000
REMARK SMILES C=C1CCC[C@@]2(C)CC(=O)C(=C(C)C)C[C@H]12
REMARK SMILES IDX 13 1 12 2 11 3 15 4 16 5 2 6 1 7 3 8 4 9 5 10 6 11 8 12 9 13
REMARK SMILES IDX 10 14 7 15 14 16
REMARK H PARENT
REMARK Flexibility Score: inf
ROOT
ATOM      1  C   UNL     1      22.471 -12.113  65.896  1.00  0.00     0.039 C 
ATOM      2  C   UNL     1      21.376 -12.561  66.838  1.00  0.00    -0.070 C 
ATOM      3  C   UNL     1      20.084 -12.150  66.670  1.00  0.00    -0.006 C 
ATOM      4  C   UNL     1      19.691 -11.242  65.512  1.00  0.00     0.047 C 
ATOM      5  C   UNL     1      18.235 -11.474  65.035  1.00  0.00     0.025 C 
ATOM      6  C   UNL     1      17.771 -10.561  63.901  1.00  0.00    -0.073 C 
ATOM      7  C   UNL     1      18.536  -9.606  63.339  1.00  0.00     0.008 C 
ATOM      8  C   UNL     1      16.376 -10.807  63.375  1.00  0.00     0.031 C 
ATOM      9  C   UNL     1      15.363 -10.791  64.524  1.00  0.00     0.005 C 
ATOM     10  C   UNL     1      15.783 -11.736  65.663  1.00  0.00     0.008 C 
ATOM     11  C   UNL     1      17.211 -11.435  66.212  1.00  0.00    -0.018 C 
ATOM     12  C   UNL     1      17.580 -12.545  67.227  1.00  0.00     0.088 C 
ATOM     13  C   UNL     1      19.015 -12.458  67.664  1.00  0.00     0.159 C 
ATOM     14  O   UNL     1      19.286 -12.636  68.882  1.00  0.00    -0.295 OA
ATOM     15  C   UNL     1      17.211 -10.059  66.933  1.00  0.00     0.012 C 
ATOM     16  C   UNL     1      21.772 -13.510  67.946  1.00  0.00     0.039 C 
ENDROOT
TORSDOF 0
ENDMDL
MODEL 5
REMARK VINA RESULT:    -6.310      2.074      5.303
REMARK INTER + INTRA:          -6.310
REMARK INTER:                  -6.310
REMARK INTRA:                   0.000
REMARK UNBOUND:                 0.000
REMARK SMILES C=C1CCC[C@@]2(C)CC(=O)C(=C(C)C)C[C@H]12
REMARK SMILES IDX 13 1 12 2 11 3 15 4 16 5 2 6 1 7 3 8 4 9 5 10 6 11 8 12 9 13
REMARK SMILES IDX 10 14 7 15 14 16
REMARK H PARENT
REMARK Flexibility Score: inf
ROOT
ATOM      1  C   UNL     1      15.075  -8.003  61.657  1.00  0.00     0.039 C 
ATOM      2  C   UNL     1      14.305  -9.068  62.404  1.00  0.00    -0.070 C 
ATOM      3  C   UNL     1      14.911  -9.858  63.340  1.00  0.00    -0.006 C 
ATOM      4  C   UNL     1      16.384  -9.681  63.683  1.00  0.00     0.047 C 
ATOM      5  C   UNL     1      16.707 -10.056  65.151  1.00  0.00     0.025 C 
ATOM      6  C   UNL     1      18.180  -9.937  65.543  1.00  0.00    -0.073 C 
ATOM      7  C   UNL     1      19.156  -9.549  64.701  1.00  0.00     0.008 C 
ATOM      8  C   UNL     1      18.513 -10.239  66.986  1.00  0.00     0.031 C 
ATOM      9  C   UNL     1      17.962 -11.611  67.384  1.00  0.00     0.005 C 
ATOM     10  C   UNL     1      16.468 -11.744  67.041  1.00  0.00     0.008 C 
ATOM     11  C   UNL     1      16.159 -11.465  65.538  1.00  0.00    -0.018 C 
ATOM     12  C   UNL     1      14.621 -11.465  65.356  1.00  0.00     0.088 C 
ATOM     13  C   UNL     1      14.214 -11.008  63.984  1.00  0.00     0.159 C 
ATOM     14  O   UNL     1      13.286 -11.625  63.394  1.00  0.00    -0.295 OA
ATOM     15  C   UNL     1      16.780 -12.588  64.662  1.00  0.00     0.012 C 
ATOM     16  C   UNL     1      12.830  -9.191  62.094  1.00  0.00     0.039 C 
ENDROOT
TORSDOF 0
ENDMDL
MODEL 6
REMARK VINA RESULT:    -6.268      1.871      5.036
REMARK INTER + INTRA:          -6.268
REMARK INTER:                  -6.268
REMARK INTRA:                   0.000
REMARK UNBOUND:                 0.000
REMARK SMILES C=C1CCC[C@@]2(C)CC(=O)C(=C(C)C)C[C@H]12
REMARK SMILES IDX 13 1 12 2 11 3 15 4 16 5 2 6 1 7 3 8 4 9 5 10 6 11 8 12 9 13
REMARK SMILES IDX 10 14 7 15 14 16
REMARK H PARENT
REMARK Flexibility Score: inf
ROOT
ATOM      1  C   UNL     1      13.714 -12.086  64.534  1.00  0.00     0.039 C 
ATOM      2  C   UNL     1      14.578 -10.965  64.001  1.00  0.00    -0.070 C 
ATOM      3  C   UNL     1      15.855 -10.778  64.451  1.00  0.00    -0.006 C 
ATOM      4  C   UNL     1      16.466 -11.707  65.491  1.00  0.00     0.047 C 
ATOM      5  C   UNL     1      18.001 -11.849  65.340  1.00  0.00     0.025 C 
ATOM      6  C   UNL     1      18.678 -12.738  66.383  1.00  0.00    -0.073 C 
ATOM      7  C   UNL     1      18.023 -13.361  67.382  1.00  0.00     0.008 C 
ATOM      8  C   UNL     1      20.166 -12.943  66.223  1.00  0.00     0.031 C 
ATOM      9  C   UNL     1      20.881 -11.592  66.126  1.00  0.00     0.005 C 
ATOM     10  C   UNL     1      20.249 -10.691  65.051  1.00  0.00     0.008 C 
ATOM     11  C   UNL     1      18.721 -10.466  65.263  1.00  0.00    -0.018 C 
ATOM     12  C   UNL     1      18.174  -9.691  64.040  1.00  0.00     0.088 C 
ATOM     13  C   UNL     1      16.675  -9.598  64.051  1.00  0.00     0.159 C 
ATOM     14  O   UNL     1      16.136  -8.505  63.732  1.00  0.00    -0.295 OA
ATOM     15  C   UNL     1      18.493  -9.624  66.549  1.00  0.00     0.012 C 
ATOM     16  C   UNL     1      13.977 -10.089  62.926  1.00  0.00     0.039 C 
ENDROOT
TORSDOF 0
ENDMDL
MODEL 7
REMARK VINA RESULT:    -6.245      2.013      5.106
REMARK INTER + INTRA:          -6.245
REMARK INTER:                  -6.245
REMARK INTRA:                   0.000
REMARK UNBOUND:                 0.000
REMARK SMILES C=C1CCC[C@@]2(C)CC(=O)C(=C(C)C)C[C@H]12
REMARK SMILES IDX 13 1 12 2 11 3 15 4 16 5 2 6 1 7 3 8 4 9 5 10 6 11 8 12 9 13
REMARK SMILES IDX 10 14 7 15 14 16
REMARK H PARENT
REMARK Flexibility Score: inf
ROOT
ATOM      1  C   UNL     1      13.858  -9.910  63.143  1.00  0.00     0.039 C 
ATOM      2  C   UNL     1      14.677 -11.101  62.700  1.00  0.00    -0.070 C 
ATOM      3  C   UNL     1      15.748 -11.536  63.428  1.00  0.00    -0.006 C 
ATOM      4  C   UNL     1      16.146 -10.851  64.728  1.00  0.00     0.047 C 
ATOM      5  C   UNL     1      16.807 -11.821  65.739  1.00  0.00     0.025 C 
ATOM      6  C   UNL     1      17.265 -11.181  67.050  1.00  0.00    -0.073 C 
ATOM      7  C   UNL     1      17.133  -9.872  67.337  1.00  0.00     0.008 C 
ATOM      8  C   UNL     1      17.858 -12.116  68.078  1.00  0.00     0.031 C 
ATOM      9  C   UNL     1      18.991 -12.939  67.459  1.00  0.00     0.005 C 
ATOM     10  C   UNL     1      18.545 -13.632  66.160  1.00  0.00     0.008 C 
ATOM     11  C   UNL     1      17.973 -12.639  65.102  1.00  0.00    -0.018 C 
ATOM     12  C   UNL     1      17.411 -13.466  63.921  1.00  0.00     0.088 C 
ATOM     13  C   UNL     1      16.658 -12.613  62.940  1.00  0.00     0.159 C 
ATOM     14  O   UNL     1      16.824 -12.821  61.708  1.00  0.00    -0.295 OA
ATOM     15  C   UNL     1      19.112 -11.717  64.587  1.00  0.00     0.012 C 
ATOM     16  C   UNL     1      14.232 -11.806  61.439  1.00  0.00     0.039 C 
ENDROOT
TORSDOF 0
ENDMDL
MODEL 8
REMARK VINA RESULT:    -5.874      1.862      2.785
REMARK INTER + INTRA:          -5.874
REMARK INTER:                  -5.874
REMARK INTRA:                   0.000
REMARK UNBOUND:                 0.000
REMARK SMILES C=C1CCC[C@@]2(C)CC(=O)C(=C(C)C)C[C@H]12
REMARK SMILES IDX 13 1 12 2 11 3 15 4 16 5 2 6 1 7 3 8 4 9 5 10 6 11 8 12 9 13
REMARK SMILES IDX 10 14 7 15 14 16
REMARK H PARENT
REMARK Flexibility Score: inf
ROOT
ATOM      1  C   UNL     1      20.143  -9.622  65.869  1.00  0.00     0.039 C 
ATOM      2  C   UNL     1      19.604 -11.029  65.748  1.00  0.00    -0.070 C 
ATOM      3  C   UNL     1      18.395 -11.278  65.163  1.00  0.00    -0.006 C 
ATOM      4  C   UNL     1      17.551 -10.148  64.589  1.00  0.00     0.047 C 
ATOM      5  C   UNL     1      16.682 -10.599  63.389  1.00  0.00     0.025 C 
ATOM      6  C   UNL     1      15.782  -9.516  62.795  1.00  0.00    -0.073 C 
ATOM      7  C   UNL     1      15.712  -8.254  63.260  1.00  0.00     0.008 C 
ATOM      8  C   UNL     1      14.969  -9.912  61.584  1.00  0.00     0.031 C 
ATOM      9  C   UNL     1      14.160 -11.179  61.878  1.00  0.00     0.005 C 
ATOM     10  C   UNL     1      15.049 -12.303  62.436  1.00  0.00     0.008 C 
ATOM     11  C   UNL     1      15.847 -11.878  63.707  1.00  0.00    -0.018 C 
ATOM     12  C   UNL     1      16.820 -13.027  64.071  1.00  0.00     0.088 C 
ATOM     13  C   UNL     1      17.775 -12.635  65.161  1.00  0.00     0.159 C 
ATOM     14  O   UNL     1      18.026 -13.470  66.071  1.00  0.00    -0.295 OA
ATOM     15  C   UNL     1      14.862 -11.647  64.886  1.00  0.00     0.012 C 
ATOM     16  C   UNL     1      20.481 -12.145  66.270  1.00  0.00     0.039 C 
ENDROOT
TORSDOF 0
ENDMDL
