MODEL 1
REMARK VINA RESULT:    17.512      0.000      0.000
REMARK INTER + INTRA:          27.306
REMARK INTER:                  23.654
REMARK INTRA:                   3.651
REMARK UNBOUND:                 3.651
REMARK SMILES O=c1c(-c2ccc(O)cc2)coc2c([C@H]3O[C@H](CO)[C@@H](O)[C@H](O)[C@@H]3O)c(O)ccc12
REMARK SMILES IDX 3 1 11 2 12 3 13 4 30 5 2 6 1 7 29 8 28 9 26 10 14 11 4 12
REMARK SMILES IDX 5 13 6 14 7 15 10 16 9 17 8 18 15 20 24 21 16 22 22 23 17 24
REMARK SMILES IDX 20 25 25 26 23 28 18 30 19 31 21 33 27 35
REMARK H PARENT 8 19 25 27 23 29 19 32 21 34 27 36
REMARK Flexibility Score: inf
ROOT
ATOM      1  C   UNL     1      87.161  54.786  89.914  1.00  0.00     0.065 A 
ATOM      2  C   UNL     1      87.620  54.481  91.203  1.00  0.00     0.208 A 
ATOM      3  O   UNL     1      88.323  53.376  91.431  1.00  0.00    -0.463 OA
ATOM      4  C   UNL     1      88.617  52.483  90.485  1.00  0.00     0.147 A 
ATOM      5  C   UNL     1      88.162  52.703  89.162  1.00  0.00     0.066 A 
ATOM      6  C   UNL     1      87.436  53.873  88.879  1.00  0.00     0.200 A 
ATOM      7  O   UNL     1      87.010  54.091  87.709  1.00  0.00    -0.288 OA
ATOM      8  C   UNL     1      88.403  51.739  88.177  1.00  0.00     0.020 A 
ATOM      9  C   UNL     1      89.062  50.560  88.500  1.00  0.00     0.047 A 
ATOM     10  C   UNL     1      89.522  50.324  89.799  1.00  0.00     0.125 A 
ATOM     11  C   UNL     1      89.355  51.313  90.814  1.00  0.00     0.069 A 
ENDROOT
BRANCH   1  12
ATOM     12  C   UNL     1      86.395  56.034  89.672  1.00  0.00    -0.011 A 
ATOM     13  C   UNL     1      85.516  56.133  88.578  1.00  0.00     0.013 A 
ATOM     14  C   UNL     1      84.766  57.296  88.375  1.00  0.00     0.047 A 
ATOM     15  C   UNL     1      84.891  58.377  89.261  1.00  0.00     0.115 A 
ATOM     16  C   UNL     1      86.531  57.133  90.541  1.00  0.00     0.013 A 
ATOM     17  C   UNL     1      85.780  58.293  90.337  1.00  0.00     0.047 A 
BRANCH  15  18
ATOM     18  O   UNL     1      84.136  59.536  89.082  1.00  0.00    -0.508 OA
ATOM     19  H   UNL     1      84.447  60.431  89.450  1.00  0.00     0.293 HD
ENDBRANCH  15  18
ENDBRANCH   1  12
BRANCH  11  20
ATOM     20  C   UNL     1      89.794  51.119  92.279  1.00  0.00     0.188 C 
ATOM     21  C   UNL     1      88.911  50.195  93.186  1.00  0.00     0.179 C 
ATOM     22  O   UNL     1      90.124  52.362  92.886  1.00  0.00    -0.362 OA
ATOM     23  C   UNL     1      88.849  50.751  94.624  1.00  0.00     0.177 C 
ATOM     24  C   UNL     1      88.987  53.017  93.422  1.00  0.00     0.176 C 
ATOM     25  C   UNL     1      88.355  52.213  94.602  1.00  0.00     0.177 C 
BRANCH  21  26
ATOM     26  O   UNL     1      89.367  48.862  93.170  1.00  0.00    -0.387 OA
ATOM     27  H   UNL     1      88.930  48.370  93.913  1.00  0.00     0.211 HD
ENDBRANCH  21  26
BRANCH  23  28
ATOM     28  O   UNL     1      90.125  50.709  95.219  1.00  0.00    -0.387 OA
ATOM     29  H   UNL     1      90.107  49.998  95.910  1.00  0.00     0.211 HD
ENDBRANCH  23  28
BRANCH  24  30
ATOM     30  C   UNL     1      89.398  54.431  93.873  1.00  0.00     0.191 C 
BRANCH  30  31
ATOM     31  O   UNL     1      89.790  54.434  95.218  1.00  0.00    -0.394 OA
ATOM     32  H   UNL     1      90.526  55.096  95.303  1.00  0.00     0.210 HD
ENDBRANCH  30  31
ENDBRANCH  24  30
BRANCH  25  33
ATOM     33  O   UNL     1      86.953  52.230  94.498  1.00  0.00    -0.388 OA
ATOM     34  H   UNL     1      86.640  51.308  94.680  1.00  0.00     0.211 HD
ENDBRANCH  25  33
ENDBRANCH  11  20
BRANCH  10  35
ATOM     35  O   UNL     1      90.125  49.096  90.059  1.00  0.00    -0.507 OA
ATOM     36  H   UNL     1      90.560  48.546  89.325  1.00  0.00     0.293 HD
ENDBRANCH  10  35
TORSDOF 9
ENDMDL
MODEL 2
REMARK VINA RESULT:    18.778      5.540      9.781
REMARK INTER + INTRA:          29.016
REMARK INTER:                  26.705
REMARK INTRA:                   2.310
REMARK UNBOUND:                 3.651
REMARK SMILES O=c1c(-c2ccc(O)cc2)coc2c([C@H]3O[C@H](CO)[C@@H](O)[C@H](O)[C@@H]3O)c(O)ccc12
REMARK SMILES IDX 3 1 11 2 12 3 13 4 30 5 2 6 1 7 29 8 28 9 26 10 14 11 4 12
REMARK SMILES IDX 5 13 6 14 7 15 10 16 9 17 8 18 15 20 24 21 16 22 22 23 17 24
REMARK SMILES IDX 20 25 25 26 23 28 18 30 19 31 21 33 27 35
REMARK H PARENT 8 19 25 27 23 29 19 32 21 34 27 36
REMARK Flexibility Score: inf
ROOT
ATOM      1  C   UNL     1      90.017  54.213  96.622  1.00  0.00     0.065 A 
ATOM      2  C   UNL     1      90.006  55.614  96.569  1.00  0.00     0.208 A 
ATOM      3  O   UNL     1      90.057  56.337  97.684  1.00  0.00    -0.463 OA
ATOM      4  C   UNL     1      90.095  55.803  98.905  1.00  0.00     0.147 A 
ATOM      5  C   UNL     1      90.077  54.394  99.044  1.00  0.00     0.066 A 
ATOM      6  C   UNL     1      90.048  53.597  97.887  1.00  0.00     0.200 A 
ATOM      7  O   UNL     1      90.023  52.336  97.981  1.00  0.00    -0.288 OA
ATOM      8  C   UNL     1      90.044  53.823 100.321  1.00  0.00     0.020 A 
ATOM      9  C   UNL     1      90.003  54.635 101.448  1.00  0.00     0.047 A 
ATOM     10  C   UNL     1      90.023  56.029 101.334  1.00  0.00     0.125 A 
ATOM     11  C   UNL     1      90.125  56.645 100.051  1.00  0.00     0.069 A 
ENDROOT
BRANCH   1  12
ATOM     12  C   UNL     1      89.982  53.420  95.367  1.00  0.00    -0.011 A 
ATOM     13  C   UNL     1      90.003  52.014  95.409  1.00  0.00     0.013 A 
ATOM     14  C   UNL     1      89.929  51.270  94.227  1.00  0.00     0.047 A 
ATOM     15  C   UNL     1      89.839  51.923  92.989  1.00  0.00     0.115 A 
ATOM     16  C   UNL     1      89.915  54.066  94.119  1.00  0.00     0.013 A 
ATOM     17  C   UNL     1      89.840  53.320  92.939  1.00  0.00     0.047 A 
BRANCH  15  18
ATOM     18  O   UNL     1      89.745  51.193  91.803  1.00  0.00    -0.508 OA
ATOM     19  H   UNL     1      89.954  51.619  90.904  1.00  0.00     0.293 HD
ENDBRANCH  15  18
ENDBRANCH   1  12
BRANCH  11  20
ATOM     20  C   UNL     1      90.112  58.171  99.831  1.00  0.00     0.188 C 
ATOM     21  C   UNL     1      89.250  59.039 100.812  1.00  0.00     0.179 C 
ATOM     22  O   UNL     1      89.908  58.491  98.460  1.00  0.00    -0.362 OA
ATOM     23  C   UNL     1      88.598  60.217 100.058  1.00  0.00     0.177 C 
ATOM     24  C   UNL     1      88.533  58.535  98.118  1.00  0.00     0.176 C 
ATOM     25  C   UNL     1      87.785  59.689  98.857  1.00  0.00     0.177 C 
BRANCH  21  26
ATOM     26  O   UNL     1      90.009  59.489 101.910  1.00  0.00    -0.387 OA
ATOM     27  H   UNL     1      90.967  59.309 101.727  1.00  0.00     0.211 HD
ENDBRANCH  21  26
BRANCH  23  28
ATOM     28  O   UNL     1      89.588  61.101  99.584  1.00  0.00    -0.387 OA
ATOM     29  H   UNL     1      89.775  61.752 100.310  1.00  0.00     0.211 HD
ENDBRANCH  23  28
BRANCH  24  30
ATOM     30  C   UNL     1      88.409  58.685  96.589  1.00  0.00     0.191 C 
BRANCH  30  31
ATOM     31  O   UNL     1      89.542  59.314  96.055  1.00  0.00    -0.394 OA
ATOM     32  H   UNL     1      90.323  58.745  96.287  1.00  0.00     0.210 HD
ENDBRANCH  30  31
ENDBRANCH  24  30
BRANCH  25  33
ATOM     33  O   UNL     1      86.531  59.237  99.307  1.00  0.00    -0.388 OA
ATOM     34  H   UNL     1      86.677  58.819 100.193  1.00  0.00     0.211 HD
ENDBRANCH  25  33
ENDBRANCH  11  20
BRANCH  10  35
ATOM     35  O   UNL     1      89.924  56.775 102.504  1.00  0.00    -0.507 OA
ATOM     36  H   UNL     1      90.284  57.723 102.569  1.00  0.00     0.293 HD
ENDBRANCH  10  35
TORSDOF 9
ENDMDL
