MODEL 1
REMARK VINA RESULT:    -7.109      0.000      0.000
REMARK INTER + INTRA:          -8.661
REMARK INTER:                  -7.940
REMARK INTRA:                  -0.721
REMARK UNBOUND:                -0.721
REMARK SMILES C=C(C)[C@H]1CC[C@]2(C(=O)[O-])CC[C@@]3(C)[C@@H](CC[C@H]4[C@@]5(C)CCC(=O)C(C)(C)[C@H]5CC[C@@]43C)[C@H]12
REMARK SMILES IDX 7 1 6 2 33 3 11 4 5 5 15 6 4 7 12 8 16 9 13 10 17 11 31 12
REMARK SMILES IDX 14 13 18 14 30 15 32 16 19 17 29 18 21 19 20 20 28 21 22 22
REMARK SMILES IDX 25 23 23 24 26 25 27 26 24 27 8 28 9 29 10 30 2 31 3 32 1 33
REMARK H PARENT
REMARK Flexibility Score: inf
ROOT
ATOM      1  C   UNL     1     105.407 100.975  98.892  1.00  0.00     0.014 C 
ATOM      2  C   UNL     1     106.932 100.822  99.077  1.00  0.00     0.014 C 
ATOM      3  C   UNL     1     105.048 100.224  97.560  1.00  0.00     0.012 C 
ATOM      4  C   UNL     1     104.671 100.333 100.093  1.00  0.00     0.014 C 
ATOM      5  C   UNL     1     107.381  99.660  98.214  1.00  0.00     0.009 C 
ATOM      6  C   UNL     1     103.834  99.236  97.701  1.00  0.00     0.000 C 
ATOM      7  C   UNL     1     106.337  99.475  97.113  1.00  0.00     0.018 C 
ATOM      8  C   UNL     1     103.142 100.359  99.928  1.00  0.00     0.008 C 
ATOM      9  C   UNL     1     103.373  98.719  96.316  1.00  0.00     0.005 C 
ATOM     10  C   UNL     1     102.629  99.830  98.527  1.00  0.00    -0.024 C 
ATOM     11  C   UNL     1     102.240  97.690  96.407  1.00  0.00     0.005 C 
ATOM     12  C   UNL     1     101.522  98.657  98.701  1.00  0.00    -0.024 C 
ATOM     13  C   UNL     1     102.070 101.089  97.769  1.00  0.00     0.012 C 
ATOM     14  C   UNL     1     101.032  98.172  97.275  1.00  0.00     0.002 C 
ATOM     15  C   UNL     1     100.276  99.194  99.456  1.00  0.00     0.008 C 
ATOM     16  C   UNL     1     102.150  97.470  99.532  1.00  0.00     0.012 C 
ATOM     17  C   UNL     1      99.741  97.219  97.216  1.00  0.00    -0.025 C 
ATOM     18  C   UNL     1      99.119  98.197  99.531  1.00  0.00     0.006 C 
ATOM     19  C   UNL     1     100.078  95.754  97.625  1.00  0.00     0.015 C 
ATOM     20  C   UNL     1      99.265  97.215  95.725  1.00  0.00     0.012 C 
ATOM     21  C   UNL     1      98.569  97.779  98.140  1.00  0.00     0.008 C 
ATOM     22  C   UNL     1      98.868  94.819  97.610  1.00  0.00     0.077 C 
ATOM     23  C   UNL     1      97.294  96.809  98.292  1.00  0.00     0.027 C 
ATOM     24  C   UNL     1      97.762  95.366  98.465  1.00  0.00     0.138 C 
ATOM     25  C   UNL     1      96.416  97.205  99.522  1.00  0.00     0.020 C 
ATOM     26  C   UNL     1      96.343  96.894  97.055  1.00  0.00     0.020 C 
ATOM     27  O   UNL     1      97.179  94.608  99.233  1.00  0.00    -0.299 OA
ENDROOT
BRANCH   1  28
ATOM     28  C   UNL     1     105.095 102.471  98.826  1.00  0.00     0.048 C 
ATOM     29  O   UNL     1     104.965 103.050  97.716  1.00  0.00    -0.550 OA
ATOM     30  O   UNL     1     105.079 103.242  99.979  1.00  0.00    -0.550 OA
ENDBRANCH   1  28
BRANCH   7  31
ATOM     31  C   UNL     1     106.841  99.958  95.755  1.00  0.00    -0.077 C 
ATOM     32  C   UNL     1     107.325 101.373  95.553  1.00  0.00     0.039 C 
ATOM     33  C   UNL     1     106.829  99.136  94.697  1.00  0.00     0.008 C 
ENDBRANCH   7  31
TORSDOF 2
ENDMDL
MODEL 2
REMARK VINA RESULT:    -7.108      2.316      7.827
REMARK INTER + INTRA:          -8.660
REMARK INTER:                  -7.940
REMARK INTRA:                  -0.720
REMARK UNBOUND:                -0.721
REMARK SMILES C=C(C)[C@H]1CC[C@]2(C(=O)[O-])CC[C@@]3(C)[C@@H](CC[C@H]4[C@@]5(C)CCC(=O)C(C)(C)[C@H]5CC[C@@]43C)[C@H]12
REMARK SMILES IDX 7 1 6 2 33 3 11 4 5 5 15 6 4 7 12 8 16 9 13 10 17 11 31 12
REMARK SMILES IDX 14 13 18 14 30 15 32 16 19 17 29 18 21 19 20 20 28 21 22 22
REMARK SMILES IDX 25 23 23 24 26 25 27 26 24 27 8 28 9 29 10 30 2 31 3 32 1 33
REMARK H PARENT
REMARK Flexibility Score: inf
ROOT
ATOM      1  C   UNL     1      97.813  99.434  99.221  1.00  0.00     0.014 C 
ATOM      2  C   UNL     1      96.331  99.317  98.807  1.00  0.00     0.014 C 
ATOM      3  C   UNL     1      98.455  98.024  98.961  1.00  0.00     0.012 C 
ATOM      4  C   UNL     1      98.510 100.515  98.359  1.00  0.00     0.014 C 
ATOM      5  C   UNL     1      96.204  98.106  97.905  1.00  0.00     0.009 C 
ATOM      6  C   UNL     1      99.805  98.084  98.158  1.00  0.00     0.000 C 
ATOM      7  C   UNL     1      97.386  97.182  98.207  1.00  0.00     0.018 C 
ATOM      8  C   UNL     1     100.016 100.617  98.649  1.00  0.00     0.008 C 
ATOM      9  C   UNL     1     100.509  96.705  98.148  1.00  0.00     0.005 C 
ATOM     10  C   UNL     1     100.777  99.228  98.640  1.00  0.00    -0.024 C 
ATOM     11  C   UNL     1     101.793  96.694  97.310  1.00  0.00     0.005 C 
ATOM     12  C   UNL     1     102.051  99.251  97.637  1.00  0.00    -0.024 C 
ATOM     13  C   UNL     1     101.182  98.949 100.134  1.00  0.00     0.012 C 
ATOM     14  C   UNL     1     102.784  97.847  97.675  1.00  0.00     0.002 C 
ATOM     15  C   UNL     1     103.083 100.319  98.093  1.00  0.00     0.008 C 
ATOM     16  C   UNL     1     101.558  99.608  96.180  1.00  0.00     0.012 C 
ATOM     17  C   UNL     1     104.225  97.740  96.974  1.00  0.00    -0.025 C 
ATOM     18  C   UNL     1     104.385 100.305  97.293  1.00  0.00     0.006 C 
ATOM     19  C   UNL     1     104.115  97.669  95.422  1.00  0.00     0.015 C 
ATOM     20  C   UNL     1     104.863  96.406  97.483  1.00  0.00     0.012 C 
ATOM     21  C   UNL     1     105.159  98.963  97.391  1.00  0.00     0.008 C 
ATOM     22  C   UNL     1     105.469  97.596  94.713  1.00  0.00     0.077 C 
ATOM     23  C   UNL     1     106.563  99.049  96.610  1.00  0.00     0.027 C 
ATOM     24  C   UNL     1     106.350  98.738  95.130  1.00  0.00     0.138 C 
ATOM     25  C   UNL     1     107.206 100.467  96.739  1.00  0.00     0.020 C 
ATOM     26  C   UNL     1     107.620  98.057  97.193  1.00  0.00     0.020 C 
ATOM     27  O   UNL     1     106.968  99.352  94.267  1.00  0.00    -0.299 OA
ENDROOT
BRANCH   1  28
ATOM     28  C   UNL     1      97.853  99.834 100.697  1.00  0.00     0.048 C 
ATOM     29  O   UNL     1      98.036  98.968 101.591  1.00  0.00    -0.550 OA
ATOM     30  O   UNL     1      97.559 101.133 101.085  1.00  0.00    -0.550 OA
ENDBRANCH   1  28
BRANCH   7  31
ATOM     31  C   UNL     1      96.963  95.947  98.997  1.00  0.00    -0.077 C 
ATOM     32  C   UNL     1      96.262  96.066 100.329  1.00  0.00     0.039 C 
ATOM     33  C   UNL     1      97.242  94.720  98.536  1.00  0.00     0.008 C 
ENDBRANCH   7  31
TORSDOF 2
ENDMDL
MODEL 3
REMARK VINA RESULT:    -7.108      2.875      8.946
REMARK INTER + INTRA:          -8.660
REMARK INTER:                  -7.940
REMARK INTRA:                  -0.720
REMARK UNBOUND:                -0.721
REMARK SMILES C=C(C)[C@H]1CC[C@]2(C(=O)[O-])CC[C@@]3(C)[C@@H](CC[C@H]4[C@@]5(C)CCC(=O)C(C)(C)[C@H]5CC[C@@]43C)[C@H]12
REMARK SMILES IDX 7 1 6 2 33 3 11 4 5 5 15 6 4 7 12 8 16 9 13 10 17 11 31 12
REMARK SMILES IDX 14 13 18 14 30 15 32 16 19 17 29 18 21 19 20 20 28 21 22 22
REMARK SMILES IDX 25 23 23 24 26 25 27 26 24 27 8 28 9 29 10 30 2 31 3 32 1 33
REMARK H PARENT
REMARK Flexibility Score: inf
ROOT
ATOM      1  C   UNL     1     102.470  97.726  97.674  1.00  0.00     0.014 C 
ATOM      2  C   UNL     1     101.995  96.433  98.370  1.00  0.00     0.014 C 
ATOM      3  C   UNL     1     102.976  98.679  98.816  1.00  0.00     0.012 C 
ATOM      4  C   UNL     1     103.621  97.396  96.693  1.00  0.00     0.014 C 
ATOM      5  C   UNL     1     102.622  96.400  99.749  1.00  0.00     0.009 C 
ATOM      6  C   UNL     1     104.391  99.304  98.535  1.00  0.00     0.000 C 
ATOM      7  C   UNL     1     102.979  97.839 100.125  1.00  0.00     0.018 C 
ATOM      8  C   UNL     1     104.213  98.655  96.036  1.00  0.00     0.008 C 
ATOM      9  C   UNL     1     104.724 100.414  99.563  1.00  0.00     0.005 C 
ATOM     10  C   UNL     1     104.575  99.811  97.054  1.00  0.00    -0.024 C 
ATOM     11  C   UNL     1     106.128 101.000  99.378  1.00  0.00     0.005 C 
ATOM     12  C   UNL     1     106.113 100.297  96.884  1.00  0.00    -0.024 C 
ATOM     13  C   UNL     1     103.539 100.964  96.784  1.00  0.00     0.012 C 
ATOM     14  C   UNL     1     106.421 101.462  97.913  1.00  0.00     0.002 C 
ATOM     15  C   UNL     1     106.349 100.869  95.460  1.00  0.00     0.008 C 
ATOM     16  C   UNL     1     107.074  99.062  97.103  1.00  0.00     0.012 C 
ATOM     17  C   UNL     1     107.793 102.275  97.728  1.00  0.00    -0.025 C 
ATOM     18  C   UNL     1     107.731 101.490  95.261  1.00  0.00     0.006 C 
ATOM     19  C   UNL     1     109.024 101.468  98.236  1.00  0.00     0.015 C 
ATOM     20  C   UNL     1     107.658 103.567  98.600  1.00  0.00     0.012 C 
ATOM     21  C   UNL     1     108.015 102.690  96.204  1.00  0.00     0.008 C 
ATOM     22  C   UNL     1     110.356 102.197  98.051  1.00  0.00     0.077 C 
ATOM     23  C   UNL     1     109.442 103.357  95.877  1.00  0.00     0.027 C 
ATOM     24  C   UNL     1     110.545 102.603  96.618  1.00  0.00     0.138 C 
ATOM     25  C   UNL     1     109.752 103.326  94.346  1.00  0.00     0.020 C 
ATOM     26  C   UNL     1     109.491 104.865  96.282  1.00  0.00     0.020 C 
ATOM     27  O   UNL     1     111.632 102.406  96.086  1.00  0.00    -0.299 OA
ENDROOT
BRANCH   1  28
ATOM     28  C   UNL     1     101.280  98.306  96.909  1.00  0.00     0.048 C 
ATOM     29  O   UNL     1     100.687  99.334  97.330  1.00  0.00    -0.550 OA
ATOM     30  O   UNL     1     100.750  97.640  95.814  1.00  0.00    -0.550 OA
ENDBRANCH   1  28
BRANCH   7  31
ATOM     31  C   UNL     1     102.031  98.410 101.177  1.00  0.00    -0.077 C 
ATOM     32  C   UNL     1     102.209  98.105 102.645  1.00  0.00     0.039 C 
ATOM     33  C   UNL     1     100.991  99.171 100.811  1.00  0.00     0.008 C 
ENDBRANCH   7  31
TORSDOF 2
ENDMDL
MODEL 4
REMARK VINA RESULT:    -6.894      2.127      3.609
REMARK INTER + INTRA:          -8.421
REMARK INTER:                  -7.922
REMARK INTRA:                  -0.498
REMARK UNBOUND:                -0.721
REMARK SMILES C=C(C)[C@H]1CC[C@]2(C(=O)[O-])CC[C@@]3(C)[C@@H](CC[C@H]4[C@@]5(C)CCC(=O)C(C)(C)[C@H]5CC[C@@]43C)[C@H]12
REMARK SMILES IDX 7 1 6 2 33 3 11 4 5 5 15 6 4 7 12 8 16 9 13 10 17 11 31 12
REMARK SMILES IDX 14 13 18 14 30 15 32 16 19 17 29 18 21 19 20 20 28 21 22 22
REMARK SMILES IDX 25 23 23 24 26 25 27 26 24 27 8 28 9 29 10 30 2 31 3 32 1 33
REMARK H PARENT
REMARK Flexibility Score: inf
ROOT
ATOM      1  C   UNL     1     106.994  99.034  96.448  1.00  0.00     0.014 C 
ATOM      2  C   UNL     1     108.030  99.585  95.444  1.00  0.00     0.014 C 
ATOM      3  C   UNL     1     106.100 100.255  96.870  1.00  0.00     0.012 C 
ATOM      4  C   UNL     1     106.134  97.944  95.762  1.00  0.00     0.014 C 
ATOM      5  C   UNL     1     107.500 100.903  94.918  1.00  0.00     0.009 C 
ATOM      6  C   UNL     1     104.558  99.966  96.788  1.00  0.00     0.000 C 
ATOM      7  C   UNL     1     106.503 101.440  95.947  1.00  0.00     0.018 C 
ATOM      8  C   UNL     1     105.012  97.421  96.673  1.00  0.00     0.008 C 
ATOM      9  C   UNL     1     103.741 101.106  97.446  1.00  0.00     0.005 C 
ATOM     10  C   UNL     1     104.148  98.555  97.360  1.00  0.00    -0.024 C 
ATOM     11  C   UNL     1     102.227 100.907  97.321  1.00  0.00     0.005 C 
ATOM     12  C   UNL     1     102.563  98.349  97.082  1.00  0.00    -0.024 C 
ATOM     13  C   UNL     1     104.510  98.507  98.890  1.00  0.00     0.012 C 
ATOM     14  C   UNL     1     101.743  99.499  97.799  1.00  0.00     0.002 C 
ATOM     15  C   UNL     1     102.077  97.000  97.678  1.00  0.00     0.008 C 
ATOM     16  C   UNL     1     102.307  98.341  95.524  1.00  0.00     0.012 C 
ATOM     17  C   UNL     1     100.148  99.332  97.888  1.00  0.00    -0.025 C 
ATOM     18  C   UNL     1     100.565  96.794  97.595  1.00  0.00     0.006 C 
ATOM     19  C   UNL     1      99.452  99.648  96.530  1.00  0.00     0.015 C 
ATOM     20  C   UNL     1      99.656 100.373  98.947  1.00  0.00     0.012 C 
ATOM     21  C   UNL     1      99.749  97.865  98.367  1.00  0.00     0.008 C 
ATOM     22  C   UNL     1      97.933  99.472  96.564  1.00  0.00     0.077 C 
ATOM     23  C   UNL     1      98.175  97.534  98.322  1.00  0.00     0.027 C 
ATOM     24  C   UNL     1      97.567  98.096  97.039  1.00  0.00     0.138 C 
ATOM     25  C   UNL     1      97.911  95.995  98.374  1.00  0.00     0.020 C 
ATOM     26  C   UNL     1      97.416  98.130  99.551  1.00  0.00     0.020 C 
ATOM     27  O   UNL     1      96.702  97.473  96.432  1.00  0.00    -0.299 OA
ENDROOT
BRANCH   1  28
ATOM     28  C   UNL     1     107.762  98.432  97.625  1.00  0.00     0.048 C 
ATOM     29  O   UNL     1     108.076  99.142  98.615  1.00  0.00    -0.550 OA
ATOM     30  O   UNL     1     108.238  97.131  97.567  1.00  0.00    -0.550 OA
ENDBRANCH   1  28
BRANCH   7  31
ATOM     31  C   UNL     1     107.070 102.618  96.735  1.00  0.00    -0.077 C 
ATOM     32  C   UNL     1     108.473 103.121  96.499  1.00  0.00     0.039 C 
ATOM     33  C   UNL     1     106.337 103.211  97.687  1.00  0.00     0.008 C 
ENDBRANCH   7  31
TORSDOF 2
ENDMDL
MODEL 5
REMARK VINA RESULT:    -6.892      3.685      6.469
REMARK INTER + INTRA:          -8.419
REMARK INTER:                  -7.703
REMARK INTRA:                  -0.716
REMARK UNBOUND:                -0.721
REMARK SMILES C=C(C)[C@H]1CC[C@]2(C(=O)[O-])CC[C@@]3(C)[C@@H](CC[C@H]4[C@@]5(C)CCC(=O)C(C)(C)[C@H]5CC[C@@]43C)[C@H]12
REMARK SMILES IDX 7 1 6 2 33 3 11 4 5 5 15 6 4 7 12 8 16 9 13 10 17 11 31 12
REMARK SMILES IDX 14 13 18 14 30 15 32 16 19 17 29 18 21 19 20 20 28 21 22 22
REMARK SMILES IDX 25 23 23 24 26 25 27 26 24 27 8 28 9 29 10 30 2 31 3 32 1 33
REMARK H PARENT
REMARK Flexibility Score: inf
ROOT
ATOM      1  C   UNL     1     110.582 104.222  97.921  1.00  0.00     0.014 C 
ATOM      2  C   UNL     1     112.087 104.497  97.723  1.00  0.00     0.014 C 
ATOM      3  C   UNL     1     110.024 103.796  96.516  1.00  0.00     0.012 C 
ATOM      4  C   UNL     1     110.392 103.080  98.949  1.00  0.00     0.014 C 
ATOM      5  C   UNL     1     112.510 103.814  96.438  1.00  0.00     0.009 C 
ATOM      6  C   UNL     1     109.155 102.487  96.552  1.00  0.00     0.000 C 
ATOM      7  C   UNL     1     111.256 103.631  95.581  1.00  0.00     0.018 C 
ATOM      8  C   UNL     1     108.917 102.683  99.122  1.00  0.00     0.008 C 
ATOM      9  C   UNL     1     108.436 102.258  95.200  1.00  0.00     0.005 C 
ATOM     10  C   UNL     1     108.146 102.431  97.762  1.00  0.00    -0.024 C 
ATOM     11  C   UNL     1     107.637 100.950  95.160  1.00  0.00     0.005 C 
ATOM     12  C   UNL     1     107.428 100.977  97.743  1.00  0.00    -0.024 C 
ATOM     13  C   UNL     1     107.123 103.618  97.620  1.00  0.00     0.012 C 
ATOM     14  C   UNL     1     106.662 100.780  96.370  1.00  0.00     0.002 C 
ATOM     15  C   UNL     1     106.372 100.877  98.876  1.00  0.00     0.008 C 
ATOM     16  C   UNL     1     108.520  99.857  97.962  1.00  0.00     0.012 C 
ATOM     17  C   UNL     1     105.656  99.534  96.251  1.00  0.00    -0.025 C 
ATOM     18  C   UNL     1     105.540  99.595  98.837  1.00  0.00     0.006 C 
ATOM     19  C   UNL     1     106.415  98.189  96.048  1.00  0.00     0.015 C 
ATOM     20  C   UNL     1     104.777  99.798  94.985  1.00  0.00     0.012 C 
ATOM     21  C   UNL     1     104.714  99.431  97.533  1.00  0.00     0.008 C 
ATOM     22  C   UNL     1     105.494  96.971  95.960  1.00  0.00     0.077 C 
ATOM     23  C   UNL     1     103.788  98.116  97.599  1.00  0.00     0.027 C 
ATOM     24  C   UNL     1     104.595  96.896  97.160  1.00  0.00     0.138 C 
ATOM     25  C   UNL     1     103.245  97.869  99.042  1.00  0.00     0.020 C 
ATOM     26  C   UNL     1     102.522  98.245  96.692  1.00  0.00     0.020 C 
ATOM     27  O   UNL     1     104.447  95.815  97.720  1.00  0.00    -0.299 OA
ENDROOT
BRANCH   1  28
ATOM     28  C   UNL     1     109.940 105.508  98.443  1.00  0.00     0.048 C 
ATOM     29  O   UNL     1     109.365 106.304  97.655  1.00  0.00    -0.550 OA
ATOM     30  O   UNL     1     110.091 105.886  99.769  1.00  0.00    -0.550 OA
ENDBRANCH   1  28
BRANCH   7  31
ATOM     31  C   UNL     1     111.219 104.600  94.402  1.00  0.00    -0.077 C 
ATOM     32  C   UNL     1     112.468 104.947  93.629  1.00  0.00     0.039 C 
ATOM     33  C   UNL     1     110.071 105.196  94.050  1.00  0.00     0.008 C 
ENDBRANCH   7  31
TORSDOF 2
ENDMDL
MODEL 6
REMARK VINA RESULT:    -6.867      2.063      8.249
REMARK INTER + INTRA:          -8.391
REMARK INTER:                  -7.643
REMARK INTRA:                  -0.748
REMARK UNBOUND:                -0.721
REMARK SMILES C=C(C)[C@H]1CC[C@]2(C(=O)[O-])CC[C@@]3(C)[C@@H](CC[C@H]4[C@@]5(C)CCC(=O)C(C)(C)[C@H]5CC[C@@]43C)[C@H]12
REMARK SMILES IDX 7 1 6 2 33 3 11 4 5 5 15 6 4 7 12 8 16 9 13 10 17 11 31 12
REMARK SMILES IDX 14 13 18 14 30 15 32 16 19 17 29 18 21 19 20 20 28 21 22 22
REMARK SMILES IDX 25 23 23 24 26 25 27 26 24 27 8 28 9 29 10 30 2 31 3 32 1 33
REMARK H PARENT
REMARK Flexibility Score: inf
ROOT
ATOM      1  C   UNL     1      97.948  97.390  97.390  1.00  0.00     0.014 C 
ATOM      2  C   UNL     1      96.969  96.622  98.304  1.00  0.00     0.014 C 
ATOM      3  C   UNL     1      98.521  98.570  98.255  1.00  0.00     0.012 C 
ATOM      4  C   UNL     1      99.088  96.444  96.939  1.00  0.00     0.014 C 
ATOM      5  C   UNL     1      97.297  96.990  99.736  1.00  0.00     0.009 C 
ATOM      6  C   UNL     1     100.087  98.689  98.200  1.00  0.00     0.000 C 
ATOM      7  C   UNL     1      98.022  98.337  99.710  1.00  0.00     0.018 C 
ATOM      8  C   UNL     1     100.158  97.169  96.106  1.00  0.00     0.008 C 
ATOM      9  C   UNL     1     100.569 100.004  98.861  1.00  0.00     0.005 C 
ATOM     10  C   UNL     1     100.684  98.516  96.751  1.00  0.00    -0.024 C 
ATOM     11  C   UNL     1     102.097 100.128  98.903  1.00  0.00     0.005 C 
ATOM     12  C   UNL     1     102.301  98.525  96.877  1.00  0.00    -0.024 C 
ATOM     13  C   UNL     1     100.136  99.674  95.839  1.00  0.00     0.012 C 
ATOM     14  C   UNL     1     102.777  99.896  97.514  1.00  0.00     0.002 C 
ATOM     15  C   UNL     1     102.956  98.421  95.473  1.00  0.00     0.008 C 
ATOM     16  C   UNL     1     102.761  97.291  97.748  1.00  0.00     0.012 C 
ATOM     17  C   UNL     1     104.347 100.230  97.472  1.00  0.00    -0.025 C 
ATOM     18  C   UNL     1     104.477  98.575  95.485  1.00  0.00     0.006 C 
ATOM     19  C   UNL     1     105.144  99.427  98.543  1.00  0.00     0.015 C 
ATOM     20  C   UNL     1     104.481 101.754  97.801  1.00  0.00     0.012 C 
ATOM     21  C   UNL     1     104.957  99.949  96.026  1.00  0.00     0.008 C 
ATOM     22  C   UNL     1     106.650  99.696  98.516  1.00  0.00     0.077 C 
ATOM     23  C   UNL     1     106.557 100.084  95.919  1.00  0.00     0.027 C 
ATOM     24  C   UNL     1     107.210  99.450  97.145  1.00  0.00     0.138 C 
ATOM     25  C   UNL     1     107.107  99.383  94.636  1.00  0.00     0.020 C 
ATOM     26  C   UNL     1     107.013 101.574  95.809  1.00  0.00     0.020 C 
ATOM     27  O   UNL     1     108.253  98.814  97.039  1.00  0.00    -0.299 OA
ENDROOT
BRANCH   1  28
ATOM     28  C   UNL     1      97.161  97.880  96.174  1.00  0.00     0.048 C 
ATOM     29  O   UNL     1      96.556  98.983  96.204  1.00  0.00    -0.550 OA
ATOM     30  O   UNL     1      96.992  97.064  95.066  1.00  0.00    -0.550 OA
ENDBRANCH   1  28
BRANCH   7  31
ATOM     31  C   UNL     1      97.136  99.477 100.204  1.00  0.00    -0.077 C 
ATOM     32  C   UNL     1      96.853 100.684  99.343  1.00  0.00     0.039 C 
ATOM     33  C   UNL     1      96.616  99.445 101.439  1.00  0.00     0.008 C 
ENDBRANCH   7  31
TORSDOF 2
ENDMDL
MODEL 7
REMARK VINA RESULT:    -6.729      3.202      9.393
REMARK INTER + INTRA:          -8.237
REMARK INTER:                  -7.512
REMARK INTRA:                  -0.725
REMARK UNBOUND:                -0.721
REMARK SMILES C=C(C)[C@H]1CC[C@]2(C(=O)[O-])CC[C@@]3(C)[C@@H](CC[C@H]4[C@@]5(C)CCC(=O)C(C)(C)[C@H]5CC[C@@]43C)[C@H]12
REMARK SMILES IDX 7 1 6 2 33 3 11 4 5 5 15 6 4 7 12 8 16 9 13 10 17 11 31 12
REMARK SMILES IDX 14 13 18 14 30 15 32 16 19 17 29 18 21 19 20 20 28 21 22 22
REMARK SMILES IDX 25 23 23 24 26 25 27 26 24 27 8 28 9 29 10 30 2 31 3 32 1 33
REMARK H PARENT
REMARK Flexibility Score: inf
ROOT
ATOM      1  C   UNL     1     103.330  99.140  96.242  1.00  0.00     0.014 C 
ATOM      2  C   UNL     1     102.238  98.050  96.285  1.00  0.00     0.014 C 
ATOM      3  C   UNL     1     103.740  99.410  97.734  1.00  0.00     0.012 C 
ATOM      4  C   UNL     1     104.545  98.626  95.431  1.00  0.00     0.014 C 
ATOM      5  C   UNL     1     102.334  97.361  97.631  1.00  0.00     0.009 C 
ATOM      6  C   UNL     1     105.293  99.399  97.974  1.00  0.00     0.000 C 
ATOM      7  C   UNL     1     103.028  98.327  98.593  1.00  0.00     0.018 C 
ATOM      8  C   UNL     1     105.716  99.623  95.430  1.00  0.00     0.008 C 
ATOM      9  C   UNL     1     105.642  99.913  99.393  1.00  0.00     0.005 C 
ATOM     10  C   UNL     1     106.110 100.166  96.864  1.00  0.00    -0.024 C 
ATOM     11  C   UNL     1     107.142  99.846  99.702  1.00  0.00     0.005 C 
ATOM     12  C   UNL     1     107.687  99.951  97.172  1.00  0.00    -0.024 C 
ATOM     13  C   UNL     1     105.686 101.681  96.882  1.00  0.00     0.012 C 
ATOM     14  C   UNL     1     108.032 100.522  98.609  1.00  0.00     0.002 C 
ATOM     15  C   UNL     1     108.553 100.734  96.148  1.00  0.00     0.008 C 
ATOM     16  C   UNL     1     108.032  98.413  97.061  1.00  0.00     0.012 C 
ATOM     17  C   UNL     1     109.583 100.664  99.001  1.00  0.00    -0.025 C 
ATOM     18  C   UNL     1     110.050 100.710  96.454  1.00  0.00     0.006 C 
ATOM     19  C   UNL     1     110.221  99.291  99.366  1.00  0.00     0.015 C 
ATOM     20  C   UNL     1     109.634 101.582 100.267  1.00  0.00     0.012 C 
ATOM     21  C   UNL     1     110.414 101.346  97.823  1.00  0.00     0.008 C 
ATOM     22  C   UNL     1     111.708  99.379  99.717  1.00  0.00     0.077 C 
ATOM     23  C   UNL     1     112.008 101.379  98.039  1.00  0.00     0.027 C 
ATOM     24  C   UNL     1     112.477 100.043  98.613  1.00  0.00     0.138 C 
ATOM     25  C   UNL     1     112.763 101.644  96.697  1.00  0.00     0.020 C 
ATOM     26  C   UNL     1     112.446 102.530  99.000  1.00  0.00     0.020 C 
ATOM     27  O   UNL     1     113.537  99.545  98.248  1.00  0.00    -0.299 OA
ENDROOT
BRANCH   1  28
ATOM     28  C   UNL     1     102.731 100.372  95.564  1.00  0.00     0.048 C 
ATOM     29  O   UNL     1     102.251 101.311  96.250  1.00  0.00    -0.550 OA
ATOM     30  O   UNL     1     102.587 100.421  94.186  1.00  0.00    -0.550 OA
ENDBRANCH   1  28
BRANCH   7  31
ATOM     31  C   UNL     1     102.054  98.936  99.598  1.00  0.00    -0.077 C 
ATOM     32  C   UNL     1     100.930  99.841  99.154  1.00  0.00     0.039 C 
ATOM     33  C   UNL     1     102.200  98.706 100.910  1.00  0.00     0.008 C 
ENDBRANCH   7  31
TORSDOF 2
ENDMDL
MODEL 8
REMARK VINA RESULT:    -6.378      3.971     10.240
REMARK INTER + INTRA:          -7.845
REMARK INTER:                  -7.199
REMARK INTRA:                  -0.647
REMARK UNBOUND:                -0.721
REMARK SMILES C=C(C)[C@H]1CC[C@]2(C(=O)[O-])CC[C@@]3(C)[C@@H](CC[C@H]4[C@@]5(C)CCC(=O)C(C)(C)[C@H]5CC[C@@]43C)[C@H]12
REMARK SMILES IDX 7 1 6 2 33 3 11 4 5 5 15 6 4 7 12 8 16 9 13 10 17 11 31 12
REMARK SMILES IDX 14 13 18 14 30 15 32 16 19 17 29 18 21 19 20 20 28 21 22 22
REMARK SMILES IDX 25 23 23 24 26 25 27 26 24 27 8 28 9 29 10 30 2 31 3 32 1 33
REMARK H PARENT
REMARK Flexibility Score: inf
ROOT
ATOM      1  C   UNL     1     105.138  98.316  96.712  1.00  0.00     0.014 C 
ATOM      2  C   UNL     1     104.138  97.526  97.583  1.00  0.00     0.014 C 
ATOM      3  C   UNL     1     104.895  99.834  97.032  1.00  0.00     0.012 C 
ATOM      4  C   UNL     1     106.585  97.908  97.083  1.00  0.00     0.014 C 
ATOM      5  C   UNL     1     103.682  98.443  98.699  1.00  0.00     0.009 C 
ATOM      6  C   UNL     1     106.212 100.632  97.345  1.00  0.00     0.000 C 
ATOM      7  C   UNL     1     103.906  99.882  98.232  1.00  0.00     0.018 C 
ATOM      8  C   UNL     1     107.640  98.730  96.323  1.00  0.00     0.008 C 
ATOM      9  C   UNL     1     105.940 102.155  97.405  1.00  0.00     0.005 C 
ATOM     10  C   UNL     1     107.403 100.294  96.368  1.00  0.00    -0.024 C 
ATOM     11  C   UNL     1     107.181 102.971  97.786  1.00  0.00     0.005 C 
ATOM     12  C   UNL     1     108.717 101.083  96.897  1.00  0.00    -0.024 C 
ATOM     13  C   UNL     1     106.990 100.709  94.907  1.00  0.00     0.012 C 
ATOM     14  C   UNL     1     108.434 102.642  96.910  1.00  0.00     0.002 C 
ATOM     15  C   UNL     1     109.917 100.843  95.941  1.00  0.00     0.008 C 
ATOM     16  C   UNL     1     109.097 100.552  98.335  1.00  0.00     0.012 C 
ATOM     17  C   UNL     1     109.685 103.624  97.132  1.00  0.00    -0.025 C 
ATOM     18  C   UNL     1     111.156 101.671  96.281  1.00  0.00     0.006 C 
ATOM     19  C   UNL     1     110.134 103.668  98.623  1.00  0.00     0.015 C 
ATOM     20  C   UNL     1     109.199 105.053  96.722  1.00  0.00     0.012 C 
ATOM     21  C   UNL     1     110.917 103.204  96.212  1.00  0.00     0.008 C 
ATOM     22  C   UNL     1     111.343 104.572  98.873  1.00  0.00     0.077 C 
ATOM     23  C   UNL     1     112.281 104.013  96.482  1.00  0.00     0.027 C 
ATOM     24  C   UNL     1     112.490 104.182  97.986  1.00  0.00     0.138 C 
ATOM     25  C   UNL     1     113.518 103.270  95.882  1.00  0.00     0.020 C 
ATOM     26  C   UNL     1     112.271 105.421  95.806  1.00  0.00     0.020 C 
ATOM     27  O   UNL     1     113.612 104.099  98.474  1.00  0.00    -0.299 OA
ENDROOT
BRANCH   1  28
ATOM     28  C   UNL     1     104.855  97.970  95.250  1.00  0.00     0.048 C 
ATOM     29  O   UNL     1     103.868  98.472  94.652  1.00  0.00    -0.550 OA
ATOM     30  O   UNL     1     105.600  97.000  94.596  1.00  0.00    -0.550 OA
ENDBRANCH   1  28
BRANCH   7  31
ATOM     31  C   UNL     1     102.598 100.581  97.872  1.00  0.00    -0.077 C 
ATOM     32  C   UNL     1     102.354 101.133  96.489  1.00  0.00     0.039 C 
ATOM     33  C   UNL     1     101.644 100.751  98.798  1.00  0.00     0.008 C 
ENDBRANCH   7  31
TORSDOF 2
ENDMDL
