MODEL 1
REMARK VINA RESULT:    -3.585      0.000      0.000
REMARK INTER + INTRA:          -8.869
REMARK INTER:                  -6.623
REMARK INTRA:                  -2.246
REMARK UNBOUND:                -2.246
REMARK SMILES CCCCCCCCCCCCCCCCO
REMARK SMILES IDX 9 1 8 2 7 3 6 4 5 5 4 6 3 7 2 8 1 9 10 10 11 11 12 12 13 13
REMARK SMILES IDX 14 14 15 15 16 16 17 17
REMARK H PARENT 17 18
REMARK Flexibility Score: inf
ROOT
ATOM      1  C   UNL     1     143.551 129.759 114.359  1.00  0.00     0.000 C 
ENDROOT
BRANCH   1   2
ATOM      2  C   UNL     1     142.991 130.729 115.410  1.00  0.00    -0.000 C 
BRANCH   2   3
ATOM      3  C   UNL     1     141.480 130.934 115.216  1.00  0.00    -0.000 C 
BRANCH   3   4
ATOM      4  C   UNL     1     140.936 130.208 113.976  1.00  0.00    -0.000 C 
BRANCH   4   5
ATOM      5  C   UNL     1     139.506 129.678 114.183  1.00  0.00    -0.000 C 
BRANCH   5   6
ATOM      6  C   UNL     1     139.472 128.274 114.816  1.00  0.00    -0.000 C 
BRANCH   6   7
ATOM      7  C   UNL     1     140.756 127.443 114.632  1.00  0.00    -0.000 C 
BRANCH   7   8
ATOM      8  C   UNL     1     141.368 126.985 115.964  1.00  0.00    -0.003 C 
ATOM      9  C   UNL     1     140.878 127.851 117.121  1.00  0.00     0.004 C 
ENDBRANCH   7   8
ENDBRANCH   6   7
ENDBRANCH   5   6
ENDBRANCH   4   5
ENDBRANCH   3   4
ENDBRANCH   2   3
ENDBRANCH   1   2
BRANCH   1  10
ATOM     10  C   UNL     1     145.041 129.449 114.571  1.00  0.00     0.000 C 
BRANCH  10  11
ATOM     11  C   UNL     1     145.380 127.972 114.319  1.00  0.00     0.000 C 
BRANCH  11  12
ATOM     12  C   UNL     1     145.016 127.110 115.534  1.00  0.00     0.000 C 
BRANCH  12  13
ATOM     13  C   UNL     1     146.008 127.337 116.686  1.00  0.00     0.000 C 
BRANCH  13  14
ATOM     14  C   UNL     1     145.315 127.435 118.054  1.00  0.00     0.002 C 
BRANCH  14  15
ATOM     15  C   UNL     1     144.311 128.597 118.128  1.00  0.00     0.028 C 
BRANCH  15  16
ATOM     16  C   UNL     1     144.998 129.914 118.494  1.00  0.00     0.156 C 
BRANCH  16  17
ATOM     17  O   UNL     1     146.168 129.664 119.222  1.00  0.00    -0.396 OA
ATOM     18  H   UNL     1     146.858 129.408 118.555  1.00  0.00     0.210 HD
ENDBRANCH  16  17
ENDBRANCH  15  16
ENDBRANCH  14  15
ENDBRANCH  13  14
ENDBRANCH  12  13
ENDBRANCH  11  12
ENDBRANCH  10  11
ENDBRANCH   1  10
TORSDOF 15
ENDMDL
MODEL 2
REMARK VINA RESULT:    -3.532      1.375      2.433
REMARK INTER + INTRA:          -8.772
REMARK INTER:                  -6.672
REMARK INTRA:                  -2.099
REMARK UNBOUND:                -2.246
REMARK SMILES CCCCCCCCCCCCCCCCO
REMARK SMILES IDX 9 1 8 2 7 3 6 4 5 5 4 6 3 7 2 8 1 9 10 10 11 11 12 12 13 13
REMARK SMILES IDX 14 14 15 15 16 16 17 17
REMARK H PARENT 17 18
REMARK Flexibility Score: inf
ROOT
ATOM      1  C   UNL     1     146.017 129.672 115.781  1.00  0.00     0.000 C 
ENDROOT
BRANCH   1   2
ATOM      2  C   UNL     1     145.425 131.089 115.736  1.00  0.00    -0.000 C 
BRANCH   2   3
ATOM      3  C   UNL     1     144.080 131.144 116.477  1.00  0.00    -0.000 C 
BRANCH   3   4
ATOM      4  C   UNL     1     142.874 131.105 115.525  1.00  0.00    -0.000 C 
BRANCH   4   5
ATOM      5  C   UNL     1     141.577 130.678 116.233  1.00  0.00    -0.000 C 
BRANCH   5   6
ATOM      6  C   UNL     1     140.376 130.572 115.273  1.00  0.00    -0.000 C 
BRANCH   6   7
ATOM      7  C   UNL     1     140.547 129.564 114.121  1.00  0.00    -0.000 C 
BRANCH   7   8
ATOM      8  C   UNL     1     139.210 129.122 113.509  1.00  0.00    -0.003 C 
ATOM      9  C   UNL     1     138.964 127.634 113.743  1.00  0.00     0.004 C 
ENDBRANCH   7   8
ENDBRANCH   6   7
ENDBRANCH   5   6
ENDBRANCH   4   5
ENDBRANCH   3   4
ENDBRANCH   2   3
ENDBRANCH   1   2
BRANCH   1  10
ATOM     10  C   UNL     1     145.588 128.812 114.581  1.00  0.00     0.000 C 
BRANCH  10  11
ATOM     11  C   UNL     1     145.036 127.442 115.003  1.00  0.00     0.000 C 
BRANCH  11  12
ATOM     12  C   UNL     1     143.502 127.447 115.008  1.00  0.00     0.000 C 
BRANCH  12  13
ATOM     13  C   UNL     1     142.957 127.456 116.444  1.00  0.00     0.000 C 
BRANCH  13  14
ATOM     14  C   UNL     1     144.029 127.101 117.487  1.00  0.00     0.002 C 
BRANCH  14  15
ATOM     15  C   UNL     1     144.114 128.134 118.622  1.00  0.00     0.028 C 
BRANCH  15  16
ATOM     16  C   UNL     1     145.518 128.192 119.228  1.00  0.00     0.156 C 
BRANCH  16  17
ATOM     17  O   UNL     1     145.975 129.516 119.263  1.00  0.00    -0.396 OA
ATOM     18  H   UNL     1     145.824 129.883 118.353  1.00  0.00     0.210 HD
ENDBRANCH  16  17
ENDBRANCH  15  16
ENDBRANCH  14  15
ENDBRANCH  13  14
ENDBRANCH  12  13
ENDBRANCH  11  12
ENDBRANCH  10  11
ENDBRANCH   1  10
TORSDOF 15
ENDMDL
MODEL 3
REMARK VINA RESULT:    -3.498      3.801      5.915
REMARK INTER + INTRA:          -8.709
REMARK INTER:                  -7.453
REMARK INTRA:                  -1.256
REMARK UNBOUND:                -2.246
REMARK SMILES CCCCCCCCCCCCCCCCO
REMARK SMILES IDX 9 1 8 2 7 3 6 4 5 5 4 6 3 7 2 8 1 9 10 10 11 11 12 12 13 13
REMARK SMILES IDX 14 14 15 15 16 16 17 17
REMARK H PARENT 17 18
REMARK Flexibility Score: inf
ROOT
ATOM      1  C   UNL     1     143.678 130.853 115.752  1.00  0.00     0.000 C 
ENDROOT
BRANCH   1   2
ATOM      2  C   UNL     1     144.929 131.506 116.360  1.00  0.00    -0.000 C 
BRANCH   2   3
ATOM      3  C   UNL     1     144.942 133.019 116.094  1.00  0.00    -0.000 C 
BRANCH   3   4
ATOM      4  C   UNL     1     146.237 133.493 115.415  1.00  0.00    -0.000 C 
BRANCH   4   5
ATOM      5  C   UNL     1     146.322 135.026 115.311  1.00  0.00    -0.000 C 
BRANCH   5   6
ATOM      6  C   UNL     1     146.716 135.510 113.903  1.00  0.00    -0.000 C 
BRANCH   6   7
ATOM      7  C   UNL     1     145.544 135.975 113.019  1.00  0.00    -0.000 C 
BRANCH   7   8
ATOM      8  C   UNL     1     144.400 136.607 113.826  1.00  0.00    -0.003 C 
ATOM      9  C   UNL     1     144.409 138.128 113.693  1.00  0.00     0.004 C 
ENDBRANCH   7   8
ENDBRANCH   6   7
ENDBRANCH   5   6
ENDBRANCH   4   5
ENDBRANCH   3   4
ENDBRANCH   2   3
ENDBRANCH   1   2
BRANCH   1  10
ATOM     10  C   UNL     1     144.016 129.825 114.661  1.00  0.00     0.000 C 
BRANCH  10  11
ATOM     11  C   UNL     1     145.487 129.384 114.697  1.00  0.00     0.000 C 
BRANCH  11  12
ATOM     12  C   UNL     1     145.605 127.858 114.601  1.00  0.00     0.000 C 
BRANCH  12  13
ATOM     13  C   UNL     1     145.077 127.184 115.877  1.00  0.00     0.000 C 
BRANCH  13  14
ATOM     14  C   UNL     1     145.733 127.733 117.153  1.00  0.00     0.002 C 
BRANCH  14  15
ATOM     15  C   UNL     1     144.756 127.807 118.337  1.00  0.00     0.028 C 
BRANCH  15  16
ATOM     16  C   UNL     1     145.380 128.516 119.541  1.00  0.00     0.156 C 
BRANCH  16  17
ATOM     17  O   UNL     1     146.110 129.634 119.119  1.00  0.00    -0.396 OA
ATOM     18  H   UNL     1     145.524 130.420 119.274  1.00  0.00     0.210 HD
ENDBRANCH  16  17
ENDBRANCH  15  16
ENDBRANCH  14  15
ENDBRANCH  13  14
ENDBRANCH  12  13
ENDBRANCH  11  12
ENDBRANCH  10  11
ENDBRANCH   1  10
TORSDOF 15
ENDMDL
MODEL 4
REMARK VINA RESULT:    -3.469      1.715      2.689
REMARK INTER + INTRA:          -8.656
REMARK INTER:                  -6.993
REMARK INTRA:                  -1.663
REMARK UNBOUND:                -2.246
REMARK SMILES CCCCCCCCCCCCCCCCO
REMARK SMILES IDX 9 1 8 2 7 3 6 4 5 5 4 6 3 7 2 8 1 9 10 10 11 11 12 12 13 13
REMARK SMILES IDX 14 14 15 15 16 16 17 17
REMARK H PARENT 17 18
REMARK Flexibility Score: inf
ROOT
ATOM      1  C   UNL     1     141.761 127.262 115.697  1.00  0.00     0.000 C 
ENDROOT
BRANCH   1   2
ATOM      2  C   UNL     1     140.631 127.120 114.666  1.00  0.00    -0.000 C 
BRANCH   2   3
ATOM      3  C   UNL     1     140.051 128.495 114.297  1.00  0.00    -0.000 C 
BRANCH   3   4
ATOM      4  C   UNL     1     138.569 128.427 113.893  1.00  0.00    -0.000 C 
BRANCH   4   5
ATOM      5  C   UNL     1     137.827 127.262 114.570  1.00  0.00    -0.000 C 
BRANCH   5   6
ATOM      6  C   UNL     1     136.760 127.734 115.576  1.00  0.00    -0.000 C 
BRANCH   6   7
ATOM      7  C   UNL     1     136.933 127.199 117.010  1.00  0.00    -0.000 C 
BRANCH   7   8
ATOM      8  C   UNL     1     138.400 127.162 117.463  1.00  0.00    -0.003 C 
ATOM      9  C   UNL     1     138.869 128.540 117.920  1.00  0.00     0.004 C 
ENDBRANCH   7   8
ENDBRANCH   6   7
ENDBRANCH   5   6
ENDBRANCH   4   5
ENDBRANCH   3   4
ENDBRANCH   2   3
ENDBRANCH   1   2
BRANCH   1  10
ATOM     10  C   UNL     1     142.406 128.657 115.683  1.00  0.00     0.000 C 
BRANCH  10  11
ATOM     11  C   UNL     1     143.785 128.665 115.007  1.00  0.00     0.000 C 
BRANCH  11  12
ATOM     12  C   UNL     1     144.408 127.264 115.014  1.00  0.00     0.000 C 
BRANCH  12  13
ATOM     13  C   UNL     1     145.726 127.251 115.803  1.00  0.00     0.000 C 
BRANCH  13  14
ATOM     14  C   UNL     1     145.706 128.206 117.007  1.00  0.00     0.002 C 
BRANCH  14  15
ATOM     15  C   UNL     1     145.050 127.580 118.248  1.00  0.00     0.028 C 
BRANCH  15  16
ATOM     16  C   UNL     1     145.492 128.280 119.534  1.00  0.00     0.156 C 
BRANCH  16  17
ATOM     17  O   UNL     1     146.028 129.541 119.239  1.00  0.00    -0.396 OA
ATOM     18  H   UNL     1     145.838 130.111 120.029  1.00  0.00     0.210 HD
ENDBRANCH  16  17
ENDBRANCH  15  16
ENDBRANCH  14  15
ENDBRANCH  13  14
ENDBRANCH  12  13
ENDBRANCH  11  12
ENDBRANCH  10  11
ENDBRANCH   1  10
TORSDOF 15
ENDMDL
MODEL 5
REMARK VINA RESULT:    -3.458      1.660      4.293
REMARK INTER + INTRA:          -8.636
REMARK INTER:                  -6.326
REMARK INTRA:                  -2.310
REMARK UNBOUND:                -2.246
REMARK SMILES CCCCCCCCCCCCCCCCO
REMARK SMILES IDX 9 1 8 2 7 3 6 4 5 5 4 6 3 7 2 8 1 9 10 10 11 11 12 12 13 13
REMARK SMILES IDX 14 14 15 15 16 16 17 17
REMARK H PARENT 17 18
REMARK Flexibility Score: inf
ROOT
ATOM      1  C   UNL     1     144.466 127.223 114.979  1.00  0.00     0.000 C 
ENDROOT
BRANCH   1   2
ATOM      2  C   UNL     1     145.542 128.064 114.276  1.00  0.00    -0.000 C 
BRANCH   2   3
ATOM      3  C   UNL     1     145.451 129.538 114.703  1.00  0.00    -0.000 C 
BRANCH   3   4
ATOM      4  C   UNL     1     146.149 129.812 116.045  1.00  0.00    -0.000 C 
BRANCH   4   5
ATOM      5  C   UNL     1     145.396 130.845 116.901  1.00  0.00    -0.000 C 
BRANCH   5   6
ATOM      6  C   UNL     1     145.302 132.228 116.227  1.00  0.00    -0.000 C 
BRANCH   6   7
ATOM      7  C   UNL     1     143.893 132.848 116.202  1.00  0.00    -0.000 C 
BRANCH   7   8
ATOM      8  C   UNL     1     142.788 131.838 116.546  1.00  0.00    -0.003 C 
ATOM      9  C   UNL     1     142.090 131.337 115.284  1.00  0.00     0.004 C 
ENDBRANCH   7   8
ENDBRANCH   6   7
ENDBRANCH   5   6
ENDBRANCH   4   5
ENDBRANCH   3   4
ENDBRANCH   2   3
ENDBRANCH   1   2
BRANCH   1  10
ATOM     10  C   UNL     1     143.129 127.968 115.121  1.00  0.00     0.000 C 
BRANCH  10  11
ATOM     11  C   UNL     1     142.097 127.180 115.942  1.00  0.00     0.000 C 
BRANCH  11  12
ATOM     12  C   UNL     1     141.484 128.057 117.040  1.00  0.00     0.000 C 
BRANCH  12  13
ATOM     13  C   UNL     1     142.552 128.497 118.053  1.00  0.00     0.000 C 
BRANCH  13  14
ATOM     14  C   UNL     1     143.370 127.317 118.602  1.00  0.00     0.002 C 
BRANCH  14  15
ATOM     15  C   UNL     1     144.864 127.649 118.747  1.00  0.00     0.028 C 
BRANCH  15  16
ATOM     16  C   UNL     1     145.138 128.483 120.000  1.00  0.00     0.156 C 
BRANCH  16  17
ATOM     17  O   UNL     1     146.365 129.148 119.880  1.00  0.00    -0.396 OA
ATOM     18  H   UNL     1     146.159 130.117 119.938  1.00  0.00     0.210 HD
ENDBRANCH  16  17
ENDBRANCH  15  16
ENDBRANCH  14  15
ENDBRANCH  13  14
ENDBRANCH  12  13
ENDBRANCH  11  12
ENDBRANCH  10  11
ENDBRANCH   1  10
TORSDOF 15
ENDMDL
MODEL 6
REMARK VINA RESULT:    -3.407      1.470      3.405
REMARK INTER + INTRA:          -8.542
REMARK INTER:                  -6.482
REMARK INTRA:                  -2.060
REMARK UNBOUND:                -2.246
REMARK SMILES CCCCCCCCCCCCCCCCO
REMARK SMILES IDX 9 1 8 2 7 3 6 4 5 5 4 6 3 7 2 8 1 9 10 10 11 11 12 12 13 13
REMARK SMILES IDX 14 14 15 15 16 16 17 17
REMARK H PARENT 17 18
REMARK Flexibility Score: inf
ROOT
ATOM      1  C   UNL     1     145.243 129.673 114.704  1.00  0.00     0.000 C 
ENDROOT
BRANCH   1   2
ATOM      2  C   UNL     1     145.583 128.193 114.473  1.00  0.00    -0.000 C 
BRANCH   2   3
ATOM      3  C   UNL     1     144.368 127.299 114.769  1.00  0.00    -0.000 C 
BRANCH   3   4
ATOM      4  C   UNL     1     143.997 127.275 116.261  1.00  0.00    -0.000 C 
BRANCH   4   5
ATOM      5  C   UNL     1     142.517 127.614 116.507  1.00  0.00    -0.000 C 
BRANCH   5   6
ATOM      6  C   UNL     1     141.663 127.532 115.227  1.00  0.00    -0.000 C 
BRANCH   6   7
ATOM      7  C   UNL     1     140.826 128.788 114.918  1.00  0.00    -0.000 C 
BRANCH   7   8
ATOM      8  C   UNL     1     141.675 129.961 114.407  1.00  0.00    -0.003 C 
ATOM      9  C   UNL     1     141.817 131.042 115.475  1.00  0.00     0.004 C 
ENDBRANCH   7   8
ENDBRANCH   6   7
ENDBRANCH   5   6
ENDBRANCH   4   5
ENDBRANCH   3   4
ENDBRANCH   2   3
ENDBRANCH   1   2
BRANCH   1  10
ATOM     10  C   UNL     1     146.062 130.299 115.843  1.00  0.00     0.000 C 
BRANCH  10  11
ATOM     11  C   UNL     1     145.459 131.618 116.350  1.00  0.00     0.000 C 
BRANCH  11  12
ATOM     12  C   UNL     1     145.116 131.527 117.842  1.00  0.00     0.000 C 
BRANCH  12  13
ATOM     13  C   UNL     1     144.199 130.327 118.123  1.00  0.00     0.000 C 
BRANCH  13  14
ATOM     14  C   UNL     1     143.713 130.280 119.580  1.00  0.00     0.002 C 
BRANCH  14  15
ATOM     15  C   UNL     1     143.979 128.922 120.249  1.00  0.00     0.028 C 
BRANCH  15  16
ATOM     16  C   UNL     1     145.225 128.244 119.675  1.00  0.00     0.156 C 
BRANCH  16  17
ATOM     17  O   UNL     1     146.378 128.751 120.288  1.00  0.00    -0.396 OA
ATOM     18  H   UNL     1     146.575 129.611 119.834  1.00  0.00     0.210 HD
ENDBRANCH  16  17
ENDBRANCH  15  16
ENDBRANCH  14  15
ENDBRANCH  13  14
ENDBRANCH  12  13
ENDBRANCH  11  12
ENDBRANCH  10  11
ENDBRANCH   1  10
TORSDOF 15
ENDMDL
MODEL 7
REMARK VINA RESULT:    -3.385      1.619      3.262
REMARK INTER + INTRA:          -8.501
REMARK INTER:                  -6.494
REMARK INTRA:                  -2.007
REMARK UNBOUND:                -2.246
REMARK SMILES CCCCCCCCCCCCCCCCO
REMARK SMILES IDX 9 1 8 2 7 3 6 4 5 5 4 6 3 7 2 8 1 9 10 10 11 11 12 12 13 13
REMARK SMILES IDX 14 14 15 15 16 16 17 17
REMARK H PARENT 17 18
REMARK Flexibility Score: inf
ROOT
ATOM      1  C   UNL     1     141.706 127.971 116.969  1.00  0.00     0.000 C 
ENDROOT
BRANCH   1   2
ATOM      2  C   UNL     1     140.173 127.900 116.896  1.00  0.00    -0.000 C 
BRANCH   2   3
ATOM      3  C   UNL     1     139.722 126.920 115.801  1.00  0.00    -0.000 C 
BRANCH   3   4
ATOM      4  C   UNL     1     138.406 127.344 115.129  1.00  0.00    -0.000 C 
BRANCH   4   5
ATOM      5  C   UNL     1     138.534 127.453 113.599  1.00  0.00    -0.000 C 
BRANCH   5   6
ATOM      6  C   UNL     1     138.872 128.879 113.126  1.00  0.00    -0.000 C 
BRANCH   6   7
ATOM      7  C   UNL     1     138.549 129.997 114.135  1.00  0.00    -0.000 C 
BRANCH   7   8
ATOM      8  C   UNL     1     139.781 130.828 114.523  1.00  0.00    -0.003 C 
ATOM      9  C   UNL     1     141.058 130.213 113.957  1.00  0.00     0.004 C 
ENDBRANCH   7   8
ENDBRANCH   6   7
ENDBRANCH   5   6
ENDBRANCH   4   5
ENDBRANCH   3   4
ENDBRANCH   2   3
ENDBRANCH   1   2
BRANCH   1  10
ATOM     10  C   UNL     1     142.387 127.416 115.708  1.00  0.00     0.000 C 
BRANCH  10  11
ATOM     11  C   UNL     1     143.914 127.326 115.850  1.00  0.00     0.000 C 
BRANCH  11  12
ATOM     12  C   UNL     1     144.616 128.096 114.726  1.00  0.00     0.000 C 
BRANCH  12  13
ATOM     13  C   UNL     1     145.416 129.282 115.287  1.00  0.00     0.000 C 
BRANCH  13  14
ATOM     14  C   UNL     1     144.584 130.571 115.371  1.00  0.00     0.002 C 
BRANCH  14  15
ATOM     15  C   UNL     1     144.056 130.844 116.788  1.00  0.00     0.028 C 
BRANCH  15  16
ATOM     16  C   UNL     1     144.947 131.833 117.543  1.00  0.00     0.156 C 
BRANCH  16  17
ATOM     17  O   UNL     1     145.557 131.200 118.633  1.00  0.00    -0.396 OA
ATOM     18  H   UNL     1     145.312 131.733 119.433  1.00  0.00     0.210 HD
ENDBRANCH  16  17
ENDBRANCH  15  16
ENDBRANCH  14  15
ENDBRANCH  13  14
ENDBRANCH  12  13
ENDBRANCH  11  12
ENDBRANCH  10  11
ENDBRANCH   1  10
TORSDOF 15
ENDMDL
MODEL 8
REMARK VINA RESULT:    -3.352      1.333      2.284
REMARK INTER + INTRA:          -8.440
REMARK INTER:                  -6.314
REMARK INTRA:                  -2.126
REMARK UNBOUND:                -2.246
REMARK SMILES CCCCCCCCCCCCCCCCO
REMARK SMILES IDX 9 1 8 2 7 3 6 4 5 5 4 6 3 7 2 8 1 9 10 10 11 11 12 12 13 13
REMARK SMILES IDX 14 14 15 15 16 16 17 17
REMARK H PARENT 17 18
REMARK Flexibility Score: inf
ROOT
ATOM      1  C   UNL     1     144.509 129.952 115.012  1.00  0.00     0.000 C 
ENDROOT
BRANCH   1   2
ATOM      2  C   UNL     1     142.978 129.873 114.923  1.00  0.00    -0.000 C 
BRANCH   2   3
ATOM      3  C   UNL     1     142.351 129.815 116.325  1.00  0.00    -0.000 C 
BRANCH   3   4
ATOM      4  C   UNL     1     141.467 128.573 116.531  1.00  0.00    -0.000 C 
BRANCH   4   5
ATOM      5  C   UNL     1     141.944 127.367 115.704  1.00  0.00    -0.000 C 
BRANCH   5   6
ATOM      6  C   UNL     1     140.888 126.876 114.696  1.00  0.00    -0.000 C 
BRANCH   6   7
ATOM      7  C   UNL     1     139.470 127.440 114.907  1.00  0.00    -0.000 C 
BRANCH   7   8
ATOM      8  C   UNL     1     138.910 128.134 113.657  1.00  0.00    -0.003 C 
ATOM      9  C   UNL     1     138.991 129.652 113.788  1.00  0.00     0.004 C 
ENDBRANCH   7   8
ENDBRANCH   6   7
ENDBRANCH   5   6
ENDBRANCH   4   5
ENDBRANCH   3   4
ENDBRANCH   2   3
ENDBRANCH   1   2
BRANCH   1  10
ATOM     10  C   UNL     1     145.208 128.842 114.209  1.00  0.00     0.000 C 
BRANCH  10  11
ATOM     11  C   UNL     1     145.694 127.687 115.097  1.00  0.00     0.000 C 
BRANCH  11  12
ATOM     12  C   UNL     1     145.853 128.142 116.552  1.00  0.00     0.000 C 
BRANCH  12  13
ATOM     13  C   UNL     1     145.090 127.210 117.507  1.00  0.00     0.000 C 
BRANCH  13  14
ATOM     14  C   UNL     1     145.230 127.626 118.979  1.00  0.00     0.002 C 
BRANCH  14  15
ATOM     15  C   UNL     1     145.046 129.138 119.187  1.00  0.00     0.028 C 
BRANCH  15  16
ATOM     16  C   UNL     1     143.692 129.460 119.823  1.00  0.00     0.156 C 
BRANCH  16  17
ATOM     17  O   UNL     1     143.392 128.526 120.823  1.00  0.00    -0.396 OA
ATOM     18  H   UNL     1     142.430 128.649 121.035  1.00  0.00     0.210 HD
ENDBRANCH  16  17
ENDBRANCH  15  16
ENDBRANCH  14  15
ENDBRANCH  13  14
ENDBRANCH  12  13
ENDBRANCH  11  12
ENDBRANCH  10  11
ENDBRANCH   1  10
TORSDOF 15
ENDMDL
MODEL 9
REMARK VINA RESULT:    -3.331      2.654      5.211
REMARK INTER + INTRA:          -8.401
REMARK INTER:                  -6.122
REMARK INTRA:                  -2.279
REMARK UNBOUND:                -2.246
REMARK SMILES CCCCCCCCCCCCCCCCO
REMARK SMILES IDX 9 1 8 2 7 3 6 4 5 5 4 6 3 7 2 8 1 9 10 10 11 11 12 12 13 13
REMARK SMILES IDX 14 14 15 15 16 16 17 17
REMARK H PARENT 17 18
REMARK Flexibility Score: inf
ROOT
ATOM      1  C   UNL     1     144.555 131.300 116.818  1.00  0.00     0.000 C 
ENDROOT
BRANCH   1   2
ATOM      2  C   UNL     1     145.724 131.297 115.822  1.00  0.00    -0.000 C 
BRANCH   2   3
ATOM      3  C   UNL     1     146.248 129.870 115.597  1.00  0.00    -0.000 C 
BRANCH   3   4
ATOM      4  C   UNL     1     145.605 129.184 114.381  1.00  0.00    -0.000 C 
BRANCH   4   5
ATOM      5  C   UNL     1     145.450 127.666 114.573  1.00  0.00    -0.000 C 
BRANCH   5   6
ATOM      6  C   UNL     1     145.959 127.180 115.944  1.00  0.00    -0.000 C 
BRANCH   6   7
ATOM      7  C   UNL     1     144.860 126.883 116.982  1.00  0.00    -0.000 C 
BRANCH   7   8
ATOM      8  C   UNL     1     145.038 127.675 118.286  1.00  0.00    -0.003 C 
ATOM      9  C   UNL     1     143.693 127.944 118.953  1.00  0.00     0.004 C 
ENDBRANCH   7   8
ENDBRANCH   6   7
ENDBRANCH   5   6
ENDBRANCH   4   5
ENDBRANCH   3   4
ENDBRANCH   2   3
ENDBRANCH   1   2
BRANCH   1  10
ATOM     10  C   UNL     1     143.286 131.948 116.243  1.00  0.00     0.000 C 
BRANCH  10  11
ATOM     11  C   UNL     1     142.495 130.995 115.334  1.00  0.00     0.000 C 
BRANCH  11  12
ATOM     12  C   UNL     1     142.311 129.627 116.002  1.00  0.00     0.000 C 
BRANCH  12  13
ATOM     13  C   UNL     1     141.919 128.559 114.969  1.00  0.00     0.000 C 
BRANCH  13  14
ATOM     14  C   UNL     1     141.463 127.243 115.620  1.00  0.00     0.002 C 
BRANCH  14  15
ATOM     15  C   UNL     1     140.015 126.875 115.259  1.00  0.00     0.028 C 
BRANCH  15  16
ATOM     16  C   UNL     1     139.215 128.100 114.812  1.00  0.00     0.156 C 
BRANCH  16  17
ATOM     17  O   UNL     1     137.866 127.763 114.645  1.00  0.00    -0.396 OA
ATOM     18  H   UNL     1     137.352 128.598 114.803  1.00  0.00     0.210 HD
ENDBRANCH  16  17
ENDBRANCH  15  16
ENDBRANCH  14  15
ENDBRANCH  13  14
ENDBRANCH  12  13
ENDBRANCH  11  12
ENDBRANCH  10  11
ENDBRANCH   1  10
TORSDOF 15
ENDMDL
