MODEL 1
REMARK VINA RESULT:    -5.429      0.000      0.000
REMARK INTER + INTRA:          -6.684
REMARK INTER:                  -6.381
REMARK INTRA:                  -0.303
REMARK UNBOUND:                -0.303
REMARK SMILES O=c1cc(-c2ccc(O)c(O)c2)oc2cc(O)cc(O)c12
REMARK SMILES IDX 4 1 3 2 2 3 1 4 21 5 19 6 18 7 16 8 15 9 14 10 13 11 5 12
REMARK SMILES IDX 6 13 7 14 8 15 12 16 10 17 9 18 11 20 20 22 17 24
REMARK H PARENT 9 19 11 21 20 23 17 25
REMARK Flexibility Score: inf
ROOT
ATOM      1  C   UNL     1      -4.694  91.464 -14.826  1.00  0.00     0.138 A 
ATOM      2  C   UNL     1      -4.164  92.370 -13.898  1.00  0.00     0.100 A 
ATOM      3  C   UNL     1      -4.340  92.143 -12.532  1.00  0.00     0.197 A 
ATOM      4  O   UNL     1      -3.805  92.945 -11.724  1.00  0.00    -0.289 OA
ATOM      5  C   UNL     1      -5.083  91.021 -12.095  1.00  0.00     0.107 A 
ATOM      6  C   UNL     1      -5.358  90.706 -10.729  1.00  0.00     0.134 A 
ATOM      7  C   UNL     1      -6.020  89.513 -10.416  1.00  0.00     0.093 A 
ATOM      8  C   UNL     1      -6.470  88.653 -11.417  1.00  0.00     0.123 A 
ATOM      9  C   UNL     1      -6.252  88.975 -12.757  1.00  0.00     0.094 A 
ATOM     10  C   UNL     1      -5.564  90.140 -13.102  1.00  0.00     0.146 A 
ATOM     11  O   UNL     1      -5.362  90.400 -14.389  1.00  0.00    -0.456 OA
ENDROOT
BRANCH   1  12
ATOM     12  C   UNL     1      -4.540  91.658 -16.289  1.00  0.00     0.021 A 
ATOM     13  C   UNL     1      -3.382  92.280 -16.785  1.00  0.00     0.016 A 
ATOM     14  C   UNL     1      -3.215  92.481 -18.158  1.00  0.00     0.051 A 
ATOM     15  C   UNL     1      -4.205  92.076 -19.057  1.00  0.00     0.157 A 
ATOM     16  C   UNL     1      -5.541  91.264 -17.199  1.00  0.00     0.062 A 
ATOM     17  C   UNL     1      -5.376  91.467 -18.577  1.00  0.00     0.158 A 
BRANCH  15  18
ATOM     18  O   UNL     1      -4.010  92.290 -20.422  1.00  0.00    -0.504 OA
ATOM     19  H   UNL     1      -3.139  92.653 -20.790  1.00  0.00     0.293 HD
ENDBRANCH  15  18
BRANCH  17  20
ATOM     20  O   UNL     1      -6.371  91.071 -19.468  1.00  0.00    -0.504 OA
ATOM     21  H   UNL     1      -6.670  91.668 -20.231  1.00  0.00     0.293 HD
ENDBRANCH  17  20
ENDBRANCH   1  12
BRANCH   6  22
ATOM     22  O   UNL     1      -5.024  91.533  -9.653  1.00  0.00    -0.507 OA
ATOM     23  H   UNL     1      -4.173  91.471  -9.115  1.00  0.00     0.293 HD
ENDBRANCH   6  22
BRANCH   8  24
ATOM     24  O   UNL     1      -7.141  87.482 -11.067  1.00  0.00    -0.508 OA
ATOM     25  H   UNL     1      -7.953  87.163 -11.582  1.00  0.00     0.293 HD
ENDBRANCH   8  24
TORSDOF 5
ENDMDL
MODEL 2
REMARK VINA RESULT:    -5.371      1.331      2.968
REMARK INTER + INTRA:          -6.616
REMARK INTER:                  -6.336
REMARK INTRA:                  -0.280
REMARK UNBOUND:                -0.303
REMARK SMILES O=c1cc(-c2ccc(O)c(O)c2)oc2cc(O)cc(O)c12
REMARK SMILES IDX 4 1 3 2 2 3 1 4 21 5 19 6 18 7 16 8 15 9 14 10 13 11 5 12
REMARK SMILES IDX 6 13 7 14 8 15 12 16 10 17 9 18 11 20 20 22 17 24
REMARK H PARENT 9 19 11 21 20 23 17 25
REMARK Flexibility Score: inf
ROOT
ATOM      1  C   UNL     1      -4.586  91.609 -14.818  1.00  0.00     0.138 A 
ATOM      2  C   UNL     1      -5.155  90.467 -14.240  1.00  0.00     0.100 A 
ATOM      3  C   UNL     1      -5.293  90.391 -12.853  1.00  0.00     0.197 A 
ATOM      4  O   UNL     1      -5.859  89.377 -12.368  1.00  0.00    -0.289 OA
ATOM      5  C   UNL     1      -4.825  91.450 -12.040  1.00  0.00     0.107 A 
ATOM      6  C   UNL     1      -4.882  91.469 -10.613  1.00  0.00     0.134 A 
ATOM      7  C   UNL     1      -4.476  92.617  -9.921  1.00  0.00     0.093 A 
ATOM      8  C   UNL     1      -3.964  93.724 -10.598  1.00  0.00     0.123 A 
ATOM      9  C   UNL     1      -3.857  93.697 -11.989  1.00  0.00     0.094 A 
ATOM     10  C   UNL     1      -4.284  92.580 -12.710  1.00  0.00     0.146 A 
ATOM     11  O   UNL     1      -4.182  92.604 -14.035  1.00  0.00    -0.456 OA
ENDROOT
BRANCH   1  12
ATOM     12  C   UNL     1      -4.412  91.742 -16.287  1.00  0.00     0.021 A 
ATOM     13  C   UNL     1      -3.227  92.302 -16.793  1.00  0.00     0.016 A 
ATOM     14  C   UNL     1      -3.041  92.446 -18.171  1.00  0.00     0.051 A 
ATOM     15  C   UNL     1      -4.036  92.043 -19.065  1.00  0.00     0.157 A 
ATOM     16  C   UNL     1      -5.418  91.350 -17.192  1.00  0.00     0.062 A 
ATOM     17  C   UNL     1      -5.232  91.495 -18.574  1.00  0.00     0.158 A 
BRANCH  15  18
ATOM     18  O   UNL     1      -3.820  92.197 -20.434  1.00  0.00    -0.504 OA
ATOM     19  H   UNL     1      -4.142  91.514 -21.109  1.00  0.00     0.293 HD
ENDBRANCH  15  18
BRANCH  17  20
ATOM     20  O   UNL     1      -6.234  91.102 -19.460  1.00  0.00    -0.504 OA
ATOM     21  H   UNL     1      -6.333  91.530 -20.373  1.00  0.00     0.293 HD
ENDBRANCH  17  20
ENDBRANCH   1  12
BRANCH   6  22
ATOM     22  O   UNL     1      -5.301  90.389  -9.831  1.00  0.00    -0.507 OA
ATOM     23  H   UNL     1      -5.920  90.453  -9.037  1.00  0.00     0.293 HD
ENDBRANCH   6  22
BRANCH   8  24
ATOM     24  O   UNL     1      -3.555  94.842  -9.874  1.00  0.00    -0.508 OA
ATOM     25  H   UNL     1      -2.585  95.137  -9.857  1.00  0.00     0.293 HD
ENDBRANCH   8  24
TORSDOF 5
ENDMDL
MODEL 3
REMARK VINA RESULT:    -5.314      7.991     11.313
REMARK INTER + INTRA:          -6.550
REMARK INTER:                  -6.267
REMARK INTRA:                  -0.283
REMARK UNBOUND:                -0.303
REMARK SMILES O=c1cc(-c2ccc(O)c(O)c2)oc2cc(O)cc(O)c12
REMARK SMILES IDX 4 1 3 2 2 3 1 4 21 5 19 6 18 7 16 8 15 9 14 10 13 11 5 12
REMARK SMILES IDX 6 13 7 14 8 15 12 16 10 17 9 18 11 20 20 22 17 24
REMARK H PARENT 9 19 11 21 20 23 17 25
REMARK Flexibility Score: inf
ROOT
ATOM      1  C   UNL     1      -9.775  84.054  -9.051  1.00  0.00     0.138 A 
ATOM      2  C   UNL     1      -9.738  85.454  -8.990  1.00  0.00     0.100 A 
ATOM      3  C   UNL     1      -8.518  86.119  -9.119  1.00  0.00     0.197 A 
ATOM      4  O   UNL     1      -8.525  87.377  -9.116  1.00  0.00    -0.289 OA
ATOM      5  C   UNL     1      -7.324  85.376  -9.275  1.00  0.00     0.107 A 
ATOM      6  C   UNL     1      -6.018  85.943  -9.383  1.00  0.00     0.134 A 
ATOM      7  C   UNL     1      -4.921  85.110  -9.634  1.00  0.00     0.093 A 
ATOM      8  C   UNL     1      -5.072  83.726  -9.722  1.00  0.00     0.123 A 
ATOM      9  C   UNL     1      -6.336  83.155  -9.568  1.00  0.00     0.094 A 
ATOM     10  C   UNL     1      -7.455  83.963  -9.351  1.00  0.00     0.146 A 
ATOM     11  O   UNL     1      -8.643  83.380  -9.228  1.00  0.00    -0.456 OA
ENDROOT
BRANCH   1  12
ATOM     12  C   UNL     1     -11.043  83.295  -8.915  1.00  0.00     0.021 A 
ATOM     13  C   UNL     1     -11.045  82.071  -8.225  1.00  0.00     0.016 A 
ATOM     14  C   UNL     1     -12.224  81.333  -8.089  1.00  0.00     0.051 A 
ATOM     15  C   UNL     1     -13.418  81.798  -8.648  1.00  0.00     0.157 A 
ATOM     16  C   UNL     1     -12.246  83.753  -9.488  1.00  0.00     0.062 A 
ATOM     17  C   UNL     1     -13.430  83.012  -9.354  1.00  0.00     0.158 A 
BRANCH  15  18
ATOM     18  O   UNL     1     -14.579  81.040  -8.495  1.00  0.00    -0.504 OA
ATOM     19  H   UNL     1     -14.665  80.327  -7.781  1.00  0.00     0.293 HD
ENDBRANCH  15  18
BRANCH  17  20
ATOM     20  O   UNL     1     -14.614  83.475  -9.923  1.00  0.00    -0.504 OA
ATOM     21  H   UNL     1     -15.134  82.921 -10.593  1.00  0.00     0.293 HD
ENDBRANCH  17  20
ENDBRANCH   1  12
BRANCH   6  22
ATOM     22  O   UNL     1      -5.741  87.305  -9.232  1.00  0.00    -0.507 OA
ATOM     23  H   UNL     1      -6.354  88.056  -9.510  1.00  0.00     0.293 HD
ENDBRANCH   6  22
BRANCH   8  24
ATOM     24  O   UNL     1      -3.955  82.927  -9.956  1.00  0.00    -0.508 OA
ATOM     25  H   UNL     1      -3.643  82.240  -9.278  1.00  0.00     0.293 HD
ENDBRANCH   8  24
TORSDOF 5
ENDMDL
MODEL 4
REMARK VINA RESULT:    -5.304      9.974     11.204
REMARK INTER + INTRA:          -6.537
REMARK INTER:                  -6.241
REMARK INTRA:                  -0.296
REMARK UNBOUND:                -0.303
REMARK SMILES O=c1cc(-c2ccc(O)c(O)c2)oc2cc(O)cc(O)c12
REMARK SMILES IDX 4 1 3 2 2 3 1 4 21 5 19 6 18 7 16 8 15 9 14 10 13 11 5 12
REMARK SMILES IDX 6 13 7 14 8 15 12 16 10 17 9 18 11 20 20 22 17 24
REMARK H PARENT 9 19 11 21 20 23 17 25
REMARK Flexibility Score: inf
ROOT
ATOM      1  C   UNL     1      -8.674  83.702  -8.610  1.00  0.00     0.138 A 
ATOM      2  C   UNL     1      -8.324  84.502  -7.514  1.00  0.00     0.100 A 
ATOM      3  C   UNL     1      -6.978  84.694  -7.200  1.00  0.00     0.197 A 
ATOM      4  O   UNL     1      -6.694  85.462  -6.245  1.00  0.00    -0.289 OA
ATOM      5  C   UNL     1      -5.978  84.050  -7.968  1.00  0.00     0.107 A 
ATOM      6  C   UNL     1      -4.574  84.144  -7.721  1.00  0.00     0.134 A 
ATOM      7  C   UNL     1      -3.676  83.541  -8.610  1.00  0.00     0.093 A 
ATOM      8  C   UNL     1      -4.128  82.800  -9.702  1.00  0.00     0.123 A 
ATOM      9  C   UNL     1      -5.499  82.659  -9.924  1.00  0.00     0.094 A 
ATOM     10  C   UNL     1      -6.420  83.277  -9.075  1.00  0.00     0.146 A 
ATOM     11  O   UNL     1      -7.715  83.134  -9.334  1.00  0.00    -0.456 OA
ENDROOT
BRANCH   1  12
ATOM     12  C   UNL     1     -10.090  83.462  -8.986  1.00  0.00     0.021 A 
ATOM     13  C   UNL     1     -11.010  84.522  -8.927  1.00  0.00     0.016 A 
ATOM     14  C   UNL     1     -12.350  84.320  -9.268  1.00  0.00     0.051 A 
ATOM     15  C   UNL     1     -12.797  83.057  -9.663  1.00  0.00     0.157 A 
ATOM     16  C   UNL     1     -10.548  82.186  -9.371  1.00  0.00     0.062 A 
ATOM     17  C   UNL     1     -11.893  81.983  -9.712  1.00  0.00     0.158 A 
BRANCH  15  18
ATOM     18  O   UNL     1     -14.140  82.887  -9.999  1.00  0.00    -0.504 OA
ATOM     19  H   UNL     1     -14.856  83.533  -9.693  1.00  0.00     0.293 HD
ENDBRANCH  15  18
BRANCH  17  20
ATOM     20  O   UNL     1     -12.335  80.717 -10.094  1.00  0.00    -0.504 OA
ATOM     21  H   UNL     1     -11.993  80.266 -10.934  1.00  0.00     0.293 HD
ENDBRANCH  17  20
ENDBRANCH   1  12
BRANCH   6  22
ATOM     22  O   UNL     1      -4.015  84.791  -6.616  1.00  0.00    -0.507 OA
ATOM     23  H   UNL     1      -4.041  84.448  -5.668  1.00  0.00     0.293 HD
ENDBRANCH   6  22
BRANCH   8  24
ATOM     24  O   UNL     1      -3.204  82.200 -10.555  1.00  0.00    -0.508 OA
ATOM     25  H   UNL     1      -2.227  82.112 -10.300  1.00  0.00     0.293 HD
ENDBRANCH   8  24
TORSDOF 5
ENDMDL
MODEL 5
REMARK VINA RESULT:    -5.227     11.954     15.541
REMARK INTER + INTRA:          -6.447
REMARK INTER:                  -6.164
REMARK INTRA:                  -0.283
REMARK UNBOUND:                -0.303
REMARK SMILES O=c1cc(-c2ccc(O)c(O)c2)oc2cc(O)cc(O)c12
REMARK SMILES IDX 4 1 3 2 2 3 1 4 21 5 19 6 18 7 16 8 15 9 14 10 13 11 5 12
REMARK SMILES IDX 6 13 7 14 8 15 12 16 10 17 9 18 11 20 20 22 17 24
REMARK H PARENT 9 19 11 21 20 23 17 25
REMARK Flexibility Score: inf
ROOT
ATOM      1  C   UNL     1     -14.612  81.845  -7.688  1.00  0.00     0.138 A 
ATOM      2  C   UNL     1     -15.759  81.529  -6.948  1.00  0.00     0.100 A 
ATOM      3  C   UNL     1     -15.834  80.307  -6.278  1.00  0.00     0.197 A 
ATOM      4  O   UNL     1     -16.853  80.076  -5.577  1.00  0.00    -0.289 OA
ATOM      5  C   UNL     1     -14.768  79.382  -6.380  1.00  0.00     0.107 A 
ATOM      6  C   UNL     1     -14.747  78.091  -5.769  1.00  0.00     0.134 A 
ATOM      7  C   UNL     1     -13.593  77.303  -5.860  1.00  0.00     0.093 A 
ATOM      8  C   UNL     1     -12.483  77.731  -6.586  1.00  0.00     0.123 A 
ATOM      9  C   UNL     1     -12.511  78.969  -7.230  1.00  0.00     0.094 A 
ATOM     10  C   UNL     1     -13.633  79.794  -7.130  1.00  0.00     0.146 A 
ATOM     11  O   UNL     1     -13.612  80.972  -7.743  1.00  0.00    -0.456 OA
ENDROOT
BRANCH   1  12
ATOM     12  C   UNL     1     -14.481  83.128  -8.423  1.00  0.00     0.021 A 
ATOM     13  C   UNL     1     -13.814  83.151  -9.660  1.00  0.00     0.016 A 
ATOM     14  C   UNL     1     -13.669  84.346 -10.368  1.00  0.00     0.051 A 
ATOM     15  C   UNL     1     -14.178  85.541  -9.851  1.00  0.00     0.157 A 
ATOM     16  C   UNL     1     -14.980  84.338  -7.900  1.00  0.00     0.062 A 
ATOM     17  C   UNL     1     -14.834  85.538  -8.609  1.00  0.00     0.158 A 
BRANCH  15  18
ATOM     18  O   UNL     1     -14.020  86.718 -10.582  1.00  0.00    -0.504 OA
ATOM     19  H   UNL     1     -13.127  87.190 -10.654  1.00  0.00     0.293 HD
ENDBRANCH  15  18
BRANCH  17  20
ATOM     20  O   UNL     1     -15.333  86.728  -8.083  1.00  0.00    -0.504 OA
ATOM     21  H   UNL     1     -16.220  86.763  -7.595  1.00  0.00     0.293 HD
ENDBRANCH  17  20
ENDBRANCH   1  12
BRANCH   6  22
ATOM     22  O   UNL     1     -15.830  77.531  -5.086  1.00  0.00    -0.507 OA
ATOM     23  H   UNL     1     -16.050  76.546  -5.054  1.00  0.00     0.293 HD
ENDBRANCH   6  22
BRANCH   8  24
ATOM     24  O   UNL     1     -11.358  76.912  -6.668  1.00  0.00    -0.508 OA
ATOM     25  H   UNL     1     -11.440  75.903  -6.719  1.00  0.00     0.293 HD
ENDBRANCH   8  24
TORSDOF 5
ENDMDL
MODEL 6
REMARK VINA RESULT:    -5.205      9.604     11.665
REMARK INTER + INTRA:          -6.421
REMARK INTER:                  -6.112
REMARK INTRA:                  -0.309
REMARK UNBOUND:                -0.303
REMARK SMILES O=c1cc(-c2ccc(O)c(O)c2)oc2cc(O)cc(O)c12
REMARK SMILES IDX 4 1 3 2 2 3 1 4 21 5 19 6 18 7 16 8 15 9 14 10 13 11 5 12
REMARK SMILES IDX 6 13 7 14 8 15 12 16 10 17 9 18 11 20 20 22 17 24
REMARK H PARENT 9 19 11 21 20 23 17 25
REMARK Flexibility Score: inf
ROOT
ATOM      1  C   UNL     1      -8.381  83.021  -8.378  1.00  0.00     0.138 A 
ATOM      2  C   UNL     1      -9.054  83.169  -7.158  1.00  0.00     0.100 A 
ATOM      3  C   UNL     1     -10.399  82.808  -7.062  1.00  0.00     0.197 A 
ATOM      4  O   UNL     1     -10.959  82.900  -5.939  1.00  0.00    -0.289 OA
ATOM      5  C   UNL     1     -11.083  82.330  -8.205  1.00  0.00     0.107 A 
ATOM      6  C   UNL     1     -12.463  81.963  -8.236  1.00  0.00     0.134 A 
ATOM      7  C   UNL     1     -13.004  81.410  -9.402  1.00  0.00     0.093 A 
ATOM      8  C   UNL     1     -12.234  81.263 -10.556  1.00  0.00     0.123 A 
ATOM      9  C   UNL     1     -10.897  81.664 -10.553  1.00  0.00     0.094 A 
ATOM     10  C   UNL     1     -10.319  82.188  -9.395  1.00  0.00     0.146 A 
ATOM     11  O   UNL     1      -9.038  82.541  -9.430  1.00  0.00    -0.456 OA
ENDROOT
BRANCH   1  12
ATOM     12  C   UNL     1      -6.953  83.393  -8.538  1.00  0.00     0.021 A 
ATOM     13  C   UNL     1      -6.397  84.375  -7.701  1.00  0.00     0.016 A 
ATOM     14  C   UNL     1      -5.058  84.749  -7.836  1.00  0.00     0.051 A 
ATOM     15  C   UNL     1      -4.253  84.158  -8.813  1.00  0.00     0.157 A 
ATOM     16  C   UNL     1      -6.142  82.810  -9.531  1.00  0.00     0.062 A 
ATOM     17  C   UNL     1      -4.798  83.186  -9.669  1.00  0.00     0.158 A 
BRANCH  15  18
ATOM     18  O   UNL     1      -2.920  84.551  -8.923  1.00  0.00    -0.504 OA
ATOM     19  H   UNL     1      -2.567  85.386  -8.473  1.00  0.00     0.293 HD
ENDBRANCH  15  18
BRANCH  17  20
ATOM     20  O   UNL     1      -4.004  82.601 -10.654  1.00  0.00    -0.504 OA
ATOM     21  H   UNL     1      -3.090  82.971 -10.889  1.00  0.00     0.293 HD
ENDBRANCH  17  20
ENDBRANCH   1  12
BRANCH   6  22
ATOM     22  O   UNL     1     -13.344  82.142  -7.166  1.00  0.00    -0.507 OA
ATOM     23  H   UNL     1     -14.002  82.901  -7.076  1.00  0.00     0.293 HD
ENDBRANCH   6  22
BRANCH   8  24
ATOM     24  O   UNL     1     -12.812  80.723 -11.703  1.00  0.00    -0.508 OA
ATOM     25  H   UNL     1     -13.809  80.553 -11.764  1.00  0.00     0.293 HD
ENDBRANCH   8  24
TORSDOF 5
ENDMDL
MODEL 7
REMARK VINA RESULT:    -5.141      9.963     11.598
REMARK INTER + INTRA:          -6.345
REMARK INTER:                  -6.082
REMARK INTRA:                  -0.263
REMARK UNBOUND:                -0.303
REMARK SMILES O=c1cc(-c2ccc(O)c(O)c2)oc2cc(O)cc(O)c12
REMARK SMILES IDX 4 1 3 2 2 3 1 4 21 5 19 6 18 7 16 8 15 9 14 10 13 11 5 12
REMARK SMILES IDX 6 13 7 14 8 15 12 16 10 17 9 18 11 20 20 22 17 24
REMARK H PARENT 9 19 11 21 20 23 17 25
REMARK Flexibility Score: inf
ROOT
ATOM      1  C   UNL     1      -9.398  83.431  -8.920  1.00  0.00     0.138 A 
ATOM      2  C   UNL     1     -10.213  82.298  -9.042  1.00  0.00     0.100 A 
ATOM      3  C   UNL     1     -11.579  82.453  -9.283  1.00  0.00     0.197 A 
ATOM      4  O   UNL     1     -12.274  81.416  -9.442  1.00  0.00    -0.289 OA
ATOM      5  C   UNL     1     -12.137  83.751  -9.367  1.00  0.00     0.107 A 
ATOM      6  C   UNL     1     -13.521  84.032  -9.577  1.00  0.00     0.134 A 
ATOM      7  C   UNL     1     -13.939  85.357  -9.741  1.00  0.00     0.093 A 
ATOM      8  C   UNL     1     -13.036  86.416  -9.646  1.00  0.00     0.123 A 
ATOM      9  C   UNL     1     -11.689  86.157  -9.392  1.00  0.00     0.094 A 
ATOM     10  C   UNL     1     -11.234  84.843  -9.257  1.00  0.00     0.146 A 
ATOM     11  O   UNL     1      -9.940  84.640  -9.034  1.00  0.00    -0.456 OA
ENDROOT
BRANCH   1  12
ATOM     12  C   UNL     1      -7.940  83.326  -8.659  1.00  0.00     0.021 A 
ATOM     13  C   UNL     1      -7.470  83.373  -7.336  1.00  0.00     0.016 A 
ATOM     14  C   UNL     1      -6.103  83.284  -7.064  1.00  0.00     0.051 A 
ATOM     15  C   UNL     1      -5.180  83.157  -8.106  1.00  0.00     0.157 A 
ATOM     16  C   UNL     1      -7.005  83.212  -9.707  1.00  0.00     0.062 A 
ATOM     17  C   UNL     1      -5.632  83.124  -9.435  1.00  0.00     0.158 A 
BRANCH  15  18
ATOM     18  O   UNL     1      -3.822  83.069  -7.803  1.00  0.00    -0.504 OA
ATOM     19  H   UNL     1      -3.451  83.363  -6.908  1.00  0.00     0.293 HD
ENDBRANCH  15  18
BRANCH  17  20
ATOM     20  O   UNL     1      -4.717  83.010 -10.480  1.00  0.00    -0.504 OA
ATOM     21  H   UNL     1      -4.197  83.810 -10.821  1.00  0.00     0.293 HD
ENDBRANCH  17  20
ENDBRANCH   1  12
BRANCH   6  22
ATOM     22  O   UNL     1     -14.522  83.056  -9.609  1.00  0.00    -0.507 OA
ATOM     23  H   UNL     1     -14.406  82.117  -9.960  1.00  0.00     0.293 HD
ENDBRANCH   6  22
BRANCH   8  24
ATOM     24  O   UNL     1     -13.492  87.724  -9.799  1.00  0.00    -0.508 OA
ATOM     25  H   UNL     1     -13.515  88.175 -10.706  1.00  0.00     0.293 HD
ENDBRANCH   8  24
TORSDOF 5
ENDMDL
MODEL 8
REMARK VINA RESULT:    -5.129      9.333     10.869
REMARK INTER + INTRA:          -6.332
REMARK INTER:                  -6.036
REMARK INTRA:                  -0.296
REMARK UNBOUND:                -0.303
REMARK SMILES O=c1cc(-c2ccc(O)c(O)c2)oc2cc(O)cc(O)c12
REMARK SMILES IDX 4 1 3 2 2 3 1 4 21 5 19 6 18 7 16 8 15 9 14 10 13 11 5 12
REMARK SMILES IDX 6 13 7 14 8 15 12 16 10 17 9 18 11 20 20 22 17 24
REMARK H PARENT 9 19 11 21 20 23 17 25
REMARK Flexibility Score: inf
ROOT
ATOM      1  C   UNL     1      -8.572  84.245  -8.963  1.00  0.00     0.138 A 
ATOM      2  C   UNL     1      -9.315  85.431  -9.023  1.00  0.00     0.100 A 
ATOM      3  C   UNL     1     -10.709  85.375  -9.014  1.00  0.00     0.197 A 
ATOM      4  O   UNL     1     -11.347  86.459  -9.013  1.00  0.00    -0.289 OA
ATOM      5  C   UNL     1     -11.363  84.119  -8.981  1.00  0.00     0.107 A 
ATOM      6  C   UNL     1     -12.779  83.936  -9.002  1.00  0.00     0.134 A 
ATOM      7  C   UNL     1     -13.310  82.648  -8.866  1.00  0.00     0.093 A 
ATOM      8  C   UNL     1     -12.480  81.532  -8.767  1.00  0.00     0.123 A 
ATOM      9  C   UNL     1     -11.094  81.694  -8.796  1.00  0.00     0.094 A 
ATOM     10  C   UNL     1     -10.533  82.969  -8.897  1.00  0.00     0.146 A 
ATOM     11  O   UNL     1      -9.209  83.080  -8.902  1.00  0.00    -0.456 OA
ENDROOT
BRANCH   1  12
ATOM     12  C   UNL     1      -7.088  84.247  -8.974  1.00  0.00     0.021 A 
ATOM     13  C   UNL     1      -6.393  85.230  -8.249  1.00  0.00     0.016 A 
ATOM     14  C   UNL     1      -4.996  85.259  -8.249  1.00  0.00     0.051 A 
ATOM     15  C   UNL     1      -4.269  84.315  -8.979  1.00  0.00     0.157 A 
ATOM     16  C   UNL     1      -6.350  83.306  -9.719  1.00  0.00     0.062 A 
ATOM     17  C   UNL     1      -4.948  83.335  -9.721  1.00  0.00     0.158 A 
BRANCH  15  18
ATOM     18  O   UNL     1      -2.875  84.368  -8.959  1.00  0.00    -0.504 OA
ATOM     19  H   UNL     1      -2.339  84.096  -8.144  1.00  0.00     0.293 HD
ENDBRANCH  15  18
BRANCH  17  20
ATOM     20  O   UNL     1      -4.229  82.398 -10.461  1.00  0.00    -0.504 OA
ATOM     21  H   UNL     1      -3.255  82.543 -10.700  1.00  0.00     0.293 HD
ENDBRANCH  17  20
ENDBRANCH   1  12
BRANCH   6  22
ATOM     22  O   UNL     1     -13.700  84.973  -9.177  1.00  0.00    -0.507 OA
ATOM     23  H   UNL     1     -13.592  85.742  -9.821  1.00  0.00     0.293 HD
ENDBRANCH   6  22
BRANCH   8  24
ATOM     24  O   UNL     1     -13.046  80.264  -8.649  1.00  0.00    -0.508 OA
ATOM     25  H   UNL     1     -14.050  80.131  -8.627  1.00  0.00     0.293 HD
ENDBRANCH   8  24
TORSDOF 5
ENDMDL
MODEL 9
REMARK VINA RESULT:    -5.089      8.756     10.760
REMARK INTER + INTRA:          -6.285
REMARK INTER:                  -5.991
REMARK INTRA:                  -0.294
REMARK UNBOUND:                -0.303
REMARK SMILES O=c1cc(-c2ccc(O)c(O)c2)oc2cc(O)cc(O)c12
REMARK SMILES IDX 4 1 3 2 2 3 1 4 21 5 19 6 18 7 16 8 15 9 14 10 13 11 5 12
REMARK SMILES IDX 6 13 7 14 8 15 12 16 10 17 9 18 11 20 20 22 17 24
REMARK H PARENT 9 19 11 21 20 23 17 25
REMARK Flexibility Score: inf
ROOT
ATOM      1  C   UNL     1      -8.050  84.045  -8.943  1.00  0.00     0.138 A 
ATOM      2  C   UNL     1      -7.097  83.106  -9.360  1.00  0.00     0.100 A 
ATOM      3  C   UNL     1      -5.739  83.394  -9.224  1.00  0.00     0.197 A 
ATOM      4  O   UNL     1      -4.909  82.509  -9.555  1.00  0.00    -0.289 OA
ATOM      5  C   UNL     1      -5.333  84.645  -8.701  1.00  0.00     0.107 A 
ATOM      6  C   UNL     1      -3.976  85.063  -8.547  1.00  0.00     0.134 A 
ATOM      7  C   UNL     1      -3.697  86.286  -7.925  1.00  0.00     0.093 A 
ATOM      8  C   UNL     1      -4.723  87.132  -7.503  1.00  0.00     0.123 A 
ATOM      9  C   UNL     1      -6.053  86.757  -7.694  1.00  0.00     0.094 A 
ATOM     10  C   UNL     1      -6.364  85.528  -8.281  1.00  0.00     0.146 A 
ATOM     11  O   UNL     1      -7.644  85.201  -8.427  1.00  0.00    -0.456 OA
ENDROOT
BRANCH   1  12
ATOM     12  C   UNL     1      -9.508  83.794  -9.068  1.00  0.00     0.021 A 
ATOM     13  C   UNL     1     -10.407  84.866  -8.944  1.00  0.00     0.016 A 
ATOM     14  C   UNL     1     -11.784  84.655  -9.049  1.00  0.00     0.051 A 
ATOM     15  C   UNL     1     -12.288  83.371  -9.270  1.00  0.00     0.157 A 
ATOM     16  C   UNL     1     -10.022  82.498  -9.277  1.00  0.00     0.062 A 
ATOM     17  C   UNL     1     -11.404  82.285  -9.382  1.00  0.00     0.158 A 
BRANCH  15  18
ATOM     18  O   UNL     1     -13.668  83.191  -9.373  1.00  0.00    -0.504 OA
ATOM     19  H   UNL     1     -14.140  83.155 -10.268  1.00  0.00     0.293 HD
ENDBRANCH  15  18
BRANCH  17  20
ATOM     20  O   UNL     1     -11.901  81.000  -9.590  1.00  0.00    -0.504 OA
ATOM     21  H   UNL     1     -12.894  80.802  -9.556  1.00  0.00     0.293 HD
ENDBRANCH  17  20
ENDBRANCH   1  12
BRANCH   6  22
ATOM     22  O   UNL     1      -2.875  84.333  -9.004  1.00  0.00    -0.507 OA
ATOM     23  H   UNL     1      -2.795  83.327  -8.980  1.00  0.00     0.293 HD
ENDBRANCH   6  22
BRANCH   8  24
ATOM     24  O   UNL     1      -4.406  88.349  -6.903  1.00  0.00    -0.508 OA
ATOM     25  H   UNL     1      -4.046  89.128  -7.443  1.00  0.00     0.293 HD
ENDBRANCH   8  24
TORSDOF 5
ENDMDL
