MODEL 1
REMARK VINA RESULT:    -4.421      0.000      0.000
REMARK INTER + INTRA:          -7.450
REMARK INTER:                  -6.746
REMARK INTRA:                  -0.703
REMARK UNBOUND:                -0.703
REMARK SMILES CCCCCCCCCCC(=O)[O-]
REMARK SMILES IDX 7 1 8 2 9 3 10 4 11 5 12 6 13 7 6 8 5 9 4 10 3 11 2 12 1 13
REMARK H PARENT
REMARK Flexibility Score: inf
ROOT
ATOM      1  C   UNL     1      14.699  13.215 -20.752  1.00  0.00     0.000 C 
ENDROOT
BRANCH   1   2
ATOM      2  C   UNL     1      16.081  12.545 -20.850  1.00  0.00     0.000 C 
BRANCH   2   3
ATOM      3  C   UNL     1      17.111  13.159 -19.885  1.00  0.00     0.006 C 
BRANCH   3   4
ATOM      4  C   UNL     1      16.604  14.389 -19.113  1.00  0.00     0.053 C 
BRANCH   4   5
ATOM      5  C   UNL     1      17.059  14.382 -17.686  1.00  0.00     0.041 C 
ATOM      6  O   UNL     1      16.783  15.351 -16.929  1.00  0.00    -0.550 OA
ATOM      7  O   UNL     1      17.815  13.324 -17.200  1.00  0.00    -0.550 OA
ENDBRANCH   4   5
ENDBRANCH   3   4
ENDBRANCH   2   3
ENDBRANCH   1   2
BRANCH   1   8
ATOM      8  C   UNL     1      13.767  12.817 -21.908  1.00  0.00     0.000 C 
BRANCH   8   9
ATOM      9  C   UNL     1      13.176  11.407 -21.731  1.00  0.00    -0.000 C 
BRANCH   9  10
ATOM     10  C   UNL     1      12.583  11.187 -20.330  1.00  0.00    -0.000 C 
BRANCH  10  11
ATOM     11  C   UNL     1      11.074  11.475 -20.273  1.00  0.00    -0.000 C 
BRANCH  11  12
ATOM     12  C   UNL     1      10.746  12.451 -19.137  1.00  0.00    -0.003 C 
ATOM     13  C   UNL     1      11.848  12.461 -18.081  1.00  0.00     0.004 C 
ENDBRANCH  11  12
ENDBRANCH  10  11
ENDBRANCH   9  10
ENDBRANCH   8   9
ENDBRANCH   1   8
TORSDOF 9
ENDMDL
MODEL 2
REMARK VINA RESULT:    -4.390      1.897      3.548
REMARK INTER + INTRA:          -7.403
REMARK INTER:                  -6.827
REMARK INTRA:                  -0.575
REMARK UNBOUND:                -0.703
REMARK SMILES CCCCCCCCCCC(=O)[O-]
REMARK SMILES IDX 7 1 8 2 9 3 10 4 11 5 12 6 13 7 6 8 5 9 4 10 3 11 2 12 1 13
REMARK H PARENT
REMARK Flexibility Score: inf
ROOT
ATOM      1  C   UNL     1      17.221  14.512 -18.621  1.00  0.00     0.000 C 
ENDROOT
BRANCH   1   2
ATOM      2  C   UNL     1      17.534  13.851 -17.267  1.00  0.00     0.000 C 
BRANCH   2   3
ATOM      3  C   UNL     1      16.401  14.029 -16.241  1.00  0.00     0.006 C 
BRANCH   3   4
ATOM      4  C   UNL     1      15.589  15.325 -16.408  1.00  0.00     0.053 C 
BRANCH   4   5
ATOM      5  C   UNL     1      14.117  15.060 -16.484  1.00  0.00     0.041 C 
ATOM      6  O   UNL     1      13.304  15.833 -15.911  1.00  0.00    -0.550 OA
ATOM      7  O   UNL     1      13.644  13.943 -17.159  1.00  0.00    -0.550 OA
ENDBRANCH   4   5
ENDBRANCH   3   4
ENDBRANCH   2   3
ENDBRANCH   1   2
BRANCH   1   8
ATOM      8  C   UNL     1      16.989  13.482 -19.740  1.00  0.00     0.000 C 
BRANCH   8   9
ATOM      9  C   UNL     1      15.522  13.432 -20.200  1.00  0.00    -0.000 C 
BRANCH   9  10
ATOM     10  C   UNL     1      15.297  12.435 -21.347  1.00  0.00    -0.000 C 
BRANCH  10  11
ATOM     11  C   UNL     1      13.898  12.554 -21.973  1.00  0.00    -0.000 C 
BRANCH  11  12
ATOM     12  C   UNL     1      13.058  11.307 -21.677  1.00  0.00    -0.003 C 
ATOM     13  C   UNL     1      12.315  11.443 -20.350  1.00  0.00     0.004 C 
ENDBRANCH  11  12
ENDBRANCH  10  11
ENDBRANCH   9  10
ENDBRANCH   8   9
ENDBRANCH   1   8
TORSDOF 9
ENDMDL
MODEL 3
REMARK VINA RESULT:    -4.359      1.210      2.864
REMARK INTER + INTRA:          -7.355
REMARK INTER:                  -6.238
REMARK INTRA:                  -1.117
REMARK UNBOUND:                -0.703
REMARK SMILES CCCCCCCCCCC(=O)[O-]
REMARK SMILES IDX 7 1 8 2 9 3 10 4 11 5 12 6 13 7 6 8 5 9 4 10 3 11 2 12 1 13
REMARK H PARENT
REMARK Flexibility Score: inf
ROOT
ATOM      1  C   UNL     1      12.307  14.495 -18.700  1.00  0.00     0.000 C 
ENDROOT
BRANCH   1   2
ATOM      2  C   UNL     1      13.698  14.047 -18.218  1.00  0.00     0.000 C 
BRANCH   2   3
ATOM      3  C   UNL     1      14.843  14.794 -18.926  1.00  0.00     0.006 C 
BRANCH   3   4
ATOM      4  C   UNL     1      16.166  14.014 -18.991  1.00  0.00     0.053 C 
BRANCH   4   5
ATOM      5  C   UNL     1      17.025  14.261 -17.789  1.00  0.00     0.041 C 
ATOM      6  O   UNL     1      17.105  15.417 -17.295  1.00  0.00    -0.550 OA
ATOM      7  O   UNL     1      17.761  13.223 -17.234  1.00  0.00    -0.550 OA
ENDBRANCH   4   5
ENDBRANCH   3   4
ENDBRANCH   2   3
ENDBRANCH   1   2
BRANCH   1   8
ATOM      8  C   UNL     1      11.323  13.321 -18.835  1.00  0.00     0.000 C 
BRANCH   8   9
ATOM      9  C   UNL     1      12.038  11.961 -18.932  1.00  0.00    -0.000 C 
BRANCH   9  10
ATOM     10  C   UNL     1      12.056  11.405 -20.364  1.00  0.00    -0.000 C 
BRANCH  10  11
ATOM     11  C   UNL     1      13.479  11.148 -20.884  1.00  0.00    -0.000 C 
BRANCH  11  12
ATOM     12  C   UNL     1      13.694  11.821 -22.244  1.00  0.00    -0.003 C 
ATOM     13  C   UNL     1      13.679  13.343 -22.117  1.00  0.00     0.004 C 
ENDBRANCH  11  12
ENDBRANCH  10  11
ENDBRANCH   9  10
ENDBRANCH   8   9
ENDBRANCH   1   8
TORSDOF 9
ENDMDL
MODEL 4
REMARK VINA RESULT:    -4.292      0.919      1.552
REMARK INTER + INTRA:          -7.254
REMARK INTER:                  -6.649
REMARK INTRA:                  -0.605
REMARK UNBOUND:                -0.703
REMARK SMILES CCCCCCCCCCC(=O)[O-]
REMARK SMILES IDX 7 1 8 2 9 3 10 4 11 5 12 6 13 7 6 8 5 9 4 10 3 11 2 12 1 13
REMARK H PARENT
REMARK Flexibility Score: inf
ROOT
ATOM      1  C   UNL     1      16.221  12.632 -20.914  1.00  0.00     0.000 C 
ENDROOT
BRANCH   1   2
ATOM      2  C   UNL     1      17.162  13.140 -19.808  1.00  0.00     0.000 C 
BRANCH   2   3
ATOM      3  C   UNL     1      16.682  14.459 -19.176  1.00  0.00     0.006 C 
BRANCH   3   4
ATOM      4  C   UNL     1      17.133  14.669 -17.721  1.00  0.00     0.053 C 
BRANCH   4   5
ATOM      5  C   UNL     1      16.166  14.077 -16.742  1.00  0.00     0.041 C 
ATOM      6  O   UNL     1      14.934  14.315 -16.846  1.00  0.00    -0.550 OA
ATOM      7  O   UNL     1      16.629  13.291 -15.696  1.00  0.00    -0.550 OA
ENDBRANCH   4   5
ENDBRANCH   3   4
ENDBRANCH   2   3
ENDBRANCH   1   2
BRANCH   1   8
ATOM      8  C   UNL     1      14.759  13.051 -20.683  1.00  0.00     0.000 C 
BRANCH   8   9
ATOM      9  C   UNL     1      13.855  12.722 -21.884  1.00  0.00    -0.000 C 
BRANCH   9  10
ATOM     10  C   UNL     1      13.065  11.419 -21.689  1.00  0.00    -0.000 C 
BRANCH  10  11
ATOM     11  C   UNL     1      12.670  11.177 -20.224  1.00  0.00    -0.000 C 
BRANCH  11  12
ATOM     12  C   UNL     1      11.304  11.800 -19.915  1.00  0.00    -0.003 C 
ATOM     13  C   UNL     1      11.276  12.404 -18.513  1.00  0.00     0.004 C 
ENDBRANCH  11  12
ENDBRANCH  10  11
ENDBRANCH   9  10
ENDBRANCH   8   9
ENDBRANCH   1   8
TORSDOF 9
ENDMDL
MODEL 5
REMARK VINA RESULT:    -4.280      2.543      5.245
REMARK INTER + INTRA:          -7.235
REMARK INTER:                  -6.661
REMARK INTRA:                  -0.574
REMARK UNBOUND:                -0.703
REMARK SMILES CCCCCCCCCCC(=O)[O-]
REMARK SMILES IDX 7 1 8 2 9 3 10 4 11 5 12 6 13 7 6 8 5 9 4 10 3 11 2 12 1 13
REMARK H PARENT
REMARK Flexibility Score: inf
ROOT
ATOM      1  C   UNL     1      14.853  12.891 -20.774  1.00  0.00     0.000 C 
ENDROOT
BRANCH   1   2
ATOM      2  C   UNL     1      13.988  11.719 -21.270  1.00  0.00     0.000 C 
BRANCH   2   3
ATOM      3  C   UNL     1      12.690  11.552 -20.460  1.00  0.00     0.006 C 
BRANCH   3   4
ATOM      4  C   UNL     1      12.075  12.872 -19.966  1.00  0.00     0.053 C 
BRANCH   4   5
ATOM      5  C   UNL     1      11.704  12.812 -18.516  1.00  0.00     0.041 C 
ATOM      6  O   UNL     1      12.590  12.604 -17.645  1.00  0.00    -0.550 OA
ATOM      7  O   UNL     1      10.378  12.952 -18.129  1.00  0.00    -0.550 OA
ENDBRANCH   4   5
ENDBRANCH   3   4
ENDBRANCH   2   3
ENDBRANCH   1   2
BRANCH   1   8
ATOM      8  C   UNL     1      16.359  12.597 -20.878  1.00  0.00     0.000 C 
BRANCH   8   9
ATOM      9  C   UNL     1      17.162  13.222 -19.724  1.00  0.00    -0.000 C 
BRANCH   9  10
ATOM     10  C   UNL     1      16.531  14.522 -19.201  1.00  0.00    -0.000 C 
BRANCH  10  11
ATOM     11  C   UNL     1      17.076  14.936 -17.825  1.00  0.00    -0.000 C 
BRANCH  11  12
ATOM     12  C   UNL     1      17.526  13.710 -17.023  1.00  0.00    -0.003 C 
ATOM     13  C   UNL     1      16.529  13.377 -15.917  1.00  0.00     0.004 C 
ENDBRANCH  11  12
ENDBRANCH  10  11
ENDBRANCH   9  10
ENDBRANCH   8   9
ENDBRANCH   1   8
TORSDOF 9
ENDMDL
MODEL 6
REMARK VINA RESULT:    -4.235      3.007      5.760
REMARK INTER + INTRA:          -7.166
REMARK INTER:                  -6.155
REMARK INTRA:                  -1.011
REMARK UNBOUND:                -0.703
REMARK SMILES CCCCCCCCCCC(=O)[O-]
REMARK SMILES IDX 7 1 8 2 9 3 10 4 11 5 12 6 13 7 6 8 5 9 4 10 3 11 2 12 1 13
REMARK H PARENT
REMARK Flexibility Score: inf
ROOT
ATOM      1  C   UNL     1      13.662  13.977 -17.642  1.00  0.00     0.000 C 
ENDROOT
BRANCH   1   2
ATOM      2  C   UNL     1      13.576  14.580 -19.054  1.00  0.00     0.000 C 
BRANCH   2   3
ATOM      3  C   UNL     1      12.957  13.612 -20.079  1.00  0.00     0.006 C 
BRANCH   3   4
ATOM      4  C   UNL     1      13.522  13.747 -21.503  1.00  0.00     0.053 C 
BRANCH   4   5
ATOM      5  C   UNL     1      14.146  12.472 -21.983  1.00  0.00     0.041 C 
ATOM      6  O   UNL     1      14.542  11.610 -21.154  1.00  0.00    -0.550 OA
ATOM      7  O   UNL     1      14.321  12.251 -23.342  1.00  0.00    -0.550 OA
ENDBRANCH   4   5
ENDBRANCH   3   4
ENDBRANCH   2   3
ENDBRANCH   1   2
BRANCH   1   8
ATOM      8  C   UNL     1      14.026  15.023 -16.575  1.00  0.00     0.000 C 
BRANCH   8   9
ATOM      9  C   UNL     1      15.546  15.207 -16.424  1.00  0.00    -0.000 C 
BRANCH   9  10
ATOM     10  C   UNL     1      16.281  13.878 -16.186  1.00  0.00    -0.000 C 
BRANCH  10  11
ATOM     11  C   UNL     1      17.468  13.677 -17.141  1.00  0.00    -0.000 C 
BRANCH  11  12
ATOM     12  C   UNL     1      17.316  14.545 -18.394  1.00  0.00    -0.003 C 
ATOM     13  C   UNL     1      17.090  13.688 -19.637  1.00  0.00     0.004 C 
ENDBRANCH  11  12
ENDBRANCH  10  11
ENDBRANCH   9  10
ENDBRANCH   8   9
ENDBRANCH   1   8
TORSDOF 9
ENDMDL
MODEL 7
REMARK VINA RESULT:    -4.208      3.675      6.404
REMARK INTER + INTRA:          -7.125
REMARK INTER:                  -5.831
REMARK INTRA:                  -1.294
REMARK UNBOUND:                -0.703
REMARK SMILES CCCCCCCCCCC(=O)[O-]
REMARK SMILES IDX 7 1 8 2 9 3 10 4 11 5 12 6 13 7 6 8 5 9 4 10 3 11 2 12 1 13
REMARK H PARENT
REMARK Flexibility Score: inf
ROOT
ATOM      1  C   UNL     1      13.027  16.028 -16.507  1.00  0.00     0.000 C 
ENDROOT
BRANCH   1   2
ATOM      2  C   UNL     1      12.998  16.099 -18.044  1.00  0.00     0.000 C 
BRANCH   2   3
ATOM      3  C   UNL     1      13.204  14.725 -18.707  1.00  0.00     0.006 C 
BRANCH   3   4
ATOM      4  C   UNL     1      12.938  13.526 -17.782  1.00  0.00     0.053 C 
BRANCH   4   5
ATOM      5  C   UNL     1      11.626  12.866 -18.081  1.00  0.00     0.041 C 
ATOM      6  O   UNL     1      11.578  11.881 -18.864  1.00  0.00    -0.550 OA
ATOM      7  O   UNL     1      10.455  13.359 -17.522  1.00  0.00    -0.550 OA
ENDBRANCH   4   5
ENDBRANCH   3   4
ENDBRANCH   2   3
ENDBRANCH   1   2
BRANCH   1   8
ATOM      8  C   UNL     1      14.064  16.984 -15.893  1.00  0.00     0.000 C 
BRANCH   8   9
ATOM      9  C   UNL     1      15.045  17.541 -16.940  1.00  0.00    -0.000 C 
BRANCH   9  10
ATOM     10  C   UNL     1      16.442  16.909 -16.834  1.00  0.00    -0.000 C 
BRANCH  10  11
ATOM     11  C   UNL     1      16.698  15.849 -17.917  1.00  0.00    -0.000 C 
BRANCH  11  12
ATOM     12  C   UNL     1      17.288  14.573 -17.305  1.00  0.00    -0.003 C 
ATOM     13  C   UNL     1      16.341  13.965 -16.274  1.00  0.00     0.004 C 
ENDBRANCH  11  12
ENDBRANCH  10  11
ENDBRANCH   9  10
ENDBRANCH   8   9
ENDBRANCH   1   8
TORSDOF 9
ENDMDL
MODEL 8
REMARK VINA RESULT:    -4.208      1.779      2.604
REMARK INTER + INTRA:          -7.125
REMARK INTER:                  -6.081
REMARK INTRA:                  -1.044
REMARK UNBOUND:                -0.703
REMARK SMILES CCCCCCCCCCC(=O)[O-]
REMARK SMILES IDX 7 1 8 2 9 3 10 4 11 5 12 6 13 7 6 8 5 9 4 10 3 11 2 12 1 13
REMARK H PARENT
REMARK Flexibility Score: inf
ROOT
ATOM      1  C   UNL     1      13.570  15.192 -18.711  1.00  0.00     0.000 C 
ENDROOT
BRANCH   1   2
ATOM      2  C   UNL     1      13.655  15.026 -17.183  1.00  0.00     0.000 C 
BRANCH   2   3
ATOM      3  C   UNL     1      14.741  14.023 -16.753  1.00  0.00     0.006 C 
BRANCH   3   4
ATOM      4  C   UNL     1      16.094  14.662 -16.399  1.00  0.00     0.053 C 
BRANCH   4   5
ATOM      5  C   UNL     1      17.180  14.234 -17.337  1.00  0.00     0.041 C 
ATOM      6  O   UNL     1      17.908  13.246 -17.053  1.00  0.00    -0.550 OA
ATOM      7  O   UNL     1      17.411  14.945 -18.507  1.00  0.00    -0.550 OA
ENDBRANCH   4   5
ENDBRANCH   3   4
ENDBRANCH   2   3
ENDBRANCH   1   2
BRANCH   1   8
ATOM      8  C   UNL     1      14.109  13.967 -19.468  1.00  0.00     0.000 C 
BRANCH   8   9
ATOM      9  C   UNL     1      13.282  13.639 -20.723  1.00  0.00    -0.000 C 
BRANCH   9  10
ATOM     10  C   UNL     1      12.806  12.178 -20.752  1.00  0.00    -0.000 C 
BRANCH  10  11
ATOM     11  C   UNL     1      12.147  11.742 -19.434  1.00  0.00    -0.000 C 
BRANCH  11  12
ATOM     12  C   UNL     1      10.689  12.208 -19.370  1.00  0.00    -0.003 C 
ATOM     13  C   UNL     1      10.464  13.161 -18.198  1.00  0.00     0.004 C 
ENDBRANCH  11  12
ENDBRANCH  10  11
ENDBRANCH   9  10
ENDBRANCH   8   9
ENDBRANCH   1   8
TORSDOF 9
ENDMDL
MODEL 9
REMARK VINA RESULT:    -4.158      1.944      3.475
REMARK INTER + INTRA:          -7.048
REMARK INTER:                  -6.294
REMARK INTRA:                  -0.754
REMARK UNBOUND:                -0.703
REMARK SMILES CCCCCCCCCCC(=O)[O-]
REMARK SMILES IDX 7 1 8 2 9 3 10 4 11 5 12 6 13 7 6 8 5 9 4 10 3 11 2 12 1 13
REMARK H PARENT
REMARK Flexibility Score: inf
ROOT
ATOM      1  C   UNL     1      13.665  15.379 -16.672  1.00  0.00     0.000 C 
ENDROOT
BRANCH   1   2
ATOM      2  C   UNL     1      14.794  16.243 -17.260  1.00  0.00     0.000 C 
BRANCH   2   3
ATOM      3  C   UNL     1      16.152  15.993 -16.578  1.00  0.00     0.006 C 
BRANCH   3   4
ATOM      4  C   UNL     1      17.115  15.107 -17.385  1.00  0.00     0.053 C 
BRANCH   4   5
ATOM      5  C   UNL     1      17.195  13.716 -16.833  1.00  0.00     0.041 C 
ATOM      6  O   UNL     1      17.950  12.864 -17.372  1.00  0.00    -0.550 OA
ATOM      7  O   UNL     1      16.411  13.352 -15.747  1.00  0.00    -0.550 OA
ENDBRANCH   4   5
ENDBRANCH   3   4
ENDBRANCH   2   3
ENDBRANCH   1   2
BRANCH   1   8
ATOM      8  C   UNL     1      13.194  14.283 -17.642  1.00  0.00     0.000 C 
BRANCH   8   9
ATOM      9  C   UNL     1      13.924  14.341 -18.996  1.00  0.00    -0.000 C 
BRANCH   9  10
ATOM     10  C   UNL     1      13.098  13.732 -20.139  1.00  0.00    -0.000 C 
BRANCH  10  11
ATOM     11  C   UNL     1      12.230  12.550 -19.681  1.00  0.00    -0.000 C 
BRANCH  11  12
ATOM     12  C   UNL     1      12.605  11.270 -20.435  1.00  0.00    -0.003 C 
ATOM     13  C   UNL     1      13.417  11.586 -21.689  1.00  0.00     0.004 C 
ENDBRANCH  11  12
ENDBRANCH  10  11
ENDBRANCH   9  10
ENDBRANCH   8   9
ENDBRANCH   1   8
TORSDOF 9
ENDMDL
