MODEL 1
REMARK VINA RESULT:    -4.258      0.000      0.000
REMARK INTER + INTRA:          -7.288
REMARK INTER:                  -6.498
REMARK INTRA:                  -0.790
REMARK UNBOUND:                -0.790
REMARK SMILES O=C([O-])CCCCCCCCC(=O)[O-]
REMARK SMILES IDX 7 1 6 2 5 3 4 4 2 5 1 6 3 7 8 8 9 9 10 10 11 11 12 12 13 13
REMARK SMILES IDX 14 14
REMARK H PARENT
REMARK Flexibility Score: inf
ROOT
ATOM      1  C   UNL     1     -19.248 -33.271  19.840  1.00  0.00     0.000 C 
ENDROOT
BRANCH   1   2
ATOM      2  C   UNL     1     -18.038 -33.502  18.925  1.00  0.00     0.000 C 
BRANCH   2   3
ATOM      3  C   UNL     1     -18.479 -34.019  17.548  1.00  0.00     0.006 C 
BRANCH   3   4
ATOM      4  C   UNL     1     -18.802 -32.877  16.576  1.00  0.00     0.053 C 
BRANCH   4   5
ATOM      5  C   UNL     1     -19.350 -33.389  15.279  1.00  0.00     0.041 C 
ATOM      6  O   UNL     1     -20.372 -34.123  15.270  1.00  0.00    -0.550 OA
ATOM      7  O   UNL     1     -18.751 -33.026  14.079  1.00  0.00    -0.550 OA
ENDBRANCH   4   5
ENDBRANCH   3   4
ENDBRANCH   2   3
ENDBRANCH   1   2
BRANCH   1   8
ATOM      8  C   UNL     1     -19.233 -31.855  20.427  1.00  0.00     0.000 C 
BRANCH   8   9
ATOM      9  C   UNL     1     -20.372 -31.007  19.843  1.00  0.00     0.000 C 
BRANCH   9  10
ATOM     10  C   UNL     1     -19.881 -29.979  18.808  1.00  0.00     0.006 C 
BRANCH  10  11
ATOM     11  C   UNL     1     -18.351 -29.869  18.703  1.00  0.00     0.053 C 
BRANCH  11  12
ATOM     12  C   UNL     1     -17.843 -28.576  19.263  1.00  0.00     0.041 C 
ATOM     13  O   UNL     1     -16.786 -28.554  19.948  1.00  0.00    -0.550 OA
ATOM     14  O   UNL     1     -18.518 -27.391  19.001  1.00  0.00    -0.550 OA
ENDBRANCH  11  12
ENDBRANCH  10  11
ENDBRANCH   9  10
ENDBRANCH   8   9
ENDBRANCH   1   8
TORSDOF 9
ENDMDL
MODEL 2
REMARK VINA RESULT:    -4.229      1.010      5.010
REMARK INTER + INTRA:          -7.244
REMARK INTER:                  -6.359
REMARK INTRA:                  -0.885
REMARK UNBOUND:                -0.790
REMARK SMILES O=C([O-])CCCCCCCCC(=O)[O-]
REMARK SMILES IDX 7 1 6 2 5 3 4 4 2 5 1 6 3 7 8 8 9 9 10 10 11 11 12 12 13 13
REMARK SMILES IDX 14 14
REMARK H PARENT
REMARK Flexibility Score: inf
ROOT
ATOM      1  C   UNL     1     -19.001 -31.660  20.605  1.00  0.00     0.000 C 
ENDROOT
BRANCH   1   2
ATOM      2  C   UNL     1     -20.294 -31.104  19.995  1.00  0.00     0.000 C 
BRANCH   2   3
ATOM      3  C   UNL     1     -19.987 -30.058  18.913  1.00  0.00     0.006 C 
BRANCH   3   4
ATOM      4  C   UNL     1     -18.486 -29.951  18.617  1.00  0.00     0.053 C 
BRANCH   4   5
ATOM      5  C   UNL     1     -18.070 -28.538  18.350  1.00  0.00     0.041 C 
ATOM      6  O   UNL     1     -18.386 -27.622  19.155  1.00  0.00    -0.550 OA
ATOM      7  O   UNL     1     -17.304 -28.236  17.231  1.00  0.00    -0.550 OA
ENDBRANCH   4   5
ENDBRANCH   3   4
ENDBRANCH   2   3
ENDBRANCH   1   2
BRANCH   1   8
ATOM      8  C   UNL     1     -18.905 -33.178  20.405  1.00  0.00     0.000 C 
BRANCH   8   9
ATOM      9  C   UNL     1     -17.550 -33.567  19.796  1.00  0.00     0.000 C 
BRANCH   9  10
ATOM     10  C   UNL     1     -17.629 -33.824  18.280  1.00  0.00     0.006 C 
BRANCH  10  11
ATOM     11  C   UNL     1     -19.053 -33.774  17.704  1.00  0.00     0.053 C 
BRANCH  11  12
ATOM     12  C   UNL     1     -19.079 -33.185  16.326  1.00  0.00     0.041 C 
ATOM     13  O   UNL     1     -20.039 -33.434  15.549  1.00  0.00    -0.550 OA
ATOM     14  O   UNL     1     -18.061 -32.337  15.912  1.00  0.00    -0.550 OA
ENDBRANCH  11  12
ENDBRANCH  10  11
ENDBRANCH   9  10
ENDBRANCH   8   9
ENDBRANCH   1   8
TORSDOF 9
ENDMDL
MODEL 3
REMARK VINA RESULT:    -4.205      2.833      3.773
REMARK INTER + INTRA:          -7.208
REMARK INTER:                  -6.268
REMARK INTRA:                  -0.940
REMARK UNBOUND:                -0.790
REMARK SMILES O=C([O-])CCCCCCCCC(=O)[O-]
REMARK SMILES IDX 7 1 6 2 5 3 4 4 2 5 1 6 3 7 8 8 9 9 10 10 11 11 12 12 13 13
REMARK SMILES IDX 14 14
REMARK H PARENT
REMARK Flexibility Score: inf
ROOT
ATOM      1  C   UNL     1     -18.728 -33.284  20.708  1.00  0.00     0.000 C 
ENDROOT
BRANCH   1   2
ATOM      2  C   UNL     1     -18.099 -32.255  21.656  1.00  0.00     0.000 C 
BRANCH   2   3
ATOM      3  C   UNL     1     -16.606 -32.545  21.872  1.00  0.00     0.006 C 
BRANCH   3   4
ATOM      4  C   UNL     1     -16.033 -33.473  20.793  1.00  0.00     0.053 C 
BRANCH   4   5
ATOM      5  C   UNL     1     -15.181 -32.727  19.813  1.00  0.00     0.041 C 
ATOM      6  O   UNL     1     -15.704 -32.182  18.806  1.00  0.00    -0.550 OA
ATOM      7  O   UNL     1     -13.814 -32.604  20.030  1.00  0.00    -0.550 OA
ENDBRANCH   4   5
ENDBRANCH   3   4
ENDBRANCH   2   3
ENDBRANCH   1   2
BRANCH   1   8
ATOM      8  C   UNL     1     -19.476 -32.593  19.562  1.00  0.00     0.000 C 
BRANCH   8   9
ATOM      9  C   UNL     1     -20.106 -31.274  20.033  1.00  0.00     0.000 C 
BRANCH   9  10
ATOM     10  C   UNL     1     -19.989 -30.149  18.988  1.00  0.00     0.006 C 
BRANCH  10  11
ATOM     11  C   UNL     1     -18.562 -29.917  18.466  1.00  0.00     0.053 C 
BRANCH  11  12
ATOM     12  C   UNL     1     -17.816 -28.921  19.299  1.00  0.00     0.041 C 
ATOM     13  O   UNL     1     -16.907 -29.303  20.083  1.00  0.00    -0.550 OA
ATOM     14  O   UNL     1     -18.103 -27.566  19.188  1.00  0.00    -0.550 OA
ENDBRANCH  11  12
ENDBRANCH  10  11
ENDBRANCH   9  10
ENDBRANCH   8   9
ENDBRANCH   1   8
TORSDOF 9
ENDMDL
MODEL 4
REMARK VINA RESULT:    -4.160      2.613      4.664
REMARK INTER + INTRA:          -7.139
REMARK INTER:                  -6.045
REMARK INTRA:                  -1.094
REMARK UNBOUND:                -0.790
REMARK SMILES O=C([O-])CCCCCCCCC(=O)[O-]
REMARK SMILES IDX 7 1 6 2 5 3 4 4 2 5 1 6 3 7 8 8 9 9 10 10 11 11 12 12 13 13
REMARK SMILES IDX 14 14
REMARK H PARENT
REMARK Flexibility Score: inf
ROOT
ATOM      1  C   UNL     1     -19.560 -31.495  20.361  1.00  0.00     0.000 C 
ENDROOT
BRANCH   1   2
ATOM      2  C   UNL     1     -19.979 -30.610  19.181  1.00  0.00     0.000 C 
BRANCH   2   3
ATOM      3  C   UNL     1     -18.919 -29.536  18.893  1.00  0.00     0.006 C 
BRANCH   3   4
ATOM      4  C   UNL     1     -17.576 -29.851  19.564  1.00  0.00     0.053 C 
BRANCH   4   5
ATOM      5  C   UNL     1     -16.534 -30.248  18.565  1.00  0.00     0.041 C 
ATOM      6  O   UNL     1     -15.349 -30.456  18.935  1.00  0.00    -0.550 OA
ATOM      7  O   UNL     1     -16.879 -30.422  17.230  1.00  0.00    -0.550 OA
ENDBRANCH   4   5
ENDBRANCH   3   4
ENDBRANCH   2   3
ENDBRANCH   1   2
BRANCH   1   8
ATOM      8  C   UNL     1     -19.638 -32.981  19.991  1.00  0.00     0.000 C 
BRANCH   8   9
ATOM      9  C   UNL     1     -18.791 -33.283  18.747  1.00  0.00     0.000 C 
BRANCH   9  10
ATOM     10  C   UNL     1     -17.374 -33.776  19.094  1.00  0.00     0.006 C 
BRANCH  10  11
ATOM     11  C   UNL     1     -17.159 -34.079  20.585  1.00  0.00     0.053 C 
BRANCH  11  12
ATOM     12  C   UNL     1     -16.115 -33.192  21.192  1.00  0.00     0.041 C 
ATOM     13  O   UNL     1     -14.916 -33.274  20.814  1.00  0.00    -0.550 OA
ATOM     14  O   UNL     1     -16.472 -32.253  22.151  1.00  0.00    -0.550 OA
ENDBRANCH  11  12
ENDBRANCH  10  11
ENDBRANCH   9  10
ENDBRANCH   8   9
ENDBRANCH   1   8
TORSDOF 9
ENDMDL
MODEL 5
REMARK VINA RESULT:    -4.156      3.182      3.928
REMARK INTER + INTRA:          -7.133
REMARK INTER:                  -6.148
REMARK INTRA:                  -0.985
REMARK UNBOUND:                -0.790
REMARK SMILES O=C([O-])CCCCCCCCC(=O)[O-]
REMARK SMILES IDX 7 1 6 2 5 3 4 4 2 5 1 6 3 7 8 8 9 9 10 10 11 11 12 12 13 13
REMARK SMILES IDX 14 14
REMARK H PARENT
REMARK Flexibility Score: inf
ROOT
ATOM      1  C   UNL     1     -20.117 -31.361  20.029  1.00  0.00     0.000 C 
ENDROOT
BRANCH   1   2
ATOM      2  C   UNL     1     -19.576 -32.715  19.552  1.00  0.00     0.000 C 
BRANCH   2   3
ATOM      3  C   UNL     1     -18.697 -33.367  20.629  1.00  0.00     0.006 C 
BRANCH   3   4
ATOM      4  C   UNL     1     -17.264 -33.612  20.139  1.00  0.00     0.053 C 
BRANCH   4   5
ATOM      5  C   UNL     1     -16.312 -32.584  20.669  1.00  0.00     0.041 C 
ATOM      6  O   UNL     1     -15.203 -32.398  20.104  1.00  0.00    -0.550 OA
ATOM      7  O   UNL     1     -16.664 -31.808  21.767  1.00  0.00    -0.550 OA
ENDBRANCH   4   5
ENDBRANCH   3   4
ENDBRANCH   2   3
ENDBRANCH   1   2
BRANCH   1   8
ATOM      8  C   UNL     1     -19.842 -30.262  18.996  1.00  0.00     0.000 C 
BRANCH   8   9
ATOM      9  C   UNL     1     -18.740 -30.692  18.016  1.00  0.00     0.000 C 
BRANCH   9  10
ATOM     10  C   UNL     1     -17.403 -29.972  18.269  1.00  0.00     0.006 C 
BRANCH  10  11
ATOM     11  C   UNL     1     -17.394 -29.071  19.513  1.00  0.00     0.053 C 
BRANCH  11  12
ATOM     12  C   UNL     1     -17.264 -27.622  19.155  1.00  0.00     0.041 C 
ATOM     13  O   UNL     1     -16.683 -26.826  19.939  1.00  0.00    -0.550 OA
ATOM     14  O   UNL     1     -17.755 -27.158  17.942  1.00  0.00    -0.550 OA
ENDBRANCH  11  12
ENDBRANCH  10  11
ENDBRANCH   9  10
ENDBRANCH   8   9
ENDBRANCH   1   8
TORSDOF 9
ENDMDL
MODEL 6
REMARK VINA RESULT:    -4.104      2.533      2.978
REMARK INTER + INTRA:          -7.053
REMARK INTER:                  -6.184
REMARK INTRA:                  -0.869
REMARK UNBOUND:                -0.790
REMARK SMILES O=C([O-])CCCCCCCCC(=O)[O-]
REMARK SMILES IDX 7 1 6 2 5 3 4 4 2 5 1 6 3 7 8 8 9 9 10 10 11 11 12 12 13 13
REMARK SMILES IDX 14 14
REMARK H PARENT
REMARK Flexibility Score: inf
ROOT
ATOM      1  C   UNL     1     -19.610 -32.451  19.633  1.00  0.00     0.000 C 
ENDROOT
BRANCH   1   2
ATOM      2  C   UNL     1     -18.846 -33.045  20.824  1.00  0.00     0.000 C 
BRANCH   2   3
ATOM      3  C   UNL     1     -17.621 -33.841  20.350  1.00  0.00     0.006 C 
BRANCH   3   4
ATOM      4  C   UNL     1     -17.431 -33.766  18.830  1.00  0.00     0.053 C 
BRANCH   4   5
ATOM      5  C   UNL     1     -16.075 -33.248  18.462  1.00  0.00     0.041 C 
ATOM      6  O   UNL     1     -15.573 -32.283  19.096  1.00  0.00    -0.550 OA
ATOM      7  O   UNL     1     -15.351 -33.852  17.442  1.00  0.00    -0.550 OA
ENDBRANCH   4   5
ENDBRANCH   3   4
ENDBRANCH   2   3
ENDBRANCH   1   2
BRANCH   1   8
ATOM      8  C   UNL     1     -20.300 -31.138  20.021  1.00  0.00     0.000 C 
BRANCH   8   9
ATOM      9  C   UNL     1     -20.048 -30.052  18.965  1.00  0.00     0.000 C 
BRANCH   9  10
ATOM     10  C   UNL     1     -18.701 -30.227  18.239  1.00  0.00     0.006 C 
BRANCH  10  11
ATOM     11  C   UNL     1     -17.575 -29.327  18.772  1.00  0.00     0.053 C 
BRANCH  11  12
ATOM     12  C   UNL     1     -17.763 -27.896  18.368  1.00  0.00     0.041 C 
ATOM     13  O   UNL     1     -17.488 -27.527  17.195  1.00  0.00    -0.550 OA
ATOM     14  O   UNL     1     -18.271 -26.978  19.277  1.00  0.00    -0.550 OA
ENDBRANCH  11  12
ENDBRANCH  10  11
ENDBRANCH   9  10
ENDBRANCH   8   9
ENDBRANCH   1   8
TORSDOF 9
ENDMDL
MODEL 7
REMARK VINA RESULT:    -4.030      2.996      5.228
REMARK INTER + INTRA:          -6.940
REMARK INTER:                  -6.085
REMARK INTRA:                  -0.855
REMARK UNBOUND:                -0.790
REMARK SMILES O=C([O-])CCCCCCCCC(=O)[O-]
REMARK SMILES IDX 7 1 6 2 5 3 4 4 2 5 1 6 3 7 8 8 9 9 10 10 11 11 12 12 13 13
REMARK SMILES IDX 14 14
REMARK H PARENT
REMARK Flexibility Score: inf
ROOT
ATOM      1  C   UNL     1     -18.883 -32.022  17.353  1.00  0.00     0.000 C 
ENDROOT
BRANCH   1   2
ATOM      2  C   UNL     1     -18.973 -30.804  18.281  1.00  0.00     0.000 C 
BRANCH   2   3
ATOM      3  C   UNL     1     -17.645 -30.034  18.310  1.00  0.00     0.006 C 
BRANCH   3   4
ATOM      4  C   UNL     1     -17.439 -29.281  19.630  1.00  0.00     0.053 C 
BRANCH   4   5
ATOM      5  C   UNL     1     -17.452 -27.796  19.431  1.00  0.00     0.041 C 
ATOM      6  O   UNL     1     -18.518 -27.211  19.107  1.00  0.00    -0.550 OA
ATOM      7  O   UNL     1     -16.295 -27.055  19.637  1.00  0.00    -0.550 OA
ENDBRANCH   4   5
ENDBRANCH   3   4
ENDBRANCH   2   3
ENDBRANCH   1   2
BRANCH   1   8
ATOM      8  C   UNL     1     -19.148 -33.322  18.121  1.00  0.00     0.000 C 
BRANCH   8   9
ATOM      9  C   UNL     1     -19.562 -33.029  19.570  1.00  0.00     0.000 C 
BRANCH   9  10
ATOM     10  C   UNL     1     -18.576 -33.607  20.602  1.00  0.00     0.006 C 
BRANCH  10  11
ATOM     11  C   UNL     1     -18.035 -32.576  21.605  1.00  0.00     0.053 C 
BRANCH  11  12
ATOM     12  C   UNL     1     -16.537 -32.531  21.609  1.00  0.00     0.041 C 
ATOM     13  O   UNL     1     -15.909 -32.250  20.555  1.00  0.00    -0.550 OA
ATOM     14  O   UNL     1     -15.837 -32.769  22.785  1.00  0.00    -0.550 OA
ENDBRANCH  11  12
ENDBRANCH  10  11
ENDBRANCH   9  10
ENDBRANCH   8   9
ENDBRANCH   1   8
TORSDOF 9
ENDMDL
MODEL 8
REMARK VINA RESULT:    -4.000      1.534      2.424
REMARK INTER + INTRA:          -6.894
REMARK INTER:                  -6.059
REMARK INTRA:                  -0.835
REMARK UNBOUND:                -0.790
REMARK SMILES O=C([O-])CCCCCCCCC(=O)[O-]
REMARK SMILES IDX 7 1 6 2 5 3 4 4 2 5 1 6 3 7 8 8 9 9 10 10 11 11 12 12 13 13
REMARK SMILES IDX 14 14
REMARK H PARENT
REMARK Flexibility Score: inf
ROOT
ATOM      1  C   UNL     1     -19.419 -31.459  20.270  1.00  0.00     0.000 C 
ENDROOT
BRANCH   1   2
ATOM      2  C   UNL     1     -19.489 -32.902  19.754  1.00  0.00     0.000 C 
BRANCH   2   3
ATOM      3  C   UNL     1     -18.152 -33.331  19.134  1.00  0.00     0.006 C 
BRANCH   3   4
ATOM      4  C   UNL     1     -18.314 -33.838  17.695  1.00  0.00     0.053 C 
BRANCH   4   5
ATOM      5  C   UNL     1     -18.503 -32.712  16.726  1.00  0.00     0.041 C 
ATOM      6  O   UNL     1     -17.621 -31.822  16.611  1.00  0.00    -0.550 OA
ATOM      7  O   UNL     1     -19.639 -32.664  15.927  1.00  0.00    -0.550 OA
ENDBRANCH   4   5
ENDBRANCH   3   4
ENDBRANCH   2   3
ENDBRANCH   1   2
BRANCH   1   8
ATOM      8  C   UNL     1     -19.997 -30.478  19.244  1.00  0.00     0.000 C 
BRANCH   8   9
ATOM      9  C   UNL     1     -18.949 -29.434  18.831  1.00  0.00     0.000 C 
BRANCH   9  10
ATOM     10  C   UNL     1     -17.597 -29.634  19.540  1.00  0.00     0.006 C 
BRANCH  10  11
ATOM     11  C   UNL     1     -16.849 -28.329  19.855  1.00  0.00     0.053 C 
BRANCH  11  12
ATOM     12  C   UNL     1     -15.988 -27.886  18.712  1.00  0.00     0.041 C 
ATOM     13  O   UNL     1     -16.503 -27.315  17.714  1.00  0.00    -0.550 OA
ATOM     14  O   UNL     1     -14.613 -28.075  18.763  1.00  0.00    -0.550 OA
ENDBRANCH  11  12
ENDBRANCH  10  11
ENDBRANCH   9  10
ENDBRANCH   8   9
ENDBRANCH   1   8
TORSDOF 9
ENDMDL
MODEL 9
REMARK VINA RESULT:    -3.987      2.531      5.085
REMARK INTER + INTRA:          -6.875
REMARK INTER:                  -5.968
REMARK INTRA:                  -0.907
REMARK UNBOUND:                -0.790
REMARK SMILES O=C([O-])CCCCCCCCC(=O)[O-]
REMARK SMILES IDX 7 1 6 2 5 3 4 4 2 5 1 6 3 7 8 8 9 9 10 10 11 11 12 12 13 13
REMARK SMILES IDX 14 14
REMARK H PARENT
REMARK Flexibility Score: inf
ROOT
ATOM      1  C   UNL     1     -19.953 -31.232  20.162  1.00  0.00     0.000 C 
ENDROOT
BRANCH   1   2
ATOM      2  C   UNL     1     -20.018 -30.202  19.026  1.00  0.00     0.000 C 
BRANCH   2   3
ATOM      3  C   UNL     1     -18.624 -29.944  18.436  1.00  0.00     0.006 C 
BRANCH   3   4
ATOM      4  C   UNL     1     -17.672 -29.302  19.453  1.00  0.00     0.053 C 
BRANCH   4   5
ATOM      5  C   UNL     1     -17.431 -27.855  19.153  1.00  0.00     0.041 C 
ATOM      6  O   UNL     1     -18.330 -27.003  19.379  1.00  0.00    -0.550 OA
ATOM      7  O   UNL     1     -16.201 -27.442  18.655  1.00  0.00    -0.550 OA
ENDBRANCH   4   5
ENDBRANCH   3   4
ENDBRANCH   2   3
ENDBRANCH   1   2
BRANCH   1   8
ATOM      8  C   UNL     1     -19.665 -32.636  19.618  1.00  0.00     0.000 C 
BRANCH   8   9
ATOM      9  C   UNL     1     -18.850 -33.459  20.625  1.00  0.00     0.000 C 
BRANCH   9  10
ATOM     10  C   UNL     1     -17.347 -33.496  20.289  1.00  0.00     0.006 C 
BRANCH  10  11
ATOM     11  C   UNL     1     -17.033 -33.404  18.788  1.00  0.00     0.053 C 
BRANCH  11  12
ATOM     12  C   UNL     1     -15.844 -32.533  18.517  1.00  0.00     0.041 C 
ATOM     13  O   UNL     1     -15.731 -31.942  17.411  1.00  0.00    -0.550 OA
ATOM     14  O   UNL     1     -14.879 -32.349  19.498  1.00  0.00    -0.550 OA
ENDBRANCH  11  12
ENDBRANCH  10  11
ENDBRANCH   9  10
ENDBRANCH   8   9
ENDBRANCH   1   8
TORSDOF 9
ENDMDL
