MODEL 1
REMARK VINA RESULT:    -4.045      0.000      0.000
REMARK INTER + INTRA:          -5.230
REMARK INTER:                  -4.872
REMARK INTRA:                  -0.358
REMARK UNBOUND:                -0.358
REMARK SMILES NC(=O)C[C@H]([NH3+])C(=O)[O-]
REMARK SMILES IDX 4 1 5 2 6 3 7 7 8 8 9 9 2 10 3 11 1 12
REMARK H PARENT 6 4 6 5 6 6 1 13 1 14
REMARK Flexibility Score: inf
ROOT
ATOM      1  C   UNL     1     110.878 106.918 123.351  1.00  0.00     0.171 C 
ENDROOT
BRANCH   1   2
ATOM      2  C   UNL     1     111.816 107.392 124.479  1.00  0.00     0.237 C 
BRANCH   2   3
ATOM      3  N   UNL     1     112.110 108.827 124.367  1.00  0.00    -0.350 N 
ATOM      4  H   UNL     1     112.192 109.111 123.364  1.00  0.00     0.345 HD
ATOM      5  H   UNL     1     111.351 109.385 124.821  1.00  0.00     0.345 HD
ATOM      6  H   UNL     1     113.006 109.046 124.859  1.00  0.00     0.345 HD
ENDBRANCH   2   3
BRANCH   2   7
ATOM      7  C   UNL     1     113.095 106.599 124.441  1.00  0.00     0.100 C 
ATOM      8  O   UNL     1     113.626 106.202 125.512  1.00  0.00    -0.544 OA
ATOM      9  O   UNL     1     113.688 106.285 123.225  1.00  0.00    -0.544 OA
ENDBRANCH   2   7
ENDBRANCH   1   2
BRANCH   1  10
ATOM     10  C   UNL     1     110.645 107.995 122.332  1.00  0.00     0.223 C 
ATOM     11  O   UNL     1     111.580 108.339 121.562  1.00  0.00    -0.275 OA
ATOM     12  N   UNL     1     109.361 108.608 122.206  1.00  0.00    -0.369 N 
ATOM     13  H   UNL     1     108.569 108.318 122.819  1.00  0.00     0.159 HD
ATOM     14  H   UNL     1     109.201 109.349 121.488  1.00  0.00     0.159 HD
ENDBRANCH   1  10
TORSDOF 4
ENDMDL
MODEL 2
REMARK VINA RESULT:    -4.010      2.308      3.223
REMARK INTER + INTRA:          -5.189
REMARK INTER:                  -4.949
REMARK INTRA:                  -0.240
REMARK UNBOUND:                -0.358
REMARK SMILES NC(=O)C[C@H]([NH3+])C(=O)[O-]
REMARK SMILES IDX 4 1 5 2 6 3 7 7 8 8 9 9 2 10 3 11 1 12
REMARK H PARENT 6 4 6 5 6 6 1 13 1 14
REMARK Flexibility Score: inf
ROOT
ATOM      1  C   UNL     1     111.300 108.844 123.726  1.00  0.00     0.171 C 
ENDROOT
BRANCH   1   2
ATOM      2  C   UNL     1     110.691 108.234 122.447  1.00  0.00     0.237 C 
BRANCH   2   3
ATOM      3  N   UNL     1     109.350 108.771 122.182  1.00  0.00    -0.350 N 
ATOM      4  H   UNL     1     109.348 109.815 122.245  1.00  0.00     0.345 HD
ATOM      5  H   UNL     1     109.029 108.483 121.229  1.00  0.00     0.345 HD
ATOM      6  H   UNL     1     108.670 108.385 122.877  1.00  0.00     0.345 HD
ENDBRANCH   2   3
BRANCH   2   7
ATOM      7  C   UNL     1     110.632 106.736 122.578  1.00  0.00     0.100 C 
ATOM      8  O   UNL     1     110.101 106.210 123.591  1.00  0.00    -0.544 OA
ATOM      9  O   UNL     1     111.148 105.925 121.575  1.00  0.00    -0.544 OA
ENDBRANCH   2   7
ENDBRANCH   1   2
BRANCH   1  10
ATOM     10  C   UNL     1     112.073 110.096 123.433  1.00  0.00     0.223 C 
ATOM     11  O   UNL     1     111.888 110.704 122.346  1.00  0.00    -0.275 OA
ATOM     12  N   UNL     1     112.991 110.623 124.391  1.00  0.00    -0.369 N 
ATOM     13  H   UNL     1     113.139 110.146 125.307  1.00  0.00     0.159 HD
ATOM     14  H   UNL     1     113.519 111.500 124.187  1.00  0.00     0.159 HD
ENDBRANCH   1  10
TORSDOF 4
ENDMDL
MODEL 3
REMARK VINA RESULT:    -3.952      2.425      2.978
REMARK INTER + INTRA:          -5.119
REMARK INTER:                  -4.827
REMARK INTRA:                  -0.292
REMARK UNBOUND:                -0.358
REMARK SMILES NC(=O)C[C@H]([NH3+])C(=O)[O-]
REMARK SMILES IDX 4 1 5 2 6 3 7 7 8 8 9 9 2 10 3 11 1 12
REMARK H PARENT 6 4 6 5 6 6 1 13 1 14
REMARK Flexibility Score: inf
ROOT
ATOM      1  C   UNL     1     111.850 107.877 122.235  1.00  0.00     0.171 C 
ENDROOT
BRANCH   1   2
ATOM      2  C   UNL     1     112.286 107.091 120.981  1.00  0.00     0.237 C 
BRANCH   2   3
ATOM      3  N   UNL     1     111.448 105.902 120.774  1.00  0.00    -0.350 N 
ATOM      4  H   UNL     1     111.665 105.451 119.856  1.00  0.00     0.345 HD
ATOM      5  H   UNL     1     111.609 105.212 121.543  1.00  0.00     0.345 HD
ATOM      6  H   UNL     1     110.438 106.172 120.793  1.00  0.00     0.345 HD
ENDBRANCH   2   3
BRANCH   2   7
ATOM      7  C   UNL     1     113.731 106.690 121.111  1.00  0.00     0.100 C 
ATOM      8  O   UNL     1     114.287 106.686 122.241  1.00  0.00    -0.544 OA
ATOM      9  O   UNL     1     114.454 106.305 119.989  1.00  0.00    -0.544 OA
ENDBRANCH   2   7
ENDBRANCH   1   2
BRANCH   1  10
ATOM     10  C   UNL     1     110.417 107.608 122.589  1.00  0.00     0.223 C 
ATOM     11  O   UNL     1     110.118 106.570 123.237  1.00  0.00    -0.275 OA
ATOM     12  N   UNL     1     109.395 108.538 122.229  1.00  0.00    -0.369 N 
ATOM     13  H   UNL     1     109.628 109.415 121.714  1.00  0.00     0.159 HD
ATOM     14  H   UNL     1     108.400 108.352 122.488  1.00  0.00     0.159 HD
ENDBRANCH   1  10
TORSDOF 4
ENDMDL
MODEL 4
REMARK VINA RESULT:    -3.884      2.323      3.066
REMARK INTER + INTRA:          -5.037
REMARK INTER:                  -4.933
REMARK INTRA:                  -0.104
REMARK UNBOUND:                -0.358
REMARK SMILES NC(=O)C[C@H]([NH3+])C(=O)[O-]
REMARK SMILES IDX 4 1 5 2 6 3 7 7 8 8 9 9 2 10 3 11 1 12
REMARK H PARENT 6 4 6 5 6 6 1 13 1 14
REMARK Flexibility Score: inf
ROOT
ATOM      1  C   UNL     1     111.742 107.992 121.501  1.00  0.00     0.171 C 
ENDROOT
BRANCH   1   2
ATOM      2  C   UNL     1     110.613 107.799 122.534  1.00  0.00     0.237 C 
BRANCH   2   3
ATOM      3  N   UNL     1     109.445 108.631 122.216  1.00  0.00    -0.350 N 
ATOM      4  H   UNL     1     109.099 109.127 123.069  1.00  0.00     0.345 HD
ATOM      5  H   UNL     1     109.696 109.338 121.486  1.00  0.00     0.345 HD
ATOM      6  H   UNL     1     108.677 108.034 121.832  1.00  0.00     0.345 HD
ENDBRANCH   2   3
BRANCH   2   7
ATOM      7  C   UNL     1     111.125 108.132 123.910  1.00  0.00     0.100 C 
ATOM      8  O   UNL     1     111.889 109.118 124.080  1.00  0.00    -0.544 OA
ATOM      9  O   UNL     1     110.745 107.363 125.003  1.00  0.00    -0.544 OA
ENDBRANCH   2   7
ENDBRANCH   1   2
BRANCH   1  10
ATOM     10  C   UNL     1     112.281 106.679 121.014  1.00  0.00     0.223 C 
ATOM     11  O   UNL     1     113.483 106.593 120.649  1.00  0.00    -0.275 OA
ATOM     12  N   UNL     1     111.451 105.516 120.996  1.00  0.00    -0.369 N 
ATOM     13  H   UNL     1     110.460 105.563 121.318  1.00  0.00     0.159 HD
ATOM     14  H   UNL     1     111.834 104.602 120.668  1.00  0.00     0.159 HD
ENDBRANCH   1  10
TORSDOF 4
ENDMDL
MODEL 5
REMARK VINA RESULT:    -3.836      0.515      1.140
REMARK INTER + INTRA:          -4.978
REMARK INTER:                  -4.647
REMARK INTRA:                  -0.331
REMARK UNBOUND:                -0.358
REMARK SMILES NC(=O)C[C@H]([NH3+])C(=O)[O-]
REMARK SMILES IDX 4 1 5 2 6 3 7 7 8 8 9 9 2 10 3 11 1 12
REMARK H PARENT 6 4 6 5 6 6 1 13 1 14
REMARK Flexibility Score: inf
ROOT
ATOM      1  C   UNL     1     111.287 107.059 122.851  1.00  0.00     0.171 C 
ENDROOT
BRANCH   1   2
ATOM      2  C   UNL     1     112.030 107.402 124.159  1.00  0.00     0.237 C 
BRANCH   2   3
ATOM      3  N   UNL     1     112.145 108.855 124.345  1.00  0.00    -0.350 N 
ATOM      4  H   UNL     1     112.955 109.236 123.806  1.00  0.00     0.345 HD
ATOM      5  H   UNL     1     111.268 109.328 124.028  1.00  0.00     0.345 HD
ATOM      6  H   UNL     1     112.276 109.073 125.360  1.00  0.00     0.345 HD
ENDBRANCH   2   3
BRANCH   2   7
ATOM      7  C   UNL     1     113.397 106.773 124.144  1.00  0.00     0.100 C 
ATOM      8  O   UNL     1     114.193 107.011 123.199  1.00  0.00    -0.544 OA
ATOM      9  O   UNL     1     113.794 105.939 125.182  1.00  0.00    -0.544 OA
ENDBRANCH   2   7
ENDBRANCH   1   2
BRANCH   1  10
ATOM     10  C   UNL     1     110.767 108.290 122.167  1.00  0.00     0.223 C 
ATOM     11  O   UNL     1     111.558 109.027 121.521  1.00  0.00    -0.275 OA
ATOM     12  N   UNL     1     109.377 108.612 122.214  1.00  0.00    -0.369 N 
ATOM     13  H   UNL     1     108.703 108.000 122.724  1.00  0.00     0.159 HD
ATOM     14  H   UNL     1     109.018 109.464 121.728  1.00  0.00     0.159 HD
ENDBRANCH   1  10
TORSDOF 4
ENDMDL
MODEL 6
REMARK VINA RESULT:    -3.812      2.452      3.823
REMARK INTER + INTRA:          -4.950
REMARK INTER:                  -4.515
REMARK INTRA:                  -0.435
REMARK UNBOUND:                -0.358
REMARK SMILES NC(=O)C[C@H]([NH3+])C(=O)[O-]
REMARK SMILES IDX 4 1 5 2 6 3 7 7 8 8 9 9 2 10 3 11 1 12
REMARK H PARENT 6 4 6 5 6 6 1 13 1 14
REMARK Flexibility Score: inf
ROOT
ATOM      1  C   UNL     1     111.697 107.711 122.939  1.00  0.00     0.171 C 
ENDROOT
BRANCH   1   2
ATOM      2  C   UNL     1     110.956 108.968 122.440  1.00  0.00     0.237 C 
BRANCH   2   3
ATOM      3  N   UNL     1     109.532 108.694 122.206  1.00  0.00    -0.350 N 
ATOM      4  H   UNL     1     108.935 109.237 122.872  1.00  0.00     0.345 HD
ATOM      5  H   UNL     1     109.273 108.951 121.225  1.00  0.00     0.345 HD
ATOM      6  H   UNL     1     109.341 107.673 122.330  1.00  0.00     0.345 HD
ENDBRANCH   2   3
BRANCH   2   7
ATOM      7  C   UNL     1     111.601 109.468 121.175  1.00  0.00     0.100 C 
ATOM      8  O   UNL     1     112.458 108.763 120.580  1.00  0.00    -0.544 OA
ATOM      9  O   UNL     1     111.243 110.702 120.647  1.00  0.00    -0.544 OA
ENDBRANCH   2   7
ENDBRANCH   1   2
BRANCH   1  10
ATOM     10  C   UNL     1     110.953 106.454 122.595  1.00  0.00     0.223 C 
ATOM     11  O   UNL     1     110.034 106.044 123.352  1.00  0.00    -0.275 OA
ATOM     12  N   UNL     1     111.255 105.737 121.397  1.00  0.00    -0.369 N 
ATOM     13  H   UNL     1     111.997 106.075 120.746  1.00  0.00     0.159 HD
ATOM     14  H   UNL     1     110.728 104.869 121.156  1.00  0.00     0.159 HD
ENDBRANCH   1  10
TORSDOF 4
ENDMDL
MODEL 7
REMARK VINA RESULT:    -3.790      1.828      3.416
REMARK INTER + INTRA:          -4.924
REMARK INTER:                  -4.742
REMARK INTRA:                  -0.182
REMARK UNBOUND:                -0.358
REMARK SMILES NC(=O)C[C@H]([NH3+])C(=O)[O-]
REMARK SMILES IDX 4 1 5 2 6 3 7 7 8 8 9 9 2 10 3 11 1 12
REMARK H PARENT 6 4 6 5 6 6 1 13 1 14
REMARK Flexibility Score: inf
ROOT
ATOM      1  C   UNL     1     111.387 108.697 123.692  1.00  0.00     0.171 C 
ENDROOT
BRANCH   1   2
ATOM      2  C   UNL     1     110.734 108.244 122.370  1.00  0.00     0.237 C 
BRANCH   2   3
ATOM      3  N   UNL     1     109.386 108.807 122.216  1.00  0.00    -0.350 N 
ATOM      4  H   UNL     1     108.893 108.373 121.402  1.00  0.00     0.345 HD
ATOM      5  H   UNL     1     108.826 108.641 123.084  1.00  0.00     0.345 HD
ATOM      6  H   UNL     1     109.447 109.840 122.068  1.00  0.00     0.345 HD
ENDBRANCH   2   3
BRANCH   2   7
ATOM      7  C   UNL     1     110.675 106.740 122.323  1.00  0.00     0.100 C 
ATOM      8  O   UNL     1     111.149 106.119 121.336  1.00  0.00    -0.544 OA
ATOM      9  O   UNL     1     110.113 106.029 123.376  1.00  0.00    -0.544 OA
ENDBRANCH   2   7
ENDBRANCH   1   2
BRANCH   1  10
ATOM     10  C   UNL     1     112.725 108.051 123.900  1.00  0.00     0.223 C 
ATOM     11  O   UNL     1     113.718 108.441 123.231  1.00  0.00    -0.275 OA
ATOM     12  N   UNL     1     112.890 107.023 124.877  1.00  0.00    -0.369 N 
ATOM     13  H   UNL     1     112.084 106.705 125.458  1.00  0.00     0.159 HD
ATOM     14  H   UNL     1     113.825 106.584 125.027  1.00  0.00     0.159 HD
ENDBRANCH   1  10
TORSDOF 4
ENDMDL
MODEL 8
REMARK VINA RESULT:    -3.788      1.960      2.065
REMARK INTER + INTRA:          -4.921
REMARK INTER:                  -4.585
REMARK INTRA:                  -0.335
REMARK UNBOUND:                -0.358
REMARK SMILES NC(=O)C[C@H]([NH3+])C(=O)[O-]
REMARK SMILES IDX 4 1 5 2 6 3 7 7 8 8 9 9 2 10 3 11 1 12
REMARK H PARENT 6 4 6 5 6 6 1 13 1 14
REMARK Flexibility Score: inf
ROOT
ATOM      1  C   UNL     1     111.846 108.232 122.871  1.00  0.00     0.171 C 
ENDROOT
BRANCH   1   2
ATOM      2  C   UNL     1     112.823 107.261 122.177  1.00  0.00     0.237 C 
BRANCH   2   3
ATOM      3  N   UNL     1     112.107 106.232 121.413  1.00  0.00    -0.350 N 
ATOM      4  H   UNL     1     111.708 106.632 120.534  1.00  0.00     0.345 HD
ATOM      5  H   UNL     1     112.755 105.447 121.171  1.00  0.00     0.345 HD
ATOM      6  H   UNL     1     111.329 105.837 121.992  1.00  0.00     0.345 HD
ENDBRANCH   2   3
BRANCH   2   7
ATOM      7  C   UNL     1     113.712 106.616 123.207  1.00  0.00     0.100 C 
ATOM      8  O   UNL     1     113.376 106.614 124.420  1.00  0.00    -0.544 OA
ATOM      9  O   UNL     1     114.899 106.006 122.823  1.00  0.00    -0.544 OA
ENDBRANCH   2   7
ENDBRANCH   1   2
BRANCH   1  10
ATOM     10  C   UNL     1     110.434 107.725 122.826  1.00  0.00     0.223 C 
ATOM     11  O   UNL     1     110.145 106.629 123.376  1.00  0.00    -0.275 OA
ATOM     12  N   UNL     1     109.408 108.493 122.196  1.00  0.00    -0.369 N 
ATOM     13  H   UNL     1     109.624 109.414 121.757  1.00  0.00     0.159 HD
ATOM     14  H   UNL     1     108.425 108.141 122.177  1.00  0.00     0.159 HD
ENDBRANCH   1  10
TORSDOF 4
ENDMDL
MODEL 9
REMARK VINA RESULT:    -3.671      1.991      2.452
REMARK INTER + INTRA:          -4.780
REMARK INTER:                  -4.510
REMARK INTRA:                  -0.270
REMARK UNBOUND:                -0.358
REMARK SMILES NC(=O)C[C@H]([NH3+])C(=O)[O-]
REMARK SMILES IDX 4 1 5 2 6 3 7 7 8 8 9 9 2 10 3 11 1 12
REMARK H PARENT 6 4 6 5 6 6 1 13 1 14
REMARK Flexibility Score: inf
ROOT
ATOM      1  C   UNL     1     112.532 107.783 123.450  1.00  0.00     0.171 C 
ENDROOT
BRANCH   1   2
ATOM      2  C   UNL     1     113.240 106.517 123.976  1.00  0.00     0.237 C 
BRANCH   2   3
ATOM      3  N   UNL     1     113.294 106.503 125.444  1.00  0.00    -0.350 N 
ATOM      4  H   UNL     1     112.513 107.067 125.850  1.00  0.00     0.345 HD
ATOM      5  H   UNL     1     113.227 105.520 125.796  1.00  0.00     0.345 HD
ATOM      6  H   UNL     1     114.206 106.898 125.770  1.00  0.00     0.345 HD
ENDBRANCH   2   3
BRANCH   2   7
ATOM      7  C   UNL     1     114.632 106.442 123.407  1.00  0.00     0.100 C 
ATOM      8  O   UNL     1     114.804 106.157 122.193  1.00  0.00    -0.544 OA
ATOM      9  O   UNL     1     115.732 106.704 124.213  1.00  0.00    -0.544 OA
ENDBRANCH   2   7
ENDBRANCH   1   2
BRANCH   1  10
ATOM     10  C   UNL     1     111.112 107.865 123.929  1.00  0.00     0.223 C 
ATOM     11  O   UNL     1     110.499 106.813 124.249  1.00  0.00    -0.275 OA
ATOM     12  N   UNL     1     110.463 109.130 124.058  1.00  0.00    -0.369 N 
ATOM     13  H   UNL     1     110.964 110.014 123.821  1.00  0.00     0.159 HD
ATOM     14  H   UNL     1     109.479 109.184 124.402  1.00  0.00     0.159 HD
ENDBRANCH   1  10
TORSDOF 4
ENDMDL
