MODEL 1
REMARK VINA RESULT:    20.091      0.000      0.000
REMARK INTER + INTRA:          37.652
REMARK INTER:                  37.710
REMARK INTRA:                  -0.057
REMARK UNBOUND:                -0.057
REMARK SMILES CCCCCCCCC=CCCCCCCCC(=O)[O-]
REMARK SMILES IDX 10 1 9 2 11 3 12 4 13 5 14 6 15 7 16 8 17 9 18 10 19 11
REMARK SMILES IDX 20 12 8 13 7 14 6 15 5 16 4 17 3 18 2 19 1 20
REMARK H PARENT
REMARK Flexibility Score: inf
ROOT
ATOM      1  C   UNL     1     -38.397  21.726 -18.755  1.00  0.00    -0.031 C 
ATOM      2  C   UNL     1     -37.776  22.763 -19.349  1.00  0.00    -0.031 C 
ENDROOT
BRANCH   1   3
ATOM      3  C   UNL     1     -39.894  21.569 -18.625  1.00  0.00     0.027 C 
BRANCH   3   4
ATOM      4  C   UNL     1     -40.569  22.905 -18.278  1.00  0.00     0.004 C 
BRANCH   4   5
ATOM      5  C   UNL     1     -41.883  22.702 -17.503  1.00  0.00     0.000 C 
BRANCH   5   6
ATOM      6  C   UNL     1     -42.130  23.797 -16.450  1.00  0.00     0.000 C 
BRANCH   6   7
ATOM      7  C   UNL     1     -42.713  23.295 -15.113  1.00  0.00     0.000 C 
BRANCH   7   8
ATOM      8  C   UNL     1     -42.633  24.296 -13.945  1.00  0.00     0.006 C 
BRANCH   8   9
ATOM      9  C   UNL     1     -42.181  23.646 -12.631  1.00  0.00     0.053 C 
BRANCH   9  10
ATOM     10  C   UNL     1     -41.005  24.377 -12.064  1.00  0.00     0.041 C 
ATOM     11  O   UNL     1     -39.916  24.418 -12.698  1.00  0.00    -0.550 OA
ATOM     12  O   UNL     1     -41.125  25.049 -10.852  1.00  0.00    -0.550 OA
ENDBRANCH   9  10
ENDBRANCH   8   9
ENDBRANCH   7   8
ENDBRANCH   6   7
ENDBRANCH   5   6
ENDBRANCH   4   5
ENDBRANCH   3   4
ENDBRANCH   1   3
BRANCH   2  13
ATOM     13  C   UNL     1     -38.475  23.909 -20.031  1.00  0.00     0.027 C 
BRANCH  13  14
ATOM     14  C   UNL     1     -37.476  24.797 -20.789  1.00  0.00     0.004 C 
BRANCH  14  15
ATOM     15  C   UNL     1     -38.176  25.856 -21.655  1.00  0.00     0.000 C 
BRANCH  15  16
ATOM     16  C   UNL     1     -37.458  27.216 -21.616  1.00  0.00     0.000 C 
BRANCH  16  17
ATOM     17  C   UNL     1     -38.378  28.341 -22.103  1.00  0.00    -0.000 C 
BRANCH  17  18
ATOM     18  C   UNL     1     -38.450  29.477 -21.073  1.00  0.00    -0.000 C 
BRANCH  18  19
ATOM     19  C   UNL     1     -39.889  29.769 -20.617  1.00  0.00    -0.003 C 
ATOM     20  C   UNL     1     -40.905  29.616 -21.749  1.00  0.00     0.004 C 
ENDBRANCH  18  19
ENDBRANCH  17  18
ENDBRANCH  16  17
ENDBRANCH  15  16
ENDBRANCH  14  15
ENDBRANCH  13  14
ENDBRANCH   2  13
TORSDOF 15
ENDMDL
MODEL 2
REMARK VINA RESULT:    20.191      2.725      5.067
REMARK INTER + INTRA:          37.840
REMARK INTER:                  38.457
REMARK INTRA:                  -0.617
REMARK UNBOUND:                -0.057
REMARK SMILES CCCCCCCCC=CCCCCCCCC(=O)[O-]
REMARK SMILES IDX 10 1 9 2 11 3 12 4 13 5 14 6 15 7 16 8 17 9 18 10 19 11
REMARK SMILES IDX 20 12 8 13 7 14 6 15 5 16 4 17 3 18 2 19 1 20
REMARK H PARENT
REMARK Flexibility Score: inf
ROOT
ATOM      1  C   UNL     1     -42.699  23.056 -15.918  1.00  0.00    -0.031 C 
ATOM      2  C   UNL     1     -42.259  22.624 -17.116  1.00  0.00    -0.031 C 
ENDROOT
BRANCH   1   3
ATOM      3  C   UNL     1     -42.067  24.163 -15.108  1.00  0.00     0.027 C 
BRANCH   3   4
ATOM      4  C   UNL     1     -42.519  24.110 -13.641  1.00  0.00     0.004 C 
BRANCH   4   5
ATOM      5  C   UNL     1     -41.338  24.283 -12.668  1.00  0.00     0.000 C 
BRANCH   5   6
ATOM      6  C   UNL     1     -41.790  24.455 -11.207  1.00  0.00     0.000 C 
BRANCH   6   7
ATOM      7  C   UNL     1     -43.249  24.920 -11.027  1.00  0.00     0.000 C 
BRANCH   7   8
ATOM      8  C   UNL     1     -43.892  24.556  -9.675  1.00  0.00     0.006 C 
BRANCH   8   9
ATOM      9  C   UNL     1     -45.303  25.135  -9.510  1.00  0.00     0.053 C 
BRANCH   9  10
ATOM     10  C   UNL     1     -45.489  25.672  -8.125  1.00  0.00     0.041 C 
ATOM     11  O   UNL     1     -44.627  25.440  -7.233  1.00  0.00    -0.550 OA
ATOM     12  O   UNL     1     -46.594  26.462  -7.830  1.00  0.00    -0.550 OA
ENDBRANCH   9  10
ENDBRANCH   8   9
ENDBRANCH   7   8
ENDBRANCH   6   7
ENDBRANCH   5   6
ENDBRANCH   4   5
ENDBRANCH   3   4
ENDBRANCH   1   3
BRANCH   2  13
ATOM     13  C   UNL     1     -41.095  23.213 -17.868  1.00  0.00     0.027 C 
BRANCH  13  14
ATOM     14  C   UNL     1     -40.331  22.130 -18.646  1.00  0.00     0.004 C 
BRANCH  14  15
ATOM     15  C   UNL     1     -38.820  22.165 -18.366  1.00  0.00     0.000 C 
BRANCH  15  16
ATOM     16  C   UNL     1     -38.015  22.703 -19.560  1.00  0.00     0.000 C 
BRANCH  16  17
ATOM     17  C   UNL     1     -38.265  24.202 -19.765  1.00  0.00    -0.000 C 
BRANCH  17  18
ATOM     18  C   UNL     1     -37.795  24.653 -21.156  1.00  0.00    -0.000 C 
BRANCH  18  19
ATOM     19  C   UNL     1     -38.694  25.745 -21.757  1.00  0.00    -0.003 C 
ATOM     20  C   UNL     1     -37.927  27.031 -22.068  1.00  0.00     0.004 C 
ENDBRANCH  18  19
ENDBRANCH  17  18
ENDBRANCH  16  17
ENDBRANCH  15  16
ENDBRANCH  14  15
ENDBRANCH  13  14
ENDBRANCH   2  13
TORSDOF 15
ENDMDL
MODEL 3
REMARK VINA RESULT:    20.498      4.093      6.554
REMARK INTER + INTRA:          38.416
REMARK INTER:                  39.017
REMARK INTRA:                  -0.600
REMARK UNBOUND:                -0.057
REMARK SMILES CCCCCCCCC=CCCCCCCCC(=O)[O-]
REMARK SMILES IDX 10 1 9 2 11 3 12 4 13 5 14 6 15 7 16 8 17 9 18 10 19 11
REMARK SMILES IDX 20 12 8 13 7 14 6 15 5 16 4 17 3 18 2 19 1 20
REMARK H PARENT
REMARK Flexibility Score: inf
ROOT
ATOM      1  C   UNL     1     -39.304  24.747 -14.342  1.00  0.00    -0.031 C 
ATOM      2  C   UNL     1     -40.345  25.045 -15.142  1.00  0.00    -0.031 C 
ENDROOT
BRANCH   1   3
ATOM      3  C   UNL     1     -39.379  23.886 -13.102  1.00  0.00     0.027 C 
BRANCH   3   4
ATOM      4  C   UNL     1     -40.154  24.591 -11.980  1.00  0.00     0.004 C 
BRANCH   4   5
ATOM      5  C   UNL     1     -41.595  24.061 -11.854  1.00  0.00     0.000 C 
BRANCH   5   6
ATOM      6  C   UNL     1     -42.547  25.076 -11.197  1.00  0.00     0.000 C 
BRANCH   6   7
ATOM      7  C   UNL     1     -43.413  24.509 -10.053  1.00  0.00     0.000 C 
BRANCH   7   8
ATOM      8  C   UNL     1     -44.787  25.183  -9.875  1.00  0.00     0.006 C 
BRANCH   8   9
ATOM      9  C   UNL     1     -45.555  24.658  -8.655  1.00  0.00     0.053 C 
BRANCH   9  10
ATOM     10  C   UNL     1     -45.723  25.743  -7.638  1.00  0.00     0.041 C 
ATOM     11  O   UNL     1     -44.868  25.893  -6.722  1.00  0.00    -0.550 OA
ATOM     12  O   UNL     1     -46.804  26.614  -7.724  1.00  0.00    -0.550 OA
ENDBRANCH   9  10
ENDBRANCH   8   9
ENDBRANCH   7   8
ENDBRANCH   6   7
ENDBRANCH   5   6
ENDBRANCH   4   5
ENDBRANCH   3   4
ENDBRANCH   1   3
BRANCH   2  13
ATOM     13  C   UNL     1     -41.746  24.524 -14.961  1.00  0.00     0.027 C 
BRANCH  13  14
ATOM     14  C   UNL     1     -42.347  24.067 -16.300  1.00  0.00     0.004 C 
BRANCH  14  15
ATOM     15  C   UNL     1     -41.763  22.727 -16.774  1.00  0.00     0.000 C 
BRANCH  15  16
ATOM     16  C   UNL     1     -41.172  22.813 -18.192  1.00  0.00     0.000 C 
BRANCH  16  17
ATOM     17  C   UNL     1     -40.804  21.423 -18.722  1.00  0.00    -0.000 C 
BRANCH  17  18
ATOM     18  C   UNL     1     -39.280  21.231 -18.749  1.00  0.00    -0.000 C 
BRANCH  18  19
ATOM     19  C   UNL     1     -38.517  22.539 -18.486  1.00  0.00    -0.003 C 
ATOM     20  C   UNL     1     -37.646  22.958 -19.671  1.00  0.00     0.004 C 
ENDBRANCH  18  19
ENDBRANCH  17  18
ENDBRANCH  16  17
ENDBRANCH  15  16
ENDBRANCH  14  15
ENDBRANCH  13  14
ENDBRANCH   2  13
TORSDOF 15
ENDMDL
MODEL 4
REMARK VINA RESULT:    20.553      0.984      1.811
REMARK INTER + INTRA:          38.518
REMARK INTER:                  39.227
REMARK INTRA:                  -0.709
REMARK UNBOUND:                -0.057
REMARK SMILES CCCCCCCCC=CCCCCCCCC(=O)[O-]
REMARK SMILES IDX 10 1 9 2 11 3 12 4 13 5 14 6 15 7 16 8 17 9 18 10 19 11
REMARK SMILES IDX 20 12 8 13 7 14 6 15 5 16 4 17 3 18 2 19 1 20
REMARK H PARENT
REMARK Flexibility Score: inf
ROOT
ATOM      1  C   UNL     1     -40.075  21.870 -18.479  1.00  0.00    -0.031 C 
ATOM      2  C   UNL     1     -38.761  21.890 -18.771  1.00  0.00    -0.031 C 
ENDROOT
BRANCH   1   3
ATOM      3  C   UNL     1     -40.946  23.093 -18.310  1.00  0.00     0.027 C 
BRANCH   3   4
ATOM      4  C   UNL     1     -42.052  22.853 -17.272  1.00  0.00     0.004 C 
BRANCH   4   5
ATOM      5  C   UNL     1     -41.932  23.808 -16.071  1.00  0.00     0.000 C 
BRANCH   5   6
ATOM      6  C   UNL     1     -42.810  23.382 -14.881  1.00  0.00     0.000 C 
BRANCH   6   7
ATOM      7  C   UNL     1     -42.649  24.244 -13.612  1.00  0.00     0.000 C 
BRANCH   7   8
ATOM      8  C   UNL     1     -41.669  23.688 -12.562  1.00  0.00     0.006 C 
BRANCH   8   9
ATOM      9  C   UNL     1     -40.535  24.666 -12.228  1.00  0.00     0.053 C 
BRANCH   9  10
ATOM     10  C   UNL     1     -39.311  24.338 -13.026  1.00  0.00     0.041 C 
ATOM     11  O   UNL     1     -38.506  23.455 -12.620  1.00  0.00    -0.550 OA
ATOM     12  O   UNL     1     -39.081  24.979 -14.238  1.00  0.00    -0.550 OA
ENDBRANCH   9  10
ENDBRANCH   8   9
ENDBRANCH   7   8
ENDBRANCH   6   7
ENDBRANCH   5   6
ENDBRANCH   4   5
ENDBRANCH   3   4
ENDBRANCH   1   3
BRANCH   2  13
ATOM     13  C   UNL     1     -37.955  23.135 -19.030  1.00  0.00     0.027 C 
BRANCH  13  14
ATOM     14  C   UNL     1     -38.353  23.787 -20.363  1.00  0.00     0.004 C 
BRANCH  14  15
ATOM     15  C   UNL     1     -37.437  24.965 -20.734  1.00  0.00     0.000 C 
BRANCH  15  16
ATOM     16  C   UNL     1     -38.200  26.104 -21.432  1.00  0.00     0.000 C 
BRANCH  16  17
ATOM     17  C   UNL     1     -37.299  27.329 -21.633  1.00  0.00    -0.000 C 
BRANCH  17  18
ATOM     18  C   UNL     1     -38.087  28.494 -22.250  1.00  0.00    -0.000 C 
BRANCH  18  19
ATOM     19  C   UNL     1     -38.825  29.330 -21.192  1.00  0.00    -0.003 C 
ATOM     20  C   UNL     1     -40.311  29.500 -21.511  1.00  0.00     0.004 C 
ENDBRANCH  18  19
ENDBRANCH  17  18
ENDBRANCH  16  17
ENDBRANCH  15  16
ENDBRANCH  14  15
ENDBRANCH  13  14
ENDBRANCH   2  13
TORSDOF 15
ENDMDL
MODEL 5
REMARK VINA RESULT:    20.669      4.168      8.464
REMARK INTER + INTRA:          38.737
REMARK INTER:                  39.813
REMARK INTRA:                  -1.075
REMARK UNBOUND:                -0.057
REMARK SMILES CCCCCCCCC=CCCCCCCCC(=O)[O-]
REMARK SMILES IDX 10 1 9 2 11 3 12 4 13 5 14 6 15 7 16 8 17 9 18 10 19 11
REMARK SMILES IDX 20 12 8 13 7 14 6 15 5 16 4 17 3 18 2 19 1 20
REMARK H PARENT
REMARK Flexibility Score: inf
ROOT
ATOM      1  C   UNL     1     -38.586  26.501 -22.308  1.00  0.00    -0.031 C 
ATOM      2  C   UNL     1     -38.660  25.294 -21.715  1.00  0.00    -0.031 C 
ENDROOT
BRANCH   1   3
ATOM      3  C   UNL     1     -37.673  27.626 -21.881  1.00  0.00     0.027 C 
BRANCH   3   4
ATOM      4  C   UNL     1     -38.318  28.997 -22.136  1.00  0.00     0.004 C 
BRANCH   4   5
ATOM      5  C   UNL     1     -38.616  29.746 -20.825  1.00  0.00     0.000 C 
BRANCH   5   6
ATOM      6  C   UNL     1     -40.121  29.980 -20.601  1.00  0.00     0.000 C 
BRANCH   6   7
ATOM      7  C   UNL     1     -41.046  29.307 -21.636  1.00  0.00     0.000 C 
BRANCH   7   8
ATOM      8  C   UNL     1     -41.660  30.257 -22.682  1.00  0.00     0.006 C 
BRANCH   8   9
ATOM      9  C   UNL     1     -42.337  31.481 -22.051  1.00  0.00     0.053 C 
BRANCH   9  10
ATOM     10  C   UNL     1     -43.813  31.262 -21.940  1.00  0.00     0.041 C 
ATOM     11  O   UNL     1     -44.471  31.821 -21.021  1.00  0.00    -0.550 OA
ATOM     12  O   UNL     1     -44.469  30.471 -22.878  1.00  0.00    -0.550 OA
ENDBRANCH   9  10
ENDBRANCH   8   9
ENDBRANCH   7   8
ENDBRANCH   6   7
ENDBRANCH   5   6
ENDBRANCH   4   5
ENDBRANCH   3   4
ENDBRANCH   1   3
BRANCH   2  13
ATOM     13  C   UNL     1     -37.802  24.851 -20.559  1.00  0.00     0.027 C 
BRANCH  13  14
ATOM     14  C   UNL     1     -37.846  23.324 -20.389  1.00  0.00     0.004 C 
BRANCH  14  15
ATOM     15  C   UNL     1     -38.212  22.906 -18.956  1.00  0.00     0.000 C 
BRANCH  15  16
ATOM     16  C   UNL     1     -38.717  21.456 -18.879  1.00  0.00     0.000 C 
BRANCH  16  17
ATOM     17  C   UNL     1     -40.214  21.410 -18.546  1.00  0.00    -0.000 C 
BRANCH  17  18
ATOM     18  C   UNL     1     -40.733  22.801 -18.157  1.00  0.00    -0.000 C 
BRANCH  18  19
ATOM     19  C   UNL     1     -42.072  22.741 -17.405  1.00  0.00    -0.003 C 
ATOM     20  C   UNL     1     -42.102  23.660 -16.183  1.00  0.00     0.004 C 
ENDBRANCH  18  19
ENDBRANCH  17  18
ENDBRANCH  16  17
ENDBRANCH  15  16
ENDBRANCH  14  15
ENDBRANCH  13  14
ENDBRANCH   2  13
TORSDOF 15
ENDMDL
MODEL 6
REMARK VINA RESULT:    20.837      3.281      8.298
REMARK INTER + INTRA:          39.052
REMARK INTER:                  39.650
REMARK INTRA:                  -0.598
REMARK UNBOUND:                -0.057
REMARK SMILES CCCCCCCCC=CCCCCCCCC(=O)[O-]
REMARK SMILES IDX 10 1 9 2 11 3 12 4 13 5 14 6 15 7 16 8 17 9 18 10 19 11
REMARK SMILES IDX 20 12 8 13 7 14 6 15 5 16 4 17 3 18 2 19 1 20
REMARK H PARENT
REMARK Flexibility Score: inf
ROOT
ATOM      1  C   UNL     1     -38.639  21.911 -18.969  1.00  0.00    -0.031 C 
ATOM      2  C   UNL     1     -39.924  21.899 -18.569  1.00  0.00    -0.031 C 
ENDROOT
BRANCH   1   3
ATOM      3  C   UNL     1     -37.808  23.154 -19.187  1.00  0.00     0.027 C 
BRANCH   3   4
ATOM      4  C   UNL     1     -38.319  23.963 -20.388  1.00  0.00     0.004 C 
BRANCH   4   5
ATOM      5  C   UNL     1     -37.383  25.136 -20.733  1.00  0.00     0.000 C 
BRANCH   5   6
ATOM      6  C   UNL     1     -38.054  26.191 -21.630  1.00  0.00     0.000 C 
BRANCH   6   7
ATOM      7  C   UNL     1     -37.277  27.516 -21.770  1.00  0.00     0.000 C 
BRANCH   7   8
ATOM      8  C   UNL     1     -38.147  28.787 -21.791  1.00  0.00     0.006 C 
BRANCH   8   9
ATOM      9  C   UNL     1     -39.649  28.481 -21.860  1.00  0.00     0.053 C 
BRANCH   9  10
ATOM     10  C   UNL     1     -40.441  29.633 -21.324  1.00  0.00     0.041 C 
ATOM     11  O   UNL     1     -41.434  30.073 -21.964  1.00  0.00    -0.550 OA
ATOM     12  O   UNL     1     -40.105  30.194 -20.096  1.00  0.00    -0.550 OA
ENDBRANCH   9  10
ENDBRANCH   8   9
ENDBRANCH   7   8
ENDBRANCH   6   7
ENDBRANCH   5   6
ENDBRANCH   4   5
ENDBRANCH   3   4
ENDBRANCH   1   3
BRANCH   2  13
ATOM     13  C   UNL     1     -40.729  23.123 -18.221  1.00  0.00     0.027 C 
BRANCH  13  14
ATOM     14  C   UNL     1     -41.879  22.779 -17.262  1.00  0.00     0.004 C 
BRANCH  14  15
ATOM     15  C   UNL     1     -42.127  23.887 -16.226  1.00  0.00     0.000 C 
BRANCH  15  16
ATOM     16  C   UNL     1     -42.565  23.328 -14.862  1.00  0.00     0.000 C 
BRANCH  16  17
ATOM     17  C   UNL     1     -42.512  24.411 -13.778  1.00  0.00    -0.000 C 
BRANCH  17  18
ATOM     18  C   UNL     1     -42.000  23.835 -12.450  1.00  0.00    -0.000 C 
BRANCH  18  19
ATOM     19  C   UNL     1     -40.697  24.503 -11.982  1.00  0.00    -0.003 C 
ATOM     20  C   UNL     1     -39.537  24.270 -12.950  1.00  0.00     0.004 C 
ENDBRANCH  18  19
ENDBRANCH  17  18
ENDBRANCH  16  17
ENDBRANCH  15  16
ENDBRANCH  14  15
ENDBRANCH  13  14
ENDBRANCH   2  13
TORSDOF 15
ENDMDL
MODEL 7
REMARK VINA RESULT:    21.159      3.531      8.459
REMARK INTER + INTRA:          39.657
REMARK INTER:                  40.284
REMARK INTRA:                  -0.627
REMARK UNBOUND:                -0.057
REMARK SMILES CCCCCCCCC=CCCCCCCCC(=O)[O-]
REMARK SMILES IDX 10 1 9 2 11 3 12 4 13 5 14 6 15 7 16 8 17 9 18 10 19 11
REMARK SMILES IDX 20 12 8 13 7 14 6 15 5 16 4 17 3 18 2 19 1 20
REMARK H PARENT
REMARK Flexibility Score: inf
ROOT
ATOM      1  C   UNL     1     -40.479  22.086 -18.390  1.00  0.00    -0.031 C 
ATOM      2  C   UNL     1     -41.682  22.320 -17.832  1.00  0.00    -0.031 C 
ENDROOT
BRANCH   1   3
ATOM      3  C   UNL     1     -39.300  23.030 -18.342  1.00  0.00     0.027 C 
BRANCH   3   4
ATOM      4  C   UNL     1     -38.073  22.427 -19.041  1.00  0.00     0.004 C 
BRANCH   4   5
ATOM      5  C   UNL     1     -37.735  23.164 -20.350  1.00  0.00     0.000 C 
BRANCH   5   6
ATOM      6  C   UNL     1     -38.311  24.590 -20.397  1.00  0.00     0.000 C 
BRANCH   6   7
ATOM      7  C   UNL     1     -37.563  25.564 -21.330  1.00  0.00     0.000 C 
BRANCH   7   8
ATOM      8  C   UNL     1     -38.451  26.602 -22.043  1.00  0.00     0.006 C 
BRANCH   8   9
ATOM      9  C   UNL     1     -37.792  27.984 -22.140  1.00  0.00     0.053 C 
BRANCH   9  10
ATOM     10  C   UNL     1     -38.684  29.030 -21.547  1.00  0.00     0.041 C 
ATOM     11  O   UNL     1     -38.195  29.956 -20.844  1.00  0.00    -0.550 OA
ATOM     12  O   UNL     1     -40.050  29.004 -21.804  1.00  0.00    -0.550 OA
ENDBRANCH   9  10
ENDBRANCH   8   9
ENDBRANCH   7   8
ENDBRANCH   6   7
ENDBRANCH   5   6
ENDBRANCH   4   5
ENDBRANCH   3   4
ENDBRANCH   1   3
BRANCH   2  13
ATOM     13  C   UNL     1     -42.031  23.540 -17.020  1.00  0.00     0.027 C 
BRANCH  13  14
ATOM     14  C   UNL     1     -42.615  23.149 -15.653  1.00  0.00     0.004 C 
BRANCH  14  15
ATOM     15  C   UNL     1     -42.253  24.160 -14.553  1.00  0.00     0.000 C 
BRANCH  15  16
ATOM     16  C   UNL     1     -42.365  23.557 -13.143  1.00  0.00     0.000 C 
BRANCH  16  17
ATOM     17  C   UNL     1     -41.885  24.551 -12.078  1.00  0.00    -0.000 C 
BRANCH  17  18
ATOM     18  C   UNL     1     -40.400  24.333 -11.752  1.00  0.00    -0.000 C 
BRANCH  18  19
ATOM     19  C   UNL     1     -39.480  24.700 -12.927  1.00  0.00    -0.003 C 
ATOM     20  C   UNL     1     -38.349  23.689 -13.124  1.00  0.00     0.004 C 
ENDBRANCH  18  19
ENDBRANCH  17  18
ENDBRANCH  16  17
ENDBRANCH  15  16
ENDBRANCH  14  15
ENDBRANCH  13  14
ENDBRANCH   2  13
TORSDOF 15
ENDMDL
MODEL 8
REMARK VINA RESULT:    21.252      1.868      4.280
REMARK INTER + INTRA:          39.831
REMARK INTER:                  40.673
REMARK INTRA:                  -0.842
REMARK UNBOUND:                -0.057
REMARK SMILES CCCCCCCCC=CCCCCCCCC(=O)[O-]
REMARK SMILES IDX 10 1 9 2 11 3 12 4 13 5 14 6 15 7 16 8 17 9 18 10 19 11
REMARK SMILES IDX 20 12 8 13 7 14 6 15 5 16 4 17 3 18 2 19 1 20
REMARK H PARENT
REMARK Flexibility Score: inf
ROOT
ATOM      1  C   UNL     1     -37.079  25.778 -20.868  1.00  0.00    -0.031 C 
ATOM      2  C   UNL     1     -37.147  27.055 -21.292  1.00  0.00    -0.031 C 
ENDROOT
BRANCH   1   3
ATOM      3  C   UNL     1     -38.193  24.764 -20.982  1.00  0.00     0.027 C 
BRANCH   3   4
ATOM      4  C   UNL     1     -37.773  23.406 -20.400  1.00  0.00     0.004 C 
BRANCH   4   5
ATOM      5  C   UNL     1     -38.139  23.280 -18.910  1.00  0.00     0.000 C 
BRANCH   5   6
ATOM      6  C   UNL     1     -38.838  21.950 -18.578  1.00  0.00     0.000 C 
BRANCH   6   7
ATOM      7  C   UNL     1     -40.379  22.002 -18.592  1.00  0.00     0.000 C 
BRANCH   7   8
ATOM      8  C   UNL     1     -41.000  23.229 -17.897  1.00  0.00     0.006 C 
BRANCH   8   9
ATOM      9  C   UNL     1     -42.179  22.865 -16.985  1.00  0.00     0.053 C 
BRANCH   9  10
ATOM     10  C   UNL     1     -42.189  23.740 -15.770  1.00  0.00     0.041 C 
ATOM     11  O   UNL     1     -43.012  23.525 -14.839  1.00  0.00    -0.550 OA
ATOM     12  O   UNL     1     -41.260  24.768 -15.648  1.00  0.00    -0.550 OA
ENDBRANCH   9  10
ENDBRANCH   8   9
ENDBRANCH   7   8
ENDBRANCH   6   7
ENDBRANCH   5   6
ENDBRANCH   4   5
ENDBRANCH   3   4
ENDBRANCH   1   3
BRANCH   2  13
ATOM     13  C   UNL     1     -38.328  27.664 -22.000  1.00  0.00     0.027 C 
BRANCH  13  14
ATOM     14  C   UNL     1     -38.421  29.174 -21.728  1.00  0.00     0.004 C 
BRANCH  14  15
ATOM     15  C   UNL     1     -39.715  29.556 -20.993  1.00  0.00     0.000 C 
BRANCH  15  16
ATOM     16  C   UNL     1     -40.973  29.267 -21.829  1.00  0.00     0.000 C 
BRANCH  16  17
ATOM     17  C   UNL     1     -41.368  30.485 -22.672  1.00  0.00    -0.000 C 
BRANCH  17  18
ATOM     18  C   UNL     1     -42.865  30.454 -23.015  1.00  0.00    -0.000 C 
BRANCH  18  19
ATOM     19  C   UNL     1     -43.652  31.575 -22.318  1.00  0.00    -0.003 C 
ATOM     20  C   UNL     1     -43.911  31.280 -20.840  1.00  0.00     0.004 C 
ENDBRANCH  18  19
ENDBRANCH  17  18
ENDBRANCH  16  17
ENDBRANCH  15  16
ENDBRANCH  14  15
ENDBRANCH  13  14
ENDBRANCH   2  13
TORSDOF 15
ENDMDL
MODEL 9
REMARK VINA RESULT:    21.297      3.958      8.482
REMARK INTER + INTRA:          39.915
REMARK INTER:                  40.693
REMARK INTRA:                  -0.778
REMARK UNBOUND:                -0.057
REMARK SMILES CCCCCCCCC=CCCCCCCCC(=O)[O-]
REMARK SMILES IDX 10 1 9 2 11 3 12 4 13 5 14 6 15 7 16 8 17 9 18 10 19 11
REMARK SMILES IDX 20 12 8 13 7 14 6 15 5 16 4 17 3 18 2 19 1 20
REMARK H PARENT
REMARK Flexibility Score: inf
ROOT
ATOM      1  C   UNL     1     -37.742  23.479 -20.108  1.00  0.00    -0.031 C 
ATOM      2  C   UNL     1     -38.157  22.800 -19.021  1.00  0.00    -0.031 C 
ENDROOT
BRANCH   1   3
ATOM      3  C   UNL     1     -38.481  24.631 -20.747  1.00  0.00     0.027 C 
BRANCH   3   4
ATOM      4  C   UNL     1     -37.519  25.762 -21.141  1.00  0.00     0.004 C 
BRANCH   4   5
ATOM      5  C   UNL     1     -38.228  26.869 -21.941  1.00  0.00     0.000 C 
BRANCH   5   6
ATOM      6  C   UNL     1     -37.635  28.265 -21.681  1.00  0.00     0.000 C 
BRANCH   6   7
ATOM      7  C   UNL     1     -38.674  29.395 -21.523  1.00  0.00     0.000 C 
BRANCH   7   8
ATOM      8  C   UNL     1     -40.129  28.996 -21.832  1.00  0.00     0.006 C 
BRANCH   8   9
ATOM      9  C   UNL     1     -41.156  29.930 -21.179  1.00  0.00     0.053 C 
BRANCH   9  10
ATOM     10  C   UNL     1     -42.063  30.514 -22.216  1.00  0.00     0.041 C 
ATOM     11  O   UNL     1     -43.106  31.134 -21.871  1.00  0.00    -0.550 OA
ATOM     12  O   UNL     1     -41.736  30.409 -23.564  1.00  0.00    -0.550 OA
ENDBRANCH   9  10
ENDBRANCH   8   9
ENDBRANCH   7   8
ENDBRANCH   6   7
ENDBRANCH   5   6
ENDBRANCH   4   5
ENDBRANCH   3   4
ENDBRANCH   1   3
BRANCH   2  13
ATOM     13  C   UNL     1     -39.400  23.116 -18.232  1.00  0.00     0.027 C 
BRANCH  13  14
ATOM     14  C   UNL     1     -40.513  22.095 -18.516  1.00  0.00     0.004 C 
BRANCH  14  15
ATOM     15  C   UNL     1     -41.827  22.449 -17.801  1.00  0.00     0.000 C 
BRANCH  15  16
ATOM     16  C   UNL     1     -41.636  23.531 -16.725  1.00  0.00     0.000 C 
BRANCH  16  17
ATOM     17  C   UNL     1     -42.708  23.421 -15.634  1.00  0.00    -0.000 C 
BRANCH  17  18
ATOM     18  C   UNL     1     -42.459  24.441 -14.514  1.00  0.00    -0.000 C 
BRANCH  18  19
ATOM     19  C   UNL     1     -42.244  23.773 -13.146  1.00  0.00    -0.003 C 
ATOM     20  C   UNL     1     -40.889  24.122 -12.529  1.00  0.00     0.004 C 
ENDBRANCH  18  19
ENDBRANCH  17  18
ENDBRANCH  16  17
ENDBRANCH  15  16
ENDBRANCH  14  15
ENDBRANCH  13  14
ENDBRANCH   2  13
TORSDOF 15
ENDMDL
