MODEL 1
REMARK VINA RESULT:    -4.077      0.000      0.000
REMARK INTER + INTRA:          -9.569
REMARK INTER:                  -7.414
REMARK INTRA:                  -2.155
REMARK UNBOUND:                -2.155
REMARK SMILES CCCCCCCCCCCCCCCC(=O)[O-]
REMARK SMILES IDX 9 1 10 2 11 3 12 4 13 5 14 6 15 7 16 8 17 9 18 10 8 11 7 12
REMARK SMILES IDX 6 13 5 14 4 15 3 16 2 17 1 18
REMARK H PARENT
REMARK Flexibility Score: inf
ROOT
ATOM      1  C   UNL     1     -22.605 -14.170 -17.163  1.00  0.00     0.000 C 
ENDROOT
BRANCH   1   2
ATOM      2  C   UNL     1     -22.594 -12.645 -16.979  1.00  0.00     0.000 C 
BRANCH   2   3
ATOM      3  C   UNL     1     -23.341 -12.244 -15.698  1.00  0.00     0.000 C 
BRANCH   3   4
ATOM      4  C   UNL     1     -23.256 -13.320 -14.604  1.00  0.00     0.000 C 
BRANCH   4   5
ATOM      5  C   UNL     1     -24.641 -13.736 -14.077  1.00  0.00     0.000 C 
BRANCH   5   6
ATOM      6  C   UNL     1     -25.009 -15.179 -14.458  1.00  0.00     0.006 C 
BRANCH   6   7
ATOM      7  C   UNL     1     -23.807 -16.131 -14.394  1.00  0.00     0.053 C 
BRANCH   7   8
ATOM      8  C   UNL     1     -23.998 -17.274 -15.339  1.00  0.00     0.041 C 
ATOM      9  O   UNL     1     -24.385 -17.065 -16.519  1.00  0.00    -0.550 OA
ATOM     10  O   UNL     1     -23.699 -18.569 -14.934  1.00  0.00    -0.550 OA
ENDBRANCH   7   8
ENDBRANCH   6   7
ENDBRANCH   5   6
ENDBRANCH   4   5
ENDBRANCH   3   4
ENDBRANCH   2   3
ENDBRANCH   1   2
BRANCH   1  11
ATOM     11  C   UNL     1     -21.192 -14.767 -17.289  1.00  0.00     0.000 C 
BRANCH  11  12
ATOM     12  C   UNL     1     -20.043 -13.737 -17.305  1.00  0.00    -0.000 C 
BRANCH  12  13
ATOM     13  C   UNL     1     -18.904 -14.035 -18.296  1.00  0.00    -0.000 C 
BRANCH  13  14
ATOM     14  C   UNL     1     -19.121 -13.384 -19.670  1.00  0.00    -0.000 C 
BRANCH  14  15
ATOM     15  C   UNL     1     -19.962 -12.098 -19.595  1.00  0.00    -0.000 C 
BRANCH  15  16
ATOM     16  C   UNL     1     -21.268 -12.162 -20.415  1.00  0.00    -0.000 C 
BRANCH  16  17
ATOM     17  C   UNL     1     -21.495 -13.548 -21.034  1.00  0.00    -0.003 C 
ATOM     18  C   UNL     1     -22.890 -14.076 -20.707  1.00  0.00     0.004 C 
ENDBRANCH  16  17
ENDBRANCH  15  16
ENDBRANCH  14  15
ENDBRANCH  13  14
ENDBRANCH  12  13
ENDBRANCH  11  12
ENDBRANCH   1  11
TORSDOF 14
ENDMDL
MODEL 2
REMARK VINA RESULT:    -3.972      1.825      3.369
REMARK INTER + INTRA:          -9.379
REMARK INTER:                  -7.409
REMARK INTRA:                  -1.970
REMARK UNBOUND:                -2.155
REMARK SMILES CCCCCCCCCCCCCCCC(=O)[O-]
REMARK SMILES IDX 9 1 10 2 11 3 12 4 13 5 14 6 15 7 16 8 17 9 18 10 8 11 7 12
REMARK SMILES IDX 6 13 5 14 4 15 3 16 2 17 1 18
REMARK H PARENT
REMARK Flexibility Score: inf
ROOT
ATOM      1  C   UNL     1     -22.941 -12.472 -19.060  1.00  0.00     0.000 C 
ENDROOT
BRANCH   1   2
ATOM      2  C   UNL     1     -22.201 -11.991 -17.802  1.00  0.00     0.000 C 
BRANCH   2   3
ATOM      3  C   UNL     1     -23.032 -12.267 -16.540  1.00  0.00     0.000 C 
BRANCH   3   4
ATOM      4  C   UNL     1     -22.438 -13.390 -15.676  1.00  0.00     0.000 C 
BRANCH   4   5
ATOM      5  C   UNL     1     -23.431 -14.542 -15.440  1.00  0.00     0.000 C 
BRANCH   5   6
ATOM      6  C   UNL     1     -24.031 -14.525 -14.025  1.00  0.00     0.006 C 
BRANCH   6   7
ATOM      7  C   UNL     1     -25.563 -14.438 -14.035  1.00  0.00     0.053 C 
BRANCH   7   8
ATOM      8  C   UNL     1     -26.162 -15.762 -13.679  1.00  0.00     0.041 C 
ATOM      9  O   UNL     1     -27.411 -15.916 -13.689  1.00  0.00    -0.550 OA
ATOM     10  O   UNL     1     -25.338 -16.842 -13.385  1.00  0.00    -0.550 OA
ENDBRANCH   7   8
ENDBRANCH   6   7
ENDBRANCH   5   6
ENDBRANCH   4   5
ENDBRANCH   3   4
ENDBRANCH   2   3
ENDBRANCH   1   2
BRANCH   1  11
ATOM     11  C   UNL     1     -21.988 -12.989 -20.152  1.00  0.00     0.000 C 
BRANCH  11  12
ATOM     12  C   UNL     1     -21.682 -14.500 -20.094  1.00  0.00    -0.000 C 
BRANCH  12  13
ATOM     13  C   UNL     1     -22.536 -15.308 -19.100  1.00  0.00    -0.000 C 
BRANCH  13  14
ATOM     14  C   UNL     1     -21.717 -16.337 -18.307  1.00  0.00    -0.000 C 
BRANCH  14  15
ATOM     15  C   UNL     1     -20.598 -15.692 -17.470  1.00  0.00    -0.000 C 
BRANCH  15  16
ATOM     16  C   UNL     1     -19.179 -16.135 -17.885  1.00  0.00    -0.000 C 
BRANCH  16  17
ATOM     17  C   UNL     1     -18.262 -14.939 -18.177  1.00  0.00    -0.003 C 
ATOM     18  C   UNL     1     -18.893 -13.632 -17.703  1.00  0.00     0.004 C 
ENDBRANCH  16  17
ENDBRANCH  15  16
ENDBRANCH  14  15
ENDBRANCH  13  14
ENDBRANCH  12  13
ENDBRANCH  11  12
ENDBRANCH   1  11
TORSDOF 14
ENDMDL
MODEL 3
REMARK VINA RESULT:    -3.932      2.776      5.676
REMARK INTER + INTRA:          -9.305
REMARK INTER:                  -7.022
REMARK INTRA:                  -2.284
REMARK UNBOUND:                -2.155
REMARK SMILES CCCCCCCCCCCCCCCC(=O)[O-]
REMARK SMILES IDX 9 1 10 2 11 3 12 4 13 5 14 6 15 7 16 8 17 9 18 10 8 11 7 12
REMARK SMILES IDX 6 13 5 14 4 15 3 16 2 17 1 18
REMARK H PARENT
REMARK Flexibility Score: inf
ROOT
ATOM      1  C   UNL     1     -22.439 -14.043 -20.794  1.00  0.00     0.000 C 
ENDROOT
BRANCH   1   2
ATOM      2  C   UNL     1     -22.691 -13.087 -19.619  1.00  0.00     0.000 C 
BRANCH   2   3
ATOM      3  C   UNL     1     -21.749 -11.875 -19.687  1.00  0.00     0.000 C 
BRANCH   3   4
ATOM      4  C   UNL     1     -20.323 -12.210 -19.223  1.00  0.00     0.000 C 
BRANCH   4   5
ATOM      5  C   UNL     1     -20.300 -13.236 -18.077  1.00  0.00     0.000 C 
BRANCH   5   6
ATOM      6  C   UNL     1     -18.874 -13.582 -17.621  1.00  0.00     0.006 C 
BRANCH   6   7
ATOM      7  C   UNL     1     -18.501 -15.042 -17.909  1.00  0.00     0.053 C 
BRANCH   7   8
ATOM      8  C   UNL     1     -18.238 -15.235 -19.368  1.00  0.00     0.041 C 
ATOM      9  O   UNL     1     -17.262 -14.660 -19.919  1.00  0.00    -0.550 OA
ATOM     10  O   UNL     1     -19.041 -16.091 -20.112  1.00  0.00    -0.550 OA
ENDBRANCH   7   8
ENDBRANCH   6   7
ENDBRANCH   5   6
ENDBRANCH   4   5
ENDBRANCH   3   4
ENDBRANCH   2   3
ENDBRANCH   1   2
BRANCH   1  11
ATOM     11  C   UNL     1     -22.556 -15.525 -20.395  1.00  0.00     0.000 C 
BRANCH  11  12
ATOM     12  C   UNL     1     -23.040 -15.779 -18.953  1.00  0.00    -0.000 C 
BRANCH  12  13
ATOM     13  C   UNL     1     -22.037 -16.507 -18.039  1.00  0.00    -0.000 C 
BRANCH  13  14
ATOM     14  C   UNL     1     -22.101 -16.031 -16.581  1.00  0.00    -0.000 C 
BRANCH  14  15
ATOM     15  C   UNL     1     -23.132 -14.909 -16.365  1.00  0.00    -0.000 C 
BRANCH  15  16
ATOM     16  C   UNL     1     -23.295 -14.493 -14.887  1.00  0.00    -0.000 C 
BRANCH  16  17
ATOM     17  C   UNL     1     -23.358 -12.968 -14.719  1.00  0.00    -0.003 C 
ATOM     18  C   UNL     1     -23.167 -12.257 -16.057  1.00  0.00     0.004 C 
ENDBRANCH  16  17
ENDBRANCH  15  16
ENDBRANCH  14  15
ENDBRANCH  13  14
ENDBRANCH  12  13
ENDBRANCH  11  12
ENDBRANCH   1  11
TORSDOF 14
ENDMDL
MODEL 4
REMARK VINA RESULT:    -3.927      2.983      6.069
REMARK INTER + INTRA:          -9.297
REMARK INTER:                  -7.070
REMARK INTRA:                  -2.227
REMARK UNBOUND:                -2.155
REMARK SMILES CCCCCCCCCCCCCCCC(=O)[O-]
REMARK SMILES IDX 9 1 10 2 11 3 12 4 13 5 14 6 15 7 16 8 17 9 18 10 8 11 7 12
REMARK SMILES IDX 6 13 5 14 4 15 3 16 2 17 1 18
REMARK H PARENT
REMARK Flexibility Score: inf
ROOT
ATOM      1  C   UNL     1     -19.306 -13.374 -17.849  1.00  0.00     0.000 C 
ENDROOT
BRANCH   1   2
ATOM      2  C   UNL     1     -19.021 -14.864 -18.095  1.00  0.00     0.000 C 
BRANCH   2   3
ATOM      3  C   UNL     1     -20.012 -15.746 -17.322  1.00  0.00     0.000 C 
BRANCH   3   4
ATOM      4  C   UNL     1     -21.177 -16.232 -18.198  1.00  0.00     0.000 C 
BRANCH   4   5
ATOM      5  C   UNL     1     -20.812 -16.282 -19.692  1.00  0.00     0.000 C 
BRANCH   5   6
ATOM      6  C   UNL     1     -21.871 -15.613 -20.583  1.00  0.00     0.006 C 
BRANCH   6   7
ATOM      7  C   UNL     1     -21.253 -14.837 -21.752  1.00  0.00     0.053 C 
BRANCH   7   8
ATOM      8  C   UNL     1     -21.560 -15.515 -23.049  1.00  0.00     0.041 C 
ATOM      9  O   UNL     1     -22.660 -16.106 -23.211  1.00  0.00    -0.550 OA
ATOM     10  O   UNL     1     -20.652 -15.453 -24.099  1.00  0.00    -0.550 OA
ENDBRANCH   7   8
ENDBRANCH   6   7
ENDBRANCH   5   6
ENDBRANCH   4   5
ENDBRANCH   3   4
ENDBRANCH   2   3
ENDBRANCH   1   2
BRANCH   1  11
ATOM     11  C   UNL     1     -19.841 -12.654 -19.099  1.00  0.00     0.000 C 
BRANCH  11  12
ATOM     12  C   UNL     1     -21.184 -11.919 -18.909  1.00  0.00    -0.000 C 
BRANCH  12  13
ATOM     13  C   UNL     1     -22.343 -12.787 -18.387  1.00  0.00    -0.000 C 
BRANCH  13  14
ATOM     14  C   UNL     1     -22.810 -12.380 -16.982  1.00  0.00    -0.000 C 
BRANCH  14  15
ATOM     15  C   UNL     1     -22.499 -13.446 -15.918  1.00  0.00    -0.000 C 
BRANCH  15  16
ATOM     16  C   UNL     1     -23.401 -13.357 -14.668  1.00  0.00    -0.000 C 
BRANCH  16  17
ATOM     17  C   UNL     1     -24.025 -14.713 -14.308  1.00  0.00    -0.003 C 
ATOM     18  C   UNL     1     -23.736 -15.757 -15.384  1.00  0.00     0.004 C 
ENDBRANCH  16  17
ENDBRANCH  15  16
ENDBRANCH  14  15
ENDBRANCH  13  14
ENDBRANCH  12  13
ENDBRANCH  11  12
ENDBRANCH   1  11
TORSDOF 14
ENDMDL
MODEL 5
REMARK VINA RESULT:    -3.914      1.882      5.813
REMARK INTER + INTRA:          -9.272
REMARK INTER:                  -7.451
REMARK INTRA:                  -1.822
REMARK UNBOUND:                -2.155
REMARK SMILES CCCCCCCCCCCCCCCC(=O)[O-]
REMARK SMILES IDX 9 1 10 2 11 3 12 4 13 5 14 6 15 7 16 8 17 9 18 10 8 11 7 12
REMARK SMILES IDX 6 13 5 14 4 15 3 16 2 17 1 18
REMARK H PARENT
REMARK Flexibility Score: inf
ROOT
ATOM      1  C   UNL     1     -22.673 -13.181 -17.314  1.00  0.00     0.000 C 
ENDROOT
BRANCH   1   2
ATOM      2  C   UNL     1     -21.181 -13.536 -17.220  1.00  0.00     0.000 C 
BRANCH   2   3
ATOM      3  C   UNL     1     -20.409 -12.976 -18.424  1.00  0.00     0.000 C 
BRANCH   3   4
ATOM      4  C   UNL     1     -21.228 -11.954 -19.227  1.00  0.00     0.000 C 
BRANCH   4   5
ATOM      5  C   UNL     1     -21.276 -12.284 -20.729  1.00  0.00     0.000 C 
BRANCH   5   6
ATOM      6  C   UNL     1     -21.370 -13.794 -21.000  1.00  0.00     0.006 C 
BRANCH   6   7
ATOM      7  C   UNL     1     -22.770 -14.357 -20.726  1.00  0.00     0.053 C 
BRANCH   7   8
ATOM      8  C   UNL     1     -22.678 -15.760 -20.218  1.00  0.00     0.041 C 
ATOM      9  O   UNL     1     -23.586 -16.592 -20.484  1.00  0.00    -0.550 OA
ATOM     10  O   UNL     1     -21.564 -16.167 -19.495  1.00  0.00    -0.550 OA
ENDBRANCH   7   8
ENDBRANCH   6   7
ENDBRANCH   5   6
ENDBRANCH   4   5
ENDBRANCH   3   4
ENDBRANCH   2   3
ENDBRANCH   1   2
BRANCH   1  11
ATOM     11  C   UNL     1     -23.134 -12.238 -16.188  1.00  0.00     0.000 C 
BRANCH  11  12
ATOM     12  C   UNL     1     -23.152 -12.861 -14.776  1.00  0.00    -0.000 C 
BRANCH  12  13
ATOM     13  C   UNL     1     -24.546 -13.008 -14.139  1.00  0.00    -0.000 C 
BRANCH  13  14
ATOM     14  C   UNL     1     -24.997 -14.471 -14.017  1.00  0.00    -0.000 C 
BRANCH  14  15
ATOM     15  C   UNL     1     -23.871 -15.470 -14.333  1.00  0.00    -0.000 C 
BRANCH  15  16
ATOM     16  C   UNL     1     -24.216 -16.454 -15.471  1.00  0.00    -0.000 C 
BRANCH  16  17
ATOM     17  C   UNL     1     -23.008 -16.741 -16.374  1.00  0.00    -0.003 C 
ATOM     18  C   UNL     1     -22.172 -17.896 -15.827  1.00  0.00     0.004 C 
ENDBRANCH  16  17
ENDBRANCH  15  16
ENDBRANCH  14  15
ENDBRANCH  13  14
ENDBRANCH  12  13
ENDBRANCH  11  12
ENDBRANCH   1  11
TORSDOF 14
ENDMDL
MODEL 6
REMARK VINA RESULT:    -3.912      1.863      3.485
REMARK INTER + INTRA:          -9.268
REMARK INTER:                  -7.211
REMARK INTRA:                  -2.058
REMARK UNBOUND:                -2.155
REMARK SMILES CCCCCCCCCCCCCCCC(=O)[O-]
REMARK SMILES IDX 9 1 10 2 11 3 12 4 13 5 14 6 15 7 16 8 17 9 18 10 8 11 7 12
REMARK SMILES IDX 6 13 5 14 4 15 3 16 2 17 1 18
REMARK H PARENT
REMARK Flexibility Score: inf
ROOT
ATOM      1  C   UNL     1     -22.842 -16.202 -19.062  1.00  0.00     0.000 C 
ENDROOT
BRANCH   1   2
ATOM      2  C   UNL     1     -21.670 -16.710 -18.210  1.00  0.00     0.000 C 
BRANCH   2   3
ATOM      3  C   UNL     1     -21.819 -16.260 -16.749  1.00  0.00     0.000 C 
BRANCH   3   4
ATOM      4  C   UNL     1     -23.030 -15.337 -16.537  1.00  0.00     0.000 C 
BRANCH   4   5
ATOM      5  C   UNL     1     -22.679 -14.081 -15.719  1.00  0.00     0.000 C 
BRANCH   5   6
ATOM      6  C   UNL     1     -23.400 -14.040 -14.362  1.00  0.00     0.006 C 
BRANCH   6   7
ATOM      7  C   UNL     1     -24.202 -15.317 -14.081  1.00  0.00     0.053 C 
BRANCH   7   8
ATOM      8  C   UNL     1     -25.655 -14.997 -13.925  1.00  0.00     0.041 C 
ATOM      9  O   UNL     1     -26.053 -13.804 -13.996  1.00  0.00    -0.550 OA
ATOM     10  O   UNL     1     -26.578 -16.020 -13.751  1.00  0.00    -0.550 OA
ENDBRANCH   7   8
ENDBRANCH   6   7
ENDBRANCH   5   6
ENDBRANCH   4   5
ENDBRANCH   3   4
ENDBRANCH   2   3
ENDBRANCH   1   2
BRANCH   1  11
ATOM     11  C   UNL     1     -22.384 -15.542 -20.375  1.00  0.00     0.000 C 
BRANCH  11  12
ATOM     12  C   UNL     1     -22.931 -14.121 -20.621  1.00  0.00    -0.000 C 
BRANCH  12  13
ATOM     13  C   UNL     1     -22.596 -13.088 -19.530  1.00  0.00    -0.000 C 
BRANCH  13  14
ATOM     14  C   UNL     1     -21.563 -12.048 -19.987  1.00  0.00    -0.000 C 
BRANCH  14  15
ATOM     15  C   UNL     1     -20.189 -12.239 -19.322  1.00  0.00    -0.000 C 
BRANCH  15  16
ATOM     16  C   UNL     1     -20.214 -13.197 -18.112  1.00  0.00    -0.000 C 
BRANCH  16  17
ATOM     17  C   UNL     1     -18.804 -13.640 -17.695  1.00  0.00    -0.003 C 
ATOM     18  C   UNL     1     -18.405 -14.937 -18.393  1.00  0.00     0.004 C 
ENDBRANCH  16  17
ENDBRANCH  15  16
ENDBRANCH  14  15
ENDBRANCH  13  14
ENDBRANCH  12  13
ENDBRANCH  11  12
ENDBRANCH   1  11
TORSDOF 14
ENDMDL
MODEL 7
REMARK VINA RESULT:    -3.883      2.095      3.295
REMARK INTER + INTRA:          -9.216
REMARK INTER:                  -7.978
REMARK INTRA:                  -1.238
REMARK UNBOUND:                -2.155
REMARK SMILES CCCCCCCCCCCCCCCC(=O)[O-]
REMARK SMILES IDX 9 1 10 2 11 3 12 4 13 5 14 6 15 7 16 8 17 9 18 10 8 11 7 12
REMARK SMILES IDX 6 13 5 14 4 15 3 16 2 17 1 18
REMARK H PARENT
REMARK Flexibility Score: inf
ROOT
ATOM      1  C   UNL     1     -22.855 -13.315 -17.477  1.00  0.00     0.000 C 
ENDROOT
BRANCH   1   2
ATOM      2  C   UNL     1     -22.685 -13.435 -15.955  1.00  0.00     0.000 C 
BRANCH   2   3
ATOM      3  C   UNL     1     -23.347 -12.251 -15.235  1.00  0.00     0.000 C 
BRANCH   3   4
ATOM      4  C   UNL     1     -24.413 -12.697 -14.222  1.00  0.00     0.000 C 
BRANCH   4   5
ATOM      5  C   UNL     1     -24.412 -14.219 -13.995  1.00  0.00     0.000 C 
BRANCH   5   6
ATOM      6  C   UNL     1     -25.830 -14.808 -13.930  1.00  0.00     0.006 C 
BRANCH   6   7
ATOM      7  C   UNL     1     -25.828 -16.338 -13.817  1.00  0.00     0.053 C 
BRANCH   7   8
ATOM      8  C   UNL     1     -26.406 -16.764 -12.505  1.00  0.00     0.041 C 
ATOM      9  O   UNL     1     -25.649 -17.134 -11.569  1.00  0.00    -0.550 OA
ATOM     10  O   UNL     1     -27.778 -16.705 -12.297  1.00  0.00    -0.550 OA
ENDBRANCH   7   8
ENDBRANCH   6   7
ENDBRANCH   5   6
ENDBRANCH   4   5
ENDBRANCH   3   4
ENDBRANCH   2   3
ENDBRANCH   1   2
BRANCH   1  11
ATOM     11  C   UNL     1     -22.421 -11.942 -18.020  1.00  0.00     0.000 C 
BRANCH  11  12
ATOM     12  C   UNL     1     -21.650 -11.978 -19.355  1.00  0.00    -0.000 C 
BRANCH  12  13
ATOM     13  C   UNL     1     -20.687 -13.167 -19.528  1.00  0.00    -0.000 C 
BRANCH  13  14
ATOM     14  C   UNL     1     -19.288 -12.891 -18.958  1.00  0.00    -0.000 C 
BRANCH  14  15
ATOM     15  C   UNL     1     -19.001 -13.686 -17.672  1.00  0.00    -0.000 C 
BRANCH  15  16
ATOM     16  C   UNL     1     -19.662 -15.081 -17.645  1.00  0.00    -0.000 C 
BRANCH  16  17
ATOM     17  C   UNL     1     -18.625 -16.213 -17.619  1.00  0.00    -0.003 C 
ATOM     18  C   UNL     1     -17.386 -15.844 -18.431  1.00  0.00     0.004 C 
ENDBRANCH  16  17
ENDBRANCH  15  16
ENDBRANCH  14  15
ENDBRANCH  13  14
ENDBRANCH  12  13
ENDBRANCH  11  12
ENDBRANCH   1  11
TORSDOF 14
ENDMDL
MODEL 8
REMARK VINA RESULT:    -3.881      1.345      2.771
REMARK INTER + INTRA:          -9.214
REMARK INTER:                  -7.109
REMARK INTRA:                  -2.104
REMARK UNBOUND:                -2.155
REMARK SMILES CCCCCCCCCCCCCCCC(=O)[O-]
REMARK SMILES IDX 9 1 10 2 11 3 12 4 13 5 14 6 15 7 16 8 17 9 18 10 8 11 7 12
REMARK SMILES IDX 6 13 5 14 4 15 3 16 2 17 1 18
REMARK H PARENT
REMARK Flexibility Score: inf
ROOT
ATOM      1  C   UNL     1     -22.950 -13.803 -19.079  1.00  0.00     0.000 C 
ENDROOT
BRANCH   1   2
ATOM      2  C   UNL     1     -22.575 -12.397 -18.587  1.00  0.00     0.000 C 
BRANCH   2   3
ATOM      3  C   UNL     1     -22.966 -12.210 -17.113  1.00  0.00     0.000 C 
BRANCH   3   4
ATOM      4  C   UNL     1     -22.463 -13.355 -16.220  1.00  0.00     0.000 C 
BRANCH   4   5
ATOM      5  C   UNL     1     -22.978 -13.245 -14.774  1.00  0.00     0.000 C 
BRANCH   5   6
ATOM      6  C   UNL     1     -23.763 -14.489 -14.330  1.00  0.00     0.006 C 
BRANCH   6   7
ATOM      7  C   UNL     1     -23.450 -15.722 -15.188  1.00  0.00     0.053 C 
BRANCH   7   8
ATOM      8  C   UNL     1     -24.125 -16.933 -14.627  1.00  0.00     0.041 C 
ATOM      9  O   UNL     1     -25.377 -16.958 -14.496  1.00  0.00    -0.550 OA
ATOM     10  O   UNL     1     -23.376 -18.055 -14.295  1.00  0.00    -0.550 OA
ENDBRANCH   7   8
ENDBRANCH   6   7
ENDBRANCH   5   6
ENDBRANCH   4   5
ENDBRANCH   3   4
ENDBRANCH   2   3
ENDBRANCH   1   2
BRANCH   1  11
ATOM     11  C   UNL     1     -22.140 -14.241 -20.312  1.00  0.00     0.000 C 
BRANCH  11  12
ATOM     12  C   UNL     1     -20.929 -13.347 -20.653  1.00  0.00    -0.000 C 
BRANCH  12  13
ATOM     13  C   UNL     1     -19.562 -13.889 -20.197  1.00  0.00    -0.000 C 
BRANCH  13  14
ATOM     14  C   UNL     1     -19.028 -13.185 -18.941  1.00  0.00    -0.000 C 
BRANCH  14  15
ATOM     15  C   UNL     1     -19.243 -14.008 -17.659  1.00  0.00    -0.000 C 
BRANCH  15  16
ATOM     16  C   UNL     1     -19.209 -15.534 -17.889  1.00  0.00    -0.000 C 
BRANCH  16  17
ATOM     17  C   UNL     1     -20.512 -16.215 -17.448  1.00  0.00    -0.003 C 
ATOM     18  C   UNL     1     -20.228 -17.449 -16.595  1.00  0.00     0.004 C 
ENDBRANCH  16  17
ENDBRANCH  15  16
ENDBRANCH  14  15
ENDBRANCH  13  14
ENDBRANCH  12  13
ENDBRANCH  11  12
ENDBRANCH   1  11
TORSDOF 14
ENDMDL
MODEL 9
REMARK VINA RESULT:    -3.862      2.939      6.126
REMARK INTER + INTRA:          -9.179
REMARK INTER:                  -7.302
REMARK INTRA:                  -1.877
REMARK UNBOUND:                -2.155
REMARK SMILES CCCCCCCCCCCCCCCC(=O)[O-]
REMARK SMILES IDX 9 1 10 2 11 3 12 4 13 5 14 6 15 7 16 8 17 9 18 10 8 11 7 12
REMARK SMILES IDX 6 13 5 14 4 15 3 16 2 17 1 18
REMARK H PARENT
REMARK Flexibility Score: inf
ROOT
ATOM      1  C   UNL     1     -19.120 -13.391 -18.917  1.00  0.00     0.000 C 
ENDROOT
BRANCH   1   2
ATOM      2  C   UNL     1     -19.871 -12.288 -19.678  1.00  0.00     0.000 C 
BRANCH   2   3
ATOM      3  C   UNL     1     -21.349 -12.245 -19.261  1.00  0.00     0.000 C 
BRANCH   3   4
ATOM      4  C   UNL     1     -22.293 -12.708 -20.383  1.00  0.00     0.000 C 
BRANCH   4   5
ATOM      5  C   UNL     1     -22.993 -14.038 -20.054  1.00  0.00     0.000 C 
BRANCH   5   6
ATOM      6  C   UNL     1     -22.268 -15.253 -20.654  1.00  0.00     0.006 C 
BRANCH   6   7
ATOM      7  C   UNL     1     -21.429 -14.889 -21.886  1.00  0.00     0.053 C 
BRANCH   7   8
ATOM      8  C   UNL     1     -21.776 -15.782 -23.034  1.00  0.00     0.041 C 
ATOM      9  O   UNL     1     -22.972 -15.895 -23.411  1.00  0.00    -0.550 OA
ATOM     10  O   UNL     1     -20.772 -16.451 -23.723  1.00  0.00    -0.550 OA
ENDBRANCH   7   8
ENDBRANCH   6   7
ENDBRANCH   5   6
ENDBRANCH   4   5
ENDBRANCH   3   4
ENDBRANCH   2   3
ENDBRANCH   1   2
BRANCH   1  11
ATOM     11  C   UNL     1     -19.786 -13.752 -17.577  1.00  0.00     0.000 C 
BRANCH  11  12
ATOM     12  C   UNL     1     -20.055 -15.256 -17.362  1.00  0.00    -0.000 C 
BRANCH  12  13
ATOM     13  C   UNL     1     -21.509 -15.622 -17.013  1.00  0.00    -0.000 C 
BRANCH  13  14
ATOM     14  C   UNL     1     -22.316 -14.427 -16.486  1.00  0.00    -0.000 C 
BRANCH  14  15
ATOM     15  C   UNL     1     -23.388 -14.837 -15.461  1.00  0.00    -0.000 C 
BRANCH  15  16
ATOM     16  C   UNL     1     -23.681 -13.752 -14.402  1.00  0.00    -0.000 C 
BRANCH  16  17
ATOM     17  C   UNL     1     -25.146 -13.776 -13.940  1.00  0.00    -0.003 C 
ATOM     18  C   UNL     1     -25.679 -15.205 -13.870  1.00  0.00     0.004 C 
ENDBRANCH  16  17
ENDBRANCH  15  16
ENDBRANCH  14  15
ENDBRANCH  13  14
ENDBRANCH  12  13
ENDBRANCH  11  12
ENDBRANCH   1  11
TORSDOF 14
ENDMDL
