MODEL 1
REMARK VINA RESULT:    -6.152      0.000      0.000
REMARK INTER + INTRA:          -7.559
REMARK INTER:                  -7.231
REMARK INTRA:                  -0.328
REMARK UNBOUND:                -0.328
REMARK SMILES C=C(C)[C@H]1CC[C@@]2(CO)CC[C@]3(C)[C@H](CC[C@H]4[C@@]5(C)CC[C@@H](O)C(C)(C)[C@H]5CC[C@]43C)[C@@H]12
REMARK SMILES IDX 4 1 5 2 6 3 7 4 32 5 14 6 15 7 16 8 17 9 18 10 20 11 21 12
REMARK SMILES IDX 22 13 24 14 27 15 28 16 29 17 30 18 12 19 11 20 10 21 13 22
REMARK SMILES IDX 31 23 25 24 26 25 19 26 2 27 3 28 1 29 8 30 9 31 23 33
REMARK H PARENT 9 32 23 34
REMARK Flexibility Score: inf
ROOT
ATOM      1  C   UNL     1      69.009  57.466  26.041  1.00  0.00     0.018 C 
ATOM      2  C   UNL     1      68.773  58.939  26.353  1.00  0.00     0.009 C 
ATOM      3  C   UNL     1      67.281  59.125  26.054  1.00  0.00     0.010 C 
ATOM      4  C   UNL     1      66.729  57.775  25.427  1.00  0.00    -0.003 C 
ATOM      5  C   UNL     1      68.013  57.083  24.923  1.00  0.00     0.008 C 
ATOM      6  C   UNL     1      68.281  57.360  23.362  1.00  0.00    -0.000 C 
ATOM      7  C   UNL     1      69.830  57.356  23.143  1.00  0.00     0.005 C 
ATOM      8  C   UNL     1      70.296  57.889  21.836  1.00  0.00     0.005 C 
ATOM      9  C   UNL     1      69.705  57.122  20.645  1.00  0.00     0.002 C 
ATOM     10  C   UNL     1      70.606  56.144  19.616  1.00  0.00    -0.026 C 
ATOM     11  C   UNL     1      71.770  55.410  20.371  1.00  0.00     0.010 C 
ATOM     12  C   UNL     1      72.426  54.219  19.610  1.00  0.00     0.033 C 
ATOM     13  C   UNL     1      72.173  54.189  18.119  1.00  0.00     0.120 C 
ATOM     14  C   UNL     1      70.619  53.944  17.872  1.00  0.00    -0.006 C 
ATOM     15  C   UNL     1      69.734  54.956  18.896  1.00  0.00     0.003 C 
ATOM     16  C   UNL     1      68.936  54.164  19.955  1.00  0.00     0.005 C 
ATOM     17  C   UNL     1      68.611  54.928  21.210  1.00  0.00     0.008 C 
ATOM     18  C   UNL     1      68.217  56.546  20.940  1.00  0.00    -0.024 C 
ATOM     19  C   UNL     1      67.185  56.740  22.260  1.00  0.00    -0.024 C 
ATOM     20  C   UNL     1      65.841  56.829  23.260  1.00  0.00     0.008 C 
ATOM     21  C   UNL     1      65.781  58.049  24.223  1.00  0.00     0.010 C 
ATOM     22  C   UNL     1      66.097  55.798  21.469  1.00  0.00     0.012 C 
ATOM     23  C   UNL     1      67.457  57.317  19.684  1.00  0.00     0.012 C 
ATOM     24  C   UNL     1      70.266  52.426  18.094  1.00  0.00     0.014 C 
ATOM     25  C   UNL     1      70.251  54.201  16.396  1.00  0.00     0.014 C 
ATOM     26  C   UNL     1      71.172  57.041  18.418  1.00  0.00     0.012 C 
ENDROOT
BRANCH   1  27
ATOM     27  C   UNL     1      70.447  56.915  26.003  1.00  0.00    -0.077 C 
ATOM     28  C   UNL     1      70.660  55.387  25.963  1.00  0.00     0.039 C 
ATOM     29  C   UNL     1      71.501  57.693  26.177  1.00  0.00     0.008 C 
ENDBRANCH   1  27
BRANCH   4  30
ATOM     30  C   UNL     1      66.024  56.840  26.482  1.00  0.00     0.163 C 
BRANCH  30  31
ATOM     31  O   UNL     1      66.306  57.180  27.835  1.00  0.00    -0.396 OA
ATOM     32  H   UNL     1      66.964  57.901  27.750  1.00  0.00     0.210 HD
ENDBRANCH  30  31
ENDBRANCH   4  30
BRANCH  13  33
ATOM     33  O   UNL     1      73.143  53.373  17.465  1.00  0.00    -0.393 OA
ATOM     34  H   UNL     1      73.996  53.678  17.869  1.00  0.00     0.210 HD
ENDBRANCH  13  33
TORSDOF 4
ENDMDL
MODEL 2
REMARK VINA RESULT:    -6.084      2.720      4.970
REMARK INTER + INTRA:          -7.479
REMARK INTER:                  -7.053
REMARK INTRA:                  -0.425
REMARK UNBOUND:                -0.328
REMARK SMILES C=C(C)[C@H]1CC[C@@]2(CO)CC[C@]3(C)[C@H](CC[C@H]4[C@@]5(C)CC[C@@H](O)C(C)(C)[C@H]5CC[C@]43C)[C@@H]12
REMARK SMILES IDX 4 1 5 2 6 3 7 4 32 5 14 6 15 7 16 8 17 9 18 10 20 11 21 12
REMARK SMILES IDX 22 13 24 14 27 15 28 16 29 17 30 18 12 19 11 20 10 21 13 22
REMARK SMILES IDX 31 23 25 24 26 25 19 26 2 27 3 28 1 29 8 30 9 31 23 33
REMARK H PARENT 9 32 23 34
REMARK Flexibility Score: inf
ROOT
ATOM      1  C   UNL     1      69.419  52.716  22.750  1.00  0.00     0.018 C 
ATOM      2  C   UNL     1      70.372  52.246  23.844  1.00  0.00     0.009 C 
ATOM      3  C   UNL     1      70.515  53.482  24.739  1.00  0.00     0.010 C 
ATOM      4  C   UNL     1      69.752  54.688  24.045  1.00  0.00    -0.003 C 
ATOM      5  C   UNL     1      69.662  54.233  22.573  1.00  0.00     0.008 C 
ATOM      6  C   UNL     1      70.847  54.843  21.673  1.00  0.00    -0.000 C 
ATOM      7  C   UNL     1      71.164  53.805  20.546  1.00  0.00     0.005 C 
ATOM      8  C   UNL     1      72.425  54.039  19.794  1.00  0.00     0.005 C 
ATOM      9  C   UNL     1      72.455  55.414  19.113  1.00  0.00     0.002 C 
ATOM     10  C   UNL     1      72.406  55.640  17.448  1.00  0.00    -0.026 C 
ATOM     11  C   UNL     1      71.516  54.563  16.734  1.00  0.00     0.010 C 
ATOM     12  C   UNL     1      71.107  54.887  15.266  1.00  0.00     0.033 C 
ATOM     13  C   UNL     1      71.942  55.947  14.583  1.00  0.00     0.120 C 
ATOM     14  C   UNL     1      71.705  57.336  15.322  1.00  0.00    -0.006 C 
ATOM     15  C   UNL     1      71.787  57.090  16.993  1.00  0.00     0.003 C 
ATOM     16  C   UNL     1      70.428  57.331  17.688  1.00  0.00     0.005 C 
ATOM     17  C   UNL     1      70.245  56.609  18.995  1.00  0.00     0.008 C 
ATOM     18  C   UNL     1      71.640  56.547  19.941  1.00  0.00    -0.024 C 
ATOM     19  C   UNL     1      70.879  56.500  21.445  1.00  0.00    -0.024 C 
ATOM     20  C   UNL     1      70.187  56.907  22.920  1.00  0.00     0.008 C 
ATOM     21  C   UNL     1      70.571  56.009  24.129  1.00  0.00     0.010 C 
ATOM     22  C   UNL     1      70.471  58.076  21.218  1.00  0.00     0.012 C 
ATOM     23  C   UNL     1      72.908  57.597  20.134  1.00  0.00     0.012 C 
ATOM     24  C   UNL     1      70.326  57.957  14.886  1.00  0.00     0.014 C 
ATOM     25  C   UNL     1      72.745  58.382  14.872  1.00  0.00     0.014 C 
ATOM     26  C   UNL     1      73.901  55.620  16.881  1.00  0.00     0.012 C 
ENDROOT
BRANCH   1  27
ATOM     27  C   UNL     1      69.182  51.832  21.512  1.00  0.00    -0.077 C 
ATOM     28  C   UNL     1      68.201  52.318  20.424  1.00  0.00     0.039 C 
ATOM     29  C   UNL     1      69.653  50.599  21.430  1.00  0.00     0.008 C 
ENDBRANCH   1  27
BRANCH   4  30
ATOM     30  C   UNL     1      68.294  54.908  24.602  1.00  0.00     0.163 C 
BRANCH  30  31
ATOM     31  O   UNL     1      68.053  54.276  25.855  1.00  0.00    -0.396 OA
ATOM     32  H   UNL     1      68.486  53.403  25.749  1.00  0.00     0.210 HD
ENDBRANCH  30  31
ENDBRANCH   4  30
BRANCH  13  33
ATOM     33  O   UNL     1      71.805  55.853  13.166  1.00  0.00    -0.393 OA
ATOM     34  H   UNL     1      71.042  56.459  12.977  1.00  0.00     0.210 HD
ENDBRANCH  13  33
TORSDOF 4
ENDMDL
MODEL 3
REMARK VINA RESULT:    -5.884      1.472      7.995
REMARK INTER + INTRA:          -7.244
REMARK INTER:                  -6.832
REMARK INTRA:                  -0.411
REMARK UNBOUND:                -0.328
REMARK SMILES C=C(C)[C@H]1CC[C@@]2(CO)CC[C@]3(C)[C@H](CC[C@H]4[C@@]5(C)CC[C@@H](O)C(C)(C)[C@H]5CC[C@]43C)[C@@H]12
REMARK SMILES IDX 4 1 5 2 6 3 7 4 32 5 14 6 15 7 16 8 17 9 18 10 20 11 21 12
REMARK SMILES IDX 22 13 24 14 27 15 28 16 29 17 30 18 12 19 11 20 10 21 13 22
REMARK SMILES IDX 31 23 25 24 26 25 19 26 2 27 3 28 1 29 8 30 9 31 23 33
REMARK H PARENT 9 32 23 34
REMARK Flexibility Score: inf
ROOT
ATOM      1  C   UNL     1      69.203  52.402  18.710  1.00  0.00     0.018 C 
ATOM      2  C   UNL     1      68.569  52.669  17.349  1.00  0.00     0.009 C 
ATOM      3  C   UNL     1      69.562  53.627  16.683  1.00  0.00     0.010 C 
ATOM      4  C   UNL     1      70.675  54.009  17.748  1.00  0.00    -0.003 C 
ATOM      5  C   UNL     1      69.990  53.677  19.091  1.00  0.00     0.008 C 
ATOM      6  C   UNL     1      69.312  54.970  19.764  1.00  0.00    -0.000 C 
ATOM      7  C   UNL     1      68.065  54.481  20.573  1.00  0.00     0.005 C 
ATOM      8  C   UNL     1      67.131  55.547  21.021  1.00  0.00     0.005 C 
ATOM      9  C   UNL     1      67.817  56.595  21.907  1.00  0.00     0.002 C 
ATOM     10  C   UNL     1      67.498  56.795  23.546  1.00  0.00    -0.026 C 
ATOM     11  C   UNL     1      67.177  55.431  24.252  1.00  0.00     0.010 C 
ATOM     12  C   UNL     1      67.228  55.447  25.810  1.00  0.00     0.033 C 
ATOM     13  C   UNL     1      67.154  56.818  26.444  1.00  0.00     0.120 C 
ATOM     14  C   UNL     1      68.462  57.633  26.047  1.00  0.00    -0.006 C 
ATOM     15  C   UNL     1      68.747  57.442  24.392  1.00  0.00     0.003 C 
ATOM     16  C   UNL     1      70.046  56.656  24.109  1.00  0.00     0.005 C 
ATOM     17  C   UNL     1      70.087  55.951  22.780  1.00  0.00     0.008 C 
ATOM     18  C   UNL     1      69.378  56.824  21.523  1.00  0.00    -0.024 C 
ATOM     19  C   UNL     1      70.322  56.205  20.270  1.00  0.00    -0.024 C 
ATOM     20  C   UNL     1      71.510  55.965  19.109  1.00  0.00     0.008 C 
ATOM     21  C   UNL     1      71.017  55.527  17.702  1.00  0.00     0.010 C 
ATOM     22  C   UNL     1      71.578  57.079  20.868  1.00  0.00     0.012 C 
ATOM     23  C   UNL     1      69.265  58.449  21.214  1.00  0.00     0.012 C 
ATOM     24  C   UNL     1      69.686  57.155  26.914  1.00  0.00     0.014 C 
ATOM     25  C   UNL     1      68.308  59.125  26.406  1.00  0.00     0.014 C 
ATOM     26  C   UNL     1      66.290  57.830  23.713  1.00  0.00     0.012 C 
ENDROOT
BRANCH   1  27
ATOM     27  C   UNL     1      68.404  51.648  19.790  1.00  0.00    -0.077 C 
ATOM     28  C   UNL     1      69.152  51.094  21.021  1.00  0.00     0.039 C 
ATOM     29  C   UNL     1      67.138  51.310  19.617  1.00  0.00     0.008 C 
ENDBRANCH   1  27
BRANCH   4  30
ATOM     30  C   UNL     1      71.987  53.144  17.616  1.00  0.00     0.163 C 
BRANCH  30  31
ATOM     31  O   UNL     1      73.073  53.832  17.005  1.00  0.00    -0.396 OA
ATOM     32  H   UNL     1      73.718  53.923  17.737  1.00  0.00     0.210 HD
ENDBRANCH  30  31
ENDBRANCH   4  30
BRANCH  13  33
ATOM     33  O   UNL     1      66.757  56.715  27.810  1.00  0.00    -0.393 OA
ATOM     34  H   UNL     1      66.701  55.734  27.951  1.00  0.00     0.210 HD
ENDBRANCH  13  33
TORSDOF 4
ENDMDL
MODEL 4
REMARK VINA RESULT:    -5.757      3.931      7.478
REMARK INTER + INTRA:          -7.094
REMARK INTER:                  -6.605
REMARK INTRA:                  -0.490
REMARK UNBOUND:                -0.328
REMARK SMILES C=C(C)[C@H]1CC[C@@]2(CO)CC[C@]3(C)[C@H](CC[C@H]4[C@@]5(C)CC[C@@H](O)C(C)(C)[C@H]5CC[C@]43C)[C@@H]12
REMARK SMILES IDX 4 1 5 2 6 3 7 4 32 5 14 6 15 7 16 8 17 9 18 10 20 11 21 12
REMARK SMILES IDX 22 13 24 14 27 15 28 16 29 17 30 18 12 19 11 20 10 21 13 22
REMARK SMILES IDX 31 23 25 24 26 25 19 26 2 27 3 28 1 29 8 30 9 31 23 33
REMARK H PARENT 9 32 23 34
REMARK Flexibility Score: inf
ROOT
ATOM      1  C   UNL     1      69.137  54.365  18.342  1.00  0.00     0.018 C 
ATOM      2  C   UNL     1      69.407  53.258  17.329  1.00  0.00     0.009 C 
ATOM      3  C   UNL     1      68.828  52.012  18.010  1.00  0.00     0.010 C 
ATOM      4  C   UNL     1      68.371  52.414  19.476  1.00  0.00    -0.003 C 
ATOM      5  C   UNL     1      69.173  53.706  19.740  1.00  0.00     0.008 C 
ATOM      6  C   UNL     1      70.532  53.423  20.552  1.00  0.00    -0.000 C 
ATOM      7  C   UNL     1      71.582  54.492  20.100  1.00  0.00     0.005 C 
ATOM      8  C   UNL     1      72.987  54.223  20.505  1.00  0.00     0.005 C 
ATOM      9  C   UNL     1      73.146  54.101  22.026  1.00  0.00     0.002 C 
ATOM     10  C   UNL     1      73.971  55.215  22.978  1.00  0.00    -0.026 C 
ATOM     11  C   UNL     1      73.810  56.680  22.440  1.00  0.00     0.010 C 
ATOM     12  C   UNL     1      74.215  57.814  23.431  1.00  0.00     0.033 C 
ATOM     13  C   UNL     1      75.092  57.379  24.584  1.00  0.00     0.120 C 
ATOM     14  C   UNL     1      74.258  56.391  25.512  1.00  0.00    -0.006 C 
ATOM     15  C   UNL     1      73.461  55.263  24.537  1.00  0.00     0.003 C 
ATOM     16  C   UNL     1      71.926  55.424  24.591  1.00  0.00     0.005 C 
ATOM     17  C   UNL     1      71.189  54.906  23.386  1.00  0.00     0.008 C 
ATOM     18  C   UNL     1      71.833  53.482  22.752  1.00  0.00    -0.024 C 
ATOM     19  C   UNL     1      70.399  52.857  22.122  1.00  0.00    -0.024 C 
ATOM     20  C   UNL     1      68.961  52.021  21.900  1.00  0.00     0.008 C 
ATOM     21  C   UNL     1      68.774  51.332  20.519  1.00  0.00     0.010 C 
ATOM     22  C   UNL     1      69.918  52.571  23.667  1.00  0.00     0.012 C 
ATOM     23  C   UNL     1      72.592  52.187  23.457  1.00  0.00     0.012 C 
ATOM     24  C   UNL     1      73.254  57.205  26.411  1.00  0.00     0.014 C 
ATOM     25  C   UNL     1      75.179  55.683  26.526  1.00  0.00     0.014 C 
ATOM     26  C   UNL     1      75.512  54.792  23.048  1.00  0.00     0.012 C 
ENDROOT
BRANCH   1  27
ATOM     27  C   UNL     1      69.764  55.756  18.138  1.00  0.00    -0.077 C 
ATOM     28  C   UNL     1      69.281  56.929  19.017  1.00  0.00     0.039 C 
ATOM     29  C   UNL     1      70.573  56.019  17.125  1.00  0.00     0.008 C 
ENDBRANCH   1  27
BRANCH   4  30
ATOM     30  C   UNL     1      66.832  52.737  19.583  1.00  0.00     0.163 C 
BRANCH  30  31
ATOM     31  O   UNL     1      66.083  52.373  18.428  1.00  0.00    -0.396 OA
ATOM     32  H   UNL     1      65.775  53.237  18.082  1.00  0.00     0.210 HD
ENDBRANCH  30  31
ENDBRANCH   4  30
BRANCH  13  33
ATOM     33  O   UNL     1      75.764  58.503  25.150  1.00  0.00    -0.393 OA
ATOM     34  H   UNL     1      76.499  58.668  24.505  1.00  0.00     0.210 HD
ENDBRANCH  13  33
TORSDOF 4
ENDMDL
MODEL 5
REMARK VINA RESULT:    -5.537      2.062      4.016
REMARK INTER + INTRA:          -6.836
REMARK INTER:                  -6.381
REMARK INTRA:                  -0.455
REMARK UNBOUND:                -0.328
REMARK SMILES C=C(C)[C@H]1CC[C@@]2(CO)CC[C@]3(C)[C@H](CC[C@H]4[C@@]5(C)CC[C@@H](O)C(C)(C)[C@H]5CC[C@]43C)[C@@H]12
REMARK SMILES IDX 4 1 5 2 6 3 7 4 32 5 14 6 15 7 16 8 17 9 18 10 20 11 21 12
REMARK SMILES IDX 22 13 24 14 27 15 28 16 29 17 30 18 12 19 11 20 10 21 13 22
REMARK SMILES IDX 31 23 25 24 26 25 19 26 2 27 3 28 1 29 8 30 9 31 23 33
REMARK H PARENT 9 32 23 34
REMARK Flexibility Score: inf
ROOT
ATOM      1  C   UNL     1      68.115  56.915  25.371  1.00  0.00     0.018 C 
ATOM      2  C   UNL     1      67.146  55.992  26.100  1.00  0.00     0.009 C 
ATOM      3  C   UNL     1      68.071  54.960  26.755  1.00  0.00     0.010 C 
ATOM      4  C   UNL     1      69.553  55.234  26.255  1.00  0.00    -0.003 C 
ATOM      5  C   UNL     1      69.331  56.051  24.964  1.00  0.00     0.008 C 
ATOM      6  C   UNL     1      69.365  55.130  23.647  1.00  0.00    -0.000 C 
ATOM      7  C   UNL     1      68.408  55.781  22.594  1.00  0.00     0.005 C 
ATOM      8  C   UNL     1      68.065  54.928  21.425  1.00  0.00     0.005 C 
ATOM      9  C   UNL     1      69.305  54.482  20.640  1.00  0.00     0.002 C 
ATOM     10  C   UNL     1      69.674  55.005  19.085  1.00  0.00    -0.026 C 
ATOM     11  C   UNL     1      69.234  56.493  18.847  1.00  0.00     0.010 C 
ATOM     12  C   UNL     1      69.845  57.187  17.592  1.00  0.00     0.033 C 
ATOM     13  C   UNL     1      70.419  56.250  16.553  1.00  0.00     0.120 C 
ATOM     14  C   UNL     1      71.677  55.504  17.182  1.00  0.00    -0.006 C 
ATOM     15  C   UNL     1      71.275  54.961  18.731  1.00  0.00     0.003 C 
ATOM     16  C   UNL     1      72.084  55.682  19.832  1.00  0.00     0.005 C 
ATOM     17  C   UNL     1      71.430  55.712  21.187  1.00  0.00     0.008 C 
ATOM     18  C   UNL     1      70.613  54.290  21.581  1.00  0.00    -0.024 C 
ATOM     19  C   UNL     1      70.810  54.384  23.253  1.00  0.00    -0.024 C 
ATOM     20  C   UNL     1      71.369  54.214  24.827  1.00  0.00     0.008 C 
ATOM     21  C   UNL     1      70.295  53.910  25.908  1.00  0.00     0.010 C 
ATOM     22  C   UNL     1      72.398  54.028  23.024  1.00  0.00     0.012 C 
ATOM     23  C   UNL     1      70.892  52.699  21.205  1.00  0.00     0.012 C 
ATOM     24  C   UNL     1      72.926  56.461  17.199  1.00  0.00     0.014 C 
ATOM     25  C   UNL     1      72.120  54.327  16.288  1.00  0.00     0.014 C 
ATOM     26  C   UNL     1      68.978  54.022  18.032  1.00  0.00     0.012 C 
ENDROOT
BRANCH   1  27
ATOM     27  C   UNL     1      67.572  57.974  24.394  1.00  0.00    -0.077 C 
ATOM     28  C   UNL     1      68.526  59.072  23.877  1.00  0.00     0.039 C 
ATOM     29  C   UNL     1      66.283  58.080  24.119  1.00  0.00     0.008 C 
ENDBRANCH   1  27
BRANCH   4  30
ATOM     30  C   UNL     1      70.404  56.094  27.265  1.00  0.00     0.163 C 
BRANCH  30  31
ATOM     31  O   UNL     1      70.581  55.482  28.538  1.00  0.00    -0.396 OA
ATOM     32  H   UNL     1      70.239  56.159  29.159  1.00  0.00     0.210 HD
ENDBRANCH  30  31
ENDBRANCH   4  30
BRANCH  13  33
ATOM     33  O   UNL     1      70.530  56.910  15.293  1.00  0.00    -0.393 OA
ATOM     34  H   UNL     1      71.227  56.379  14.826  1.00  0.00     0.210 HD
ENDBRANCH  13  33
TORSDOF 4
ENDMDL
MODEL 6
REMARK VINA RESULT:    -5.536      2.629      8.121
REMARK INTER + INTRA:          -6.835
REMARK INTER:                  -6.388
REMARK INTRA:                  -0.447
REMARK UNBOUND:                -0.328
REMARK SMILES C=C(C)[C@H]1CC[C@@]2(CO)CC[C@]3(C)[C@H](CC[C@H]4[C@@]5(C)CC[C@@H](O)C(C)(C)[C@H]5CC[C@]43C)[C@@H]12
REMARK SMILES IDX 4 1 5 2 6 3 7 4 32 5 14 6 15 7 16 8 17 9 18 10 20 11 21 12
REMARK SMILES IDX 22 13 24 14 27 15 28 16 29 17 30 18 12 19 11 20 10 21 13 22
REMARK SMILES IDX 31 23 25 24 26 25 19 26 2 27 3 28 1 29 8 30 9 31 23 33
REMARK H PARENT 9 32 23 34
REMARK Flexibility Score: inf
ROOT
ATOM      1  C   UNL     1      75.573  54.244  20.011  1.00  0.00     0.018 C 
ATOM      2  C   UNL     1      75.494  53.361  18.771  1.00  0.00     0.009 C 
ATOM      3  C   UNL     1      74.942  54.309  17.701  1.00  0.00     0.010 C 
ATOM      4  C   UNL     1      74.573  55.686  18.399  1.00  0.00    -0.003 C 
ATOM      5  C   UNL     1      74.441  55.289  19.885  1.00  0.00     0.008 C 
ATOM      6  C   UNL     1      72.915  54.999  20.304  1.00  0.00    -0.000 C 
ATOM      7  C   UNL     1      72.935  53.914  21.431  1.00  0.00     0.005 C 
ATOM      8  C   UNL     1      71.623  53.289  21.744  1.00  0.00     0.005 C 
ATOM      9  C   UNL     1      70.571  54.319  22.176  1.00  0.00     0.002 C 
ATOM     10  C   UNL     1      69.942  54.426  23.732  1.00  0.00    -0.026 C 
ATOM     11  C   UNL     1      71.012  54.068  24.823  1.00  0.00     0.010 C 
ATOM     12  C   UNL     1      70.655  54.483  26.283  1.00  0.00     0.033 C 
ATOM     13  C   UNL     1      69.192  54.774  26.531  1.00  0.00     0.120 C 
ATOM     14  C   UNL     1      68.782  56.065  25.695  1.00  0.00    -0.006 C 
ATOM     15  C   UNL     1      69.399  55.923  24.128  1.00  0.00     0.003 C 
ATOM     16  C   UNL     1      70.484  56.981  23.827  1.00  0.00     0.005 C 
ATOM     17  C   UNL     1      71.463  56.600  22.750  1.00  0.00     0.008 C 
ATOM     18  C   UNL     1      70.768  55.763  21.461  1.00  0.00    -0.024 C 
ATOM     19  C   UNL     1      71.839  56.280  20.265  1.00  0.00    -0.024 C 
ATOM     20  C   UNL     1      72.580  57.112  19.010  1.00  0.00     0.008 C 
ATOM     21  C   UNL     1      73.212  56.241  17.888  1.00  0.00     0.010 C 
ATOM     22  C   UNL     1      71.137  57.762  20.365  1.00  0.00     0.012 C 
ATOM     23  C   UNL     1      69.269  55.838  20.758  1.00  0.00     0.012 C 
ATOM     24  C   UNL     1      69.298  57.367  26.415  1.00  0.00     0.014 C 
ATOM     25  C   UNL     1      67.250  56.236  25.666  1.00  0.00     0.014 C 
ATOM     26  C   UNL     1      68.666  53.469  23.839  1.00  0.00     0.012 C 
ENDROOT
BRANCH   1  27
ATOM     27  C   UNL     1      75.878  53.611  21.381  1.00  0.00    -0.077 C 
ATOM     28  C   UNL     1      76.103  54.535  22.598  1.00  0.00     0.039 C 
ATOM     29  C   UNL     1      76.123  52.319  21.518  1.00  0.00     0.008 C 
ENDBRANCH   1  27
BRANCH   4  30
ATOM     30  C   UNL     1      75.701  56.778  18.261  1.00  0.00     0.163 C 
BRANCH  30  31
ATOM     31  O   UNL     1      75.791  57.355  16.962  1.00  0.00    -0.396 OA
ATOM     32  H   UNL     1      76.463  56.797  16.519  1.00  0.00     0.210 HD
ENDBRANCH  30  31
ENDBRANCH   4  30
BRANCH  13  33
ATOM     33  O   UNL     1      68.897  54.696  27.925  1.00  0.00    -0.393 OA
ATOM     34  H   UNL     1      69.566  55.310  28.326  1.00  0.00     0.210 HD
ENDBRANCH  13  33
TORSDOF 4
ENDMDL
MODEL 7
REMARK VINA RESULT:    -5.506      2.540      4.886
REMARK INTER + INTRA:          -6.800
REMARK INTER:                  -6.336
REMARK INTRA:                  -0.464
REMARK UNBOUND:                -0.328
REMARK SMILES C=C(C)[C@H]1CC[C@@]2(CO)CC[C@]3(C)[C@H](CC[C@H]4[C@@]5(C)CC[C@@H](O)C(C)(C)[C@H]5CC[C@]43C)[C@@H]12
REMARK SMILES IDX 4 1 5 2 6 3 7 4 32 5 14 6 15 7 16 8 17 9 18 10 20 11 21 12
REMARK SMILES IDX 22 13 24 14 27 15 28 16 29 17 30 18 12 19 11 20 10 21 13 22
REMARK SMILES IDX 31 23 25 24 26 25 19 26 2 27 3 28 1 29 8 30 9 31 23 33
REMARK H PARENT 9 32 23 34
REMARK Flexibility Score: inf
ROOT
ATOM      1  C   UNL     1      68.253  53.824  21.929  1.00  0.00     0.018 C 
ATOM      2  C   UNL     1      69.041  53.496  23.192  1.00  0.00     0.009 C 
ATOM      3  C   UNL     1      69.008  54.812  23.977  1.00  0.00     0.010 C 
ATOM      4  C   UNL     1      68.322  55.916  23.065  1.00  0.00    -0.003 C 
ATOM      5  C   UNL     1      68.472  55.327  21.647  1.00  0.00     0.008 C 
ATOM      6  C   UNL     1      69.761  55.907  20.880  1.00  0.00    -0.000 C 
ATOM      7  C   UNL     1      70.279  54.788  19.917  1.00  0.00     0.005 C 
ATOM      8  C   UNL     1      71.631  55.011  19.342  1.00  0.00     0.005 C 
ATOM      9  C   UNL     1      71.723  56.319  18.546  1.00  0.00     0.002 C 
ATOM     10  C   UNL     1      71.921  56.394  16.878  1.00  0.00    -0.026 C 
ATOM     11  C   UNL     1      71.184  55.218  16.145  1.00  0.00     0.010 C 
ATOM     12  C   UNL     1      70.994  55.391  14.608  1.00  0.00     0.033 C 
ATOM     13  C   UNL     1      71.891  56.422  13.959  1.00  0.00     0.120 C 
ATOM     14  C   UNL     1      71.500  57.860  14.520  1.00  0.00    -0.006 C 
ATOM     15  C   UNL     1      71.334  57.768  16.199  1.00  0.00     0.003 C 
ATOM     16  C   UNL     1      69.879  58.009  16.658  1.00  0.00     0.005 C 
ATOM     17  C   UNL     1      69.521  57.399  17.986  1.00  0.00     0.008 C 
ATOM     18  C   UNL     1      70.756  57.484  19.131  1.00  0.00    -0.024 C 
ATOM     19  C   UNL     1      69.776  57.538  20.503  1.00  0.00    -0.024 C 
ATOM     20  C   UNL     1      68.855  58.043  21.812  1.00  0.00     0.008 C 
ATOM     21  C   UNL     1      69.078  57.275  23.145  1.00  0.00     0.010 C 
ATOM     22  C   UNL     1      69.359  59.067  20.069  1.00  0.00     0.012 C 
ATOM     23  C   UNL     1      71.947  58.603  19.410  1.00  0.00     0.012 C 
ATOM     24  C   UNL     1      70.185  58.377  13.826  1.00  0.00     0.014 C 
ATOM     25  C   UNL     1      72.564  58.907  14.132  1.00  0.00     0.014 C 
ATOM     26  C   UNL     1      73.486  56.391  16.545  1.00  0.00     0.012 C 
ENDROOT
BRANCH   1  27
ATOM     27  C   UNL     1      68.234  52.823  20.760  1.00  0.00    -0.077 C 
ATOM     28  C   UNL     1      67.203  53.016  19.627  1.00  0.00     0.039 C 
ATOM     29  C   UNL     1      68.950  51.711  20.776  1.00  0.00     0.008 C 
ENDBRANCH   1  27
BRANCH   4  30
ATOM     30  C   UNL     1      66.790  56.119  23.376  1.00  0.00     0.163 C 
BRANCH  30  31
ATOM     31  O   UNL     1      66.528  57.091  24.383  1.00  0.00    -0.396 OA
ATOM     32  H   UNL     1      66.629  57.939  23.903  1.00  0.00     0.210 HD
ENDBRANCH  30  31
ENDBRANCH   4  30
BRANCH  13  33
ATOM     33  O   UNL     1      71.975  56.197  12.553  1.00  0.00    -0.393 OA
ATOM     34  H   UNL     1      71.942  55.207  12.486  1.00  0.00     0.210 HD
ENDBRANCH  13  33
TORSDOF 4
ENDMDL
MODEL 8
REMARK VINA RESULT:    -5.447      1.512      7.814
REMARK INTER + INTRA:          -6.730
REMARK INTER:                  -6.243
REMARK INTRA:                  -0.488
REMARK UNBOUND:                -0.328
REMARK SMILES C=C(C)[C@H]1CC[C@@]2(CO)CC[C@]3(C)[C@H](CC[C@H]4[C@@]5(C)CC[C@@H](O)C(C)(C)[C@H]5CC[C@]43C)[C@@H]12
REMARK SMILES IDX 4 1 5 2 6 3 7 4 32 5 14 6 15 7 16 8 17 9 18 10 20 11 21 12
REMARK SMILES IDX 22 13 24 14 27 15 28 16 29 17 30 18 12 19 11 20 10 21 13 22
REMARK SMILES IDX 31 23 25 24 26 25 19 26 2 27 3 28 1 29 8 30 9 31 23 33
REMARK H PARENT 9 32 23 34
REMARK Flexibility Score: inf
ROOT
ATOM      1  C   UNL     1      72.411  56.138  17.988  1.00  0.00     0.018 C 
ATOM      2  C   UNL     1      73.533  55.113  17.869  1.00  0.00     0.009 C 
ATOM      3  C   UNL     1      72.808  53.857  17.373  1.00  0.00     0.010 C 
ATOM      4  C   UNL     1      71.248  54.155  17.364  1.00  0.00    -0.003 C 
ATOM      5  C   UNL     1      71.125  55.352  18.330  1.00  0.00     0.008 C 
ATOM      6  C   UNL     1      70.736  54.893  19.821  1.00  0.00    -0.000 C 
ATOM      7  C   UNL     1      71.383  55.916  20.813  1.00  0.00     0.005 C 
ATOM      8  C   UNL     1      71.397  55.505  22.241  1.00  0.00     0.005 C 
ATOM      9  C   UNL     1      69.989  55.231  22.787  1.00  0.00     0.002 C 
ATOM     10  C   UNL     1      69.224  56.186  23.940  1.00  0.00    -0.026 C 
ATOM     11  C   UNL     1      69.595  57.703  23.786  1.00  0.00     0.010 C 
ATOM     12  C   UNL     1      68.677  58.705  24.549  1.00  0.00     0.033 C 
ATOM     13  C   UNL     1      67.840  58.100  25.654  1.00  0.00     0.120 C 
ATOM     14  C   UNL     1      66.790  57.096  25.004  1.00  0.00    -0.006 C 
ATOM     15  C   UNL     1      67.585  56.128  23.870  1.00  0.00     0.003 C 
ATOM     16  C   UNL     1      67.104  56.399  22.428  1.00  0.00     0.005 C 
ATOM     17  C   UNL     1      68.095  56.052  21.350  1.00  0.00     0.008 C 
ATOM     18  C   UNL     1      68.977  54.648  21.659  1.00  0.00    -0.024 C 
ATOM     19  C   UNL     1      69.233  54.196  20.055  1.00  0.00    -0.024 C 
ATOM     20  C   UNL     1      69.111  53.495  18.535  1.00  0.00     0.008 C 
ATOM     21  C   UNL     1      70.432  52.953  17.921  1.00  0.00     0.010 C 
ATOM     22  C   UNL     1      67.639  53.804  19.977  1.00  0.00     0.012 C 
ATOM     23  C   UNL     1      68.597  53.240  22.448  1.00  0.00     0.012 C 
ATOM     24  C   UNL     1      65.597  57.897  24.361  1.00  0.00     0.014 C 
ATOM     25  C   UNL     1      66.117  56.229  26.088  1.00  0.00     0.014 C 
ATOM     26  C   UNL     1      69.607  55.643  25.395  1.00  0.00     0.012 C 
ENDROOT
BRANCH   1  27
ATOM     27  C   UNL     1      72.682  57.491  18.672  1.00  0.00    -0.077 C 
ATOM     28  C   UNL     1      71.638  58.620  18.535  1.00  0.00     0.039 C 
ATOM     29  C   UNL     1      73.850  57.776  19.224  1.00  0.00     0.008 C 
ENDBRANCH   1  27
BRANCH   4  30
ATOM     30  C   UNL     1      70.703  54.582  15.948  1.00  0.00     0.163 C 
BRANCH  30  31
ATOM     31  O   UNL     1      71.663  54.474  14.902  1.00  0.00    -0.396 OA
ATOM     32  H   UNL     1      72.205  53.706  15.179  1.00  0.00     0.210 HD
ENDBRANCH  30  31
ENDBRANCH   4  30
BRANCH  13  33
ATOM     33  O   UNL     1      67.403  59.112  26.560  1.00  0.00    -0.393 OA
ATOM     34  H   UNL     1      67.349  58.627  27.423  1.00  0.00     0.210 HD
ENDBRANCH  13  33
TORSDOF 4
ENDMDL
MODEL 9
REMARK VINA RESULT:    -5.359      1.495      8.204
REMARK INTER + INTRA:          -6.627
REMARK INTER:                  -6.172
REMARK INTRA:                  -0.454
REMARK UNBOUND:                -0.328
REMARK SMILES C=C(C)[C@H]1CC[C@@]2(CO)CC[C@]3(C)[C@H](CC[C@H]4[C@@]5(C)CC[C@@H](O)C(C)(C)[C@H]5CC[C@]43C)[C@@H]12
REMARK SMILES IDX 4 1 5 2 6 3 7 4 32 5 14 6 15 7 16 8 17 9 18 10 20 11 21 12
REMARK SMILES IDX 22 13 24 14 27 15 28 16 29 17 30 18 12 19 11 20 10 21 13 22
REMARK SMILES IDX 31 23 25 24 26 25 19 26 2 27 3 28 1 29 8 30 9 31 23 33
REMARK H PARENT 9 32 23 34
REMARK Flexibility Score: inf
ROOT
ATOM      1  C   UNL     1      71.152  53.576  17.763  1.00  0.00     0.018 C 
ATOM      2  C   UNL     1      71.034  54.249  16.400  1.00  0.00     0.009 C 
ATOM      3  C   UNL     1      72.332  55.056  16.295  1.00  0.00     0.010 C 
ATOM      4  C   UNL     1      73.100  54.945  17.680  1.00  0.00    -0.003 C 
ATOM      5  C   UNL     1      71.980  54.527  18.657  1.00  0.00     0.008 C 
ATOM      6  C   UNL     1      71.352  55.786  19.436  1.00  0.00    -0.000 C 
ATOM      7  C   UNL     1      69.850  55.457  19.727  1.00  0.00     0.005 C 
ATOM      8  C   UNL     1      69.015  56.604  20.169  1.00  0.00     0.005 C 
ATOM      9  C   UNL     1      69.552  57.263  21.447  1.00  0.00     0.002 C 
ATOM     10  C   UNL     1      68.771  57.206  22.934  1.00  0.00    -0.026 C 
ATOM     11  C   UNL     1      68.019  55.846  23.151  1.00  0.00     0.010 C 
ATOM     12  C   UNL     1      67.578  55.541  24.615  1.00  0.00     0.033 C 
ATOM     13  C   UNL     1      67.538  56.738  25.538  1.00  0.00     0.120 C 
ATOM     14  C   UNL     1      69.022  57.282  25.730  1.00  0.00    -0.006 C 
ATOM     15  C   UNL     1      69.778  57.358  24.221  1.00  0.00     0.003 C 
ATOM     16  C   UNL     1      70.949  56.358  24.101  1.00  0.00     0.005 C 
ATOM     17  C   UNL     1      71.289  55.940  22.696  1.00  0.00     0.008 C 
ATOM     18  C   UNL     1      71.169  57.186  21.566  1.00  0.00    -0.024 C 
ATOM     19  C   UNL     1      72.343  56.621  20.495  1.00  0.00    -0.024 C 
ATOM     20  C   UNL     1      73.778  56.339  19.673  1.00  0.00     0.008 C 
ATOM     21  C   UNL     1      73.688  56.317  18.121  1.00  0.00     0.010 C 
ATOM     22  C   UNL     1      73.473  57.036  21.613  1.00  0.00     0.012 C 
ATOM     23  C   UNL     1      71.434  58.820  21.670  1.00  0.00     0.012 C 
ATOM     24  C   UNL     1      69.811  56.366  26.738  1.00  0.00     0.014 C 
ATOM     25  C   UNL     1      69.015  58.666  26.409  1.00  0.00     0.014 C 
ATOM     26  C   UNL     1      67.763  58.444  23.035  1.00  0.00     0.012 C 
ENDROOT
BRANCH   1  27
ATOM     27  C   UNL     1      69.939  52.836  18.357  1.00  0.00    -0.077 C 
ATOM     28  C   UNL     1      70.128  52.005  19.644  1.00  0.00     0.039 C 
ATOM     29  C   UNL     1      68.788  52.746  17.712  1.00  0.00     0.008 C 
ENDBRANCH   1  27
BRANCH   4  30
ATOM     30  C   UNL     1      74.222  53.837  17.684  1.00  0.00     0.163 C 
BRANCH  30  31
ATOM     31  O   UNL     1      75.516  54.325  17.348  1.00  0.00    -0.396 OA
ATOM     32  H   UNL     1      76.044  53.504  17.253  1.00  0.00     0.210 HD
ENDBRANCH  30  31
ENDBRANCH   4  30
BRANCH  13  33
ATOM     33  O   UNL     1      66.719  56.465  26.674  1.00  0.00    -0.393 OA
ATOM     34  H   UNL     1      66.790  55.480  26.765  1.00  0.00     0.210 HD
ENDBRANCH  13  33
TORSDOF 4
ENDMDL
