MODEL 1
REMARK VINA RESULT:    -5.238      0.000      0.000
REMARK INTER + INTRA:          -5.238
REMARK INTER:                  -5.238
REMARK INTRA:                   0.000
REMARK UNBOUND:                 0.000
REMARK SMILES C=C1CCC[C@]2(C)C=C3OC(=O)C(C)=C3C[C@H]12
REMARK SMILES IDX 14 1 13 2 15 3 16 4 17 5 2 6 1 7 3 8 4 9 5 10 6 11 8 12 9 13
REMARK SMILES IDX 10 14 11 15 12 16 7 17
REMARK H PARENT
REMARK Flexibility Score: inf
ROOT
ATOM      1  C   UNL     1     -26.632 -57.461  55.386  1.00  0.00     0.053 C 
ATOM      2  C   UNL     1     -26.313 -56.684  54.148  1.00  0.00     0.041 C 
ATOM      3  C   UNL     1     -26.762 -55.471  53.838  1.00  0.00     0.005 C 
ATOM      4  C   UNL     1     -27.623 -54.541  54.641  1.00  0.00     0.049 C 
ATOM      5  C   UNL     1     -28.321 -53.529  53.682  1.00  0.00     0.029 C 
ATOM      6  C   UNL     1     -29.514 -54.111  52.909  1.00  0.00    -0.073 C 
ATOM      7  C   UNL     1     -29.934 -55.390  52.998  1.00  0.00     0.008 C 
ATOM      8  C   UNL     1     -30.211 -53.175  51.955  1.00  0.00     0.031 C 
ATOM      9  C   UNL     1     -29.196 -52.636  50.948  1.00  0.00     0.005 C 
ATOM     10  C   UNL     1     -28.027 -51.949  51.665  1.00  0.00     0.012 C 
ATOM     11  C   UNL     1     -27.291 -52.885  52.667  1.00  0.00    -0.004 C 
ATOM     12  C   UNL     1     -26.534 -53.973  51.910  1.00  0.00     0.027 C 
ATOM     13  C   UNL     1     -26.275 -55.133  52.510  1.00  0.00     0.131 C 
ATOM     14  O   UNL     1     -25.538 -56.187  51.988  1.00  0.00    -0.423 OA
ATOM     15  C   UNL     1     -25.558 -57.156  52.984  1.00  0.00     0.339 C 
ATOM     16  O   UNL     1     -25.001 -58.280  52.880  1.00  0.00    -0.246 OA
ATOM     17  C   UNL     1     -26.252 -52.029  53.426  1.00  0.00     0.016 C 
ENDROOT
TORSDOF 0
ENDMDL
MODEL 2
REMARK VINA RESULT:    -5.113     11.476     14.578
REMARK INTER + INTRA:          -5.113
REMARK INTER:                  -5.113
REMARK INTRA:                   0.000
REMARK UNBOUND:                 0.000
REMARK SMILES C=C1CCC[C@]2(C)C=C3OC(=O)C(C)=C3C[C@H]12
REMARK SMILES IDX 14 1 13 2 15 3 16 4 17 5 2 6 1 7 3 8 4 9 5 10 6 11 8 12 9 13
REMARK SMILES IDX 10 14 11 15 12 16 7 17
REMARK H PARENT
REMARK Flexibility Score: inf
ROOT
ATOM      1  C   UNL     1     -26.957 -67.129  56.445  1.00  0.00     0.053 C 
ATOM      2  C   UNL     1     -25.656 -66.432  56.691  1.00  0.00     0.041 C 
ATOM      3  C   UNL     1     -24.455 -66.998  56.756  1.00  0.00     0.005 C 
ATOM      4  C   UNL     1     -24.064 -68.430  56.538  1.00  0.00     0.049 C 
ATOM      5  C   UNL     1     -22.704 -68.707  57.247  1.00  0.00     0.029 C 
ATOM      6  C   UNL     1     -22.808 -68.874  58.770  1.00  0.00    -0.073 C 
ATOM      7  C   UNL     1     -23.952 -68.764  59.477  1.00  0.00     0.008 C 
ATOM      8  C   UNL     1     -21.515 -69.125  59.503  1.00  0.00     0.031 C 
ATOM      9  C   UNL     1     -20.538 -67.989  59.205  1.00  0.00     0.005 C 
ATOM     10  C   UNL     1     -20.315 -67.844  57.693  1.00  0.00     0.012 C 
ATOM     11  C   UNL     1     -21.633 -67.594  56.904  1.00  0.00    -0.004 C 
ATOM     12  C   UNL     1     -22.182 -66.206  57.225  1.00  0.00     0.027 C 
ATOM     13  C   UNL     1     -23.486 -65.969  57.097  1.00  0.00     0.131 C 
ATOM     14  O   UNL     1     -24.125 -64.750  57.278  1.00  0.00    -0.423 OA
ATOM     15  C   UNL     1     -25.467 -65.020  57.037  1.00  0.00     0.339 C 
ATOM     16  O   UNL     1     -26.381 -64.158  57.115  1.00  0.00    -0.246 OA
ATOM     17  C   UNL     1     -21.286 -67.626  55.398  1.00  0.00     0.016 C 
ENDROOT
TORSDOF 0
ENDMDL
MODEL 3
REMARK VINA RESULT:    -5.080      1.882      2.697
REMARK INTER + INTRA:          -5.080
REMARK INTER:                  -5.080
REMARK INTRA:                   0.000
REMARK UNBOUND:                 0.000
REMARK SMILES C=C1CCC[C@]2(C)C=C3OC(=O)C(C)=C3C[C@H]12
REMARK SMILES IDX 14 1 13 2 15 3 16 4 17 5 2 6 1 7 3 8 4 9 5 10 6 11 8 12 9 13
REMARK SMILES IDX 10 14 11 15 12 16 7 17
REMARK H PARENT
REMARK Flexibility Score: inf
ROOT
ATOM      1  C   UNL     1     -29.957 -58.283  56.096  1.00  0.00     0.053 C 
ATOM      2  C   UNL     1     -28.641 -57.686  55.709  1.00  0.00     0.041 C 
ATOM      3  C   UNL     1     -28.389 -56.399  55.493  1.00  0.00     0.005 C 
ATOM      4  C   UNL     1     -29.296 -55.213  55.640  1.00  0.00     0.049 C 
ATOM      5  C   UNL     1     -28.754 -54.038  54.770  1.00  0.00     0.029 C 
ATOM      6  C   UNL     1     -29.038 -54.181  53.268  1.00  0.00    -0.073 C 
ATOM      7  C   UNL     1     -29.667 -55.232  52.703  1.00  0.00     0.008 C 
ATOM      8  C   UNL     1     -28.516 -53.078  52.383  1.00  0.00     0.031 C 
ATOM      9  C   UNL     1     -27.008 -52.943  52.582  1.00  0.00     0.005 C 
ATOM     10  C   UNL     1     -26.672 -52.693  54.059  1.00  0.00     0.012 C 
ATOM     11  C   UNL     1     -27.206 -53.810  55.002  1.00  0.00    -0.004 C 
ATOM     12  C   UNL     1     -26.433 -55.106  54.770  1.00  0.00     0.027 C 
ATOM     13  C   UNL     1     -27.007 -56.274  55.056  1.00  0.00     0.131 C 
ATOM     14  O   UNL     1     -26.416 -57.527  54.972  1.00  0.00    -0.423 OA
ATOM     15  C   UNL     1     -27.414 -58.411  55.366  1.00  0.00     0.339 C 
ATOM     16  O   UNL     1     -27.266 -59.660  55.409  1.00  0.00    -0.246 OA
ATOM     17  C   UNL     1     -26.940 -53.357  56.455  1.00  0.00     0.016 C 
ENDROOT
TORSDOF 0
ENDMDL
MODEL 4
REMARK VINA RESULT:    -4.879      2.304      5.037
REMARK INTER + INTRA:          -4.879
REMARK INTER:                  -4.879
REMARK INTRA:                   0.000
REMARK UNBOUND:                 0.000
REMARK SMILES C=C1CCC[C@]2(C)C=C3OC(=O)C(C)=C3C[C@H]12
REMARK SMILES IDX 14 1 13 2 15 3 16 4 17 5 2 6 1 7 3 8 4 9 5 10 6 11 8 12 9 13
REMARK SMILES IDX 10 14 11 15 12 16 7 17
REMARK H PARENT
REMARK Flexibility Score: inf
ROOT
ATOM      1  C   UNL     1     -29.222 -51.912  50.888  1.00  0.00     0.053 C 
ATOM      2  C   UNL     1     -29.551 -52.982  51.881  1.00  0.00     0.041 C 
ATOM      3  C   UNL     1     -28.754 -53.444  52.838  1.00  0.00     0.005 C 
ATOM      4  C   UNL     1     -27.378 -52.994  53.232  1.00  0.00     0.049 C 
ATOM      5  C   UNL     1     -26.656 -54.148  53.991  1.00  0.00     0.029 C 
ATOM      6  C   UNL     1     -26.127 -55.268  53.083  1.00  0.00    -0.073 C 
ATOM      7  C   UNL     1     -26.283 -55.306  51.744  1.00  0.00     0.008 C 
ATOM      8  C   UNL     1     -25.437 -56.416  53.774  1.00  0.00     0.031 C 
ATOM      9  C   UNL     1     -26.387 -57.031  54.800  1.00  0.00     0.005 C 
ATOM     10  C   UNL     1     -26.868 -55.972  55.802  1.00  0.00     0.012 C 
ATOM     11  C   UNL     1     -27.577 -54.766  55.120  1.00  0.00    -0.004 C 
ATOM     12  C   UNL     1     -28.917 -55.206  54.536  1.00  0.00     0.027 C 
ATOM     13  C   UNL     1     -29.441 -54.535  53.512  1.00  0.00     0.131 C 
ATOM     14  O   UNL     1     -30.675 -54.762  52.922  1.00  0.00    -0.423 OA
ATOM     15  C   UNL     1     -30.757 -53.815  51.907  1.00  0.00     0.339 C 
ATOM     16  O   UNL     1     -31.738 -53.708  51.126  1.00  0.00    -0.246 OA
ATOM     17  C   UNL     1     -27.863 -53.715  56.217  1.00  0.00     0.016 C 
ENDROOT
TORSDOF 0
ENDMDL
MODEL 5
REMARK VINA RESULT:    -4.799      2.255      4.820
REMARK INTER + INTRA:          -4.799
REMARK INTER:                  -4.799
REMARK INTRA:                   0.000
REMARK UNBOUND:                 0.000
REMARK SMILES C=C1CCC[C@]2(C)C=C3OC(=O)C(C)=C3C[C@H]12
REMARK SMILES IDX 14 1 13 2 15 3 16 4 17 5 2 6 1 7 3 8 4 9 5 10 6 11 8 12 9 13
REMARK SMILES IDX 10 14 11 15 12 16 7 17
REMARK H PARENT
REMARK Flexibility Score: inf
ROOT
ATOM      1  C   UNL     1     -30.434 -52.625  50.914  1.00  0.00     0.053 C 
ATOM      2  C   UNL     1     -29.037 -52.680  51.448  1.00  0.00     0.041 C 
ATOM      3  C   UNL     1     -28.412 -53.755  51.917  1.00  0.00     0.005 C 
ATOM      4  C   UNL     1     -28.880 -55.179  51.978  1.00  0.00     0.049 C 
ATOM      5  C   UNL     1     -28.075 -55.940  53.075  1.00  0.00     0.029 C 
ATOM      6  C   UNL     1     -28.524 -55.637  54.512  1.00  0.00    -0.073 C 
ATOM      7  C   UNL     1     -29.502 -54.769  54.843  1.00  0.00     0.008 C 
ATOM      8  C   UNL     1     -27.762 -56.336  55.609  1.00  0.00     0.031 C 
ATOM      9  C   UNL     1     -26.277 -56.000  55.484  1.00  0.00     0.005 C 
ATOM     10  C   UNL     1     -25.748 -56.380  54.095  1.00  0.00     0.012 C 
ATOM     11  C   UNL     1     -26.519 -55.684  52.937  1.00  0.00    -0.004 C 
ATOM     12  C   UNL     1     -26.221 -54.186  52.934  1.00  0.00     0.027 C 
ATOM     13  C   UNL     1     -27.107 -53.341  52.410  1.00  0.00     0.131 C 
ATOM     14  O   UNL     1     -26.953 -51.970  52.265  1.00  0.00    -0.423 OA
ATOM     15  C   UNL     1     -28.139 -51.544  51.678  1.00  0.00     0.339 C 
ATOM     16  O   UNL     1     -28.391 -50.344  51.396  1.00  0.00    -0.246 OA
ATOM     17  C   UNL     1     -25.993 -56.272  51.608  1.00  0.00     0.016 C 
ENDROOT
TORSDOF 0
ENDMDL
MODEL 6
REMARK VINA RESULT:    -4.792      2.079      4.936
REMARK INTER + INTRA:          -4.792
REMARK INTER:                  -4.792
REMARK INTRA:                   0.000
REMARK UNBOUND:                 0.000
REMARK SMILES C=C1CCC[C@]2(C)C=C3OC(=O)C(C)=C3C[C@H]12
REMARK SMILES IDX 14 1 13 2 15 3 16 4 17 5 2 6 1 7 3 8 4 9 5 10 6 11 8 12 9 13
REMARK SMILES IDX 10 14 11 15 12 16 7 17
REMARK H PARENT
REMARK Flexibility Score: inf
ROOT
ATOM      1  C   UNL     1     -26.250 -51.947  53.496  1.00  0.00     0.053 C 
ATOM      2  C   UNL     1     -27.273 -52.994  53.185  1.00  0.00     0.041 C 
ATOM      3  C   UNL     1     -27.658 -53.985  53.982  1.00  0.00     0.005 C 
ATOM      4  C   UNL     1     -27.249 -54.286  55.394  1.00  0.00     0.049 C 
ATOM      5  C   UNL     1     -27.512 -55.792  55.697  1.00  0.00     0.029 C 
ATOM      6  C   UNL     1     -26.471 -56.748  55.098  1.00  0.00    -0.073 C 
ATOM      7  C   UNL     1     -25.424 -56.363  54.339  1.00  0.00     0.008 C 
ATOM      8  C   UNL     1     -26.693 -58.218  55.349  1.00  0.00     0.031 C 
ATOM      9  C   UNL     1     -28.074 -58.615  54.828  1.00  0.00     0.005 C 
ATOM     10  C   UNL     1     -29.168 -57.756  55.476  1.00  0.00     0.012 C 
ATOM     11  C   UNL     1     -28.963 -56.231  55.245  1.00  0.00    -0.004 C 
ATOM     12  C   UNL     1     -29.193 -55.888  53.775  1.00  0.00     0.027 C 
ATOM     13  C   UNL     1     -28.603 -54.814  53.251  1.00  0.00     0.131 C 
ATOM     14  O   UNL     1     -28.768 -54.329  51.961  1.00  0.00    -0.423 OA
ATOM     15  C   UNL     1     -27.948 -53.208  51.901  1.00  0.00     0.339 C 
ATOM     16  O   UNL     1     -27.814 -52.492  50.875  1.00  0.00    -0.246 OA
ATOM     17  C   UNL     1     -30.034 -55.487  56.074  1.00  0.00     0.016 C 
ENDROOT
TORSDOF 0
ENDMDL
MODEL 7
REMARK VINA RESULT:    -4.777      2.460      4.762
REMARK INTER + INTRA:          -4.777
REMARK INTER:                  -4.777
REMARK INTRA:                   0.000
REMARK UNBOUND:                 0.000
REMARK SMILES C=C1CCC[C@]2(C)C=C3OC(=O)C(C)=C3C[C@H]12
REMARK SMILES IDX 14 1 13 2 15 3 16 4 17 5 2 6 1 7 3 8 4 9 5 10 6 11 8 12 9 13
REMARK SMILES IDX 10 14 11 15 12 16 7 17
REMARK H PARENT
REMARK Flexibility Score: inf
ROOT
ATOM      1  C   UNL     1     -26.646 -51.841  53.309  1.00  0.00     0.053 C 
ATOM      2  C   UNL     1     -26.538 -52.888  54.373  1.00  0.00     0.041 C 
ATOM      3  C   UNL     1     -26.802 -54.184  54.237  1.00  0.00     0.005 C 
ATOM      4  C   UNL     1     -27.197 -54.952  53.011  1.00  0.00     0.049 C 
ATOM      5  C   UNL     1     -27.918 -56.267  53.436  1.00  0.00     0.029 C 
ATOM      6  C   UNL     1     -29.372 -56.071  53.890  1.00  0.00    -0.073 C 
ATOM      7  C   UNL     1     -29.999 -54.879  53.963  1.00  0.00     0.008 C 
ATOM      8  C   UNL     1     -30.106 -57.313  54.329  1.00  0.00     0.031 C 
ATOM      9  C   UNL     1     -29.329 -57.983  55.461  1.00  0.00     0.005 C 
ATOM     10  C   UNL     1     -27.892 -58.298  55.025  1.00  0.00     0.012 C 
ATOM     11  C   UNL     1     -27.108 -57.038  54.555  1.00  0.00    -0.004 C 
ATOM     12  C   UNL     1     -26.830 -56.120  55.743  1.00  0.00     0.027 C 
ATOM     13  C   UNL     1     -26.650 -54.816  55.538  1.00  0.00     0.131 C 
ATOM     14  O   UNL     1     -26.318 -53.868  56.496  1.00  0.00    -0.423 OA
ATOM     15  C   UNL     1     -26.251 -52.670  55.794  1.00  0.00     0.339 C 
ATOM     16  O   UNL     1     -25.985 -51.561  56.325  1.00  0.00    -0.246 OA
ATOM     17  C   UNL     1     -25.747 -57.517  54.001  1.00  0.00     0.016 C 
ENDROOT
TORSDOF 0
ENDMDL
MODEL 8
REMARK VINA RESULT:    -4.775      2.850      4.164
REMARK INTER + INTRA:          -4.775
REMARK INTER:                  -4.775
REMARK INTRA:                   0.000
REMARK UNBOUND:                 0.000
REMARK SMILES C=C1CCC[C@]2(C)C=C3OC(=O)C(C)=C3C[C@H]12
REMARK SMILES IDX 14 1 13 2 15 3 16 4 17 5 2 6 1 7 3 8 4 9 5 10 6 11 8 12 9 13
REMARK SMILES IDX 10 14 11 15 12 16 7 17
REMARK H PARENT
REMARK Flexibility Score: inf
ROOT
ATOM      1  C   UNL     1     -30.087 -57.614  56.568  1.00  0.00     0.053 C 
ATOM      2  C   UNL     1     -30.085 -56.677  55.401  1.00  0.00     0.041 C 
ATOM      3  C   UNL     1     -29.024 -56.078  54.870  1.00  0.00     0.005 C 
ATOM      4  C   UNL     1     -27.573 -56.218  55.226  1.00  0.00     0.049 C 
ATOM      5  C   UNL     1     -26.798 -54.956  54.740  1.00  0.00     0.029 C 
ATOM      6  C   UNL     1     -26.988 -53.718  55.629  1.00  0.00    -0.073 C 
ATOM      7  C   UNL     1     -27.775 -53.673  56.724  1.00  0.00     0.008 C 
ATOM      8  C   UNL     1     -26.273 -52.466  55.189  1.00  0.00     0.031 C 
ATOM      9  C   UNL     1     -26.704 -52.113  53.767  1.00  0.00     0.005 C 
ATOM     10  C   UNL     1     -26.439 -53.284  52.810  1.00  0.00     0.012 C 
ATOM     11  C   UNL     1     -27.155 -54.597  53.241  1.00  0.00    -0.004 C 
ATOM     12  C   UNL     1     -28.665 -54.451  53.070  1.00  0.00     0.027 C 
ATOM     13  C   UNL     1     -29.485 -55.191  53.814  1.00  0.00     0.131 C 
ATOM     14  O   UNL     1     -30.869 -55.229  53.727  1.00  0.00    -0.423 OA
ATOM     15  C   UNL     1     -31.257 -56.138  54.705  1.00  0.00     0.339 C 
ATOM     16  O   UNL     1     -32.454 -56.439  54.948  1.00  0.00    -0.246 OA
ATOM     17  C   UNL     1     -26.679 -55.719  52.291  1.00  0.00     0.016 C 
ENDROOT
TORSDOF 0
ENDMDL
