MODEL 1
REMARK VINA RESULT:    19.674      0.000      0.000
REMARK INTER + INTRA:          49.590
REMARK INTER:                  49.577
REMARK INTRA:                   0.013
REMARK UNBOUND:                 0.013
REMARK SMILES CCCCCCCCCCCCCCCCCCCCCCCCCCCC(=O)[O-]
REMARK SMILES IDX 15 1 16 2 17 3 18 4 19 5 20 6 21 7 22 8 23 9 24 10 25 11
REMARK SMILES IDX 26 12 27 13 28 14 29 15 30 16 14 17 13 18 12 19 11 20 10 21
REMARK SMILES IDX 9 22 8 23 7 24 6 25 5 26 4 27 3 28 2 29 1 30
REMARK H PARENT
REMARK Flexibility Score: inf
ROOT
ATOM      1  C   UNL     1       0.387   9.571  -4.726  1.00  0.00     0.000 C 
ENDROOT
BRANCH   1   2
ATOM      2  C   UNL     1       0.034   8.764  -5.989  1.00  0.00     0.000 C 
BRANCH   2   3
ATOM      3  C   UNL     1       1.245   8.532  -6.908  1.00  0.00     0.000 C 
BRANCH   3   4
ATOM      4  C   UNL     1       0.842   8.356  -8.383  1.00  0.00     0.000 C 
BRANCH   4   5
ATOM      5  C   UNL     1      -0.502   9.024  -8.726  1.00  0.00     0.000 C 
BRANCH   5   6
ATOM      6  C   UNL     1      -1.102   8.641 -10.094  1.00  0.00     0.000 C 
BRANCH   6   7
ATOM      7  C   UNL     1      -0.124   7.854 -10.983  1.00  0.00     0.000 C 
BRANCH   7   8
ATOM      8  C   UNL     1      -0.756   7.392 -12.309  1.00  0.00     0.000 C 
BRANCH   8   9
ATOM      9  C   UNL     1      -0.060   7.905 -13.585  1.00  0.00     0.000 C 
BRANCH   9  10
ATOM     10  C   UNL     1       1.032   8.968 -13.355  1.00  0.00     0.000 C 
BRANCH  10  11
ATOM     11  C   UNL     1       2.475   8.430 -13.373  1.00  0.00     0.000 C 
BRANCH  11  12
ATOM     12  C   UNL     1       3.467   9.359 -12.657  1.00  0.00     0.006 C 
BRANCH  12  13
ATOM     13  C   UNL     1       2.734  10.518 -11.977  1.00  0.00     0.053 C 
BRANCH  13  14
ATOM     14  C   UNL     1       2.647  11.702 -12.888  1.00  0.00     0.041 C 
ATOM     15  O   UNL     1       1.813  11.714 -13.831  1.00  0.00    -0.550 OA
ATOM     16  O   UNL     1       3.485  12.795 -12.694  1.00  0.00    -0.550 OA
ENDBRANCH  13  14
ENDBRANCH  12  13
ENDBRANCH  11  12
ENDBRANCH  10  11
ENDBRANCH   9  10
ENDBRANCH   8   9
ENDBRANCH   7   8
ENDBRANCH   6   7
ENDBRANCH   5   6
ENDBRANCH   4   5
ENDBRANCH   3   4
ENDBRANCH   2   3
ENDBRANCH   1   2
BRANCH   1  17
ATOM     17  C   UNL     1      -0.082   8.881  -3.433  1.00  0.00     0.000 C 
BRANCH  17  18
ATOM     18  C   UNL     1      -0.370   7.383  -3.631  1.00  0.00     0.000 C 
BRANCH  18  19
ATOM     19  C   UNL     1       0.873   6.504  -3.402  1.00  0.00     0.000 C 
BRANCH  19  20
ATOM     20  C   UNL     1       2.206   7.270  -3.324  1.00  0.00     0.000 C 
BRANCH  20  21
ATOM     21  C   UNL     1       3.204   6.625  -2.344  1.00  0.00     0.000 C 
BRANCH  21  22
ATOM     22  C   UNL     1       4.071   7.663  -1.611  1.00  0.00    -0.000 C 
BRANCH  22  23
ATOM     23  C   UNL     1       5.374   8.060  -2.335  1.00  0.00    -0.000 C 
BRANCH  23  24
ATOM     24  C   UNL     1       6.605   7.233  -1.909  1.00  0.00    -0.000 C 
BRANCH  24  25
ATOM     25  C   UNL     1       6.596   5.818  -2.514  1.00  0.00    -0.000 C 
BRANCH  25  26
ATOM     26  C   UNL     1       5.451   5.604  -3.520  1.00  0.00    -0.000 C 
BRANCH  26  27
ATOM     27  C   UNL     1       5.687   4.481  -4.552  1.00  0.00    -0.000 C 
BRANCH  27  28
ATOM     28  C   UNL     1       7.069   3.807  -4.478  1.00  0.00    -0.000 C 
BRANCH  28  29
ATOM     29  C   UNL     1       6.996   2.347  -4.003  1.00  0.00    -0.003 C 
ATOM     30  C   UNL     1       7.331   2.235  -2.520  1.00  0.00     0.004 C 
ENDBRANCH  28  29
ENDBRANCH  27  28
ENDBRANCH  26  27
ENDBRANCH  25  26
ENDBRANCH  24  25
ENDBRANCH  23  24
ENDBRANCH  22  23
ENDBRANCH  21  22
ENDBRANCH  20  21
ENDBRANCH  19  20
ENDBRANCH  18  19
ENDBRANCH  17  18
ENDBRANCH   1  17
TORSDOF 26
ENDMDL
MODEL 2
REMARK VINA RESULT:    19.911      4.179      7.233
REMARK INTER + INTRA:          50.188
REMARK INTER:                  50.428
REMARK INTRA:                  -0.240
REMARK UNBOUND:                 0.013
REMARK SMILES CCCCCCCCCCCCCCCCCCCCCCCCCCCC(=O)[O-]
REMARK SMILES IDX 15 1 16 2 17 3 18 4 19 5 20 6 21 7 22 8 23 9 24 10 25 11
REMARK SMILES IDX 26 12 27 13 28 14 29 15 30 16 14 17 13 18 12 19 11 20 10 21
REMARK SMILES IDX 9 22 8 23 7 24 6 25 5 26 4 27 3 28 2 29 1 30
REMARK H PARENT
REMARK Flexibility Score: inf
ROOT
ATOM      1  C   UNL     1       0.268   8.054  -6.710  1.00  0.00     0.000 C 
ENDROOT
BRANCH   1   2
ATOM      2  C   UNL     1       0.873   9.290  -6.021  1.00  0.00     0.000 C 
BRANCH   2   3
ATOM      3  C   UNL     1       0.617   9.316  -4.506  1.00  0.00     0.000 C 
BRANCH   3   4
ATOM      4  C   UNL     1      -0.242  10.516  -4.071  1.00  0.00     0.000 C 
BRANCH   4   5
ATOM      5  C   UNL     1      -0.951  10.295  -2.722  1.00  0.00     0.000 C 
BRANCH   5   6
ATOM      6  C   UNL     1      -1.720  11.512  -2.171  1.00  0.00     0.000 C 
BRANCH   6   7
ATOM      7  C   UNL     1      -1.358  11.845  -0.713  1.00  0.00     0.000 C 
BRANCH   7   8
ATOM      8  C   UNL     1      -0.337  12.991  -0.594  1.00  0.00     0.000 C 
BRANCH   8   9
ATOM      9  C   UNL     1      -0.440  14.082  -1.679  1.00  0.00     0.000 C 
BRANCH   9  10
ATOM     10  C   UNL     1      -0.490  15.529  -1.151  1.00  0.00     0.000 C 
BRANCH  10  11
ATOM     11  C   UNL     1       0.828  16.315  -1.284  1.00  0.00     0.000 C 
BRANCH  11  12
ATOM     12  C   UNL     1       1.884  15.572  -2.115  1.00  0.00     0.006 C 
BRANCH  12  13
ATOM     13  C   UNL     1       2.459  16.482  -3.205  1.00  0.00     0.053 C 
BRANCH  13  14
ATOM     14  C   UNL     1       2.173  15.930  -4.566  1.00  0.00     0.041 C 
ATOM     15  O   UNL     1       3.115  15.520  -5.293  1.00  0.00    -0.550 OA
ATOM     16  O   UNL     1       0.863  15.866  -5.031  1.00  0.00    -0.550 OA
ENDBRANCH  13  14
ENDBRANCH  12  13
ENDBRANCH  11  12
ENDBRANCH  10  11
ENDBRANCH   9  10
ENDBRANCH   8   9
ENDBRANCH   7   8
ENDBRANCH   6   7
ENDBRANCH   5   6
ENDBRANCH   4   5
ENDBRANCH   3   4
ENDBRANCH   2   3
ENDBRANCH   1   2
BRANCH   1  17
ATOM     17  C   UNL     1      -0.592   7.206  -5.757  1.00  0.00     0.000 C 
BRANCH  17  18
ATOM     18  C   UNL     1       0.090   5.886  -5.358  1.00  0.00     0.000 C 
BRANCH  18  19
ATOM     19  C   UNL     1       0.446   5.830  -3.861  1.00  0.00     0.000 C 
BRANCH  19  20
ATOM     20  C   UNL     1       0.958   7.153  -3.264  1.00  0.00     0.000 C 
BRANCH  20  21
ATOM     21  C   UNL     1       2.488   7.174  -3.092  1.00  0.00     0.000 C 
BRANCH  21  22
ATOM     22  C   UNL     1       2.932   6.772  -1.676  1.00  0.00    -0.000 C 
BRANCH  22  23
ATOM     23  C   UNL     1       4.340   7.252  -1.268  1.00  0.00    -0.000 C 
BRANCH  23  24
ATOM     24  C   UNL     1       5.252   7.606  -2.462  1.00  0.00    -0.000 C 
BRANCH  24  25
ATOM     25  C   UNL     1       6.115   6.414  -2.911  1.00  0.00    -0.000 C 
BRANCH  25  26
ATOM     26  C   UNL     1       5.278   5.230  -3.429  1.00  0.00    -0.000 C 
BRANCH  26  27
ATOM     27  C   UNL     1       5.856   4.510  -4.665  1.00  0.00    -0.000 C 
BRANCH  27  28
ATOM     28  C   UNL     1       7.079   3.617  -4.388  1.00  0.00    -0.000 C 
BRANCH  28  29
ATOM     29  C   UNL     1       7.191   3.200  -2.914  1.00  0.00    -0.003 C 
ATOM     30  C   UNL     1       7.038   1.690  -2.758  1.00  0.00     0.004 C 
ENDBRANCH  28  29
ENDBRANCH  27  28
ENDBRANCH  26  27
ENDBRANCH  25  26
ENDBRANCH  24  25
ENDBRANCH  23  24
ENDBRANCH  22  23
ENDBRANCH  21  22
ENDBRANCH  20  21
ENDBRANCH  19  20
ENDBRANCH  18  19
ENDBRANCH  17  18
ENDBRANCH   1  17
TORSDOF 26
ENDMDL
MODEL 3
REMARK VINA RESULT:    19.981      1.793      3.089
REMARK INTER + INTRA:          50.365
REMARK INTER:                  50.421
REMARK INTRA:                  -0.056
REMARK UNBOUND:                 0.013
REMARK SMILES CCCCCCCCCCCCCCCCCCCCCCCCCCCC(=O)[O-]
REMARK SMILES IDX 15 1 16 2 17 3 18 4 19 5 20 6 21 7 22 8 23 9 24 10 25 11
REMARK SMILES IDX 26 12 27 13 28 14 29 15 30 16 14 17 13 18 12 19 11 20 10 21
REMARK SMILES IDX 9 22 8 23 7 24 6 25 5 26 4 27 3 28 2 29 1 30
REMARK H PARENT
REMARK Flexibility Score: inf
ROOT
ATOM      1  C   UNL     1       0.880   8.691  -5.689  1.00  0.00     0.000 C 
ENDROOT
BRANCH   1   2
ATOM      2  C   UNL     1       0.010   8.303  -6.899  1.00  0.00     0.000 C 
BRANCH   2   3
ATOM      3  C   UNL     1       0.841   7.897  -8.127  1.00  0.00     0.000 C 
BRANCH   3   4
ATOM      4  C   UNL     1       1.565   9.091  -8.773  1.00  0.00     0.000 C 
BRANCH   4   5
ATOM      5  C   UNL     1       3.089   9.066  -8.549  1.00  0.00     0.000 C 
BRANCH   5   6
ATOM      6  C   UNL     1       3.929   9.778  -9.628  1.00  0.00     0.000 C 
BRANCH   6   7
ATOM      7  C   UNL     1       3.232   9.830 -10.998  1.00  0.00     0.000 C 
BRANCH   7   8
ATOM      8  C   UNL     1       2.959  11.267 -11.480  1.00  0.00     0.000 C 
BRANCH   8   9
ATOM      9  C   UNL     1       2.898  11.450 -13.009  1.00  0.00     0.000 C 
BRANCH   9  10
ATOM     10  C   UNL     1       1.939  10.495 -13.747  1.00  0.00     0.000 C 
BRANCH  10  11
ATOM     11  C   UNL     1       1.622   9.187 -12.998  1.00  0.00     0.000 C 
BRANCH  11  12
ATOM     12  C   UNL     1       0.864   8.172 -13.866  1.00  0.00     0.006 C 
BRANCH  12  13
ATOM     13  C   UNL     1      -0.608   8.091 -13.449  1.00  0.00     0.053 C 
BRANCH  13  14
ATOM     14  C   UNL     1      -0.742   7.502 -12.081  1.00  0.00     0.041 C 
ATOM     15  O   UNL     1      -0.789   8.252 -11.071  1.00  0.00    -0.550 OA
ATOM     16  O   UNL     1      -0.820   6.122 -11.920  1.00  0.00    -0.550 OA
ENDBRANCH  13  14
ENDBRANCH  12  13
ENDBRANCH  11  12
ENDBRANCH  10  11
ENDBRANCH   9  10
ENDBRANCH   8   9
ENDBRANCH   7   8
ENDBRANCH   6   7
ENDBRANCH   5   6
ENDBRANCH   4   5
ENDBRANCH   3   4
ENDBRANCH   2   3
ENDBRANCH   1   2
BRANCH   1  17
ATOM     17  C   UNL     1       0.050   9.234  -4.513  1.00  0.00     0.000 C 
BRANCH  17  18
ATOM     18  C   UNL     1       0.225   8.404  -3.230  1.00  0.00     0.000 C 
BRANCH  18  19
ATOM     19  C   UNL     1       1.043   7.120  -3.459  1.00  0.00     0.000 C 
BRANCH  19  20
ATOM     20  C   UNL     1       2.563   7.275  -3.268  1.00  0.00     0.000 C 
BRANCH  20  21
ATOM     21  C   UNL     1       3.027   6.865  -1.858  1.00  0.00     0.000 C 
BRANCH  21  22
ATOM     22  C   UNL     1       4.327   7.569  -1.433  1.00  0.00    -0.000 C 
BRANCH  22  23
ATOM     23  C   UNL     1       5.427   7.628  -2.513  1.00  0.00    -0.000 C 
BRANCH  23  24
ATOM     24  C   UNL     1       6.091   6.265  -2.805  1.00  0.00    -0.000 C 
BRANCH  24  25
ATOM     25  C   UNL     1       5.188   5.343  -3.644  1.00  0.00    -0.000 C 
BRANCH  25  26
ATOM     26  C   UNL     1       5.958   4.591  -4.745  1.00  0.00    -0.000 C 
BRANCH  26  27
ATOM     27  C   UNL     1       7.041   3.617  -4.237  1.00  0.00    -0.000 C 
BRANCH  27  28
ATOM     28  C   UNL     1       6.642   2.131  -4.252  1.00  0.00    -0.000 C 
BRANCH  28  29
ATOM     29  C   UNL     1       7.183   1.356  -3.041  1.00  0.00    -0.003 C 
ATOM     30  C   UNL     1       7.861   2.295  -2.048  1.00  0.00     0.004 C 
ENDBRANCH  28  29
ENDBRANCH  27  28
ENDBRANCH  26  27
ENDBRANCH  25  26
ENDBRANCH  24  25
ENDBRANCH  23  24
ENDBRANCH  22  23
ENDBRANCH  21  22
ENDBRANCH  20  21
ENDBRANCH  19  20
ENDBRANCH  18  19
ENDBRANCH  17  18
ENDBRANCH   1  17
TORSDOF 26
ENDMDL
MODEL 4
REMARK VINA RESULT:    20.000      1.291      1.834
REMARK INTER + INTRA:          50.412
REMARK INTER:                  52.232
REMARK INTRA:                  -1.820
REMARK UNBOUND:                 0.013
REMARK SMILES CCCCCCCCCCCCCCCCCCCCCCCCCCCC(=O)[O-]
REMARK SMILES IDX 15 1 16 2 17 3 18 4 19 5 20 6 21 7 22 8 23 9 24 10 25 11
REMARK SMILES IDX 26 12 27 13 28 14 29 15 30 16 14 17 13 18 12 19 11 20 10 21
REMARK SMILES IDX 9 22 8 23 7 24 6 25 5 26 4 27 3 28 2 29 1 30
REMARK H PARENT
REMARK Flexibility Score: inf
ROOT
ATOM      1  C   UNL     1       0.018   8.655  -6.126  1.00  0.00     0.000 C 
ENDROOT
BRANCH   1   2
ATOM      2  C   UNL     1       1.124   8.394  -7.164  1.00  0.00     0.000 C 
BRANCH   2   3
ATOM      3  C   UNL     1       0.592   7.763  -8.461  1.00  0.00     0.000 C 
BRANCH   3   4
ATOM      4  C   UNL     1       0.224   8.815  -9.522  1.00  0.00     0.000 C 
BRANCH   4   5
ATOM      5  C   UNL     1      -1.055   8.461 -10.304  1.00  0.00     0.000 C 
BRANCH   5   6
ATOM      6  C   UNL     1      -0.901   7.346 -11.358  1.00  0.00     0.000 C 
BRANCH   6   7
ATOM      7  C   UNL     1      -0.636   7.887 -12.773  1.00  0.00     0.000 C 
BRANCH   7   8
ATOM      8  C   UNL     1       0.827   7.711 -13.219  1.00  0.00     0.000 C 
BRANCH   8   9
ATOM      9  C   UNL     1       1.445   8.921 -13.948  1.00  0.00     0.000 C 
BRANCH   9  10
ATOM     10  C   UNL     1       0.787  10.280 -13.638  1.00  0.00     0.000 C 
BRANCH  10  11
ATOM     11  C   UNL     1       1.695  11.505 -13.852  1.00  0.00     0.000 C 
BRANCH  11  12
ATOM     12  C   UNL     1       3.058  11.368 -13.156  1.00  0.00     0.006 C 
BRANCH  12  13
ATOM     13  C   UNL     1       2.885  11.253 -11.639  1.00  0.00     0.053 C 
BRANCH  13  14
ATOM     14  C   UNL     1       3.464   9.969 -11.132  1.00  0.00     0.041 C 
ATOM     15  O   UNL     1       4.032   9.175 -11.926  1.00  0.00    -0.550 OA
ATOM     16  O   UNL     1       3.379   9.652  -9.780  1.00  0.00    -0.550 OA
ENDBRANCH  13  14
ENDBRANCH  12  13
ENDBRANCH  11  12
ENDBRANCH  10  11
ENDBRANCH   9  10
ENDBRANCH   8   9
ENDBRANCH   7   8
ENDBRANCH   6   7
ENDBRANCH   5   6
ENDBRANCH   4   5
ENDBRANCH   3   4
ENDBRANCH   2   3
ENDBRANCH   1   2
BRANCH   1  17
ATOM     17  C   UNL     1       0.527   9.431  -4.899  1.00  0.00     0.000 C 
BRANCH  17  18
ATOM     18  C   UNL     1       0.183   8.733  -3.572  1.00  0.00     0.000 C 
BRANCH  18  19
ATOM     19  C   UNL     1       0.202   7.198  -3.685  1.00  0.00     0.000 C 
BRANCH  19  20
ATOM     20  C   UNL     1       1.568   6.542  -3.411  1.00  0.00     0.000 C 
BRANCH  20  21
ATOM     21  C   UNL     1       2.670   7.574  -3.109  1.00  0.00     0.000 C 
BRANCH  21  22
ATOM     22  C   UNL     1       3.632   7.108  -2.003  1.00  0.00    -0.000 C 
BRANCH  22  23
ATOM     23  C   UNL     1       5.029   7.762  -2.029  1.00  0.00    -0.000 C 
BRANCH  23  24
ATOM     24  C   UNL     1       6.104   6.914  -2.742  1.00  0.00    -0.000 C 
BRANCH  24  25
ATOM     25  C   UNL     1       5.728   5.423  -2.800  1.00  0.00    -0.000 C 
BRANCH  25  26
ATOM     26  C   UNL     1       5.496   4.919  -4.236  1.00  0.00    -0.000 C 
BRANCH  26  27
ATOM     27  C   UNL     1       6.751   4.372  -4.947  1.00  0.00    -0.000 C 
BRANCH  27  28
ATOM     28  C   UNL     1       7.075   2.895  -4.658  1.00  0.00    -0.000 C 
BRANCH  28  29
ATOM     29  C   UNL     1       6.613   2.446  -3.263  1.00  0.00    -0.003 C 
ATOM     30  C   UNL     1       7.786   2.380  -2.291  1.00  0.00     0.004 C 
ENDBRANCH  28  29
ENDBRANCH  27  28
ENDBRANCH  26  27
ENDBRANCH  25  26
ENDBRANCH  24  25
ENDBRANCH  23  24
ENDBRANCH  22  23
ENDBRANCH  21  22
ENDBRANCH  20  21
ENDBRANCH  19  20
ENDBRANCH  18  19
ENDBRANCH  17  18
ENDBRANCH   1  17
TORSDOF 26
ENDMDL
MODEL 5
REMARK VINA RESULT:    20.140      1.384      2.411
REMARK INTER + INTRA:          50.765
REMARK INTER:                  51.876
REMARK INTRA:                  -1.111
REMARK UNBOUND:                 0.013
REMARK SMILES CCCCCCCCCCCCCCCCCCCCCCCCCCCC(=O)[O-]
REMARK SMILES IDX 15 1 16 2 17 3 18 4 19 5 20 6 21 7 22 8 23 9 24 10 25 11
REMARK SMILES IDX 26 12 27 13 28 14 29 15 30 16 14 17 13 18 12 19 11 20 10 21
REMARK SMILES IDX 9 22 8 23 7 24 6 25 5 26 4 27 3 28 2 29 1 30
REMARK H PARENT
REMARK Flexibility Score: inf
ROOT
ATOM      1  C   UNL     1      -0.123   8.746  -3.831  1.00  0.00     0.000 C 
ENDROOT
BRANCH   1   2
ATOM      2  C   UNL     1       0.211   9.722  -4.974  1.00  0.00     0.000 C 
BRANCH   2   3
ATOM      3  C   UNL     1       1.139   9.106  -6.034  1.00  0.00     0.000 C 
BRANCH   3   4
ATOM      4  C   UNL     1       0.502   7.902  -6.750  1.00  0.00     0.000 C 
BRANCH   4   5
ATOM      5  C   UNL     1       0.649   7.963  -8.282  1.00  0.00     0.000 C 
BRANCH   5   6
ATOM      6  C   UNL     1      -0.453   8.747  -9.023  1.00  0.00     0.000 C 
BRANCH   6   7
ATOM      7  C   UNL     1      -0.331   8.659 -10.554  1.00  0.00     0.000 C 
BRANCH   7   8
ATOM      8  C   UNL     1      -1.295   7.631 -11.174  1.00  0.00     0.000 C 
BRANCH   8   9
ATOM      9  C   UNL     1      -0.808   6.975 -12.482  1.00  0.00     0.000 C 
BRANCH   9  10
ATOM     10  C   UNL     1      -0.161   7.937 -13.497  1.00  0.00     0.000 C 
BRANCH  10  11
ATOM     11  C   UNL     1       1.378   7.978 -13.463  1.00  0.00     0.000 C 
BRANCH  11  12
ATOM     12  C   UNL     1       1.936   9.409 -13.445  1.00  0.00     0.006 C 
BRANCH  12  13
ATOM     13  C   UNL     1       3.232   9.478 -12.632  1.00  0.00     0.053 C 
BRANCH  13  14
ATOM     14  C   UNL     1       3.081  10.401 -11.465  1.00  0.00     0.041 C 
ATOM     15  O   UNL     1       2.928  11.637 -11.651  1.00  0.00    -0.550 OA
ATOM     16  O   UNL     1       3.105   9.896 -10.168  1.00  0.00    -0.550 OA
ENDBRANCH  13  14
ENDBRANCH  12  13
ENDBRANCH  11  12
ENDBRANCH  10  11
ENDBRANCH   9  10
ENDBRANCH   8   9
ENDBRANCH   7   8
ENDBRANCH   6   7
ENDBRANCH   5   6
ENDBRANCH   4   5
ENDBRANCH   3   4
ENDBRANCH   2   3
ENDBRANCH   1   2
BRANCH   1  17
ATOM     17  C   UNL     1       0.600   7.396  -3.975  1.00  0.00     0.000 C 
BRANCH  17  18
ATOM     18  C   UNL     1       1.478   7.061  -2.757  1.00  0.00     0.000 C 
BRANCH  18  19
ATOM     19  C   UNL     1       2.976   7.297  -3.021  1.00  0.00     0.000 C 
BRANCH  19  20
ATOM     20  C   UNL     1       3.872   7.253  -1.769  1.00  0.00     0.000 C 
BRANCH  20  21
ATOM     21  C   UNL     1       5.286   7.800  -2.033  1.00  0.00     0.000 C 
BRANCH  21  22
ATOM     22  C   UNL     1       6.299   6.692  -2.366  1.00  0.00    -0.000 C 
BRANCH  22  23
ATOM     23  C   UNL     1       5.932   5.808  -3.575  1.00  0.00    -0.000 C 
BRANCH  23  24
ATOM     24  C   UNL     1       5.723   4.320  -3.222  1.00  0.00    -0.000 C 
BRANCH  24  25
ATOM     25  C   UNL     1       7.055   3.562  -3.072  1.00  0.00    -0.000 C 
BRANCH  25  26
ATOM     26  C   UNL     1       6.953   2.084  -3.492  1.00  0.00    -0.000 C 
BRANCH  26  27
ATOM     27  C   UNL     1       7.451   1.773  -4.918  1.00  0.00    -0.000 C 
BRANCH  27  28
ATOM     28  C   UNL     1       6.343   1.543  -5.962  1.00  0.00    -0.000 C 
BRANCH  28  29
ATOM     29  C   UNL     1       5.734   2.854  -6.483  1.00  0.00    -0.003 C 
ATOM     30  C   UNL     1       4.312   2.635  -6.990  1.00  0.00     0.004 C 
ENDBRANCH  28  29
ENDBRANCH  27  28
ENDBRANCH  26  27
ENDBRANCH  25  26
ENDBRANCH  24  25
ENDBRANCH  23  24
ENDBRANCH  22  23
ENDBRANCH  21  22
ENDBRANCH  20  21
ENDBRANCH  19  20
ENDBRANCH  18  19
ENDBRANCH  17  18
ENDBRANCH   1  17
TORSDOF 26
ENDMDL
MODEL 6
REMARK VINA RESULT:    20.519      1.857      3.127
REMARK INTER + INTRA:          51.720
REMARK INTER:                  51.563
REMARK INTRA:                   0.157
REMARK UNBOUND:                 0.013
REMARK SMILES CCCCCCCCCCCCCCCCCCCCCCCCCCCC(=O)[O-]
REMARK SMILES IDX 15 1 16 2 17 3 18 4 19 5 20 6 21 7 22 8 23 9 24 10 25 11
REMARK SMILES IDX 26 12 27 13 28 14 29 15 30 16 14 17 13 18 12 19 11 20 10 21
REMARK SMILES IDX 9 22 8 23 7 24 6 25 5 26 4 27 3 28 2 29 1 30
REMARK H PARENT
REMARK Flexibility Score: inf
ROOT
ATOM      1  C   UNL     1      -0.071   8.842  -7.018  1.00  0.00     0.000 C 
ENDROOT
BRANCH   1   2
ATOM      2  C   UNL     1       0.790   8.326  -8.185  1.00  0.00     0.000 C 
BRANCH   2   3
ATOM      3  C   UNL     1       2.278   8.204  -7.822  1.00  0.00     0.000 C 
BRANCH   3   4
ATOM      4  C   UNL     1       3.112   9.389  -8.341  1.00  0.00     0.000 C 
BRANCH   4   5
ATOM      5  C   UNL     1       2.763   9.785  -9.788  1.00  0.00     0.000 C 
BRANCH   5   6
ATOM      6  C   UNL     1       3.889   9.580 -10.821  1.00  0.00     0.000 C 
BRANCH   6   7
ATOM      7  C   UNL     1       3.426   9.807 -12.270  1.00  0.00     0.000 C 
BRANCH   7   8
ATOM      8  C   UNL     1       2.386  10.935 -12.399  1.00  0.00     0.000 C 
BRANCH   8   9
ATOM      9  C   UNL     1       2.359  11.655 -13.762  1.00  0.00     0.000 C 
BRANCH   9  10
ATOM     10  C   UNL     1       1.135  11.343 -14.645  1.00  0.00     0.000 C 
BRANCH  10  11
ATOM     11  C   UNL     1       0.062  10.461 -13.979  1.00  0.00     0.000 C 
BRANCH  11  12
ATOM     12  C   UNL     1       0.627   9.140 -13.437  1.00  0.00     0.006 C 
BRANCH  12  13
ATOM     13  C   UNL     1      -0.402   8.013 -13.567  1.00  0.00     0.053 C 
BRANCH  13  14
ATOM     14  C   UNL     1      -0.860   7.551 -12.220  1.00  0.00     0.041 C 
ATOM     15  O   UNL     1      -1.488   6.467 -12.102  1.00  0.00    -0.550 OA
ATOM     16  O   UNL     1      -0.589   8.318 -11.090  1.00  0.00    -0.550 OA
ENDBRANCH  13  14
ENDBRANCH  12  13
ENDBRANCH  11  12
ENDBRANCH  10  11
ENDBRANCH   9  10
ENDBRANCH   8   9
ENDBRANCH   7   8
ENDBRANCH   6   7
ENDBRANCH   5   6
ENDBRANCH   4   5
ENDBRANCH   3   4
ENDBRANCH   2   3
ENDBRANCH   1   2
BRANCH   1  17
ATOM     17  C   UNL     1       0.765   9.194  -5.775  1.00  0.00     0.000 C 
BRANCH  17  18
ATOM     18  C   UNL     1       0.052   8.836  -4.459  1.00  0.00     0.000 C 
BRANCH  18  19
ATOM     19  C   UNL     1       0.275   7.371  -4.042  1.00  0.00     0.000 C 
BRANCH  19  20
ATOM     20  C   UNL     1       1.228   7.173  -2.849  1.00  0.00     0.000 C 
BRANCH  20  21
ATOM     21  C   UNL     1       2.706   7.120  -3.273  1.00  0.00     0.000 C 
BRANCH  21  22
ATOM     22  C   UNL     1       3.671   7.217  -2.080  1.00  0.00    -0.000 C 
BRANCH  22  23
ATOM     23  C   UNL     1       4.725   8.339  -2.176  1.00  0.00    -0.000 C 
BRANCH  23  24
ATOM     24  C   UNL     1       6.086   7.976  -1.543  1.00  0.00    -0.000 C 
BRANCH  24  25
ATOM     25  C   UNL     1       6.602   6.605  -2.013  1.00  0.00    -0.000 C 
BRANCH  25  26
ATOM     26  C   UNL     1       6.025   6.183  -3.377  1.00  0.00    -0.000 C 
BRANCH  26  27
ATOM     27  C   UNL     1       5.622   4.698  -3.485  1.00  0.00    -0.000 C 
BRANCH  27  28
ATOM     28  C   UNL     1       6.416   3.879  -4.518  1.00  0.00    -0.000 C 
BRANCH  28  29
ATOM     29  C   UNL     1       6.873   2.516  -3.974  1.00  0.00    -0.003 C 
ATOM     30  C   UNL     1       7.521   2.662  -2.601  1.00  0.00     0.004 C 
ENDBRANCH  28  29
ENDBRANCH  27  28
ENDBRANCH  26  27
ENDBRANCH  25  26
ENDBRANCH  24  25
ENDBRANCH  23  24
ENDBRANCH  22  23
ENDBRANCH  21  22
ENDBRANCH  20  21
ENDBRANCH  19  20
ENDBRANCH  18  19
ENDBRANCH  17  18
ENDBRANCH   1  17
TORSDOF 26
ENDMDL
MODEL 7
REMARK VINA RESULT:    20.778      3.856      6.678
REMARK INTER + INTRA:          52.372
REMARK INTER:                  53.362
REMARK INTRA:                  -0.990
REMARK UNBOUND:                 0.013
REMARK SMILES CCCCCCCCCCCCCCCCCCCCCCCCCCCC(=O)[O-]
REMARK SMILES IDX 15 1 16 2 17 3 18 4 19 5 20 6 21 7 22 8 23 9 24 10 25 11
REMARK SMILES IDX 26 12 27 13 28 14 29 15 30 16 14 17 13 18 12 19 11 20 10 21
REMARK SMILES IDX 9 22 8 23 7 24 6 25 5 26 4 27 3 28 2 29 1 30
REMARK H PARENT
REMARK Flexibility Score: inf
ROOT
ATOM      1  C   UNL     1       0.498   8.829  -5.812  1.00  0.00     0.000 C 
ENDROOT
BRANCH   1   2
ATOM      2  C   UNL     1       1.755   8.795  -6.700  1.00  0.00     0.000 C 
BRANCH   2   3
ATOM      3  C   UNL     1       1.452   8.384  -8.150  1.00  0.00     0.000 C 
BRANCH   3   4
ATOM      4  C   UNL     1      -0.051   8.429  -8.476  1.00  0.00     0.000 C 
BRANCH   4   5
ATOM      5  C   UNL     1      -0.338   8.648  -9.974  1.00  0.00     0.000 C 
BRANCH   5   6
ATOM      6  C   UNL     1      -0.247   7.387 -10.856  1.00  0.00     0.000 C 
BRANCH   6   7
ATOM      7  C   UNL     1      -1.051   7.506 -12.163  1.00  0.00     0.000 C 
BRANCH   7   8
ATOM      8  C   UNL     1      -0.171   7.841 -13.381  1.00  0.00     0.000 C 
BRANCH   8   9
ATOM      9  C   UNL     1       0.899   8.925 -13.145  1.00  0.00     0.000 C 
BRANCH   9  10
ATOM     10  C   UNL     1       2.333   8.531 -13.550  1.00  0.00     0.000 C 
BRANCH  10  11
ATOM     11  C   UNL     1       3.447   9.165 -12.696  1.00  0.00     0.000 C 
BRANCH  11  12
ATOM     12  C   UNL     1       2.912   9.843 -11.426  1.00  0.00     0.006 C 
BRANCH  12  13
ATOM     13  C   UNL     1       3.474  11.261 -11.287  1.00  0.00     0.053 C 
BRANCH  13  14
ATOM     14  C   UNL     1       3.121  12.093 -12.479  1.00  0.00     0.041 C 
ATOM     15  O   UNL     1       3.667  13.213 -12.653  1.00  0.00    -0.550 OA
ATOM     16  O   UNL     1       2.189  11.628 -13.402  1.00  0.00    -0.550 OA
ENDBRANCH  13  14
ENDBRANCH  12  13
ENDBRANCH  11  12
ENDBRANCH  10  11
ENDBRANCH   9  10
ENDBRANCH   8   9
ENDBRANCH   7   8
ENDBRANCH   6   7
ENDBRANCH   5   6
ENDBRANCH   4   5
ENDBRANCH   3   4
ENDBRANCH   2   3
ENDBRANCH   1   2
BRANCH   1  17
ATOM     17  C   UNL     1       0.517   7.749  -4.717  1.00  0.00     0.000 C 
BRANCH  17  18
ATOM     18  C   UNL     1       0.154   8.305  -3.329  1.00  0.00     0.000 C 
BRANCH  18  19
ATOM     19  C   UNL     1      -0.470   9.711  -3.396  1.00  0.00     0.000 C 
BRANCH  19  20
ATOM     20  C   UNL     1      -0.934  10.282  -2.043  1.00  0.00     0.000 C 
BRANCH  20  21
ATOM     21  C   UNL     1      -1.571  11.677  -2.175  1.00  0.00     0.000 C 
BRANCH  21  22
ATOM     22  C   UNL     1      -0.950  12.707  -1.217  1.00  0.00    -0.000 C 
BRANCH  22  23
ATOM     23  C   UNL     1      -0.702  14.103  -1.823  1.00  0.00    -0.000 C 
BRANCH  23  24
ATOM     24  C   UNL     1      -0.348  15.185  -0.781  1.00  0.00    -0.000 C 
BRANCH  24  25
ATOM     25  C   UNL     1       0.951  15.932  -1.133  1.00  0.00    -0.000 C 
BRANCH  25  26
ATOM     26  C   UNL     1       1.050  16.290  -2.628  1.00  0.00    -0.000 C 
BRANCH  26  27
ATOM     27  C   UNL     1       2.480  16.539  -3.148  1.00  0.00    -0.000 C 
BRANCH  27  28
ATOM     28  C   UNL     1       2.837  15.808  -4.455  1.00  0.00    -0.000 C 
BRANCH  28  29
ATOM     29  C   UNL     1       1.606  15.503  -5.322  1.00  0.00    -0.003 C 
ATOM     30  C   UNL     1       1.673  14.089  -5.890  1.00  0.00     0.004 C 
ENDBRANCH  28  29
ENDBRANCH  27  28
ENDBRANCH  26  27
ENDBRANCH  25  26
ENDBRANCH  24  25
ENDBRANCH  23  24
ENDBRANCH  22  23
ENDBRANCH  21  22
ENDBRANCH  20  21
ENDBRANCH  19  20
ENDBRANCH  18  19
ENDBRANCH  17  18
ENDBRANCH   1  17
TORSDOF 26
ENDMDL
MODEL 8
REMARK VINA RESULT:    20.917      4.000     10.450
REMARK INTER + INTRA:          52.722
REMARK INTER:                  52.737
REMARK INTRA:                  -0.015
REMARK UNBOUND:                 0.013
REMARK SMILES CCCCCCCCCCCCCCCCCCCCCCCCCCCC(=O)[O-]
REMARK SMILES IDX 15 1 16 2 17 3 18 4 19 5 20 6 21 7 22 8 23 9 24 10 25 11
REMARK SMILES IDX 26 12 27 13 28 14 29 15 30 16 14 17 13 18 12 19 11 20 10 21
REMARK SMILES IDX 9 22 8 23 7 24 6 25 5 26 4 27 3 28 2 29 1 30
REMARK H PARENT
REMARK Flexibility Score: inf
ROOT
ATOM      1  C   UNL     1       0.417   9.576  -5.445  1.00  0.00     0.000 C 
ENDROOT
BRANCH   1   2
ATOM      2  C   UNL     1       0.113   8.968  -4.063  1.00  0.00     0.000 C 
BRANCH   2   3
ATOM      3  C   UNL     1      -0.241   7.474  -4.132  1.00  0.00     0.000 C 
BRANCH   3   4
ATOM      4  C   UNL     1       0.869   6.576  -3.557  1.00  0.00     0.000 C 
BRANCH   4   5
ATOM      5  C   UNL     1       1.549   7.179  -2.313  1.00  0.00     0.000 C 
BRANCH   5   6
ATOM      6  C   UNL     1       3.064   6.916  -2.192  1.00  0.00     0.000 C 
BRANCH   6   7
ATOM      7  C   UNL     1       3.898   7.720  -3.205  1.00  0.00     0.000 C 
BRANCH   7   8
ATOM      8  C   UNL     1       5.192   8.291  -2.598  1.00  0.00     0.000 C 
BRANCH   8   9
ATOM      9  C   UNL     1       6.051   7.284  -1.807  1.00  0.00     0.000 C 
BRANCH   9  10
ATOM     10  C   UNL     1       6.453   6.014  -2.582  1.00  0.00     0.000 C 
BRANCH  10  11
ATOM     11  C   UNL     1       5.528   5.651  -3.758  1.00  0.00     0.000 C 
BRANCH  11  12
ATOM     12  C   UNL     1       5.752   4.222  -4.275  1.00  0.00     0.006 C 
BRANCH  12  13
ATOM     13  C   UNL     1       7.156   3.726  -3.915  1.00  0.00     0.053 C 
BRANCH  13  14
ATOM     14  C   UNL     1       7.085   2.549  -2.994  1.00  0.00     0.041 C 
ATOM     15  O   UNL     1       6.294   1.601  -3.238  1.00  0.00    -0.550 OA
ATOM     16  O   UNL     1       7.896   2.497  -1.864  1.00  0.00    -0.550 OA
ENDBRANCH  13  14
ENDBRANCH  12  13
ENDBRANCH  11  12
ENDBRANCH  10  11
ENDBRANCH   9  10
ENDBRANCH   8   9
ENDBRANCH   7   8
ENDBRANCH   6   7
ENDBRANCH   5   6
ENDBRANCH   4   5
ENDBRANCH   3   4
ENDBRANCH   2   3
ENDBRANCH   1   2
BRANCH   1  17
ATOM     17  C   UNL     1       1.478   8.779  -6.222  1.00  0.00     0.000 C 
BRANCH  17  18
ATOM     18  C   UNL     1       0.866   7.657  -7.080  1.00  0.00     0.000 C 
BRANCH  18  19
ATOM     19  C   UNL     1       0.793   8.024  -8.574  1.00  0.00     0.000 C 
BRANCH  19  20
ATOM     20  C   UNL     1      -0.275   9.073  -8.934  1.00  0.00     0.000 C 
BRANCH  20  21
ATOM     21  C   UNL     1      -1.088   8.687 -10.182  1.00  0.00     0.000 C 
BRANCH  21  22
ATOM     22  C   UNL     1      -0.302   7.783 -11.147  1.00  0.00    -0.000 C 
BRANCH  22  23
ATOM     23  C   UNL     1      -0.866   7.705 -12.581  1.00  0.00    -0.000 C 
BRANCH  23  24
ATOM     24  C   UNL     1       0.134   8.141 -13.672  1.00  0.00    -0.000 C 
BRANCH  24  25
ATOM     25  C   UNL     1       1.590   7.815 -13.295  1.00  0.00    -0.000 C 
BRANCH  25  26
ATOM     26  C   UNL     1       2.511   9.048 -13.341  1.00  0.00    -0.000 C 
BRANCH  26  27
ATOM     27  C   UNL     1       2.823   9.682 -11.969  1.00  0.00    -0.000 C 
BRANCH  27  28
ATOM     28  C   UNL     1       2.780  11.220 -11.935  1.00  0.00    -0.000 C 
BRANCH  28  29
ATOM     29  C   UNL     1       2.727  11.846 -13.337  1.00  0.00    -0.003 C 
ATOM     30  C   UNL     1       1.399  11.543 -14.023  1.00  0.00     0.004 C 
ENDBRANCH  28  29
ENDBRANCH  27  28
ENDBRANCH  26  27
ENDBRANCH  25  26
ENDBRANCH  24  25
ENDBRANCH  23  24
ENDBRANCH  22  23
ENDBRANCH  21  22
ENDBRANCH  20  21
ENDBRANCH  19  20
ENDBRANCH  18  19
ENDBRANCH  17  18
ENDBRANCH   1  17
TORSDOF 26
ENDMDL
MODEL 9
REMARK VINA RESULT:    21.018      4.187     10.476
REMARK INTER + INTRA:          52.979
REMARK INTER:                  52.458
REMARK INTRA:                   0.520
REMARK UNBOUND:                 0.013
REMARK SMILES CCCCCCCCCCCCCCCCCCCCCCCCCCCC(=O)[O-]
REMARK SMILES IDX 15 1 16 2 17 3 18 4 19 5 20 6 21 7 22 8 23 9 24 10 25 11
REMARK SMILES IDX 26 12 27 13 28 14 29 15 30 16 14 17 13 18 12 19 11 20 10 21
REMARK SMILES IDX 9 22 8 23 7 24 6 25 5 26 4 27 3 28 2 29 1 30
REMARK H PARENT
REMARK Flexibility Score: inf
ROOT
ATOM      1  C   UNL     1       0.985   8.926  -5.948  1.00  0.00     0.000 C 
ENDROOT
BRANCH   1   2
ATOM      2  C   UNL     1       0.114   8.726  -4.694  1.00  0.00     0.000 C 
BRANCH   2   3
ATOM      3  C   UNL     1       0.302   7.343  -4.049  1.00  0.00     0.000 C 
BRANCH   3   4
ATOM      4  C   UNL     1       1.309   7.366  -2.885  1.00  0.00     0.000 C 
BRANCH   4   5
ATOM      5  C   UNL     1       2.750   7.052  -3.327  1.00  0.00     0.000 C 
BRANCH   5   6
ATOM      6  C   UNL     1       3.767   6.859  -2.184  1.00  0.00     0.000 C 
BRANCH   6   7
ATOM      7  C   UNL     1       4.576   8.131  -1.875  1.00  0.00     0.000 C 
BRANCH   7   8
ATOM      8  C   UNL     1       6.094   7.877  -1.813  1.00  0.00     0.000 C 
BRANCH   8   9
ATOM      9  C   UNL     1       6.557   6.510  -2.355  1.00  0.00     0.000 C 
BRANCH   9  10
ATOM     10  C   UNL     1       5.476   5.696  -3.094  1.00  0.00     0.000 C 
BRANCH  10  11
ATOM     11  C   UNL     1       5.877   5.211  -4.499  1.00  0.00     0.000 C 
BRANCH  11  12
ATOM     12  C   UNL     1       6.721   3.928  -4.470  1.00  0.00     0.006 C 
BRANCH  12  13
ATOM     13  C   UNL     1       6.134   2.912  -3.486  1.00  0.00     0.053 C 
BRANCH  13  14
ATOM     14  C   UNL     1       7.216   2.261  -2.684  1.00  0.00     0.041 C 
ATOM     15  O   UNL     1       7.519   1.057  -2.890  1.00  0.00    -0.550 OA
ATOM     16  O   UNL     1       7.894   2.986  -1.708  1.00  0.00    -0.550 OA
ENDBRANCH  13  14
ENDBRANCH  12  13
ENDBRANCH  11  12
ENDBRANCH  10  11
ENDBRANCH   9  10
ENDBRANCH   8   9
ENDBRANCH   7   8
ENDBRANCH   6   7
ENDBRANCH   5   6
ENDBRANCH   4   5
ENDBRANCH   3   4
ENDBRANCH   2   3
ENDBRANCH   1   2
BRANCH   1  17
ATOM     17  C   UNL     1       0.282   8.467  -7.237  1.00  0.00     0.000 C 
BRANCH  17  18
ATOM     18  C   UNL     1       1.230   8.426  -8.448  1.00  0.00     0.000 C 
BRANCH  18  19
ATOM     19  C   UNL     1       2.700   8.671  -8.060  1.00  0.00     0.000 C 
BRANCH  19  20
ATOM     20  C   UNL     1       3.512   9.494  -9.077  1.00  0.00     0.000 C 
BRANCH  20  21
ATOM     21  C   UNL     1       2.694   9.865 -10.327  1.00  0.00     0.000 C 
BRANCH  21  22
ATOM     22  C   UNL     1       3.556  10.485 -11.439  1.00  0.00    -0.000 C 
BRANCH  22  23
ATOM     23  C   UNL     1       2.867  11.589 -12.267  1.00  0.00    -0.000 C 
BRANCH  23  24
ATOM     24  C   UNL     1       2.470  11.147 -13.692  1.00  0.00    -0.000 C 
BRANCH  24  25
ATOM     25  C   UNL     1       1.060  10.532 -13.741  1.00  0.00    -0.000 C 
BRANCH  25  26
ATOM     26  C   UNL     1       1.044   9.039 -13.366  1.00  0.00    -0.000 C 
BRANCH  26  27
ATOM     27  C   UNL     1      -0.325   8.343 -13.508  1.00  0.00    -0.000 C 
BRANCH  27  28
ATOM     28  C   UNL     1      -0.945   7.846 -12.190  1.00  0.00    -0.000 C 
BRANCH  28  29
ATOM     29  C   UNL     1      -0.622   6.373 -11.898  1.00  0.00    -0.003 C 
ATOM     30  C   UNL     1      -1.888   5.522 -11.904  1.00  0.00     0.004 C 
ENDBRANCH  28  29
ENDBRANCH  27  28
ENDBRANCH  26  27
ENDBRANCH  25  26
ENDBRANCH  24  25
ENDBRANCH  23  24
ENDBRANCH  22  23
ENDBRANCH  21  22
ENDBRANCH  20  21
ENDBRANCH  19  20
ENDBRANCH  18  19
ENDBRANCH  17  18
ENDBRANCH   1  17
TORSDOF 26
ENDMDL
