MODEL 1
REMARK VINA RESULT:    -6.383      0.000      0.000
REMARK INTER + INTRA:         -11.582
REMARK INTER:                  -9.742
REMARK INTRA:                  -1.840
REMARK UNBOUND:                -1.840
REMARK SMILES COc1cc(C=CC(=O)CC(=O)C=Cc2ccc(O)c(OC)c2)ccc1O
REMARK SMILES IDX 10 1 8 2 9 3 7 4 6 5 5 6 3 7 26 8 4 9 25 10 24 11 2 12 1 13
REMARK SMILES IDX 27 14 11 16 12 17 13 18 14 19 15 20 23 21 16 22 20 23 17 24
REMARK SMILES IDX 18 25 21 26 22 27 19 28
REMARK H PARENT 27 15 19 29
REMARK Flexibility Score: inf
ROOT
ATOM      1  C   UNL     1      -1.359  16.073  47.378  1.00  0.00     0.160 C 
ENDROOT
BRANCH   1   2
ATOM      2  C   UNL     1      -0.357  16.818  46.526  1.00  0.00     0.163 C 
ATOM      3  O   UNL     1      -0.755  17.537  45.570  1.00  0.00    -0.294 OA
BRANCH   2   4
ATOM      4  C   UNL     1       1.099  16.728  46.770  1.00  0.00     0.048 C 
ATOM      5  C   UNL     1       1.785  17.632  47.483  1.00  0.00     0.012 C 
BRANCH   5   6
ATOM      6  C   UNL     1       3.244  17.538  47.739  1.00  0.00    -0.022 A 
ATOM      7  C   UNL     1       5.412  18.530  48.297  1.00  0.00     0.161 A 
ATOM      8  C   UNL     1       6.000  17.259  48.241  1.00  0.00     0.157 A 
ATOM      9  C   UNL     1       4.032  18.664  48.051  1.00  0.00     0.058 A 
ATOM     10  C   UNL     1       5.218  16.135  47.950  1.00  0.00     0.051 A 
ATOM     11  C   UNL     1       3.850  16.274  47.707  1.00  0.00     0.012 A 
BRANCH   7  12
ATOM     12  O   UNL     1       6.230  19.628  48.603  1.00  0.00    -0.493 OA
ATOM     13  C   UNL     1       5.779  20.815  49.250  1.00  0.00     0.278 C 
ENDBRANCH   7  12
BRANCH   8  14
ATOM     14  O   UNL     1       7.366  17.120  48.481  1.00  0.00    -0.504 OA
ATOM     15  H   UNL     1       8.045  17.747  48.064  1.00  0.00     0.293 HD
ENDBRANCH   8  14
ENDBRANCH   5   6
ENDBRANCH   2   4
ENDBRANCH   1   2
BRANCH   1  16
ATOM     16  C   UNL     1      -1.711  16.817  48.634  1.00  0.00     0.163 C 
ATOM     17  O   UNL     1      -0.951  16.723  49.636  1.00  0.00    -0.294 OA
BRANCH  16  18
ATOM     18  C   UNL     1      -2.876  17.730  48.647  1.00  0.00     0.048 C 
ATOM     19  C   UNL     1      -2.827  19.059  48.465  1.00  0.00     0.012 C 
BRANCH  19  20
ATOM     20  C   UNL     1      -1.592  19.868  48.404  1.00  0.00    -0.022 A 
ATOM     21  C   UNL     1      -1.180  20.400  47.173  1.00  0.00     0.058 A 
ATOM     22  C   UNL     1      -0.880  20.195  49.569  1.00  0.00     0.012 A 
ATOM     23  C   UNL     1      -0.033  21.214  47.092  1.00  0.00     0.161 A 
ATOM     24  C   UNL     1       0.258  21.001  49.495  1.00  0.00     0.051 A 
ATOM     25  C   UNL     1       0.685  21.508  48.260  1.00  0.00     0.157 A 
BRANCH  23  26
ATOM     26  O   UNL     1       0.421  21.749  45.876  1.00  0.00    -0.493 OA
ATOM     27  C   UNL     1      -0.066  22.954  45.294  1.00  0.00     0.278 C 
ENDBRANCH  23  26
BRANCH  25  28
ATOM     28  O   UNL     1       1.823  22.310  48.187  1.00  0.00    -0.504 OA
ATOM     29  H   UNL     1       2.608  22.066  47.595  1.00  0.00     0.293 HD
ENDBRANCH  25  28
ENDBRANCH  19  20
ENDBRANCH  16  18
ENDBRANCH   1  16
TORSDOF 10
ENDMDL
MODEL 2
REMARK VINA RESULT:    -6.383      1.004      1.903
REMARK INTER + INTRA:         -11.581
REMARK INTER:                  -9.791
REMARK INTRA:                  -1.790
REMARK UNBOUND:                -1.840
REMARK SMILES COc1cc(C=CC(=O)CC(=O)C=Cc2ccc(O)c(OC)c2)ccc1O
REMARK SMILES IDX 10 1 8 2 9 3 7 4 6 5 5 6 3 7 26 8 4 9 25 10 24 11 2 12 1 13
REMARK SMILES IDX 27 14 11 16 12 17 13 18 14 19 15 20 23 21 16 22 20 23 17 24
REMARK SMILES IDX 18 25 21 26 22 27 19 28
REMARK H PARENT 27 15 19 29
REMARK Flexibility Score: inf
ROOT
ATOM      1  C   UNL     1      -1.259  15.899  47.341  1.00  0.00     0.160 C 
ENDROOT
BRANCH   1   2
ATOM      2  C   UNL     1      -0.282  16.618  46.440  1.00  0.00     0.163 C 
ATOM      3  O   UNL     1      -0.704  17.281  45.454  1.00  0.00    -0.294 OA
BRANCH   2   4
ATOM      4  C   UNL     1       1.179  16.565  46.669  1.00  0.00     0.048 C 
ATOM      5  C   UNL     1       1.827  17.402  47.492  1.00  0.00     0.012 C 
BRANCH   5   6
ATOM      6  C   UNL     1       3.290  17.344  47.733  1.00  0.00    -0.022 A 
ATOM      7  C   UNL     1       5.418  18.363  48.386  1.00  0.00     0.161 A 
ATOM      8  C   UNL     1       6.059  17.132  48.194  1.00  0.00     0.157 A 
ATOM      9  C   UNL     1       4.031  18.464  48.160  1.00  0.00     0.058 A 
ATOM     10  C   UNL     1       5.323  16.013  47.787  1.00  0.00     0.051 A 
ATOM     11  C   UNL     1       3.949  16.118  47.564  1.00  0.00     0.012 A 
BRANCH   7  12
ATOM     12  O   UNL     1       6.191  19.458  48.806  1.00  0.00    -0.493 OA
ATOM     13  C   UNL     1       6.677  20.481  47.943  1.00  0.00     0.278 C 
ENDBRANCH   7  12
BRANCH   8  14
ATOM     14  O   UNL     1       7.432  17.028  48.414  1.00  0.00    -0.504 OA
ATOM     15  H   UNL     1       7.967  17.797  48.800  1.00  0.00     0.293 HD
ENDBRANCH   8  14
ENDBRANCH   5   6
ENDBRANCH   2   4
ENDBRANCH   1   2
BRANCH   1  16
ATOM     16  C   UNL     1      -1.726  16.756  48.483  1.00  0.00     0.163 C 
ATOM     17  O   UNL     1      -1.059  16.770  49.552  1.00  0.00    -0.294 OA
BRANCH  16  18
ATOM     18  C   UNL     1      -2.892  17.649  48.302  1.00  0.00     0.048 C 
ATOM     19  C   UNL     1      -2.839  18.984  48.168  1.00  0.00     0.012 C 
BRANCH  19  20
ATOM     20  C   UNL     1      -1.632  19.814  48.359  1.00  0.00    -0.022 A 
ATOM     21  C   UNL     1      -1.289  20.241  49.650  1.00  0.00     0.058 A 
ATOM     22  C   UNL     1      -0.770  20.098  47.287  1.00  0.00     0.012 A 
ATOM     23  C   UNL     1      -0.118  20.995  49.868  1.00  0.00     0.161 A 
ATOM     24  C   UNL     1       0.391  20.844  47.498  1.00  0.00     0.051 A 
ATOM     25  C   UNL     1       0.718  21.296  48.784  1.00  0.00     0.157 A 
BRANCH  23  26
ATOM     26  O   UNL     1       0.248  21.456  51.143  1.00  0.00    -0.493 OA
ATOM     27  C   UNL     1      -0.303  22.608  51.772  1.00  0.00     0.278 C 
ENDBRANCH  23  26
BRANCH  25  28
ATOM     28  O   UNL     1       1.876  22.044  48.991  1.00  0.00    -0.504 OA
ATOM     29  H   UNL     1       2.147  22.788  48.361  1.00  0.00     0.293 HD
ENDBRANCH  25  28
ENDBRANCH  19  20
ENDBRANCH  16  18
ENDBRANCH   1  16
TORSDOF 10
ENDMDL
MODEL 3
REMARK VINA RESULT:    -6.327      1.409      2.030
REMARK INTER + INTRA:         -11.496
REMARK INTER:                 -10.306
REMARK INTRA:                  -1.190
REMARK UNBOUND:                -1.840
REMARK SMILES COc1cc(C=CC(=O)CC(=O)C=Cc2ccc(O)c(OC)c2)ccc1O
REMARK SMILES IDX 10 1 8 2 9 3 7 4 6 5 5 6 3 7 26 8 4 9 25 10 24 11 2 12 1 13
REMARK SMILES IDX 27 14 11 16 12 17 13 18 14 19 15 20 23 21 16 22 20 23 17 24
REMARK SMILES IDX 18 25 21 26 22 27 19 28
REMARK H PARENT 27 15 19 29
REMARK Flexibility Score: inf
ROOT
ATOM      1  C   UNL     1      -1.249  16.251  47.642  1.00  0.00     0.160 C 
ENDROOT
BRANCH   1   2
ATOM      2  C   UNL     1      -0.226  17.034  46.852  1.00  0.00     0.163 C 
ATOM      3  O   UNL     1      -0.569  17.637  45.800  1.00  0.00    -0.294 OA
BRANCH   2   4
ATOM      4  C   UNL     1       1.192  17.112  47.268  1.00  0.00     0.048 C 
ATOM      5  C   UNL     1       2.195  16.549  46.578  1.00  0.00     0.012 C 
BRANCH   5   6
ATOM      6  C   UNL     1       3.619  16.636  46.986  1.00  0.00    -0.022 A 
ATOM      7  C   UNL     1       6.013  16.335  46.567  1.00  0.00     0.161 A 
ATOM      8  C   UNL     1       6.294  16.866  47.833  1.00  0.00     0.157 A 
ATOM      9  C   UNL     1       4.673  16.226  46.145  1.00  0.00     0.058 A 
ATOM     10  C   UNL     1       5.251  17.292  48.664  1.00  0.00     0.051 A 
ATOM     11  C   UNL     1       3.925  17.182  48.240  1.00  0.00     0.012 A 
BRANCH   7  12
ATOM     12  O   UNL     1       7.088  15.931  45.760  1.00  0.00    -0.493 OA
ATOM     13  C   UNL     1       7.721  16.757  44.787  1.00  0.00     0.278 C 
ENDBRANCH   7  12
BRANCH   8  14
ATOM     14  O   UNL     1       7.618  16.974  48.257  1.00  0.00    -0.504 OA
ATOM     15  H   UNL     1       7.899  16.700  49.191  1.00  0.00     0.293 HD
ENDBRANCH   8  14
ENDBRANCH   5   6
ENDBRANCH   2   4
ENDBRANCH   1   2
BRANCH   1  16
ATOM     16  C   UNL     1      -1.963  17.099  48.656  1.00  0.00     0.163 C 
ATOM     17  O   UNL     1      -1.405  17.334  49.762  1.00  0.00    -0.294 OA
BRANCH  16  18
ATOM     18  C   UNL     1      -3.254  17.733  48.306  1.00  0.00     0.048 C 
ATOM     19  C   UNL     1      -3.448  19.045  48.102  1.00  0.00     0.012 C 
BRANCH  19  20
ATOM     20  C   UNL     1      -2.456  20.107  48.367  1.00  0.00    -0.022 A 
ATOM     21  C   UNL     1      -1.608  20.528  47.332  1.00  0.00     0.058 A 
ATOM     22  C   UNL     1      -2.415  20.770  49.604  1.00  0.00     0.012 A 
ATOM     23  C   UNL     1      -0.684  21.570  47.542  1.00  0.00     0.161 A 
ATOM     24  C   UNL     1      -1.501  21.804  49.817  1.00  0.00     0.051 A 
ATOM     25  C   UNL     1      -0.633  22.203  48.792  1.00  0.00     0.157 A 
BRANCH  23  26
ATOM     26  O   UNL     1       0.194  22.006  46.536  1.00  0.00    -0.493 OA
ATOM     27  C   UNL     1       1.478  21.442  46.286  1.00  0.00     0.278 C 
ENDBRANCH  23  26
BRANCH  25  28
ATOM     28  O   UNL     1       0.280  23.233  49.008  1.00  0.00    -0.504 OA
ATOM     29  H   UNL     1       0.643  23.791  48.244  1.00  0.00     0.293 HD
ENDBRANCH  25  28
ENDBRANCH  19  20
ENDBRANCH  16  18
ENDBRANCH   1  16
TORSDOF 10
ENDMDL
MODEL 4
REMARK VINA RESULT:    -6.229      3.281      7.625
REMARK INTER + INTRA:         -11.346
REMARK INTER:                  -9.669
REMARK INTRA:                  -1.677
REMARK UNBOUND:                -1.840
REMARK SMILES COc1cc(C=CC(=O)CC(=O)C=Cc2ccc(O)c(OC)c2)ccc1O
REMARK SMILES IDX 10 1 8 2 9 3 7 4 6 5 5 6 3 7 26 8 4 9 25 10 24 11 2 12 1 13
REMARK SMILES IDX 27 14 11 16 12 17 13 18 14 19 15 20 23 21 16 22 20 23 17 24
REMARK SMILES IDX 18 25 21 26 22 27 19 28
REMARK H PARENT 27 15 19 29
REMARK Flexibility Score: inf
ROOT
ATOM      1  C   UNL     1       5.519  17.355  48.732  1.00  0.00     0.160 C 
ENDROOT
BRANCH   1   2
ATOM      2  C   UNL     1       4.658  18.510  48.275  1.00  0.00     0.163 C 
ATOM      3  O   UNL     1       5.076  19.693  48.397  1.00  0.00    -0.294 OA
BRANCH   2   4
ATOM      4  C   UNL     1       3.316  18.303  47.689  1.00  0.00     0.048 C 
ATOM      5  C   UNL     1       2.836  17.096  47.353  1.00  0.00     0.012 C 
BRANCH   5   6
ATOM      6  C   UNL     1       1.485  16.884  46.776  1.00  0.00    -0.022 A 
ATOM      7  C   UNL     1      -0.951  17.119  46.827  1.00  0.00     0.161 A 
ATOM      8  C   UNL     1      -1.034  16.464  45.591  1.00  0.00     0.157 A 
ATOM      9  C   UNL     1       0.312  17.333  47.414  1.00  0.00     0.058 A 
ATOM     10  C   UNL     1       0.131  16.033  44.945  1.00  0.00     0.051 A 
ATOM     11  C   UNL     1       1.381  16.247  45.531  1.00  0.00     0.012 A 
BRANCH   7  12
ATOM     12  O   UNL     1      -2.143  17.546  47.435  1.00  0.00    -0.493 OA
ATOM     13  C   UNL     1      -2.494  17.288  48.791  1.00  0.00     0.278 C 
ENDBRANCH   7  12
BRANCH   8  14
ATOM     14  O   UNL     1      -2.281  16.248  45.007  1.00  0.00    -0.504 OA
ATOM     15  H   UNL     1      -2.425  15.517  44.319  1.00  0.00     0.293 HD
ENDBRANCH   8  14
ENDBRANCH   5   6
ENDBRANCH   2   4
ENDBRANCH   1   2
BRANCH   1  16
ATOM     16  C   UNL     1       6.520  16.938  47.693  1.00  0.00     0.163 C 
ATOM     17  O   UNL     1       7.700  17.376  47.767  1.00  0.00    -0.294 OA
BRANCH  16  18
ATOM     18  C   UNL     1       6.143  15.941  46.666  1.00  0.00     0.048 C 
ATOM     19  C   UNL     1       6.069  16.171  45.346  1.00  0.00     0.012 C 
BRANCH  19  20
ATOM     20  C   UNL     1       6.172  17.497  44.702  1.00  0.00    -0.022 A 
ATOM     21  C   UNL     1       7.357  17.849  44.039  1.00  0.00     0.058 A 
ATOM     22  C   UNL     1       5.072  18.369  44.657  1.00  0.00     0.012 A 
ATOM     23  C   UNL     1       7.467  19.088  43.377  1.00  0.00     0.161 A 
ATOM     24  C   UNL     1       5.175  19.598  44.002  1.00  0.00     0.051 A 
ATOM     25  C   UNL     1       6.370  19.961  43.366  1.00  0.00     0.157 A 
BRANCH  23  26
ATOM     26  O   UNL     1       8.642  19.483  42.719  1.00  0.00    -0.493 OA
ATOM     27  C   UNL     1       8.946  19.184  41.361  1.00  0.00     0.278 C 
ENDBRANCH  23  26
BRANCH  25  28
ATOM     28  O   UNL     1       6.472  21.189  42.715  1.00  0.00    -0.504 OA
ATOM     29  H   UNL     1       6.367  22.065  43.213  1.00  0.00     0.293 HD
ENDBRANCH  25  28
ENDBRANCH  19  20
ENDBRANCH  16  18
ENDBRANCH   1  16
TORSDOF 10
ENDMDL
MODEL 5
REMARK VINA RESULT:    -6.218      3.301      7.758
REMARK INTER + INTRA:         -11.329
REMARK INTER:                  -9.926
REMARK INTRA:                  -1.403
REMARK UNBOUND:                -1.840
REMARK SMILES COc1cc(C=CC(=O)CC(=O)C=Cc2ccc(O)c(OC)c2)ccc1O
REMARK SMILES IDX 10 1 8 2 9 3 7 4 6 5 5 6 3 7 26 8 4 9 25 10 24 11 2 12 1 13
REMARK SMILES IDX 27 14 11 16 12 17 13 18 14 19 15 20 23 21 16 22 20 23 17 24
REMARK SMILES IDX 18 25 21 26 22 27 19 28
REMARK H PARENT 27 15 19 29
REMARK Flexibility Score: inf
ROOT
ATOM      1  C   UNL     1       5.477  18.642  48.841  1.00  0.00     0.160 C 
ENDROOT
BRANCH   1   2
ATOM      2  C   UNL     1       4.825  17.366  48.360  1.00  0.00     0.163 C 
ATOM      3  O   UNL     1       5.469  16.283  48.383  1.00  0.00    -0.294 OA
BRANCH   2   4
ATOM      4  C   UNL     1       3.438  17.341  47.846  1.00  0.00     0.048 C 
ATOM      5  C   UNL     1       3.003  16.447  46.945  1.00  0.00     0.012 C 
BRANCH   5   6
ATOM      6  C   UNL     1       1.609  16.411  46.436  1.00  0.00    -0.022 A 
ATOM      7  C   UNL     1      -0.791  16.834  46.667  1.00  0.00     0.161 A 
ATOM      8  C   UNL     1      -0.997  16.333  45.374  1.00  0.00     0.157 A 
ATOM      9  C   UNL     1       0.515  16.877  47.192  1.00  0.00     0.058 A 
ATOM     10  C   UNL     1       0.089  15.887  44.613  1.00  0.00     0.051 A 
ATOM     11  C   UNL     1       1.382  15.931  45.138  1.00  0.00     0.012 A 
BRANCH   7  12
ATOM     12  O   UNL     1      -1.907  17.283  47.392  1.00  0.00    -0.493 OA
ATOM     13  C   UNL     1      -1.979  17.331  48.814  1.00  0.00     0.278 C 
ENDBRANCH   7  12
BRANCH   8  14
ATOM     14  O   UNL     1      -2.288  16.286  44.850  1.00  0.00    -0.504 OA
ATOM     15  H   UNL     1      -2.547  15.612  44.138  1.00  0.00     0.293 HD
ENDBRANCH   8  14
ENDBRANCH   5   6
ENDBRANCH   2   4
ENDBRANCH   1   2
BRANCH   1  16
ATOM     16  C   UNL     1       6.071  19.443  47.717  1.00  0.00     0.163 C 
ATOM     17  O   UNL     1       7.312  19.377  47.506  1.00  0.00    -0.294 OA
BRANCH  16  18
ATOM     18  C   UNL     1       5.185  20.206  46.810  1.00  0.00     0.048 C 
ATOM     19  C   UNL     1       4.946  19.911  45.522  1.00  0.00     0.012 C 
BRANCH  19  20
ATOM     20  C   UNL     1       5.660  18.886  44.734  1.00  0.00    -0.022 A 
ATOM     21  C   UNL     1       6.830  19.240  44.046  1.00  0.00     0.058 A 
ATOM     22  C   UNL     1       5.245  17.544  44.741  1.00  0.00     0.012 A 
ATOM     23  C   UNL     1       7.558  18.274  43.324  1.00  0.00     0.161 A 
ATOM     24  C   UNL     1       5.963  16.582  44.028  1.00  0.00     0.051 A 
ATOM     25  C   UNL     1       7.115  16.944  43.317  1.00  0.00     0.157 A 
BRANCH  23  26
ATOM     26  O   UNL     1       8.723  18.594  42.609  1.00  0.00    -0.493 OA
ATOM     27  C   UNL     1       8.756  19.426  41.453  1.00  0.00     0.278 C 
ENDBRANCH  23  26
BRANCH  25  28
ATOM     28  O   UNL     1       7.828  15.982  42.603  1.00  0.00    -0.504 OA
ATOM     29  H   UNL     1       8.580  15.454  43.029  1.00  0.00     0.293 HD
ENDBRANCH  25  28
ENDBRANCH  19  20
ENDBRANCH  16  18
ENDBRANCH   1  16
TORSDOF 10
ENDMDL
MODEL 6
REMARK VINA RESULT:    -6.188      1.555      6.033
REMARK INTER + INTRA:         -11.284
REMARK INTER:                  -9.289
REMARK INTRA:                  -1.995
REMARK UNBOUND:                -1.840
REMARK SMILES COc1cc(C=CC(=O)CC(=O)C=Cc2ccc(O)c(OC)c2)ccc1O
REMARK SMILES IDX 10 1 8 2 9 3 7 4 6 5 5 6 3 7 26 8 4 9 25 10 24 11 2 12 1 13
REMARK SMILES IDX 27 14 11 16 12 17 13 18 14 19 15 20 23 21 16 22 20 23 17 24
REMARK SMILES IDX 18 25 21 26 22 27 19 28
REMARK H PARENT 27 15 19 29
REMARK Flexibility Score: inf
ROOT
ATOM      1  C   UNL     1       5.494  17.925  49.096  1.00  0.00     0.160 C 
ENDROOT
BRANCH   1   2
ATOM      2  C   UNL     1       5.411  16.758  48.139  1.00  0.00     0.163 C 
ATOM      3  O   UNL     1       6.406  16.000  47.982  1.00  0.00    -0.294 OA
BRANCH   2   4
ATOM      4  C   UNL     1       4.188  16.472  47.357  1.00  0.00     0.048 C 
ATOM      5  C   UNL     1       3.000  17.039  47.612  1.00  0.00     0.012 C 
BRANCH   5   6
ATOM      6  C   UNL     1       1.775  16.763  46.822  1.00  0.00    -0.022 A 
ATOM      7  C   UNL     1      -0.648  16.859  46.481  1.00  0.00     0.161 A 
ATOM      8  C   UNL     1      -0.492  16.226  45.241  1.00  0.00     0.157 A 
ATOM      9  C   UNL     1       0.489  17.131  47.267  1.00  0.00     0.058 A 
ATOM     10  C   UNL     1       0.785  15.875  44.787  1.00  0.00     0.051 A 
ATOM     11  C   UNL     1       1.909  16.147  45.570  1.00  0.00     0.012 A 
BRANCH   7  12
ATOM     12  O   UNL     1      -1.945  17.206  46.893  1.00  0.00    -0.493 OA
ATOM     13  C   UNL     1      -2.350  17.341  48.252  1.00  0.00     0.278 C 
ENDBRANCH   7  12
BRANCH   8  14
ATOM     14  O   UNL     1      -1.614  15.952  44.460  1.00  0.00    -0.504 OA
ATOM     15  H   UNL     1      -1.543  15.430  43.594  1.00  0.00     0.293 HD
ENDBRANCH   8  14
ENDBRANCH   5   6
ENDBRANCH   2   4
ENDBRANCH   1   2
BRANCH   1  16
ATOM     16  C   UNL     1       5.957  19.186  48.425  1.00  0.00     0.163 C 
ATOM     17  O   UNL     1       6.369  19.133  47.234  1.00  0.00    -0.294 OA
BRANCH  16  18
ATOM     18  C   UNL     1       5.824  20.483  49.125  1.00  0.00     0.048 C 
ATOM     19  C   UNL     1       4.729  21.261  49.124  1.00  0.00     0.012 C 
BRANCH  19  20
ATOM     20  C   UNL     1       3.533  21.052  48.283  1.00  0.00    -0.022 A 
ATOM     21  C   UNL     1       2.301  20.779  48.895  1.00  0.00     0.058 A 
ATOM     22  C   UNL     1       3.588  21.220  46.890  1.00  0.00     0.012 A 
ATOM     23  C   UNL     1       1.135  20.622  48.120  1.00  0.00     0.161 A 
ATOM     24  C   UNL     1       2.436  21.065  46.117  1.00  0.00     0.051 A 
ATOM     25  C   UNL     1       1.210  20.763  46.727  1.00  0.00     0.157 A 
BRANCH  23  26
ATOM     26  O   UNL     1      -0.112  20.330  48.696  1.00  0.00    -0.493 OA
ATOM     27  C   UNL     1      -0.516  20.742  49.998  1.00  0.00     0.278 C 
ENDBRANCH  23  26
BRANCH  25  28
ATOM     28  O   UNL     1       0.062  20.606  45.954  1.00  0.00    -0.504 OA
ATOM     29  H   UNL     1       0.094  20.640  44.942  1.00  0.00     0.293 HD
ENDBRANCH  25  28
ENDBRANCH  19  20
ENDBRANCH  16  18
ENDBRANCH   1  16
TORSDOF 10
ENDMDL
MODEL 7
REMARK VINA RESULT:    -6.164      4.785      7.596
REMARK INTER + INTRA:         -11.247
REMARK INTER:                 -10.267
REMARK INTRA:                  -0.981
REMARK UNBOUND:                -1.840
REMARK SMILES COc1cc(C=CC(=O)CC(=O)C=Cc2ccc(O)c(OC)c2)ccc1O
REMARK SMILES IDX 10 1 8 2 9 3 7 4 6 5 5 6 3 7 26 8 4 9 25 10 24 11 2 12 1 13
REMARK SMILES IDX 27 14 11 16 12 17 13 18 14 19 15 20 23 21 16 22 20 23 17 24
REMARK SMILES IDX 18 25 21 26 22 27 19 28
REMARK H PARENT 27 15 19 29
REMARK Flexibility Score: inf
ROOT
ATOM      1  C   UNL     1       5.563  17.685  45.162  1.00  0.00     0.160 C 
ENDROOT
BRANCH   1   2
ATOM      2  C   UNL     1       6.261  18.784  44.394  1.00  0.00     0.163 C 
ATOM      3  O   UNL     1       7.287  19.336  44.877  1.00  0.00    -0.294 OA
BRANCH   2   4
ATOM      4  C   UNL     1       5.772  19.255  43.080  1.00  0.00     0.048 C 
ATOM      5  C   UNL     1       5.703  20.550  42.739  1.00  0.00     0.012 C 
BRANCH   5   6
ATOM      6  C   UNL     1       5.224  21.025  41.417  1.00  0.00    -0.022 A 
ATOM      7  C   UNL     1       3.641  22.238  39.997  1.00  0.00     0.161 A 
ATOM      8  C   UNL     1       4.408  21.907  38.872  1.00  0.00     0.157 A 
ATOM      9  C   UNL     1       4.056  21.799  41.270  1.00  0.00     0.058 A 
ATOM     10  C   UNL     1       5.579  21.154  39.016  1.00  0.00     0.051 A 
ATOM     11  C   UNL     1       5.986  20.722  40.280  1.00  0.00     0.012 A 
BRANCH   7  12
ATOM     12  O   UNL     1       2.480  23.005  39.809  1.00  0.00    -0.493 OA
ATOM     13  C   UNL     1       2.315  24.343  40.268  1.00  0.00     0.278 C 
ENDBRANCH   7  12
BRANCH   8  14
ATOM     14  O   UNL     1       4.001  22.337  37.609  1.00  0.00    -0.504 OA
ATOM     15  H   UNL     1       4.636  22.820  36.983  1.00  0.00     0.293 HD
ENDBRANCH   8  14
ENDBRANCH   5   6
ENDBRANCH   2   4
ENDBRANCH   1   2
BRANCH   1  16
ATOM     16  C   UNL     1       4.710  18.215  46.278  1.00  0.00     0.163 C 
ATOM     17  O   UNL     1       4.107  19.312  46.122  1.00  0.00    -0.294 OA
BRANCH  16  18
ATOM     18  C   UNL     1       4.502  17.399  47.495  1.00  0.00     0.048 C 
ATOM     19  C   UNL     1       3.405  16.675  47.770  1.00  0.00     0.012 C 
BRANCH  19  20
ATOM     20  C   UNL     1       2.145  16.708  47.001  1.00  0.00    -0.022 A 
ATOM     21  C   UNL     1       1.162  17.652  47.331  1.00  0.00     0.058 A 
ATOM     22  C   UNL     1       1.955  15.878  45.883  1.00  0.00     0.012 A 
ATOM     23  C   UNL     1      -0.031  17.737  46.585  1.00  0.00     0.161 A 
ATOM     24  C   UNL     1       0.776  15.958  45.141  1.00  0.00     0.051 A 
ATOM     25  C   UNL     1      -0.219  16.882  45.490  1.00  0.00     0.157 A 
BRANCH  23  26
ATOM     26  O   UNL     1      -1.045  18.656  46.898  1.00  0.00    -0.493 OA
ATOM     27  C   UNL     1      -0.974  20.054  46.637  1.00  0.00     0.278 C 
ENDBRANCH  23  26
BRANCH  25  28
ATOM     28  O   UNL     1      -1.397  16.958  44.749  1.00  0.00    -0.504 OA
ATOM     29  H   UNL     1      -1.850  16.129  44.385  1.00  0.00     0.293 HD
ENDBRANCH  25  28
ENDBRANCH  19  20
ENDBRANCH  16  18
ENDBRANCH   1  16
TORSDOF 10
ENDMDL
MODEL 8
REMARK VINA RESULT:    -6.132      4.095      8.314
REMARK INTER + INTRA:         -11.198
REMARK INTER:                 -10.041
REMARK INTRA:                  -1.156
REMARK UNBOUND:                -1.840
REMARK SMILES COc1cc(C=CC(=O)CC(=O)C=Cc2ccc(O)c(OC)c2)ccc1O
REMARK SMILES IDX 10 1 8 2 9 3 7 4 6 5 5 6 3 7 26 8 4 9 25 10 24 11 2 12 1 13
REMARK SMILES IDX 27 14 11 16 12 17 13 18 14 19 15 20 23 21 16 22 20 23 17 24
REMARK SMILES IDX 18 25 21 26 22 27 19 28
REMARK H PARENT 27 15 19 29
REMARK Flexibility Score: inf
ROOT
ATOM      1  C   UNL     1       6.480  17.639  46.591  1.00  0.00     0.160 C 
ENDROOT
BRANCH   1   2
ATOM      2  C   UNL     1       5.486  16.633  47.126  1.00  0.00     0.163 C 
ATOM      3  O   UNL     1       5.803  15.887  48.091  1.00  0.00    -0.294 OA
BRANCH   2   4
ATOM      4  C   UNL     1       4.135  16.480  46.543  1.00  0.00     0.048 C 
ATOM      5  C   UNL     1       3.011  16.824  47.188  1.00  0.00     0.012 C 
BRANCH   5   6
ATOM      6  C   UNL     1       1.655  16.683  46.601  1.00  0.00    -0.022 A 
ATOM      7  C   UNL     1      -0.766  17.045  46.635  1.00  0.00     0.161 A 
ATOM      8  C   UNL     1      -0.874  16.396  45.397  1.00  0.00     0.157 A 
ATOM      9  C   UNL     1       0.502  17.192  47.231  1.00  0.00     0.058 A 
ATOM     10  C   UNL     1       0.272  15.905  44.760  1.00  0.00     0.051 A 
ATOM     11  C   UNL     1       1.526  16.053  45.355  1.00  0.00     0.012 A 
BRANCH   7  12
ATOM     12  O   UNL     1      -1.938  17.533  47.234  1.00  0.00    -0.493 OA
ATOM     13  C   UNL     1      -2.380  17.185  48.543  1.00  0.00     0.278 C 
ENDBRANCH   7  12
BRANCH   8  14
ATOM     14  O   UNL     1      -2.127  16.245  44.804  1.00  0.00    -0.504 OA
ATOM     15  H   UNL     1      -2.230  15.851  43.876  1.00  0.00     0.293 HD
ENDBRANCH   8  14
ENDBRANCH   5   6
ENDBRANCH   2   4
ENDBRANCH   1   2
BRANCH   1  16
ATOM     16  C   UNL     1       7.712  16.988  46.033  1.00  0.00     0.163 C 
ATOM     17  O   UNL     1       8.834  17.262  46.539  1.00  0.00    -0.294 OA
BRANCH  16  18
ATOM     18  C   UNL     1       7.586  15.958  44.978  1.00  0.00     0.048 C 
ATOM     19  C   UNL     1       7.685  16.178  43.657  1.00  0.00     0.012 C 
BRANCH  19  20
ATOM     20  C   UNL     1       7.756  17.506  43.015  1.00  0.00    -0.022 A 
ATOM     21  C   UNL     1       6.583  18.264  42.875  1.00  0.00     0.058 A 
ATOM     22  C   UNL     1       8.986  18.065  42.634  1.00  0.00     0.012 A 
ATOM     23  C   UNL     1       6.627  19.554  42.309  1.00  0.00     0.161 A 
ATOM     24  C   UNL     1       9.036  19.342  42.073  1.00  0.00     0.051 A 
ATOM     25  C   UNL     1       7.860  20.086  41.906  1.00  0.00     0.157 A 
BRANCH  23  26
ATOM     26  O   UNL     1       5.474  20.334  42.135  1.00  0.00    -0.493 OA
ATOM     27  C   UNL     1       4.765  20.973  43.192  1.00  0.00     0.278 C 
ENDBRANCH  23  26
BRANCH  25  28
ATOM     28  O   UNL     1       7.911  21.360  41.343  1.00  0.00    -0.504 OA
ATOM     29  H   UNL     1       7.951  22.194  41.917  1.00  0.00     0.293 HD
ENDBRANCH  25  28
ENDBRANCH  19  20
ENDBRANCH  16  18
ENDBRANCH   1  16
TORSDOF 10
ENDMDL
