MODEL 1
REMARK VINA RESULT:    -5.481      0.000      0.000
REMARK INTER + INTRA:          -5.481
REMARK INTER:                  -5.481
REMARK INTRA:                   0.000
REMARK UNBOUND:                 0.000
REMARK SMILES O=c1ccc2ccccc2o1
REMARK SMILES IDX 7 1 8 2 9 3 10 4 5 5 6 6 4 7 3 8 2 9 1 10 11 11
REMARK H PARENT
REMARK Flexibility Score: inf
ROOT
ATOM      1  C   UNL     1      45.260 -28.610   9.748  1.00  0.00     0.001 A 
ATOM      2  C   UNL     1      46.354 -27.810  10.095  1.00  0.00     0.004 A 
ATOM      3  C   UNL     1      47.158 -27.249   9.097  1.00  0.00     0.048 A 
ATOM      4  C   UNL     1      46.873 -27.488   7.748  1.00  0.00     0.138 A 
ATOM      5  C   UNL     1      45.767 -28.297   7.399  1.00  0.00     0.018 A 
ATOM      6  C   UNL     1      44.964 -28.855   8.403  1.00  0.00     0.012 A 
ATOM      7  C   UNL     1      45.506 -28.518   6.043  1.00  0.00     0.019 A 
ATOM      8  C   UNL     1      46.335 -27.939   5.083  1.00  0.00     0.094 A 
ATOM      9  C   UNL     1      47.411 -27.150   5.503  1.00  0.00     0.336 A 
ATOM     10  O   UNL     1      48.171 -26.619   4.651  1.00  0.00    -0.246 OA
ATOM     11  O   UNL     1      47.638 -26.955   6.799  1.00  0.00    -0.423 OA
ENDROOT
TORSDOF 0
ENDMDL
MODEL 2
REMARK VINA RESULT:    -5.392      9.507     10.771
REMARK INTER + INTRA:          -5.392
REMARK INTER:                  -5.392
REMARK INTRA:                   0.000
REMARK UNBOUND:                 0.000
REMARK SMILES O=c1ccc2ccccc2o1
REMARK SMILES IDX 7 1 8 2 9 3 10 4 5 5 6 6 4 7 3 8 2 9 1 10 11 11
REMARK H PARENT
REMARK Flexibility Score: inf
ROOT
ATOM      1  C   UNL     1      41.171 -25.978   1.930  1.00  0.00     0.001 A 
ATOM      2  C   UNL     1      39.910 -25.957   2.536  1.00  0.00     0.004 A 
ATOM      3  C   UNL     1      38.871 -25.210   1.972  1.00  0.00     0.048 A 
ATOM      4  C   UNL     1      39.089 -24.479   0.798  1.00  0.00     0.138 A 
ATOM      5  C   UNL     1      40.363 -24.501   0.186  1.00  0.00     0.018 A 
ATOM      6  C   UNL     1      41.400 -25.252   0.756  1.00  0.00     0.012 A 
ATOM      7  C   UNL     1      40.551 -23.761  -0.986  1.00  0.00     0.019 A 
ATOM      8  C   UNL     1      39.487 -23.031  -1.512  1.00  0.00     0.094 A 
ATOM      9  C   UNL     1      38.253 -23.056  -0.852  1.00  0.00     0.336 A 
ATOM     10  O   UNL     1      37.281 -22.403  -1.312  1.00  0.00    -0.246 OA
ATOM     11  O   UNL     1      38.100 -23.768   0.262  1.00  0.00    -0.423 OA
ENDROOT
TORSDOF 0
ENDMDL
MODEL 3
REMARK VINA RESULT:    -5.365      1.150      1.578
REMARK INTER + INTRA:          -5.365
REMARK INTER:                  -5.365
REMARK INTRA:                   0.000
REMARK UNBOUND:                 0.000
REMARK SMILES O=c1ccc2ccccc2o1
REMARK SMILES IDX 7 1 8 2 9 3 10 4 5 5 6 6 4 7 3 8 2 9 1 10 11 11
REMARK H PARENT
REMARK Flexibility Score: inf
ROOT
ATOM      1  C   UNL     1      44.291 -28.462   8.232  1.00  0.00     0.001 A 
ATOM      2  C   UNL     1      45.072 -28.221   9.368  1.00  0.00     0.004 A 
ATOM      3  C   UNL     1      46.390 -27.775   9.232  1.00  0.00     0.048 A 
ATOM      4  C   UNL     1      46.934 -27.569   7.959  1.00  0.00     0.138 A 
ATOM      5  C   UNL     1      46.144 -27.813   6.812  1.00  0.00     0.018 A 
ATOM      6  C   UNL     1      44.823 -28.259   6.955  1.00  0.00     0.012 A 
ATOM      7  C   UNL     1      46.715 -27.598   5.554  1.00  0.00     0.019 A 
ATOM      8  C   UNL     1      48.032 -27.154   5.466  1.00  0.00     0.094 A 
ATOM      9  C   UNL     1      48.754 -26.933   6.645  1.00  0.00     0.336 A 
ATOM     10  O   UNL     1      49.946 -26.531   6.586  1.00  0.00    -0.246 OA
ATOM     11  O   UNL     1      48.189 -27.145   7.830  1.00  0.00    -0.423 OA
ENDROOT
TORSDOF 0
ENDMDL
MODEL 4
REMARK VINA RESULT:    -5.333      9.238     10.439
REMARK INTER + INTRA:          -5.333
REMARK INTER:                  -5.333
REMARK INTRA:                   0.000
REMARK UNBOUND:                 0.000
REMARK SMILES O=c1ccc2ccccc2o1
REMARK SMILES IDX 7 1 8 2 9 3 10 4 5 5 6 6 4 7 3 8 2 9 1 10 11 11
REMARK H PARENT
REMARK Flexibility Score: inf
ROOT
ATOM      1  C   UNL     1      39.938 -26.080   2.643  1.00  0.00     0.001 A 
ATOM      2  C   UNL     1      41.171 -26.047   1.981  1.00  0.00     0.004 A 
ATOM      3  C   UNL     1      41.340 -25.239   0.852  1.00  0.00     0.048 A 
ATOM      4  C   UNL     1      40.277 -24.462   0.378  1.00  0.00     0.138 A 
ATOM      5  C   UNL     1      39.032 -24.496   1.048  1.00  0.00     0.018 A 
ATOM      6  C   UNL     1      38.869 -25.307   2.179  1.00  0.00     0.012 A 
ATOM      7  C   UNL     1      37.988 -23.709   0.552  1.00  0.00     0.019 A 
ATOM      8  C   UNL     1      38.202 -22.919  -0.577  1.00  0.00     0.094 A 
ATOM      9  C   UNL     1      39.462 -22.936  -1.187  1.00  0.00     0.336 A 
ATOM     10  O   UNL     1      39.674 -22.230  -2.208  1.00  0.00    -0.246 OA
ATOM     11  O   UNL     1      40.438 -23.694  -0.696  1.00  0.00    -0.423 OA
ENDROOT
TORSDOF 0
ENDMDL
MODEL 5
REMARK VINA RESULT:    -5.287      1.021      2.161
REMARK INTER + INTRA:          -5.287
REMARK INTER:                  -5.287
REMARK INTRA:                   0.000
REMARK UNBOUND:                 0.000
REMARK SMILES O=c1ccc2ccccc2o1
REMARK SMILES IDX 7 1 8 2 9 3 10 4 5 5 6 6 4 7 3 8 2 9 1 10 11 11
REMARK H PARENT
REMARK Flexibility Score: inf
ROOT
ATOM      1  C   UNL     1      45.191 -28.264   9.374  1.00  0.00     0.001 A 
ATOM      2  C   UNL     1      44.370 -28.518   8.269  1.00  0.00     0.004 A 
ATOM      3  C   UNL     1      44.836 -28.266   6.975  1.00  0.00     0.048 A 
ATOM      4  C   UNL     1      46.125 -27.756   6.779  1.00  0.00     0.138 A 
ATOM      5  C   UNL     1      46.954 -27.500   7.895  1.00  0.00     0.018 A 
ATOM      6  C   UNL     1      46.482 -27.756   9.190  1.00  0.00     0.012 A 
ATOM      7  C   UNL     1      48.236 -26.992   7.668  1.00  0.00     0.019 A 
ATOM      8  C   UNL     1      48.658 -26.755   6.361  1.00  0.00     0.094 A 
ATOM      9  C   UNL     1      47.783 -27.033   5.305  1.00  0.00     0.336 A 
ATOM     10  O   UNL     1      48.146 -26.826   4.118  1.00  0.00    -0.246 OA
ATOM     11  O   UNL     1      46.567 -27.516   5.547  1.00  0.00    -0.423 OA
ENDROOT
TORSDOF 0
ENDMDL
MODEL 6
REMARK VINA RESULT:    -5.226      1.854      3.781
REMARK INTER + INTRA:          -5.226
REMARK INTER:                  -5.226
REMARK INTRA:                   0.000
REMARK UNBOUND:                 0.000
REMARK SMILES O=c1ccc2ccccc2o1
REMARK SMILES IDX 7 1 8 2 9 3 10 4 5 5 6 6 4 7 3 8 2 9 1 10 11 11
REMARK H PARENT
REMARK Flexibility Score: inf
ROOT
ATOM      1  C   UNL     1      48.470 -26.737   5.162  1.00  0.00     0.001 A 
ATOM      2  C   UNL     1      49.164 -26.453   6.343  1.00  0.00     0.004 A 
ATOM      3  C   UNL     1      48.598 -26.763   7.583  1.00  0.00     0.048 A 
ATOM      4  C   UNL     1      47.332 -27.358   7.648  1.00  0.00     0.138 A 
ATOM      5  C   UNL     1      46.631 -27.645   6.455  1.00  0.00     0.018 A 
ATOM      6  C   UNL     1      47.205 -27.332   5.215  1.00  0.00     0.012 A 
ATOM      7  C   UNL     1      45.369 -28.240   6.551  1.00  0.00     0.019 A 
ATOM      8  C   UNL     1      44.844 -28.531   7.808  1.00  0.00     0.094 A 
ATOM      9  C   UNL     1      45.595 -28.219   8.947  1.00  0.00     0.336 A 
ATOM     10  O   UNL     1      45.137 -28.474  10.091  1.00  0.00    -0.246 OA
ATOM     11  O   UNL     1      46.793 -27.653   8.829  1.00  0.00    -0.423 OA
ENDROOT
TORSDOF 0
ENDMDL
MODEL 7
REMARK VINA RESULT:    -5.154      1.462      3.166
REMARK INTER + INTRA:          -5.154
REMARK INTER:                  -5.154
REMARK INTRA:                   0.000
REMARK UNBOUND:                 0.000
REMARK SMILES O=c1ccc2ccccc2o1
REMARK SMILES IDX 7 1 8 2 9 3 10 4 5 5 6 6 4 7 3 8 2 9 1 10 11 11
REMARK H PARENT
REMARK Flexibility Score: inf
ROOT
ATOM      1  C   UNL     1      44.395 -28.285   8.245  1.00  0.00     0.001 A 
ATOM      2  C   UNL     1      44.872 -28.217   6.931  1.00  0.00     0.004 A 
ATOM      3  C   UNL     1      46.208 -27.884   6.685  1.00  0.00     0.048 A 
ATOM      4  C   UNL     1      47.073 -27.616   7.752  1.00  0.00     0.138 A 
ATOM      5  C   UNL     1      46.590 -27.686   9.079  1.00  0.00     0.018 A 
ATOM      6  C   UNL     1      45.250 -28.020   9.319  1.00  0.00     0.012 A 
ATOM      7  C   UNL     1      47.478 -27.413  10.125  1.00  0.00     0.019 A 
ATOM      8  C   UNL     1      48.800 -27.086   9.833  1.00  0.00     0.094 A 
ATOM      9  C   UNL     1      49.208 -27.037   8.495  1.00  0.00     0.336 A 
ATOM     10  O   UNL     1      50.398 -26.742   8.211  1.00  0.00    -0.246 OA
ATOM     11  O   UNL     1      48.344 -27.299   7.518  1.00  0.00    -0.423 OA
ENDROOT
TORSDOF 0
ENDMDL
MODEL 8
REMARK VINA RESULT:    -5.139     14.851     16.421
REMARK INTER + INTRA:          -5.139
REMARK INTER:                  -5.139
REMARK INTRA:                   0.000
REMARK UNBOUND:                 0.000
REMARK SMILES O=c1ccc2ccccc2o1
REMARK SMILES IDX 7 1 8 2 9 3 10 4 5 5 6 6 4 7 3 8 2 9 1 10 11 11
REMARK H PARENT
REMARK Flexibility Score: inf
ROOT
ATOM      1  C   UNL     1      42.207 -24.905  -8.109  1.00  0.00     0.001 A 
ATOM      2  C   UNL     1      41.286 -24.347  -9.003  1.00  0.00     0.004 A 
ATOM      3  C   UNL     1      39.962 -24.135  -8.606  1.00  0.00     0.048 A 
ATOM      4  C   UNL     1      39.553 -24.481  -7.313  1.00  0.00     0.138 A 
ATOM      5  C   UNL     1      40.483 -25.044  -6.410  1.00  0.00     0.018 A 
ATOM      6  C   UNL     1      41.809 -25.254  -6.814  1.00  0.00     0.012 A 
ATOM      7  C   UNL     1      40.045 -25.380  -5.126  1.00  0.00     0.019 A 
ATOM      8  C   UNL     1      38.716 -25.151  -4.774  1.00  0.00     0.094 A 
ATOM      9  C   UNL     1      37.851 -24.589  -5.720  1.00  0.00     0.336 A 
ATOM     10  O   UNL     1      36.647 -24.374  -5.421  1.00  0.00    -0.246 OA
ATOM     11  O   UNL     1      38.293 -24.279  -6.936  1.00  0.00    -0.423 OA
ENDROOT
TORSDOF 0
ENDMDL
