MODEL 1
REMARK VINA RESULT:     2.017      0.000      0.000
REMARK INTER + INTRA:           2.696
REMARK INTER:                   3.197
REMARK INTRA:                  -0.500
REMARK UNBOUND:                -0.500
REMARK SMILES CCCCCCCCCCCC(=O)[O-]
REMARK SMILES IDX 7 1 8 2 9 3 10 4 11 5 12 6 13 7 14 8 6 9 5 10 4 11 3 12 2 13
REMARK SMILES IDX 1 14
REMARK H PARENT
REMARK Flexibility Score: inf
ROOT
ATOM      1  C   UNL     1      18.480 -18.862  25.707  1.00  0.00     0.000 C 
ENDROOT
BRANCH   1   2
ATOM      2  C   UNL     1      17.060 -18.703  26.272  1.00  0.00     0.000 C 
BRANCH   2   3
ATOM      3  C   UNL     1      17.098 -18.167  27.708  1.00  0.00     0.000 C 
BRANCH   3   4
ATOM      4  C   UNL     1      16.346 -19.104  28.664  1.00  0.00     0.006 C 
BRANCH   4   5
ATOM      5  C   UNL     1      15.875 -20.388  27.968  1.00  0.00     0.053 C 
BRANCH   5   6
ATOM      6  C   UNL     1      16.054 -21.590  28.844  1.00  0.00     0.041 C 
ATOM      7  O   UNL     1      16.289 -21.451  30.073  1.00  0.00    -0.550 OA
ATOM      8  O   UNL     1      15.993 -22.865  28.295  1.00  0.00    -0.550 OA
ENDBRANCH   5   6
ENDBRANCH   4   5
ENDBRANCH   3   4
ENDBRANCH   2   3
ENDBRANCH   1   2
BRANCH   1   9
ATOM      9  C   UNL     1      19.430 -19.579  26.681  1.00  0.00     0.000 C 
BRANCH   9  10
ATOM     10  C   UNL     1      20.865 -19.683  26.135  1.00  0.00    -0.000 C 
BRANCH  10  11
ATOM     11  C   UNL     1      21.133 -21.025  25.434  1.00  0.00    -0.000 C 
BRANCH  11  12
ATOM     12  C   UNL     1      22.634 -21.318  25.265  1.00  0.00    -0.000 C 
BRANCH  12  13
ATOM     13  C   UNL     1      23.174 -20.854  23.904  1.00  0.00    -0.003 C 
ATOM     14  C   UNL     1      24.285 -21.758  23.369  1.00  0.00     0.004 C 
ENDBRANCH  12  13
ENDBRANCH  11  12
ENDBRANCH  10  11
ENDBRANCH   9  10
ENDBRANCH   1   9
TORSDOF 10
ENDMDL
MODEL 2
REMARK VINA RESULT:     2.479      3.753      7.055
REMARK INTER + INTRA:           3.429
REMARK INTER:                   4.027
REMARK INTRA:                  -0.599
REMARK UNBOUND:                -0.500
REMARK SMILES CCCCCCCCCCCC(=O)[O-]
REMARK SMILES IDX 7 1 8 2 9 3 10 4 11 5 12 6 13 7 14 8 6 9 5 10 4 11 3 12 2 13
REMARK SMILES IDX 1 14
REMARK H PARENT
REMARK Flexibility Score: inf
ROOT
ATOM      1  C   UNL     1      18.835 -19.011  25.819  1.00  0.00     0.000 C 
ENDROOT
BRANCH   1   2
ATOM      2  C   UNL     1      19.811 -19.882  26.626  1.00  0.00     0.000 C 
BRANCH   2   3
ATOM      3  C   UNL     1      21.250 -19.697  26.130  1.00  0.00     0.000 C 
BRANCH   3   4
ATOM      4  C   UNL     1      21.839 -21.030  25.646  1.00  0.00     0.006 C 
BRANCH   4   5
ATOM      5  C   UNL     1      22.069 -21.046  24.129  1.00  0.00     0.053 C 
BRANCH   5   6
ATOM      6  C   UNL     1      23.527 -20.998  23.789  1.00  0.00     0.041 C 
ATOM      7  O   UNL     1      24.037 -21.888  23.058  1.00  0.00    -0.550 OA
ATOM      8  O   UNL     1      24.329 -19.989  24.306  1.00  0.00    -0.550 OA
ENDBRANCH   5   6
ENDBRANCH   4   5
ENDBRANCH   3   4
ENDBRANCH   2   3
ENDBRANCH   1   2
BRANCH   1   9
ATOM      9  C   UNL     1      17.391 -19.098  26.339  1.00  0.00     0.000 C 
BRANCH   9  10
ATOM     10  C   UNL     1      17.176 -18.277  27.623  1.00  0.00    -0.000 C 
BRANCH  10  11
ATOM     11  C   UNL     1      16.230 -18.972  28.615  1.00  0.00    -0.000 C 
BRANCH  11  12
ATOM     12  C   UNL     1      15.875 -20.408  28.190  1.00  0.00    -0.000 C 
BRANCH  12  13
ATOM     13  C   UNL     1      16.193 -21.440  29.283  1.00  0.00    -0.003 C 
ATOM     14  C   UNL     1      16.497 -22.827  28.715  1.00  0.00     0.004 C 
ENDBRANCH  12  13
ENDBRANCH  11  12
ENDBRANCH  10  11
ENDBRANCH   9  10
ENDBRANCH   1   9
TORSDOF 10
ENDMDL
MODEL 3
REMARK VINA RESULT:     2.526      1.834      2.401
REMARK INTER + INTRA:           3.503
REMARK INTER:                   4.004
REMARK INTRA:                  -0.501
REMARK UNBOUND:                -0.500
REMARK SMILES CCCCCCCCCCCC(=O)[O-]
REMARK SMILES IDX 7 1 8 2 9 3 10 4 11 5 12 6 13 7 14 8 6 9 5 10 4 11 3 12 2 13
REMARK SMILES IDX 1 14
REMARK H PARENT
REMARK Flexibility Score: inf
ROOT
ATOM      1  C   UNL     1      19.402 -19.542  26.735  1.00  0.00     0.000 C 
ENDROOT
BRANCH   1   2
ATOM      2  C   UNL     1      18.451 -18.852  25.744  1.00  0.00     0.000 C 
BRANCH   2   3
ATOM      3  C   UNL     1      17.013 -18.847  26.276  1.00  0.00     0.000 C 
BRANCH   3   4
ATOM      4  C   UNL     1      16.806 -19.964  27.309  1.00  0.00     0.006 C 
BRANCH   4   5
ATOM      5  C   UNL     1      15.996 -19.489  28.522  1.00  0.00     0.053 C 
BRANCH   5   6
ATOM      6  C   UNL     1      16.571 -18.241  29.119  1.00  0.00     0.041 C 
ATOM      7  O   UNL     1      16.010 -17.130  28.929  1.00  0.00    -0.550 OA
ATOM      8  O   UNL     1      17.746 -18.302  29.858  1.00  0.00    -0.550 OA
ENDBRANCH   5   6
ENDBRANCH   4   5
ENDBRANCH   3   4
ENDBRANCH   2   3
ENDBRANCH   1   2
BRANCH   1   9
ATOM      9  C   UNL     1      20.829 -19.691  26.185  1.00  0.00     0.000 C 
BRANCH   9  10
ATOM     10  C   UNL     1      21.156 -21.137  25.774  1.00  0.00    -0.000 C 
BRANCH  10  11
ATOM     11  C   UNL     1      22.630 -21.319  25.378  1.00  0.00    -0.000 C 
BRANCH  11  12
ATOM     12  C   UNL     1      22.971 -20.645  24.037  1.00  0.00    -0.000 C 
BRANCH  12  13
ATOM     13  C   UNL     1      24.019 -21.431  23.233  1.00  0.00    -0.003 C 
ATOM     14  C   UNL     1      24.855 -22.366  24.108  1.00  0.00     0.004 C 
ENDBRANCH  12  13
ENDBRANCH  11  12
ENDBRANCH  10  11
ENDBRANCH   9  10
ENDBRANCH   1   9
TORSDOF 10
ENDMDL
MODEL 4
REMARK VINA RESULT:     2.656      3.844      7.333
REMARK INTER + INTRA:           3.709
REMARK INTER:                   4.201
REMARK INTRA:                  -0.492
REMARK UNBOUND:                -0.500
REMARK SMILES CCCCCCCCCCCC(=O)[O-]
REMARK SMILES IDX 7 1 8 2 9 3 10 4 11 5 12 6 13 7 14 8 6 9 5 10 4 11 3 12 2 13
REMARK SMILES IDX 1 14
REMARK H PARENT
REMARK Flexibility Score: inf
ROOT
ATOM      1  C   UNL     1      19.461 -19.760  26.739  1.00  0.00     0.000 C 
ENDROOT
BRANCH   1   2
ATOM      2  C   UNL     1      20.935 -19.777  26.303  1.00  0.00     0.000 C 
BRANCH   2   3
ATOM      3  C   UNL     1      21.178 -20.849  25.234  1.00  0.00     0.000 C 
BRANCH   3   4
ATOM      4  C   UNL     1      22.393 -21.717  25.593  1.00  0.00     0.006 C 
BRANCH   4   5
ATOM      5  C   UNL     1      23.712 -21.094  25.120  1.00  0.00     0.053 C 
BRANCH   5   6
ATOM      6  C   UNL     1      23.813 -21.076  23.625  1.00  0.00     0.041 C 
ATOM      7  O   UNL     1      23.507 -20.039  22.981  1.00  0.00    -0.550 OA
ATOM      8  O   UNL     1      24.213 -22.218  22.942  1.00  0.00    -0.550 OA
ENDBRANCH   5   6
ENDBRANCH   4   5
ENDBRANCH   3   4
ENDBRANCH   2   3
ENDBRANCH   1   2
BRANCH   1   9
ATOM      9  C   UNL     1      18.573 -18.928  25.801  1.00  0.00     0.000 C 
BRANCH   9  10
ATOM     10  C   UNL     1      17.112 -18.858  26.280  1.00  0.00    -0.000 C 
BRANCH  10  11
ATOM     11  C   UNL     1      16.753 -19.999  27.245  1.00  0.00    -0.000 C 
BRANCH  11  12
ATOM     12  C   UNL     1      16.135 -19.492  28.561  1.00  0.00    -0.000 C 
BRANCH  12  13
ATOM     13  C   UNL     1      16.884 -18.279  29.133  1.00  0.00    -0.003 C 
ATOM     14  C   UNL     1      16.082 -16.983  29.020  1.00  0.00     0.004 C 
ENDBRANCH  12  13
ENDBRANCH  11  12
ENDBRANCH  10  11
ENDBRANCH   9  10
ENDBRANCH   1   9
TORSDOF 10
ENDMDL
MODEL 5
REMARK VINA RESULT:     2.885      1.963      3.103
REMARK INTER + INTRA:           4.072
REMARK INTER:                   4.378
REMARK INTRA:                  -0.306
REMARK UNBOUND:                -0.500
REMARK SMILES CCCCCCCCCCCC(=O)[O-]
REMARK SMILES IDX 7 1 8 2 9 3 10 4 11 5 12 6 13 7 14 8 6 9 5 10 4 11 3 12 2 13
REMARK SMILES IDX 1 14
REMARK H PARENT
REMARK Flexibility Score: inf
ROOT
ATOM      1  C   UNL     1      20.389 -20.746  25.883  1.00  0.00     0.000 C 
ENDROOT
BRANCH   1   2
ATOM      2  C   UNL     1      19.705 -19.469  26.396  1.00  0.00     0.000 C 
BRANCH   2   3
ATOM      3  C   UNL     1      18.539 -19.068  25.485  1.00  0.00     0.000 C 
BRANCH   3   4
ATOM      4  C   UNL     1      17.322 -18.626  26.311  1.00  0.00     0.006 C 
BRANCH   4   5
ATOM      5  C   UNL     1      17.198 -19.409  27.625  1.00  0.00     0.053 C 
BRANCH   5   6
ATOM      6  C   UNL     1      16.948 -18.500  28.789  1.00  0.00     0.041 C 
ATOM      7  O   UNL     1      17.514 -18.713  29.894  1.00  0.00    -0.550 OA
ATOM      8  O   UNL     1      16.063 -17.437  28.664  1.00  0.00    -0.550 OA
ENDBRANCH   5   6
ENDBRANCH   4   5
ENDBRANCH   3   4
ENDBRANCH   2   3
ENDBRANCH   1   2
BRANCH   1   9
ATOM      9  C   UNL     1      21.891 -20.551  25.621  1.00  0.00     0.000 C 
BRANCH   9  10
ATOM     10  C   UNL     1      22.363 -21.257  24.337  1.00  0.00    -0.000 C 
BRANCH  10  11
ATOM     11  C   UNL     1      23.801 -20.877  23.950  1.00  0.00    -0.000 C 
BRANCH  11  12
ATOM     12  C   UNL     1      24.827 -21.954  24.347  1.00  0.00    -0.000 C 
BRANCH  12  13
ATOM     13  C   UNL     1      24.948 -22.117  25.869  1.00  0.00    -0.003 C 
ATOM     14  C   UNL     1      26.335 -22.593  26.304  1.00  0.00     0.004 C 
ENDBRANCH  12  13
ENDBRANCH  11  12
ENDBRANCH  10  11
ENDBRANCH   9  10
ENDBRANCH   1   9
TORSDOF 10
ENDMDL
MODEL 6
REMARK VINA RESULT:     4.227      4.795      7.244
REMARK INTER + INTRA:           6.197
REMARK INTER:                   6.588
REMARK INTRA:                  -0.390
REMARK UNBOUND:                -0.500
REMARK SMILES CCCCCCCCCCCC(=O)[O-]
REMARK SMILES IDX 7 1 8 2 9 3 10 4 11 5 12 6 13 7 14 8 6 9 5 10 4 11 3 12 2 13
REMARK SMILES IDX 1 14
REMARK H PARENT
REMARK Flexibility Score: inf
ROOT
ATOM      1  C   UNL     1      17.182 -19.171  23.315  1.00  0.00     0.000 C 
ENDROOT
BRANCH   1   2
ATOM      2  C   UNL     1      17.358 -20.408  22.420  1.00  0.00     0.000 C 
BRANCH   2   3
ATOM      3  C   UNL     1      16.244 -21.430  22.671  1.00  0.00     0.000 C 
BRANCH   3   4
ATOM      4  C   UNL     1      16.525 -22.744  21.927  1.00  0.00     0.006 C 
BRANCH   4   5
ATOM      5  C   UNL     1      17.499 -22.551  20.757  1.00  0.00     0.053 C 
BRANCH   5   6
ATOM      6  C   UNL     1      17.972 -23.863  20.208  1.00  0.00     0.041 C 
ATOM      7  O   UNL     1      18.360 -23.947  19.013  1.00  0.00    -0.550 OA
ATOM      8  O   UNL     1      17.953 -24.999  21.007  1.00  0.00    -0.550 OA
ENDBRANCH   5   6
ENDBRANCH   4   5
ENDBRANCH   3   4
ENDBRANCH   2   3
ENDBRANCH   1   2
BRANCH   1   9
ATOM      9  C   UNL     1      18.093 -19.198  24.552  1.00  0.00     0.000 C 
BRANCH   9  10
ATOM     10  C   UNL     1      17.402 -18.634  25.807  1.00  0.00    -0.000 C 
BRANCH  10  11
ATOM     11  C   UNL     1      17.868 -19.327  27.098  1.00  0.00    -0.000 C 
BRANCH  11  12
ATOM     12  C   UNL     1      16.728 -19.517  28.114  1.00  0.00    -0.000 C 
BRANCH  12  13
ATOM     13  C   UNL     1      16.774 -18.484  29.249  1.00  0.00    -0.003 C 
ATOM     14  C   UNL     1      16.042 -17.188  28.899  1.00  0.00     0.004 C 
ENDBRANCH  12  13
ENDBRANCH  11  12
ENDBRANCH  10  11
ENDBRANCH   9  10
ENDBRANCH   1   9
TORSDOF 10
ENDMDL
