MODEL 1
REMARK VINA RESULT:    -6.235      0.000      0.000
REMARK INTER + INTRA:          -7.593
REMARK INTER:                  -7.329
REMARK INTRA:                  -0.264
REMARK UNBOUND:                -0.264
REMARK SMILES O=c1cc(-c2ccc(O)c(O)c2)oc2cc(O)cc(O)c12
REMARK SMILES IDX 4 1 3 2 2 3 1 4 21 5 19 6 18 7 16 8 15 9 14 10 13 11 5 12
REMARK SMILES IDX 6 13 7 14 8 15 12 16 10 17 9 18 11 20 20 22 17 24
REMARK H PARENT 9 19 11 21 20 23 17 25
REMARK Flexibility Score: inf
ROOT
ATOM      1  C   UNL     1      81.496  25.141  45.110  1.00  0.00     0.138 A 
ATOM      2  C   UNL     1      80.385  25.622  44.404  1.00  0.00     0.100 A 
ATOM      3  C   UNL     1      80.129  25.151  43.115  1.00  0.00     0.197 A 
ATOM      4  O   UNL     1      79.090  25.553  42.532  1.00  0.00    -0.289 OA
ATOM      5  C   UNL     1      81.010  24.217  42.521  1.00  0.00     0.107 A 
ATOM      6  C   UNL     1      80.872  23.698  41.198  1.00  0.00     0.134 A 
ATOM      7  C   UNL     1      81.739  22.691  40.758  1.00  0.00     0.093 A 
ATOM      8  C   UNL     1      82.775  22.226  41.567  1.00  0.00     0.123 A 
ATOM      9  C   UNL     1      82.952  22.765  42.843  1.00  0.00     0.094 A 
ATOM     10  C   UNL     1      82.082  23.746  43.324  1.00  0.00     0.146 A 
ATOM     11  O   UNL     1      82.277  24.223  44.549  1.00  0.00    -0.456 OA
ENDROOT
BRANCH   1  12
ATOM     12  C   UNL     1      81.815  25.608  46.483  1.00  0.00     0.021 A 
ATOM     13  C   UNL     1      82.914  26.456  46.687  1.00  0.00     0.016 A 
ATOM     14  C   UNL     1      83.231  26.913  47.967  1.00  0.00     0.051 A 
ATOM     15  C   UNL     1      82.454  26.545  49.069  1.00  0.00     0.157 A 
ATOM     16  C   UNL     1      81.023  25.248  47.590  1.00  0.00     0.062 A 
ATOM     17  C   UNL     1      81.331  25.705  48.877  1.00  0.00     0.158 A 
BRANCH  15  18
ATOM     18  O   UNL     1      82.827  27.032  50.324  1.00  0.00    -0.504 OA
ATOM     19  H   UNL     1      82.178  27.214  51.075  1.00  0.00     0.293 HD
ENDBRANCH  15  18
BRANCH  17  20
ATOM     20  O   UNL     1      80.500  25.308  49.926  1.00  0.00    -0.504 OA
ATOM     21  H   UNL     1      80.815  24.784  50.731  1.00  0.00     0.293 HD
ENDBRANCH  17  20
ENDBRANCH   1  12
BRANCH   6  22
ATOM     22  O   UNL     1      79.924  24.153  40.276  1.00  0.00    -0.507 OA
ATOM     23  H   UNL     1      78.994  24.464  40.511  1.00  0.00     0.293 HD
ENDBRANCH   6  22
BRANCH   8  24
ATOM     24  O   UNL     1      83.628  21.233  41.091  1.00  0.00    -0.508 OA
ATOM     25  H   UNL     1      84.396  20.880  41.650  1.00  0.00     0.293 HD
ENDBRANCH   8  24
TORSDOF 5
ENDMDL
MODEL 2
REMARK VINA RESULT:    -6.047      8.251     10.887
REMARK INTER + INTRA:          -7.372
REMARK INTER:                  -7.108
REMARK INTRA:                  -0.263
REMARK UNBOUND:                -0.264
REMARK SMILES O=c1cc(-c2ccc(O)c(O)c2)oc2cc(O)cc(O)c12
REMARK SMILES IDX 4 1 3 2 2 3 1 4 21 5 19 6 18 7 16 8 15 9 14 10 13 11 5 12
REMARK SMILES IDX 6 13 7 14 8 15 12 16 10 17 9 18 11 20 20 22 17 24
REMARK H PARENT 9 19 11 21 20 23 17 25
REMARK Flexibility Score: inf
ROOT
ATOM      1  C   UNL     1      76.111  17.774  44.404  1.00  0.00     0.138 A 
ATOM      2  C   UNL     1      75.478  18.521  45.407  1.00  0.00     0.100 A 
ATOM      3  C   UNL     1      76.144  18.767  46.609  1.00  0.00     0.197 A 
ATOM      4  O   UNL     1      75.574  19.493  47.464  1.00  0.00    -0.289 OA
ATOM      5  C   UNL     1      77.438  18.235  46.818  1.00  0.00     0.107 A 
ATOM      6  C   UNL     1      78.195  18.387  48.018  1.00  0.00     0.134 A 
ATOM      7  C   UNL     1      79.512  17.915  48.068  1.00  0.00     0.093 A 
ATOM      8  C   UNL     1      80.079  17.244  46.984  1.00  0.00     0.123 A 
ATOM      9  C   UNL     1      79.329  17.042  45.825  1.00  0.00     0.094 A 
ATOM     10  C   UNL     1      78.025  17.532  45.732  1.00  0.00     0.146 A 
ATOM     11  O   UNL     1      77.349  17.332  44.605  1.00  0.00    -0.456 OA
ENDROOT
BRANCH   1  12
ATOM     12  C   UNL     1      75.449  17.481  43.108  1.00  0.00     0.021 A 
ATOM     13  C   UNL     1      74.741  16.281  42.948  1.00  0.00     0.016 A 
ATOM     14  C   UNL     1      74.106  15.987  41.741  1.00  0.00     0.051 A 
ATOM     15  C   UNL     1      74.152  16.886  40.671  1.00  0.00     0.157 A 
ATOM     16  C   UNL     1      75.485  18.394  42.036  1.00  0.00     0.062 A 
ATOM     17  C   UNL     1      74.848  18.109  40.823  1.00  0.00     0.158 A 
BRANCH  15  18
ATOM     18  O   UNL     1      73.501  16.529  39.489  1.00  0.00    -0.504 OA
ATOM     19  H   UNL     1      72.880  17.141  38.980  1.00  0.00     0.293 HD
ENDBRANCH  15  18
BRANCH  17  20
ATOM     20  O   UNL     1      74.925  19.062  39.806  1.00  0.00    -0.504 OA
ATOM     21  H   UNL     1      75.787  19.347  39.362  1.00  0.00     0.293 HD
ENDBRANCH  17  20
ENDBRANCH   1  12
BRANCH   6  22
ATOM     22  O   UNL     1      77.695  18.966  49.188  1.00  0.00    -0.507 OA
ATOM     23  H   UNL     1      77.289  18.454  49.957  1.00  0.00     0.293 HD
ENDBRANCH   6  22
BRANCH   8  24
ATOM     24  O   UNL     1      81.388  16.775  47.074  1.00  0.00    -0.508 OA
ATOM     25  H   UNL     1      81.667  15.898  46.650  1.00  0.00     0.293 HD
ENDBRANCH   8  24
TORSDOF 5
ENDMDL
MODEL 3
REMARK VINA RESULT:    -5.820      8.213     11.302
REMARK INTER + INTRA:          -7.105
REMARK INTER:                  -6.832
REMARK INTRA:                  -0.272
REMARK UNBOUND:                -0.264
REMARK SMILES O=c1cc(-c2ccc(O)c(O)c2)oc2cc(O)cc(O)c12
REMARK SMILES IDX 4 1 3 2 2 3 1 4 21 5 19 6 18 7 16 8 15 9 14 10 13 11 5 12
REMARK SMILES IDX 6 13 7 14 8 15 12 16 10 17 9 18 11 20 20 22 17 24
REMARK H PARENT 9 19 11 21 20 23 17 25
REMARK Flexibility Score: inf
ROOT
ATOM      1  C   UNL     1      76.278  17.600  44.309  1.00  0.00     0.138 A 
ATOM      2  C   UNL     1      77.482  16.956  44.625  1.00  0.00     0.100 A 
ATOM      3  C   UNL     1      78.110  17.225  45.843  1.00  0.00     0.197 A 
ATOM      4  O   UNL     1      79.156  16.586  46.125  1.00  0.00    -0.289 OA
ATOM      5  C   UNL     1      77.542  18.166  46.734  1.00  0.00     0.107 A 
ATOM      6  C   UNL     1      78.114  18.550  47.984  1.00  0.00     0.134 A 
ATOM      7  C   UNL     1      77.403  19.404  48.835  1.00  0.00     0.093 A 
ATOM      8  C   UNL     1      76.171  19.938  48.457  1.00  0.00     0.123 A 
ATOM      9  C   UNL     1      75.628  19.612  47.213  1.00  0.00     0.094 A 
ATOM     10  C   UNL     1      76.296  18.734  46.357  1.00  0.00     0.146 A 
ATOM     11  O   UNL     1      75.738  18.439  45.188  1.00  0.00    -0.456 OA
ENDROOT
BRANCH   1  12
ATOM     12  C   UNL     1      75.569  17.352  43.028  1.00  0.00     0.021 A 
ATOM     13  C   UNL     1      74.859  16.155  42.851  1.00  0.00     0.016 A 
ATOM     14  C   UNL     1      74.180  15.902  41.659  1.00  0.00     0.051 A 
ATOM     15  C   UNL     1      74.183  16.840  40.622  1.00  0.00     0.157 A 
ATOM     16  C   UNL     1      75.562  18.304  41.991  1.00  0.00     0.062 A 
ATOM     17  C   UNL     1      74.879  18.060  40.793  1.00  0.00     0.158 A 
BRANCH  15  18
ATOM     18  O   UNL     1      73.488  16.525  39.453  1.00  0.00    -0.504 OA
ATOM     19  H   UNL     1      72.925  17.183  38.934  1.00  0.00     0.293 HD
ENDBRANCH  15  18
BRANCH  17  20
ATOM     20  O   UNL     1      74.915  19.051  39.809  1.00  0.00    -0.504 OA
ATOM     21  H   UNL     1      75.194  18.888  38.852  1.00  0.00     0.293 HD
ENDBRANCH  17  20
ENDBRANCH   1  12
BRANCH   6  22
ATOM     22  O   UNL     1      79.378  18.143  48.422  1.00  0.00    -0.507 OA
ATOM     23  H   UNL     1      80.244  18.335  47.942  1.00  0.00     0.293 HD
ENDBRANCH   6  22
BRANCH   8  24
ATOM     24  O   UNL     1      75.499  20.797  49.323  1.00  0.00    -0.508 OA
ATOM     25  H   UNL     1      74.929  20.445  50.084  1.00  0.00     0.293 HD
ENDBRANCH   8  24
TORSDOF 5
ENDMDL
MODEL 4
REMARK VINA RESULT:    -5.724      1.271      2.777
REMARK INTER + INTRA:          -6.992
REMARK INTER:                  -6.707
REMARK INTRA:                  -0.284
REMARK UNBOUND:                -0.264
REMARK SMILES O=c1cc(-c2ccc(O)c(O)c2)oc2cc(O)cc(O)c12
REMARK SMILES IDX 4 1 3 2 2 3 1 4 21 5 19 6 18 7 16 8 15 9 14 10 13 11 5 12
REMARK SMILES IDX 6 13 7 14 8 15 12 16 10 17 9 18 11 20 20 22 17 24
REMARK H PARENT 9 19 11 21 20 23 17 25
REMARK Flexibility Score: inf
ROOT
ATOM      1  C   UNL     1      81.584  25.012  45.186  1.00  0.00     0.138 A 
ATOM      2  C   UNL     1      82.557  24.360  44.417  1.00  0.00     0.100 A 
ATOM      3  C   UNL     1      82.230  23.888  43.144  1.00  0.00     0.197 A 
ATOM      4  O   UNL     1      83.142  23.364  42.454  1.00  0.00    -0.289 OA
ATOM      5  C   UNL     1      80.913  24.043  42.654  1.00  0.00     0.107 A 
ATOM      6  C   UNL     1      80.455  23.566  41.389  1.00  0.00     0.134 A 
ATOM      7  C   UNL     1      79.160  23.879  40.960  1.00  0.00     0.093 A 
ATOM      8  C   UNL     1      78.286  24.599  41.774  1.00  0.00     0.123 A 
ATOM      9  C   UNL     1      78.705  25.025  43.036  1.00  0.00     0.094 A 
ATOM     10  C   UNL     1      80.002  24.758  43.477  1.00  0.00     0.146 A 
ATOM     11  O   UNL     1      80.367  25.193  44.679  1.00  0.00    -0.456 OA
ENDROOT
BRANCH   1  12
ATOM     12  C   UNL     1      81.876  25.533  46.545  1.00  0.00     0.021 A 
ATOM     13  C   UNL     1      82.965  26.397  46.735  1.00  0.00     0.016 A 
ATOM     14  C   UNL     1      83.256  26.904  48.002  1.00  0.00     0.051 A 
ATOM     15  C   UNL     1      82.463  26.572  49.104  1.00  0.00     0.157 A 
ATOM     16  C   UNL     1      81.067  25.208  47.651  1.00  0.00     0.062 A 
ATOM     17  C   UNL     1      81.350  25.716  48.925  1.00  0.00     0.158 A 
BRANCH  15  18
ATOM     18  O   UNL     1      82.810  27.109  50.345  1.00  0.00    -0.504 OA
ATOM     19  H   UNL     1      82.477  26.752  51.228  1.00  0.00     0.293 HD
ENDBRANCH  15  18
BRANCH  17  20
ATOM     20  O   UNL     1      80.503  25.352  49.974  1.00  0.00    -0.504 OA
ATOM     21  H   UNL     1      80.772  25.364  50.948  1.00  0.00     0.293 HD
ENDBRANCH  17  20
ENDBRANCH   1  12
BRANCH   6  22
ATOM     22  O   UNL     1      81.218  22.765  40.534  1.00  0.00    -0.507 OA
ATOM     23  H   UNL     1      82.203  22.580  40.643  1.00  0.00     0.293 HD
ENDBRANCH   6  22
BRANCH   8  24
ATOM     24  O   UNL     1      76.998  24.881  41.321  1.00  0.00    -0.508 OA
ATOM     25  H   UNL     1      76.178  24.528  41.801  1.00  0.00     0.293 HD
ENDBRANCH   8  24
TORSDOF 5
ENDMDL
MODEL 5
REMARK VINA RESULT:    -5.642      7.769     10.817
REMARK INTER + INTRA:          -6.896
REMARK INTER:                  -6.593
REMARK INTRA:                  -0.303
REMARK UNBOUND:                -0.264
REMARK SMILES O=c1cc(-c2ccc(O)c(O)c2)oc2cc(O)cc(O)c12
REMARK SMILES IDX 4 1 3 2 2 3 1 4 21 5 19 6 18 7 16 8 15 9 14 10 13 11 5 12
REMARK SMILES IDX 6 13 7 14 8 15 12 16 10 17 9 18 11 20 20 22 17 24
REMARK H PARENT 9 19 11 21 20 23 17 25
REMARK Flexibility Score: inf
ROOT
ATOM      1  C   UNL     1      76.371  17.943  44.161  1.00  0.00     0.138 A 
ATOM      2  C   UNL     1      76.994  16.954  44.934  1.00  0.00     0.100 A 
ATOM      3  C   UNL     1      77.688  17.315  46.090  1.00  0.00     0.197 A 
ATOM      4  O   UNL     1      78.183  16.399  46.795  1.00  0.00    -0.289 OA
ATOM      5  C   UNL     1      77.784  18.678  46.455  1.00  0.00     0.107 A 
ATOM      6  C   UNL     1      78.499  19.168  47.589  1.00  0.00     0.134 A 
ATOM      7  C   UNL     1      78.427  20.527  47.917  1.00  0.00     0.093 A 
ATOM      8  C   UNL     1      77.717  21.424  47.120  1.00  0.00     0.123 A 
ATOM      9  C   UNL     1      77.058  20.966  45.978  1.00  0.00     0.094 A 
ATOM     10  C   UNL     1      77.082  19.610  45.644  1.00  0.00     0.146 A 
ATOM     11  O   UNL     1      76.430  19.211  44.557  1.00  0.00    -0.456 OA
ENDROOT
BRANCH   1  12
ATOM     12  C   UNL     1      75.621  17.615  42.923  1.00  0.00     0.021 A 
ATOM     13  C   UNL     1      74.918  16.404  42.840  1.00  0.00     0.016 A 
ATOM     14  C   UNL     1      74.201  16.076  41.689  1.00  0.00     0.051 A 
ATOM     15  C   UNL     1      74.158  16.952  40.600  1.00  0.00     0.157 A 
ATOM     16  C   UNL     1      75.567  18.505  41.833  1.00  0.00     0.062 A 
ATOM     17  C   UNL     1      74.847  18.186  40.676  1.00  0.00     0.158 A 
BRANCH  15  18
ATOM     18  O   UNL     1      73.426  16.563  39.476  1.00  0.00    -0.504 OA
ATOM     19  H   UNL     1      73.026  17.208  38.812  1.00  0.00     0.293 HD
ENDBRANCH  15  18
BRANCH  17  20
ATOM     20  O   UNL     1      74.837  19.118  39.636  1.00  0.00    -0.504 OA
ATOM     21  H   UNL     1      75.424  19.057  38.816  1.00  0.00     0.293 HD
ENDBRANCH  17  20
ENDBRANCH   1  12
BRANCH   6  22
ATOM     22  O   UNL     1      79.309  18.371  48.404  1.00  0.00    -0.507 OA
ATOM     23  H   UNL     1      79.764  17.521  48.111  1.00  0.00     0.293 HD
ENDBRANCH   6  22
BRANCH   8  24
ATOM     24  O   UNL     1      77.679  22.773  47.468  1.00  0.00    -0.508 OA
ATOM     25  H   UNL     1      77.356  23.480  46.818  1.00  0.00     0.293 HD
ENDBRANCH   8  24
TORSDOF 5
ENDMDL
MODEL 6
REMARK VINA RESULT:    -5.610      8.018      9.081
REMARK INTER + INTRA:          -6.858
REMARK INTER:                  -6.592
REMARK INTRA:                  -0.265
REMARK UNBOUND:                -0.264
REMARK SMILES O=c1cc(-c2ccc(O)c(O)c2)oc2cc(O)cc(O)c12
REMARK SMILES IDX 4 1 3 2 2 3 1 4 21 5 19 6 18 7 16 8 15 9 14 10 13 11 5 12
REMARK SMILES IDX 6 13 7 14 8 15 12 16 10 17 9 18 11 20 20 22 17 24
REMARK H PARENT 9 19 11 21 20 23 17 25
REMARK Flexibility Score: inf
ROOT
ATOM      1  C   UNL     1      75.843  18.143  44.768  1.00  0.00     0.138 A 
ATOM      2  C   UNL     1      75.502  16.974  44.074  1.00  0.00     0.100 A 
ATOM      3  C   UNL     1      75.128  17.053  42.731  1.00  0.00     0.197 A 
ATOM      4  O   UNL     1      74.889  15.980  42.119  1.00  0.00    -0.289 OA
ATOM      5  C   UNL     1      75.066  18.312  42.091  1.00  0.00     0.107 A 
ATOM      6  C   UNL     1      74.659  18.517  40.738  1.00  0.00     0.134 A 
ATOM      7  C   UNL     1      74.748  19.797  40.177  1.00  0.00     0.093 A 
ATOM      8  C   UNL     1      75.170  20.889  40.934  1.00  0.00     0.123 A 
ATOM      9  C   UNL     1      75.519  20.710  42.274  1.00  0.00     0.094 A 
ATOM     10  C   UNL     1      75.475  19.440  42.853  1.00  0.00     0.146 A 
ATOM     11  O   UNL     1      75.829  19.308  44.127  1.00  0.00    -0.456 OA
ENDROOT
BRANCH   1  12
ATOM     12  C   UNL     1      76.247  18.118  46.196  1.00  0.00     0.021 A 
ATOM     13  C   UNL     1      75.261  18.142  47.194  1.00  0.00     0.016 A 
ATOM     14  C   UNL     1      75.616  18.113  48.543  1.00  0.00     0.051 A 
ATOM     15  C   UNL     1      76.958  18.049  48.928  1.00  0.00     0.157 A 
ATOM     16  C   UNL     1      77.599  18.039  46.581  1.00  0.00     0.062 A 
ATOM     17  C   UNL     1      77.963  18.006  47.933  1.00  0.00     0.158 A 
BRANCH  15  18
ATOM     18  O   UNL     1      77.246  18.028  50.294  1.00  0.00    -0.504 OA
ATOM     19  H   UNL     1      76.812  18.636  50.973  1.00  0.00     0.293 HD
ENDBRANCH  15  18
BRANCH  17  20
ATOM     20  O   UNL     1      79.323  17.926  48.239  1.00  0.00    -0.504 OA
ATOM     21  H   UNL     1      80.064  18.081  47.570  1.00  0.00     0.293 HD
ENDBRANCH  17  20
ENDBRANCH   1  12
BRANCH   6  22
ATOM     22  O   UNL     1      74.141  17.511  39.918  1.00  0.00    -0.507 OA
ATOM     23  H   UNL     1      74.209  17.495  38.912  1.00  0.00     0.293 HD
ENDBRANCH   6  22
BRANCH   8  24
ATOM     24  O   UNL     1      75.233  22.151  40.348  1.00  0.00    -0.508 OA
ATOM     25  H   UNL     1      74.474  22.816  40.439  1.00  0.00     0.293 HD
ENDBRANCH   8  24
TORSDOF 5
ENDMDL
MODEL 7
REMARK VINA RESULT:    -5.559      2.507      3.637
REMARK INTER + INTRA:          -6.798
REMARK INTER:                  -6.506
REMARK INTRA:                  -0.292
REMARK UNBOUND:                -0.264
REMARK SMILES O=c1cc(-c2ccc(O)c(O)c2)oc2cc(O)cc(O)c12
REMARK SMILES IDX 4 1 3 2 2 3 1 4 21 5 19 6 18 7 16 8 15 9 14 10 13 11 5 12
REMARK SMILES IDX 6 13 7 14 8 15 12 16 10 17 9 18 11 20 20 22 17 24
REMARK H PARENT 9 19 11 21 20 23 17 25
REMARK Flexibility Score: inf
ROOT
ATOM      1  C   UNL     1      79.705  24.959  46.881  1.00  0.00     0.138 A 
ATOM      2  C   UNL     1      78.979  24.218  45.938  1.00  0.00     0.100 A 
ATOM      3  C   UNL     1      79.552  23.927  44.700  1.00  0.00     0.197 A 
ATOM      4  O   UNL     1      78.901  23.207  43.899  1.00  0.00    -0.289 OA
ATOM      5  C   UNL     1      80.848  24.406  44.394  1.00  0.00     0.107 A 
ATOM      6  C   UNL     1      81.516  24.204  43.149  1.00  0.00     0.134 A 
ATOM      7  C   UNL     1      82.843  24.625  43.001  1.00  0.00     0.093 A 
ATOM      8  C   UNL     1      83.506  25.293  44.030  1.00  0.00     0.123 A 
ATOM      9  C   UNL     1      82.844  25.544  45.233  1.00  0.00     0.094 A 
ATOM     10  C   UNL     1      81.532  25.105  45.424  1.00  0.00     0.146 A 
ATOM     11  O   UNL     1      80.942  25.351  46.589  1.00  0.00    -0.456 OA
ENDROOT
BRANCH   1  12
ATOM     12  C   UNL     1      79.144  25.299  48.213  1.00  0.00     0.021 A 
ATOM     13  C   UNL     1      78.492  24.308  48.962  1.00  0.00     0.016 A 
ATOM     14  C   UNL     1      77.962  24.602  50.219  1.00  0.00     0.051 A 
ATOM     15  C   UNL     1      78.080  25.884  50.762  1.00  0.00     0.157 A 
ATOM     16  C   UNL     1      79.276  26.588  48.764  1.00  0.00     0.062 A 
ATOM     17  C   UNL     1      78.751  26.890  50.026  1.00  0.00     0.158 A 
BRANCH  15  18
ATOM     18  O   UNL     1      77.523  26.115  52.022  1.00  0.00    -0.504 OA
ATOM     19  H   UNL     1      77.261  25.383  52.666  1.00  0.00     0.293 HD
ENDBRANCH  15  18
BRANCH  17  20
ATOM     20  O   UNL     1      78.922  28.189  50.509  1.00  0.00    -0.504 OA
ATOM     21  H   UNL     1      79.797  28.552  50.860  1.00  0.00     0.293 HD
ENDBRANCH  17  20
ENDBRANCH   1  12
BRANCH   6  22
ATOM     22  O   UNL     1      80.917  23.624  42.026  1.00  0.00    -0.507 OA
ATOM     23  H   UNL     1      81.416  23.283  41.218  1.00  0.00     0.293 HD
ENDBRANCH   6  22
BRANCH   8  24
ATOM     24  O   UNL     1      84.822  25.711  43.843  1.00  0.00    -0.508 OA
ATOM     25  H   UNL     1      85.539  25.530  44.535  1.00  0.00     0.293 HD
ENDBRANCH   8  24
TORSDOF 5
ENDMDL
MODEL 8
REMARK VINA RESULT:    -5.542      2.353      3.842
REMARK INTER + INTRA:          -6.778
REMARK INTER:                  -6.486
REMARK INTRA:                  -0.292
REMARK UNBOUND:                -0.264
REMARK SMILES O=c1cc(-c2ccc(O)c(O)c2)oc2cc(O)cc(O)c12
REMARK SMILES IDX 4 1 3 2 2 3 1 4 21 5 19 6 18 7 16 8 15 9 14 10 13 11 5 12
REMARK SMILES IDX 6 13 7 14 8 15 12 16 10 17 9 18 11 20 20 22 17 24
REMARK H PARENT 9 19 11 21 20 23 17 25
REMARK Flexibility Score: inf
ROOT
ATOM      1  C   UNL     1      80.489  25.421  46.820  1.00  0.00     0.138 A 
ATOM      2  C   UNL     1      81.786  25.951  46.871  1.00  0.00     0.100 A 
ATOM      3  C   UNL     1      82.683  25.680  45.836  1.00  0.00     0.197 A 
ATOM      4  O   UNL     1      83.818  26.221  45.879  1.00  0.00    -0.289 OA
ATOM      5  C   UNL     1      82.288  24.849  44.762  1.00  0.00     0.107 A 
ATOM      6  C   UNL     1      83.130  24.471  43.674  1.00  0.00     0.134 A 
ATOM      7  C   UNL     1      82.594  23.738  42.608  1.00  0.00     0.093 A 
ATOM      8  C   UNL     1      81.265  23.317  42.618  1.00  0.00     0.123 A 
ATOM      9  C   UNL     1      80.446  23.635  43.703  1.00  0.00     0.094 A 
ATOM     10  C   UNL     1      80.942  24.395  44.765  1.00  0.00     0.146 A 
ATOM     11  O   UNL     1      80.126  24.688  45.772  1.00  0.00    -0.456 OA
ENDROOT
BRANCH   1  12
ATOM     12  C   UNL     1      79.495  25.677  47.893  1.00  0.00     0.021 A 
ATOM     13  C   UNL     1      78.406  24.806  48.048  1.00  0.00     0.016 A 
ATOM     14  C   UNL     1      77.462  25.021  49.053  1.00  0.00     0.051 A 
ATOM     15  C   UNL     1      77.588  26.101  49.931  1.00  0.00     0.157 A 
ATOM     16  C   UNL     1      79.631  26.757  48.785  1.00  0.00     0.062 A 
ATOM     17  C   UNL     1      78.690  26.979  49.799  1.00  0.00     0.158 A 
BRANCH  15  18
ATOM     18  O   UNL     1      76.607  26.265  50.911  1.00  0.00    -0.504 OA
ATOM     19  H   UNL     1      75.633  26.032  50.780  1.00  0.00     0.293 HD
ENDBRANCH  15  18
BRANCH  17  20
ATOM     20  O   UNL     1      78.891  28.069  50.647  1.00  0.00    -0.504 OA
ATOM     21  H   UNL     1      79.778  28.298  51.074  1.00  0.00     0.293 HD
ENDBRANCH  17  20
ENDBRANCH   1  12
BRANCH   6  22
ATOM     22  O   UNL     1      84.495  24.766  43.604  1.00  0.00    -0.507 OA
ATOM     23  H   UNL     1      85.219  24.099  43.387  1.00  0.00     0.293 HD
ENDBRANCH   6  22
BRANCH   8  24
ATOM     24  O   UNL     1      80.769  22.577  41.548  1.00  0.00    -0.508 OA
ATOM     25  H   UNL     1      80.201  23.003  40.825  1.00  0.00     0.293 HD
ENDBRANCH   8  24
TORSDOF 5
ENDMDL
MODEL 9
REMARK VINA RESULT:    -5.462      1.975      7.188
REMARK INTER + INTRA:          -6.684
REMARK INTER:                  -6.373
REMARK INTRA:                  -0.311
REMARK UNBOUND:                -0.264
REMARK SMILES O=c1cc(-c2ccc(O)c(O)c2)oc2cc(O)cc(O)c12
REMARK SMILES IDX 4 1 3 2 2 3 1 4 21 5 19 6 18 7 16 8 15 9 14 10 13 11 5 12
REMARK SMILES IDX 6 13 7 14 8 15 12 16 10 17 9 18 11 20 20 22 17 24
REMARK H PARENT 9 19 11 21 20 23 17 25
REMARK Flexibility Score: inf
ROOT
ATOM      1  C   UNL     1      80.977  24.579  45.043  1.00  0.00     0.138 A 
ATOM      2  C   UNL     1      81.941  25.271  45.788  1.00  0.00     0.100 A 
ATOM      3  C   UNL     1      81.622  25.740  47.064  1.00  0.00     0.197 A 
ATOM      4  O   UNL     1      82.528  26.302  47.732  1.00  0.00    -0.289 OA
ATOM      5  C   UNL     1      80.321  25.542  47.581  1.00  0.00     0.107 A 
ATOM      6  C   UNL     1      79.871  26.012  48.851  1.00  0.00     0.134 A 
ATOM      7  C   UNL     1      78.595  25.655  49.307  1.00  0.00     0.093 A 
ATOM      8  C   UNL     1      77.732  24.898  48.515  1.00  0.00     0.123 A 
ATOM      9  C   UNL     1      78.142  24.479  47.248  1.00  0.00     0.094 A 
ATOM     10  C   UNL     1      79.421  24.789  46.780  1.00  0.00     0.146 A 
ATOM     11  O   UNL     1      79.778  24.359  45.574  1.00  0.00    -0.456 OA
ENDROOT
BRANCH   1  12
ATOM     12  C   UNL     1      81.262  24.059  43.682  1.00  0.00     0.021 A 
ATOM     13  C   UNL     1      82.590  23.836  43.290  1.00  0.00     0.016 A 
ATOM     14  C   UNL     1      82.882  23.343  42.018  1.00  0.00     0.051 A 
ATOM     15  C   UNL     1      81.858  23.049  41.113  1.00  0.00     0.157 A 
ATOM     16  C   UNL     1      80.228  23.751  42.776  1.00  0.00     0.062 A 
ATOM     17  C   UNL     1      80.512  23.251  41.500  1.00  0.00     0.158 A 
BRANCH  15  18
ATOM     18  O   UNL     1      82.218  22.562  39.855  1.00  0.00    -0.504 OA
ATOM     19  H   UNL     1      82.603  21.644  39.693  1.00  0.00     0.293 HD
ENDBRANCH  15  18
BRANCH  17  20
ATOM     20  O   UNL     1      79.436  22.967  40.657  1.00  0.00    -0.504 OA
ATOM     21  H   UNL     1      79.444  23.119  39.658  1.00  0.00     0.293 HD
ENDBRANCH  17  20
ENDBRANCH   1  12
BRANCH   6  22
ATOM     22  O   UNL     1      80.620  26.845  49.686  1.00  0.00    -0.507 OA
ATOM     23  H   UNL     1      80.414  27.815  49.868  1.00  0.00     0.293 HD
ENDBRANCH   6  22
BRANCH   8  24
ATOM     24  O   UNL     1      76.465  24.574  48.994  1.00  0.00    -0.508 OA
ATOM     25  H   UNL     1      76.329  23.846  49.686  1.00  0.00     0.293 HD
ENDBRANCH   8  24
TORSDOF 5
ENDMDL
