MODEL 1
REMARK VINA RESULT:    -5.633      0.000      0.000
REMARK INTER + INTRA:          -6.902
REMARK INTER:                  -6.621
REMARK INTRA:                  -0.281
REMARK UNBOUND:                -0.281
REMARK SMILES O=c1cc(-c2ccc(O)c(O)c2)oc2cc(O)cc(O)c12
REMARK SMILES IDX 4 1 3 2 2 3 1 4 21 5 19 6 18 7 16 8 15 9 14 10 13 11 5 12
REMARK SMILES IDX 6 13 7 14 8 15 12 16 10 17 9 18 11 20 20 22 17 24
REMARK H PARENT 9 19 11 21 20 23 17 25
REMARK Flexibility Score: inf
ROOT
ATOM      1  C   UNL     1     131.000 132.716 132.907  1.00  0.00     0.138 A 
ATOM      2  C   UNL     1     130.443 133.935 132.482  1.00  0.00     0.100 A 
ATOM      3  C   UNL     1     131.255 135.065 132.388  1.00  0.00     0.197 A 
ATOM      4  O   UNL     1     130.747 136.153 132.005  1.00  0.00    -0.289 OA
ATOM      5  C   UNL     1     132.623 134.969 132.716  1.00  0.00     0.107 A 
ATOM      6  C   UNL     1     133.515 136.066 132.649  1.00  0.00     0.134 A 
ATOM      7  C   UNL     1     134.864 135.886 132.989  1.00  0.00     0.093 A 
ATOM      8  C   UNL     1     135.337 134.634 133.391  1.00  0.00     0.123 A 
ATOM      9  C   UNL     1     134.460 133.547 133.459  1.00  0.00     0.094 A 
ATOM     10  C   UNL     1     133.112 133.705 133.126  1.00  0.00     0.146 A 
ATOM     11  O   UNL     1     132.298 132.657 133.200  1.00  0.00    -0.456 OA
ENDROOT
BRANCH   1  12
ATOM     12  C   UNL     1     130.185 131.481 133.025  1.00  0.00     0.021 A 
ATOM     13  C   UNL     1     130.414 130.537 134.045  1.00  0.00     0.016 A 
ATOM     14  C   UNL     1     129.638 129.379 134.125  1.00  0.00     0.051 A 
ATOM     15  C   UNL     1     128.628 129.137 133.191  1.00  0.00     0.157 A 
ATOM     16  C   UNL     1     129.176 131.225 132.080  1.00  0.00     0.062 A 
ATOM     17  C   UNL     1     128.395 130.062 132.161  1.00  0.00     0.158 A 
BRANCH  15  18
ATOM     18  O   UNL     1     127.869 127.972 133.299  1.00  0.00    -0.504 OA
ATOM     19  H   UNL     1     128.230 127.067 133.022  1.00  0.00     0.293 HD
ENDBRANCH  15  18
BRANCH  17  20
ATOM     20  O   UNL     1     127.392 129.825 131.223  1.00  0.00    -0.504 OA
ATOM     21  H   UNL     1     126.647 129.161 131.398  1.00  0.00     0.293 HD
ENDBRANCH  17  20
ENDBRANCH   1  12
BRANCH   6  22
ATOM     22  O   UNL     1     133.071 137.327 132.250  1.00  0.00    -0.507 OA
ATOM     23  H   UNL     1     132.663 137.484 131.335  1.00  0.00     0.293 HD
ENDBRANCH   6  22
BRANCH   8  24
ATOM     24  O   UNL     1     136.682 134.482 133.721  1.00  0.00    -0.508 OA
ATOM     25  H   UNL     1     136.981 133.838 134.443  1.00  0.00     0.293 HD
ENDBRANCH   8  24
TORSDOF 5
ENDMDL
MODEL 2
REMARK VINA RESULT:    -5.631      3.480      6.286
REMARK INTER + INTRA:          -6.900
REMARK INTER:                  -6.591
REMARK INTRA:                  -0.309
REMARK UNBOUND:                -0.281
REMARK SMILES O=c1cc(-c2ccc(O)c(O)c2)oc2cc(O)cc(O)c12
REMARK SMILES IDX 4 1 3 2 2 3 1 4 21 5 19 6 18 7 16 8 15 9 14 10 13 11 5 12
REMARK SMILES IDX 6 13 7 14 8 15 12 16 10 17 9 18 11 20 20 22 17 24
REMARK H PARENT 9 19 11 21 20 23 17 25
REMARK Flexibility Score: inf
ROOT
ATOM      1  C   UNL     1     128.407 127.658 132.992  1.00  0.00     0.138 A 
ATOM      2  C   UNL     1     129.806 127.529 132.993  1.00  0.00     0.100 A 
ATOM      3  C   UNL     1     130.602 128.675 133.001  1.00  0.00     0.197 A 
ATOM      4  O   UNL     1     131.856 128.549 133.004  1.00  0.00    -0.289 OA
ATOM      5  C   UNL     1     129.992 129.946 133.010  1.00  0.00     0.107 A 
ATOM      6  C   UNL     1     130.724 131.157 133.017  1.00  0.00     0.134 A 
ATOM      7  C   UNL     1     130.040 132.382 133.031  1.00  0.00     0.093 A 
ATOM      8  C   UNL     1     128.644 132.419 133.040  1.00  0.00     0.123 A 
ATOM      9  C   UNL     1     127.915 131.225 133.034  1.00  0.00     0.094 A 
ATOM     10  C   UNL     1     128.577 129.994 133.018  1.00  0.00     0.146 A 
ATOM     11  O   UNL     1     127.862 128.873 133.010  1.00  0.00    -0.456 OA
ENDROOT
BRANCH   1  12
ATOM     12  C   UNL     1     127.511 126.475 132.984  1.00  0.00     0.021 A 
ATOM     13  C   UNL     1     127.916 125.242 132.436  1.00  0.00     0.016 A 
ATOM     14  C   UNL     1     127.048 124.148 132.434  1.00  0.00     0.051 A 
ATOM     15  C   UNL     1     125.763 124.263 132.970  1.00  0.00     0.157 A 
ATOM     16  C   UNL     1     126.212 126.587 133.509  1.00  0.00     0.062 A 
ATOM     17  C   UNL     1     125.339 125.489 133.509  1.00  0.00     0.158 A 
BRANCH  15  18
ATOM     18  O   UNL     1     124.920 123.152 132.955  1.00  0.00    -0.504 OA
ATOM     19  H   UNL     1     124.596 122.710 133.807  1.00  0.00     0.293 HD
ENDBRANCH  15  18
BRANCH  17  20
ATOM     20  O   UNL     1     124.057 125.611 134.041  1.00  0.00    -0.504 OA
ATOM     21  H   UNL     1     123.870 126.198 134.847  1.00  0.00     0.293 HD
ENDBRANCH  17  20
ENDBRANCH   1  12
BRANCH   6  22
ATOM     22  O   UNL     1     132.119 131.151 133.010  1.00  0.00    -0.507 OA
ATOM     23  H   UNL     1     132.648 131.158 132.144  1.00  0.00     0.293 HD
ENDBRANCH   6  22
BRANCH   8  24
ATOM     24  O   UNL     1     127.990 133.649 133.055  1.00  0.00    -0.508 OA
ATOM     25  H   UNL     1     128.426 134.486 132.689  1.00  0.00     0.293 HD
ENDBRANCH   8  24
TORSDOF 5
ENDMDL
MODEL 3
REMARK VINA RESULT:    -5.567      1.696      7.074
REMARK INTER + INTRA:          -6.825
REMARK INTER:                  -6.514
REMARK INTRA:                  -0.311
REMARK UNBOUND:                -0.281
REMARK SMILES O=c1cc(-c2ccc(O)c(O)c2)oc2cc(O)cc(O)c12
REMARK SMILES IDX 4 1 3 2 2 3 1 4 21 5 19 6 18 7 16 8 15 9 14 10 13 11 5 12
REMARK SMILES IDX 6 13 7 14 8 15 12 16 10 17 9 18 11 20 20 22 17 24
REMARK H PARENT 9 19 11 21 20 23 17 25
REMARK Flexibility Score: inf
ROOT
ATOM      1  C   UNL     1     131.216 131.965 132.872  1.00  0.00     0.138 A 
ATOM      2  C   UNL     1     129.823 132.118 132.763  1.00  0.00     0.100 A 
ATOM      3  C   UNL     1     129.008 130.986 132.738  1.00  0.00     0.197 A 
ATOM      4  O   UNL     1     127.760 131.134 132.642  1.00  0.00    -0.289 OA
ATOM      5  C   UNL     1     129.591 129.706 132.824  1.00  0.00     0.107 A 
ATOM      6  C   UNL     1     128.838 128.508 132.805  1.00  0.00     0.134 A 
ATOM      7  C   UNL     1     129.495 127.272 132.901  1.00  0.00     0.093 A 
ATOM      8  C   UNL     1     130.886 127.212 133.017  1.00  0.00     0.123 A 
ATOM      9  C   UNL     1     131.636 128.393 133.037  1.00  0.00     0.094 A 
ATOM     10  C   UNL     1     131.000 129.634 132.942  1.00  0.00     0.146 A 
ATOM     11  O   UNL     1     131.735 130.742 132.962  1.00  0.00    -0.456 OA
ENDROOT
BRANCH   1  12
ATOM     12  C   UNL     1     132.132 133.132 132.905  1.00  0.00     0.021 A 
ATOM     13  C   UNL     1     131.768 134.375 132.351  1.00  0.00     0.016 A 
ATOM     14  C   UNL     1     132.655 135.453 132.388  1.00  0.00     0.051 A 
ATOM     15  C   UNL     1     133.918 135.313 132.967  1.00  0.00     0.157 A 
ATOM     16  C   UNL     1     133.410 132.993 133.474  1.00  0.00     0.062 A 
ATOM     17  C   UNL     1     134.301 134.076 133.512  1.00  0.00     0.158 A 
BRANCH  15  18
ATOM     18  O   UNL     1     134.780 136.409 132.989  1.00  0.00    -0.504 OA
ATOM     19  H   UNL     1     134.593 137.229 133.554  1.00  0.00     0.293 HD
ENDBRANCH  15  18
BRANCH  17  20
ATOM     20  O   UNL     1     135.561 133.927 134.088  1.00  0.00    -0.504 OA
ATOM     21  H   UNL     1     135.708 133.339 134.900  1.00  0.00     0.293 HD
ENDBRANCH  17  20
ENDBRANCH   1  12
BRANCH   6  22
ATOM     22  O   UNL     1     127.448 128.537 132.690  1.00  0.00    -0.507 OA
ATOM     23  H   UNL     1     126.855 128.813 133.465  1.00  0.00     0.293 HD
ENDBRANCH   6  22
BRANCH   8  24
ATOM     24  O   UNL     1     131.514 125.972 133.112  1.00  0.00    -0.508 OA
ATOM     25  H   UNL     1     132.059 125.714 133.926  1.00  0.00     0.293 HD
ENDBRANCH   8  24
TORSDOF 5
ENDMDL
MODEL 4
REMARK VINA RESULT:    -5.494      3.718      9.884
REMARK INTER + INTRA:          -6.739
REMARK INTER:                  -6.458
REMARK INTRA:                  -0.281
REMARK UNBOUND:                -0.281
REMARK SMILES O=c1cc(-c2ccc(O)c(O)c2)oc2cc(O)cc(O)c12
REMARK SMILES IDX 4 1 3 2 2 3 1 4 21 5 19 6 18 7 16 8 15 9 14 10 13 11 5 12
REMARK SMILES IDX 6 13 7 14 8 15 12 16 10 17 9 18 11 20 20 22 17 24
REMARK H PARENT 9 19 11 21 20 23 17 25
REMARK Flexibility Score: inf
ROOT
ATOM      1  C   UNL     1     128.909 127.232 133.371  1.00  0.00     0.138 A 
ATOM      2  C   UNL     1     129.588 126.002 133.330  1.00  0.00     0.100 A 
ATOM      3  C   UNL     1     128.857 124.815 133.311  1.00  0.00     0.197 A 
ATOM      4  O   UNL     1     129.475 123.716 133.273  1.00  0.00    -0.289 OA
ATOM      5  C   UNL     1     127.449 124.863 133.331  1.00  0.00     0.107 A 
ATOM      6  C   UNL     1     126.632 123.708 133.316  1.00  0.00     0.134 A 
ATOM      7  C   UNL     1     125.236 123.843 133.332  1.00  0.00     0.093 A 
ATOM      8  C   UNL     1     124.642 125.107 133.362  1.00  0.00     0.123 A 
ATOM      9  C   UNL     1     125.444 126.253 133.377  1.00  0.00     0.094 A 
ATOM     10  C   UNL     1     126.838 126.140 133.362  1.00  0.00     0.146 A 
ATOM     11  O   UNL     1     127.578 127.244 133.379  1.00  0.00    -0.456 OA
ENDROOT
BRANCH   1  12
ATOM     12  C   UNL     1     129.634 128.527 133.391  1.00  0.00     0.021 A 
ATOM     13  C   UNL     1     129.159 129.631 134.125  1.00  0.00     0.016 A 
ATOM     14  C   UNL     1     129.857 130.841 134.117  1.00  0.00     0.051 A 
ATOM     15  C   UNL     1     131.033 130.975 133.376  1.00  0.00     0.157 A 
ATOM     16  C   UNL     1     130.812 128.673 132.636  1.00  0.00     0.062 A 
ATOM     17  C   UNL     1     131.514 129.887 132.628  1.00  0.00     0.158 A 
BRANCH  15  18
ATOM     18  O   UNL     1     131.708 132.195 133.389  1.00  0.00    -0.504 OA
ATOM     19  H   UNL     1     131.219 133.080 133.445  1.00  0.00     0.293 HD
ENDBRANCH  15  18
BRANCH  17  20
ATOM     20  O   UNL     1     132.684 130.015 131.883  1.00  0.00    -0.504 OA
ATOM     21  H   UNL     1     133.562 130.285 132.313  1.00  0.00     0.293 HD
ENDBRANCH  17  20
ENDBRANCH   1  12
BRANCH   6  22
ATOM     22  O   UNL     1     127.196 122.432 133.285  1.00  0.00    -0.507 OA
ATOM     23  H   UNL     1     126.690 121.617 133.612  1.00  0.00     0.293 HD
ENDBRANCH   6  22
BRANCH   8  24
ATOM     24  O   UNL     1     123.253 125.213 133.377  1.00  0.00    -0.508 OA
ATOM     25  H   UNL     1     122.672 124.653 132.764  1.00  0.00     0.293 HD
ENDBRANCH   8  24
TORSDOF 5
ENDMDL
MODEL 5
REMARK VINA RESULT:    -5.294      1.613      3.012
REMARK INTER + INTRA:          -6.504
REMARK INTER:                  -6.206
REMARK INTRA:                  -0.298
REMARK UNBOUND:                -0.281
REMARK SMILES O=c1cc(-c2ccc(O)c(O)c2)oc2cc(O)cc(O)c12
REMARK SMILES IDX 4 1 3 2 2 3 1 4 21 5 19 6 18 7 16 8 15 9 14 10 13 11 5 12
REMARK SMILES IDX 6 13 7 14 8 15 12 16 10 17 9 18 11 20 20 22 17 24
REMARK H PARENT 9 19 11 21 20 23 17 25
REMARK Flexibility Score: inf
ROOT
ATOM      1  C   UNL     1     130.590 132.172 133.424  1.00  0.00     0.138 A 
ATOM      2  C   UNL     1     131.994 132.189 133.376  1.00  0.00     0.100 A 
ATOM      3  C   UNL     1     132.667 133.410 133.419  1.00  0.00     0.197 A 
ATOM      4  O   UNL     1     133.928 133.416 133.377  1.00  0.00    -0.289 OA
ATOM      5  C   UNL     1     131.932 134.608 133.513  1.00  0.00     0.107 A 
ATOM      6  C   UNL     1     132.535 135.887 133.560  1.00  0.00     0.134 A 
ATOM      7  C   UNL     1     131.730 137.032 133.658  1.00  0.00     0.093 A 
ATOM      8  C   UNL     1     130.338 136.923 133.711  1.00  0.00     0.123 A 
ATOM      9  C   UNL     1     129.736 135.661 133.665  1.00  0.00     0.094 A 
ATOM     10  C   UNL     1     130.520 134.508 133.566  1.00  0.00     0.146 A 
ATOM     11  O   UNL     1     129.924 133.321 133.522  1.00  0.00    -0.456 OA
ENDROOT
BRANCH   1  12
ATOM     12  C   UNL     1     129.821 130.903 133.383  1.00  0.00     0.021 A 
ATOM     13  C   UNL     1     130.261 129.747 134.057  1.00  0.00     0.016 A 
ATOM     14  C   UNL     1     129.521 128.564 133.992  1.00  0.00     0.051 A 
ATOM     15  C   UNL     1     128.338 128.508 133.252  1.00  0.00     0.157 A 
ATOM     16  C   UNL     1     128.636 130.836 132.629  1.00  0.00     0.062 A 
ATOM     17  C   UNL     1     127.892 129.649 132.564  1.00  0.00     0.158 A 
BRANCH  15  18
ATOM     18  O   UNL     1     127.621 127.313 133.208  1.00  0.00    -0.504 OA
ATOM     19  H   UNL     1     127.705 126.663 132.436  1.00  0.00     0.293 HD
ENDBRANCH  15  18
BRANCH  17  20
ATOM     20  O   UNL     1     126.715 129.599 131.820  1.00  0.00    -0.504 OA
ATOM     21  H   UNL     1     125.889 129.122 132.164  1.00  0.00     0.293 HD
ENDBRANCH  17  20
ENDBRANCH   1  12
BRANCH   6  22
ATOM     22  O   UNL     1     133.922 136.028 133.510  1.00  0.00    -0.507 OA
ATOM     23  H   UNL     1     134.483 135.541 132.819  1.00  0.00     0.293 HD
ENDBRANCH   6  22
BRANCH   8  24
ATOM     24  O   UNL     1     129.562 138.076 133.811  1.00  0.00    -0.508 OA
ATOM     25  H   UNL     1     128.821 138.159 134.496  1.00  0.00     0.293 HD
ENDBRANCH   8  24
TORSDOF 5
ENDMDL
MODEL 6
REMARK VINA RESULT:    -5.254      3.940      9.565
REMARK INTER + INTRA:          -6.457
REMARK INTER:                  -6.170
REMARK INTRA:                  -0.287
REMARK UNBOUND:                -0.281
REMARK SMILES O=c1cc(-c2ccc(O)c(O)c2)oc2cc(O)cc(O)c12
REMARK SMILES IDX 4 1 3 2 2 3 1 4 21 5 19 6 18 7 16 8 15 9 14 10 13 11 5 12
REMARK SMILES IDX 6 13 7 14 8 15 12 16 10 17 9 18 11 20 20 22 17 24
REMARK H PARENT 9 19 11 21 20 23 17 25
REMARK Flexibility Score: inf
ROOT
ATOM      1  C   UNL     1     128.773 127.272 133.389  1.00  0.00     0.138 A 
ATOM      2  C   UNL     1     127.377 127.286 133.238  1.00  0.00     0.100 A 
ATOM      3  C   UNL     1     126.669 126.084 133.284  1.00  0.00     0.197 A 
ATOM      4  O   UNL     1     125.416 126.107 133.150  1.00  0.00    -0.289 OA
ATOM      5  C   UNL     1     127.363 124.874 133.484  1.00  0.00     0.107 A 
ATOM      6  C   UNL     1     126.724 123.614 133.542  1.00  0.00     0.134 A 
ATOM      7  C   UNL     1     127.488 122.455 133.749  1.00  0.00     0.093 A 
ATOM      8  C   UNL     1     128.875 122.534 133.900  1.00  0.00     0.123 A 
ATOM      9  C   UNL     1     129.512 123.777 133.844  1.00  0.00     0.094 A 
ATOM     10  C   UNL     1     128.769 124.943 133.638  1.00  0.00     0.146 A 
ATOM     11  O   UNL     1     129.399 126.113 133.586  1.00  0.00    -0.456 OA
ENDROOT
BRANCH   1  12
ATOM     12  C   UNL     1     129.578 128.519 133.351  1.00  0.00     0.021 A 
ATOM     13  C   UNL     1     129.237 129.645 134.125  1.00  0.00     0.016 A 
ATOM     14  C   UNL     1     130.007 130.808 134.060  1.00  0.00     0.051 A 
ATOM     15  C   UNL     1     131.122 130.874 133.222  1.00  0.00     0.157 A 
ATOM     16  C   UNL     1     130.694 128.596 132.499  1.00  0.00     0.062 A 
ATOM     17  C   UNL     1     131.468 129.764 132.434  1.00  0.00     0.158 A 
BRANCH  15  18
ATOM     18  O   UNL     1     131.872 132.049 133.181  1.00  0.00    -0.504 OA
ATOM     19  H   UNL     1     132.564 132.271 133.887  1.00  0.00     0.293 HD
ENDBRANCH  15  18
BRANCH  17  20
ATOM     20  O   UNL     1     132.577 129.824 131.592  1.00  0.00    -0.504 OA
ATOM     21  H   UNL     1     132.486 129.743 130.586  1.00  0.00     0.293 HD
ENDBRANCH  17  20
ENDBRANCH   1  12
BRANCH   6  22
ATOM     22  O   UNL     1     125.341 123.504 133.395  1.00  0.00    -0.507 OA
ATOM     23  H   UNL     1     124.774 124.287 133.089  1.00  0.00     0.293 HD
ENDBRANCH   6  22
BRANCH   8  24
ATOM     24  O   UNL     1     129.610 121.368 134.106  1.00  0.00    -0.508 OA
ATOM     25  H   UNL     1     130.480 121.197 133.617  1.00  0.00     0.293 HD
ENDBRANCH   8  24
TORSDOF 5
ENDMDL
MODEL 7
REMARK VINA RESULT:    -5.139      1.536      3.102
REMARK INTER + INTRA:          -6.321
REMARK INTER:                  -6.031
REMARK INTRA:                  -0.291
REMARK UNBOUND:                -0.281
REMARK SMILES O=c1cc(-c2ccc(O)c(O)c2)oc2cc(O)cc(O)c12
REMARK SMILES IDX 4 1 3 2 2 3 1 4 21 5 19 6 18 7 16 8 15 9 14 10 13 11 5 12
REMARK SMILES IDX 6 13 7 14 8 15 12 16 10 17 9 18 11 20 20 22 17 24
REMARK H PARENT 9 19 11 21 20 23 17 25
REMARK Flexibility Score: inf
ROOT
ATOM      1  C   UNL     1     131.187 132.898 133.069  1.00  0.00     0.138 A 
ATOM      2  C   UNL     1     132.587 132.779 133.069  1.00  0.00     0.100 A 
ATOM      3  C   UNL     1     133.373 133.931 133.086  1.00  0.00     0.197 A 
ATOM      4  O   UNL     1     134.629 133.815 133.087  1.00  0.00    -0.289 OA
ATOM      5  C   UNL     1     132.754 135.197 133.106  1.00  0.00     0.107 A 
ATOM      6  C   UNL     1     133.476 136.414 133.123  1.00  0.00     0.134 A 
ATOM      7  C   UNL     1     132.783 137.633 133.148  1.00  0.00     0.093 A 
ATOM      8  C   UNL     1     131.386 137.659 133.157  1.00  0.00     0.123 A 
ATOM      9  C   UNL     1     130.667 136.460 133.141  1.00  0.00     0.094 A 
ATOM     10  C   UNL     1     131.339 135.234 133.115  1.00  0.00     0.146 A 
ATOM     11  O   UNL     1     130.633 134.108 133.098  1.00  0.00    -0.456 OA
ENDROOT
BRANCH   1  12
ATOM     12  C   UNL     1     130.300 131.707 133.052  1.00  0.00     0.021 A 
ATOM     13  C   UNL     1     128.950 131.795 132.660  1.00  0.00     0.016 A 
ATOM     14  C   UNL     1     128.136 130.660 132.664  1.00  0.00     0.051 A 
ATOM     15  C   UNL     1     128.648 129.423 133.062  1.00  0.00     0.157 A 
ATOM     16  C   UNL     1     130.805 130.462 133.465  1.00  0.00     0.062 A 
ATOM     17  C   UNL     1     129.989 129.321 133.468  1.00  0.00     0.158 A 
BRANCH  15  18
ATOM     18  O   UNL     1     127.811 128.308 133.054  1.00  0.00    -0.504 OA
ATOM     19  H   UNL     1     127.189 128.095 133.825  1.00  0.00     0.293 HD
ENDBRANCH  15  18
BRANCH  17  20
ATOM     20  O   UNL     1     130.505 128.091 133.871  1.00  0.00    -0.504 OA
ATOM     21  H   UNL     1     129.933 127.408 134.355  1.00  0.00     0.293 HD
ENDBRANCH  17  20
ENDBRANCH   1  12
BRANCH   6  22
ATOM     22  O   UNL     1     134.871 136.419 133.115  1.00  0.00    -0.507 OA
ATOM     23  H   UNL     1     135.399 136.954 132.434  1.00  0.00     0.293 HD
ENDBRANCH   6  22
BRANCH   8  24
ATOM     24  O   UNL     1     130.723 138.884 133.183  1.00  0.00    -0.508 OA
ATOM     25  H   UNL     1     130.455 139.360 132.330  1.00  0.00     0.293 HD
ENDBRANCH   8  24
TORSDOF 5
ENDMDL
MODEL 8
REMARK VINA RESULT:    -5.104      2.374      3.110
REMARK INTER + INTRA:          -6.281
REMARK INTER:                  -6.011
REMARK INTRA:                  -0.270
REMARK UNBOUND:                -0.281
REMARK SMILES O=c1cc(-c2ccc(O)c(O)c2)oc2cc(O)cc(O)c12
REMARK SMILES IDX 4 1 3 2 2 3 1 4 21 5 19 6 18 7 16 8 15 9 14 10 13 11 5 12
REMARK SMILES IDX 6 13 7 14 8 15 12 16 10 17 9 18 11 20 20 22 17 24
REMARK H PARENT 9 19 11 21 20 23 17 25
REMARK Flexibility Score: inf
ROOT
ATOM      1  C   UNL     1     131.774 131.794 132.652  1.00  0.00     0.138 A 
ATOM      2  C   UNL     1     132.347 132.641 133.617  1.00  0.00     0.100 A 
ATOM      3  C   UNL     1     133.046 133.776 133.205  1.00  0.00     0.197 A 
ATOM      4  O   UNL     1     133.554 134.530 134.078  1.00  0.00    -0.289 OA
ATOM      5  C   UNL     1     133.165 134.060 131.830  1.00  0.00     0.107 A 
ATOM      6  C   UNL     1     133.857 135.187 131.328  1.00  0.00     0.134 A 
ATOM      7  C   UNL     1     133.926 135.401 129.943  1.00  0.00     0.093 A 
ATOM      8  C   UNL     1     133.318 134.512 129.054  1.00  0.00     0.123 A 
ATOM      9  C   UNL     1     132.632 133.396 129.544  1.00  0.00     0.094 A 
ATOM     10  C   UNL     1     132.553 133.164 130.920  1.00  0.00     0.146 A 
ATOM     11  O   UNL     1     131.897 132.095 131.361  1.00  0.00    -0.456 OA
ENDROOT
BRANCH   1  12
ATOM     12  C   UNL     1     131.019 130.573 133.031  1.00  0.00     0.021 A 
ATOM     13  C   UNL     1     129.723 130.645 133.578  1.00  0.00     0.016 A 
ATOM     14  C   UNL     1     129.040 129.479 133.934  1.00  0.00     0.051 A 
ATOM     15  C   UNL     1     129.635 128.228 133.761  1.00  0.00     0.157 A 
ATOM     16  C   UNL     1     131.618 129.311 132.872  1.00  0.00     0.062 A 
ATOM     17  C   UNL     1     130.932 128.141 133.228  1.00  0.00     0.158 A 
BRANCH  15  18
ATOM     18  O   UNL     1     128.927 127.083 134.125  1.00  0.00    -0.504 OA
ATOM     19  H   UNL     1     129.384 126.271 134.522  1.00  0.00     0.293 HD
ENDBRANCH  15  18
BRANCH  17  20
ATOM     20  O   UNL     1     131.534 126.896 133.056  1.00  0.00    -0.504 OA
ATOM     21  H   UNL     1     132.485 126.719 133.358  1.00  0.00     0.293 HD
ENDBRANCH  17  20
ENDBRANCH   1  12
BRANCH   6  22
ATOM     22  O   UNL     1     134.474 136.092 132.192  1.00  0.00    -0.507 OA
ATOM     23  H   UNL     1     133.977 136.508 132.973  1.00  0.00     0.293 HD
ENDBRANCH   6  22
BRANCH   8  24
ATOM     24  O   UNL     1     133.400 134.748 127.683  1.00  0.00    -0.508 OA
ATOM     25  H   UNL     1     133.434 133.988 127.015  1.00  0.00     0.293 HD
ENDBRANCH   8  24
TORSDOF 5
ENDMDL
MODEL 9
REMARK VINA RESULT:    -5.089      3.786      9.529
REMARK INTER + INTRA:          -6.263
REMARK INTER:                  -5.994
REMARK INTRA:                  -0.269
REMARK UNBOUND:                -0.281
REMARK SMILES O=c1cc(-c2ccc(O)c(O)c2)oc2cc(O)cc(O)c12
REMARK SMILES IDX 4 1 3 2 2 3 1 4 21 5 19 6 18 7 16 8 15 9 14 10 13 11 5 12
REMARK SMILES IDX 6 13 7 14 8 15 12 16 10 17 9 18 11 20 20 22 17 24
REMARK H PARENT 9 19 11 21 20 23 17 25
REMARK Flexibility Score: inf
ROOT
ATOM      1  C   UNL     1     127.869 127.914 132.638  1.00  0.00     0.138 A 
ATOM      2  C   UNL     1     127.294 127.091 133.621  1.00  0.00     0.100 A 
ATOM      3  C   UNL     1     126.586 125.953 133.235  1.00  0.00     0.197 A 
ATOM      4  O   UNL     1     126.075 125.220 134.125  1.00  0.00    -0.289 OA
ATOM      5  C   UNL     1     126.459 125.642 131.866  1.00  0.00     0.107 A 
ATOM      6  C   UNL     1     125.758 124.510 131.390  1.00  0.00     0.134 A 
ATOM      7  C   UNL     1     125.682 124.269 130.010  1.00  0.00     0.093 A 
ATOM      8  C   UNL     1     126.293 125.135 129.100  1.00  0.00     0.123 A 
ATOM      9  C   UNL     1     126.989 126.256 129.566  1.00  0.00     0.094 A 
ATOM     10  C   UNL     1     127.075 126.515 130.937  1.00  0.00     0.146 A 
ATOM     11  O   UNL     1     127.739 127.588 131.354  1.00  0.00    -0.456 OA
ENDROOT
BRANCH   1  12
ATOM     12  C   UNL     1     128.634 129.137 132.989  1.00  0.00     0.021 A 
ATOM     13  C   UNL     1     129.942 129.069 133.508  1.00  0.00     0.016 A 
ATOM     14  C   UNL     1     130.634 130.236 133.839  1.00  0.00     0.051 A 
ATOM     15  C   UNL     1     130.037 131.487 133.667  1.00  0.00     0.157 A 
ATOM     16  C   UNL     1     128.034 130.399 132.832  1.00  0.00     0.062 A 
ATOM     17  C   UNL     1     128.729 131.571 133.163  1.00  0.00     0.158 A 
BRANCH  15  18
ATOM     18  O   UNL     1     130.754 132.634 134.006  1.00  0.00    -0.504 OA
ATOM     19  H   UNL     1     130.671 133.496 133.480  1.00  0.00     0.293 HD
ENDBRANCH  15  18
BRANCH  17  20
ATOM     20  O   UNL     1     128.125 132.816 132.993  1.00  0.00    -0.504 OA
ATOM     21  H   UNL     1     127.492 132.999 132.222  1.00  0.00     0.293 HD
ENDBRANCH  17  20
ENDBRANCH   1  12
BRANCH   6  22
ATOM     22  O   UNL     1     125.138 123.627 132.274  1.00  0.00    -0.507 OA
ATOM     23  H   UNL     1     125.665 123.116 132.975  1.00  0.00     0.293 HD
ENDBRANCH   6  22
BRANCH   8  24
ATOM     24  O   UNL     1     126.204 124.872 127.735  1.00  0.00    -0.508 OA
ATOM     25  H   UNL     1     126.364 123.943 127.363  1.00  0.00     0.293 HD
ENDBRANCH   8  24
TORSDOF 5
ENDMDL
