MODEL 1
REMARK VINA RESULT:    -3.265      0.000      0.000
REMARK INTER + INTRA:         -10.579
REMARK INTER:                  -7.083
REMARK INTRA:                  -3.497
REMARK UNBOUND:                -3.497
REMARK SMILES CCCCCCCCCCCCCCCCCCCCCC(=O)[O-]
REMARK SMILES IDX 12 1 11 2 10 3 9 4 8 5 7 6 6 7 5 8 4 9 3 10 2 11 1 12 13 13
REMARK SMILES IDX 14 14 15 15 16 16 17 17 18 18 19 19 20 20 21 21 22 22 23 23
REMARK SMILES IDX 24 24
REMARK H PARENT
REMARK Flexibility Score: inf
ROOT
ATOM      1  C   UNL     1      55.212  25.892  50.529  1.00  0.00     0.000 C 
ENDROOT
BRANCH   1   2
ATOM      2  C   UNL     1      56.624  26.470  50.362  1.00  0.00     0.000 C 
BRANCH   2   3
ATOM      3  C   UNL     1      57.128  27.077  51.680  1.00  0.00     0.000 C 
BRANCH   3   4
ATOM      4  C   UNL     1      57.841  28.426  51.483  1.00  0.00    -0.000 C 
BRANCH   4   5
ATOM      5  C   UNL     1      57.644  29.069  50.095  1.00  0.00    -0.000 C 
BRANCH   5   6
ATOM      6  C   UNL     1      58.926  29.209  49.249  1.00  0.00    -0.000 C 
BRANCH   6   7
ATOM      7  C   UNL     1      60.241  29.082  50.039  1.00  0.00    -0.000 C 
BRANCH   7   8
ATOM      8  C   UNL     1      61.071  27.858  49.623  1.00  0.00    -0.000 C 
BRANCH   8   9
ATOM      9  C   UNL     1      61.582  27.097  50.856  1.00  0.00    -0.000 C 
BRANCH   9  10
ATOM     10  C   UNL     1      60.628  25.979  51.301  1.00  0.00    -0.000 C 
BRANCH  10  11
ATOM     11  C   UNL     1      60.081  25.165  50.119  1.00  0.00    -0.003 C 
ATOM     12  C   UNL     1      60.657  23.752  50.112  1.00  0.00     0.004 C 
ENDBRANCH  10  11
ENDBRANCH   9  10
ENDBRANCH   8   9
ENDBRANCH   7   8
ENDBRANCH   6   7
ENDBRANCH   5   6
ENDBRANCH   4   5
ENDBRANCH   3   4
ENDBRANCH   2   3
ENDBRANCH   1   2
BRANCH   1  13
ATOM     13  C   UNL     1      54.409  25.884  49.216  1.00  0.00     0.000 C 
BRANCH  13  14
ATOM     14  C   UNL     1      53.123  26.735  49.237  1.00  0.00     0.000 C 
BRANCH  14  15
ATOM     15  C   UNL     1      52.973  27.669  50.454  1.00  0.00     0.000 C 
BRANCH  15  16
ATOM     16  C   UNL     1      53.249  29.158  50.175  1.00  0.00     0.000 C 
BRANCH  16  17
ATOM     17  C   UNL     1      54.280  29.765  51.142  1.00  0.00     0.000 C 
BRANCH  17  18
ATOM     18  C   UNL     1      54.188  29.165  52.554  1.00  0.00     0.000 C 
BRANCH  18  19
ATOM     19  C   UNL     1      55.027  29.939  53.584  1.00  0.00     0.000 C 
BRANCH  19  20
ATOM     20  C   UNL     1      55.776  31.137  52.973  1.00  0.00     0.006 C 
BRANCH  20  21
ATOM     21  C   UNL     1      57.153  31.403  53.610  1.00  0.00     0.053 C 
BRANCH  21  22
ATOM     22  C   UNL     1      57.281  32.798  54.141  1.00  0.00     0.041 C 
ATOM     23  O   UNL     1      57.097  33.784  53.379  1.00  0.00    -0.550 OA
ATOM     24  O   UNL     1      57.635  33.012  55.467  1.00  0.00    -0.550 OA
ENDBRANCH  21  22
ENDBRANCH  20  21
ENDBRANCH  19  20
ENDBRANCH  18  19
ENDBRANCH  17  18
ENDBRANCH  16  17
ENDBRANCH  15  16
ENDBRANCH  14  15
ENDBRANCH  13  14
ENDBRANCH   1  13
TORSDOF 20
ENDMDL
MODEL 2
REMARK VINA RESULT:    -3.167      5.559      9.429
REMARK INTER + INTRA:         -10.366
REMARK INTER:                  -8.844
REMARK INTRA:                  -1.522
REMARK UNBOUND:                -3.497
REMARK SMILES CCCCCCCCCCCCCCCCCCCCCC(=O)[O-]
REMARK SMILES IDX 12 1 11 2 10 3 9 4 8 5 7 6 6 7 5 8 4 9 3 10 2 11 1 12 13 13
REMARK SMILES IDX 14 14 15 15 16 16 17 17 18 18 19 19 20 20 21 21 22 22 23 23
REMARK SMILES IDX 24 24
REMARK H PARENT
REMARK Flexibility Score: inf
ROOT
ATOM      1  C   UNL     1      61.345  22.918  50.223  1.00  0.00     0.000 C 
ENDROOT
BRANCH   1   2
ATOM      2  C   UNL     1      60.219  23.952  50.357  1.00  0.00     0.000 C 
BRANCH   2   3
ATOM      3  C   UNL     1      60.793  25.367  50.526  1.00  0.00     0.000 C 
BRANCH   3   4
ATOM      4  C   UNL     1      59.871  26.458  49.954  1.00  0.00    -0.000 C 
BRANCH   4   5
ATOM      5  C   UNL     1      60.583  27.766  49.554  1.00  0.00    -0.000 C 
BRANCH   5   6
ATOM      6  C   UNL     1      59.652  28.972  49.313  1.00  0.00    -0.000 C 
BRANCH   6   7
ATOM      7  C   UNL     1      58.184  28.749  49.717  1.00  0.00    -0.000 C 
BRANCH   7   8
ATOM      8  C   UNL     1      57.829  29.400  51.063  1.00  0.00    -0.000 C 
BRANCH   8   9
ATOM      9  C   UNL     1      56.520  28.825  51.622  1.00  0.00    -0.000 C 
BRANCH   9  10
ATOM     10  C   UNL     1      55.782  27.936  50.610  1.00  0.00    -0.000 C 
BRANCH  10  11
ATOM     11  C   UNL     1      54.360  28.432  50.314  1.00  0.00    -0.003 C 
ATOM     12  C   UNL     1      53.544  27.362  49.592  1.00  0.00     0.004 C 
ENDBRANCH  10  11
ENDBRANCH   9  10
ENDBRANCH   8   9
ENDBRANCH   7   8
ENDBRANCH   6   7
ENDBRANCH   5   6
ENDBRANCH   4   5
ENDBRANCH   3   4
ENDBRANCH   2   3
ENDBRANCH   1   2
BRANCH   1  13
ATOM     13  C   UNL     1      60.998  21.780  49.246  1.00  0.00     0.000 C 
BRANCH  13  14
ATOM     14  C   UNL     1      59.962  20.767  49.771  1.00  0.00     0.000 C 
BRANCH  14  15
ATOM     15  C   UNL     1      60.495  19.760  50.810  1.00  0.00     0.000 C 
BRANCH  15  16
ATOM     16  C   UNL     1      60.187  18.282  50.507  1.00  0.00     0.000 C 
BRANCH  16  17
ATOM     17  C   UNL     1      59.307  18.099  49.259  1.00  0.00     0.000 C 
BRANCH  17  18
ATOM     18  C   UNL     1      58.170  17.089  49.483  1.00  0.00     0.000 C 
BRANCH  18  19
ATOM     19  C   UNL     1      57.339  17.399  50.739  1.00  0.00     0.000 C 
BRANCH  19  20
ATOM     20  C   UNL     1      56.542  18.711  50.625  1.00  0.00     0.006 C 
BRANCH  20  21
ATOM     21  C   UNL     1      56.513  19.538  51.924  1.00  0.00     0.053 C 
BRANCH  21  22
ATOM     22  C   UNL     1      55.196  19.451  52.632  1.00  0.00     0.041 C 
ATOM     23  O   UNL     1      55.068  18.707  53.640  1.00  0.00    -0.550 OA
ATOM     24  O   UNL     1      54.100  20.164  52.162  1.00  0.00    -0.550 OA
ENDBRANCH  21  22
ENDBRANCH  20  21
ENDBRANCH  19  20
ENDBRANCH  18  19
ENDBRANCH  17  18
ENDBRANCH  16  17
ENDBRANCH  15  16
ENDBRANCH  14  15
ENDBRANCH  13  14
ENDBRANCH   1  13
TORSDOF 20
ENDMDL
MODEL 3
REMARK VINA RESULT:    -3.145      8.937     12.387
REMARK INTER + INTRA:         -10.319
REMARK INTER:                  -6.112
REMARK INTRA:                  -4.207
REMARK UNBOUND:                -3.497
REMARK SMILES CCCCCCCCCCCCCCCCCCCCCC(=O)[O-]
REMARK SMILES IDX 12 1 11 2 10 3 9 4 8 5 7 6 6 7 5 8 4 9 3 10 2 11 1 12 13 13
REMARK SMILES IDX 14 14 15 15 16 16 17 17 18 18 19 19 20 20 21 21 22 22 23 23
REMARK SMILES IDX 24 24
REMARK H PARENT
REMARK Flexibility Score: inf
ROOT
ATOM      1  C   UNL     1      64.346  33.084  57.006  1.00  0.00     0.000 C 
ENDROOT
BRANCH   1   2
ATOM      2  C   UNL     1      65.203  34.134  57.728  1.00  0.00     0.000 C 
BRANCH   2   3
ATOM      3  C   UNL     1      65.018  35.521  57.095  1.00  0.00     0.000 C 
BRANCH   3   4
ATOM      4  C   UNL     1      64.655  36.604  58.126  1.00  0.00    -0.000 C 
BRANCH   4   5
ATOM      5  C   UNL     1      65.442  36.532  59.450  1.00  0.00    -0.000 C 
BRANCH   5   6
ATOM      6  C   UNL     1      64.576  36.438  60.723  1.00  0.00    -0.000 C 
BRANCH   6   7
ATOM      7  C   UNL     1      64.450  35.024  61.319  1.00  0.00    -0.000 C 
BRANCH   7   8
ATOM      8  C   UNL     1      63.156  34.312  60.899  1.00  0.00    -0.000 C 
BRANCH   8   9
ATOM      9  C   UNL     1      62.079  35.327  60.490  1.00  0.00    -0.000 C 
BRANCH   9  10
ATOM     10  C   UNL     1      61.041  34.734  59.526  1.00  0.00    -0.000 C 
BRANCH  10  11
ATOM     11  C   UNL     1      61.307  35.117  58.063  1.00  0.00    -0.003 C 
ATOM     12  C   UNL     1      60.712  34.086  57.108  1.00  0.00     0.004 C 
ENDBRANCH  10  11
ENDBRANCH   9  10
ENDBRANCH   8   9
ENDBRANCH   7   8
ENDBRANCH   6   7
ENDBRANCH   5   6
ENDBRANCH   4   5
ENDBRANCH   3   4
ENDBRANCH   2   3
ENDBRANCH   1   2
BRANCH   1  13
ATOM     13  C   UNL     1      63.764  32.027  57.961  1.00  0.00     0.000 C 
BRANCH  13  14
ATOM     14  C   UNL     1      64.665  31.672  59.161  1.00  0.00     0.000 C 
BRANCH  14  15
ATOM     15  C   UNL     1      64.891  30.164  59.389  1.00  0.00     0.000 C 
BRANCH  15  16
ATOM     16  C   UNL     1      64.206  29.580  60.638  1.00  0.00     0.000 C 
BRANCH  16  17
ATOM     17  C   UNL     1      63.403  30.631  61.424  1.00  0.00     0.000 C 
BRANCH  17  18
ATOM     18  C   UNL     1      61.950  30.196  61.672  1.00  0.00     0.000 C 
BRANCH  18  19
ATOM     19  C   UNL     1      60.928  31.253  61.219  1.00  0.00     0.000 C 
BRANCH  19  20
ATOM     20  C   UNL     1      60.654  31.214  59.704  1.00  0.00     0.006 C 
BRANCH  20  21
ATOM     21  C   UNL     1      60.628  29.794  59.111  1.00  0.00     0.053 C 
BRANCH  21  22
ATOM     22  C   UNL     1      59.273  29.160  59.193  1.00  0.00     0.041 C 
ATOM     23  O   UNL     1      59.038  28.280  60.062  1.00  0.00    -0.550 OA
ATOM     24  O   UNL     1      58.278  29.517  58.292  1.00  0.00    -0.550 OA
ENDBRANCH  21  22
ENDBRANCH  20  21
ENDBRANCH  19  20
ENDBRANCH  18  19
ENDBRANCH  17  18
ENDBRANCH  16  17
ENDBRANCH  15  16
ENDBRANCH  14  15
ENDBRANCH  13  14
ENDBRANCH   1  13
TORSDOF 20
ENDMDL
MODEL 4
REMARK VINA RESULT:    -3.129      2.739      6.835
REMARK INTER + INTRA:         -10.284
REMARK INTER:                  -6.936
REMARK INTRA:                  -3.348
REMARK UNBOUND:                -3.497
REMARK SMILES CCCCCCCCCCCCCCCCCCCCCC(=O)[O-]
REMARK SMILES IDX 12 1 11 2 10 3 9 4 8 5 7 6 6 7 5 8 4 9 3 10 2 11 1 12 13 13
REMARK SMILES IDX 14 14 15 15 16 16 17 17 18 18 19 19 20 20 21 21 22 22 23 23
REMARK SMILES IDX 24 24
REMARK H PARENT
REMARK Flexibility Score: inf
ROOT
ATOM      1  C   UNL     1      58.702  29.764  51.586  1.00  0.00     0.000 C 
ENDROOT
BRANCH   1   2
ATOM      2  C   UNL     1      57.826  30.465  52.633  1.00  0.00     0.000 C 
BRANCH   2   3
ATOM      3  C   UNL     1      56.898  29.461  53.333  1.00  0.00     0.000 C 
BRANCH   3   4
ATOM      4  C   UNL     1      57.648  28.229  53.870  1.00  0.00    -0.000 C 
BRANCH   4   5
ATOM      5  C   UNL     1      56.949  26.879  53.611  1.00  0.00    -0.000 C 
BRANCH   5   6
ATOM      6  C   UNL     1      57.151  26.298  52.197  1.00  0.00    -0.000 C 
BRANCH   6   7
ATOM      7  C   UNL     1      55.851  25.973  51.438  1.00  0.00    -0.000 C 
BRANCH   7   8
ATOM      8  C   UNL     1      55.796  26.618  50.046  1.00  0.00    -0.000 C 
BRANCH   8   9
ATOM      9  C   UNL     1      54.504  27.430  49.868  1.00  0.00    -0.000 C 
BRANCH   9  10
ATOM     10  C   UNL     1      54.253  28.406  51.026  1.00  0.00    -0.000 C 
BRANCH  10  11
ATOM     11  C   UNL     1      53.867  29.811  50.541  1.00  0.00    -0.003 C 
ATOM     12  C   UNL     1      53.939  30.825  51.680  1.00  0.00     0.004 C 
ENDBRANCH  10  11
ENDBRANCH   9  10
ENDBRANCH   8   9
ENDBRANCH   7   8
ENDBRANCH   6   7
ENDBRANCH   5   6
ENDBRANCH   4   5
ENDBRANCH   3   4
ENDBRANCH   2   3
ENDBRANCH   1   2
BRANCH   1  13
ATOM     13  C   UNL     1      57.945  29.456  50.282  1.00  0.00     0.000 C 
BRANCH  13  14
ATOM     14  C   UNL     1      58.843  29.173  49.061  1.00  0.00     0.000 C 
BRANCH  14  15
ATOM     15  C   UNL     1      59.954  28.129  49.290  1.00  0.00     0.000 C 
BRANCH  15  16
ATOM     16  C   UNL     1      59.462  26.682  49.484  1.00  0.00     0.000 C 
BRANCH  16  17
ATOM     17  C   UNL     1      60.502  25.786  50.177  1.00  0.00     0.000 C 
BRANCH  17  18
ATOM     18  C   UNL     1      61.588  26.598  50.902  1.00  0.00     0.000 C 
BRANCH  18  19
ATOM     19  C   UNL     1      63.000  26.319  50.360  1.00  0.00     0.000 C 
BRANCH  19  20
ATOM     20  C   UNL     1      63.688  27.575  49.795  1.00  0.00     0.006 C 
BRANCH  20  21
ATOM     21  C   UNL     1      63.601  28.803  50.719  1.00  0.00     0.053 C 
BRANCH  21  22
ATOM     22  C   UNL     1      63.175  30.041  49.991  1.00  0.00     0.041 C 
ATOM     23  O   UNL     1      62.092  30.611  50.291  1.00  0.00    -0.550 OA
ATOM     24  O   UNL     1      63.955  30.549  48.959  1.00  0.00    -0.550 OA
ENDBRANCH  21  22
ENDBRANCH  20  21
ENDBRANCH  19  20
ENDBRANCH  18  19
ENDBRANCH  17  18
ENDBRANCH  16  17
ENDBRANCH  15  16
ENDBRANCH  14  15
ENDBRANCH  13  14
ENDBRANCH   1  13
TORSDOF 20
ENDMDL
MODEL 5
REMARK VINA RESULT:    -3.077     10.487     14.002
REMARK INTER + INTRA:         -10.172
REMARK INTER:                  -7.493
REMARK INTRA:                  -2.679
REMARK UNBOUND:                -3.497
REMARK SMILES CCCCCCCCCCCCCCCCCCCCCC(=O)[O-]
REMARK SMILES IDX 12 1 11 2 10 3 9 4 8 5 7 6 6 7 5 8 4 9 3 10 2 11 1 12 13 13
REMARK SMILES IDX 14 14 15 15 16 16 17 17 18 18 19 19 20 20 21 21 22 22 23 23
REMARK SMILES IDX 24 24
REMARK H PARENT
REMARK Flexibility Score: inf
ROOT
ATOM      1  C   UNL     1      62.835  29.473  59.485  1.00  0.00     0.000 C 
ENDROOT
BRANCH   1   2
ATOM      2  C   UNL     1      62.975  30.048  60.900  1.00  0.00     0.000 C 
BRANCH   2   3
ATOM      3  C   UNL     1      64.060  31.135  60.946  1.00  0.00     0.000 C 
BRANCH   3   4
ATOM      4  C   UNL     1      64.420  31.678  59.552  1.00  0.00    -0.000 C 
BRANCH   4   5
ATOM      5  C   UNL     1      64.380  33.214  59.422  1.00  0.00    -0.000 C 
BRANCH   5   6
ATOM      6  C   UNL     1      64.075  33.974  60.728  1.00  0.00    -0.000 C 
BRANCH   6   7
ATOM      7  C   UNL     1      62.844  34.897  60.669  1.00  0.00    -0.000 C 
BRANCH   7   8
ATOM      8  C   UNL     1      61.550  34.146  60.323  1.00  0.00    -0.000 C 
BRANCH   8   9
ATOM      9  C   UNL     1      60.823  34.817  59.149  1.00  0.00    -0.000 C 
BRANCH   9  10
ATOM     10  C   UNL     1      60.190  33.802  58.185  1.00  0.00    -0.000 C 
BRANCH  10  11
ATOM     11  C   UNL     1      60.827  32.409  58.293  1.00  0.00    -0.003 C 
ATOM     12  C   UNL     1      59.762  31.330  58.468  1.00  0.00     0.004 C 
ENDBRANCH  10  11
ENDBRANCH   9  10
ENDBRANCH   8   9
ENDBRANCH   7   8
ENDBRANCH   6   7
ENDBRANCH   5   6
ENDBRANCH   4   5
ENDBRANCH   3   4
ENDBRANCH   2   3
ENDBRANCH   1   2
BRANCH   1  13
ATOM     13  C   UNL     1      62.972  27.940  59.446  1.00  0.00     0.000 C 
BRANCH  13  14
ATOM     14  C   UNL     1      63.978  27.353  60.457  1.00  0.00     0.000 C 
BRANCH  14  15
ATOM     15  C   UNL     1      65.348  26.964  59.870  1.00  0.00     0.000 C 
BRANCH  15  16
ATOM     16  C   UNL     1      66.407  28.083  59.883  1.00  0.00     0.000 C 
BRANCH  16  17
ATOM     17  C   UNL     1      66.716  28.595  61.300  1.00  0.00     0.000 C 
BRANCH  17  18
ATOM     18  C   UNL     1      68.223  28.632  61.597  1.00  0.00     0.000 C 
BRANCH  18  19
ATOM     19  C   UNL     1      69.076  28.803  60.328  1.00  0.00     0.000 C 
BRANCH  19  20
ATOM     20  C   UNL     1      70.486  29.346  60.619  1.00  0.00     0.006 C 
BRANCH  20  21
ATOM     21  C   UNL     1      70.871  30.570  59.768  1.00  0.00     0.053 C 
BRANCH  21  22
ATOM     22  C   UNL     1      71.689  31.567  60.531  1.00  0.00     0.041 C 
ATOM     23  O   UNL     1      71.463  32.799  60.407  1.00  0.00    -0.550 OA
ATOM     24  O   UNL     1      72.724  31.139  61.354  1.00  0.00    -0.550 OA
ENDBRANCH  21  22
ENDBRANCH  20  21
ENDBRANCH  19  20
ENDBRANCH  18  19
ENDBRANCH  17  18
ENDBRANCH  16  17
ENDBRANCH  15  16
ENDBRANCH  14  15
ENDBRANCH  13  14
ENDBRANCH   1  13
TORSDOF 20
ENDMDL
MODEL 6
REMARK VINA RESULT:    -3.067      3.205      4.766
REMARK INTER + INTRA:         -10.149
REMARK INTER:                  -6.112
REMARK INTRA:                  -4.038
REMARK UNBOUND:                -3.497
REMARK SMILES CCCCCCCCCCCCCCCCCCCCCC(=O)[O-]
REMARK SMILES IDX 12 1 11 2 10 3 9 4 8 5 7 6 6 7 5 8 4 9 3 10 2 11 1 12 13 13
REMARK SMILES IDX 14 14 15 15 16 16 17 17 18 18 19 19 20 20 21 21 22 22 23 23
REMARK SMILES IDX 24 24
REMARK H PARENT
REMARK Flexibility Score: inf
ROOT
ATOM      1  C   UNL     1      56.874  28.499  50.385  1.00  0.00     0.000 C 
ENDROOT
BRANCH   1   2
ATOM      2  C   UNL     1      58.099  29.360  50.048  1.00  0.00     0.000 C 
BRANCH   2   3
ATOM      3  C   UNL     1      58.798  29.843  51.327  1.00  0.00     0.000 C 
BRANCH   3   4
ATOM      4  C   UNL     1      60.233  29.303  51.464  1.00  0.00    -0.000 C 
BRANCH   4   5
ATOM      5  C   UNL     1      61.036  29.249  50.150  1.00  0.00    -0.000 C 
BRANCH   5   6
ATOM      6  C   UNL     1      61.393  27.832  49.656  1.00  0.00    -0.000 C 
BRANCH   6   7
ATOM      7  C   UNL     1      60.817  26.686  50.507  1.00  0.00    -0.000 C 
BRANCH   7   8
ATOM      8  C   UNL     1      59.668  25.944  49.810  1.00  0.00    -0.000 C 
BRANCH   8   9
ATOM      9  C   UNL     1      58.704  25.333  50.838  1.00  0.00    -0.000 C 
BRANCH   9  10
ATOM     10  C   UNL     1      58.785  26.024  52.208  1.00  0.00    -0.000 C 
BRANCH  10  11
ATOM     11  C   UNL     1      58.789  25.025  53.374  1.00  0.00    -0.003 C 
ATOM     12  C   UNL     1      58.206  23.680  52.947  1.00  0.00     0.004 C 
ENDBRANCH  10  11
ENDBRANCH   9  10
ENDBRANCH   8   9
ENDBRANCH   7   8
ENDBRANCH   6   7
ENDBRANCH   5   6
ENDBRANCH   4   5
ENDBRANCH   3   4
ENDBRANCH   2   3
ENDBRANCH   1   2
BRANCH   1  13
ATOM     13  C   UNL     1      56.266  28.836  51.758  1.00  0.00     0.000 C 
BRANCH  13  14
ATOM     14  C   UNL     1      54.887  29.525  51.706  1.00  0.00     0.000 C 
BRANCH  14  15
ATOM     15  C   UNL     1      54.113  29.345  50.385  1.00  0.00     0.000 C 
BRANCH  15  16
ATOM     16  C   UNL     1      52.945  28.343  50.442  1.00  0.00     0.000 C 
BRANCH  16  17
ATOM     17  C   UNL     1      52.993  27.306  49.307  1.00  0.00     0.000 C 
BRANCH  17  18
ATOM     18  C   UNL     1      54.091  26.252  49.520  1.00  0.00     0.000 C 
BRANCH  18  19
ATOM     19  C   UNL     1      53.867  25.407  50.786  1.00  0.00     0.000 C 
BRANCH  19  20
ATOM     20  C   UNL     1      55.058  25.455  51.761  1.00  0.00     0.006 C 
BRANCH  20  21
ATOM     21  C   UNL     1      54.672  25.851  53.198  1.00  0.00     0.053 C 
BRANCH  21  22
ATOM     22  C   UNL     1      54.752  24.699  54.153  1.00  0.00     0.041 C 
ATOM     23  O   UNL     1      54.832  24.909  55.392  1.00  0.00    -0.550 OA
ATOM     24  O   UNL     1      54.771  23.395  53.675  1.00  0.00    -0.550 OA
ENDBRANCH  21  22
ENDBRANCH  20  21
ENDBRANCH  19  20
ENDBRANCH  18  19
ENDBRANCH  17  18
ENDBRANCH  16  17
ENDBRANCH  15  16
ENDBRANCH  14  15
ENDBRANCH  13  14
ENDBRANCH   1  13
TORSDOF 20
ENDMDL
MODEL 7
REMARK VINA RESULT:    -3.054      3.066      5.563
REMARK INTER + INTRA:         -10.121
REMARK INTER:                  -6.623
REMARK INTRA:                  -3.498
REMARK UNBOUND:                -3.497
REMARK SMILES CCCCCCCCCCCCCCCCCCCCCC(=O)[O-]
REMARK SMILES IDX 12 1 11 2 10 3 9 4 8 5 7 6 6 7 5 8 4 9 3 10 2 11 1 12 13 13
REMARK SMILES IDX 14 14 15 15 16 16 17 17 18 18 19 19 20 20 21 21 22 22 23 23
REMARK SMILES IDX 24 24
REMARK H PARENT
REMARK Flexibility Score: inf
ROOT
ATOM      1  C   UNL     1      56.239  26.328  50.357  1.00  0.00     0.000 C 
ENDROOT
BRANCH   1   2
ATOM      2  C   UNL     1      56.601  25.775  51.742  1.00  0.00     0.000 C 
BRANCH   2   3
ATOM      3  C   UNL     1      58.024  25.198  51.747  1.00  0.00     0.000 C 
BRANCH   3   4
ATOM      4  C   UNL     1      58.923  25.832  52.824  1.00  0.00    -0.000 C 
BRANCH   4   5
ATOM      5  C   UNL     1      59.883  24.853  53.528  1.00  0.00    -0.000 C 
BRANCH   5   6
ATOM      6  C   UNL     1      60.473  23.750  52.626  1.00  0.00    -0.000 C 
BRANCH   6   7
ATOM      7  C   UNL     1      61.932  23.978  52.192  1.00  0.00    -0.000 C 
BRANCH   7   8
ATOM      8  C   UNL     1      62.198  23.551  50.741  1.00  0.00    -0.000 C 
BRANCH   8   9
ATOM      9  C   UNL     1      60.884  23.427  49.956  1.00  0.00    -0.000 C 
BRANCH   9  10
ATOM     10  C   UNL     1      60.761  22.089  49.213  1.00  0.00    -0.000 C 
BRANCH  10  11
ATOM     11  C   UNL     1      60.866  20.880  50.154  1.00  0.00    -0.003 C 
ATOM     12  C   UNL     1      59.762  19.864  49.870  1.00  0.00     0.004 C 
ENDBRANCH  10  11
ENDBRANCH   9  10
ENDBRANCH   8   9
ENDBRANCH   7   8
ENDBRANCH   6   7
ENDBRANCH   5   6
ENDBRANCH   4   5
ENDBRANCH   3   4
ENDBRANCH   2   3
ENDBRANCH   1   2
BRANCH   1  13
ATOM     13  C   UNL     1      55.749  27.786  50.404  1.00  0.00     0.000 C 
BRANCH  13  14
ATOM     14  C   UNL     1      56.375  28.645  51.522  1.00  0.00     0.000 C 
BRANCH  14  15
ATOM     15  C   UNL     1      57.818  29.118  51.256  1.00  0.00     0.000 C 
BRANCH  15  16
ATOM     16  C   UNL     1      58.142  29.440  49.785  1.00  0.00     0.000 C 
BRANCH  16  17
ATOM     17  C   UNL     1      59.550  28.982  49.370  1.00  0.00     0.000 C 
BRANCH  17  18
ATOM     18  C   UNL     1      59.742  27.464  49.515  1.00  0.00     0.000 C 
BRANCH  18  19
ATOM     19  C   UNL     1      61.198  27.076  49.821  1.00  0.00     0.000 C 
BRANCH  19  20
ATOM     20  C   UNL     1      61.672  27.556  51.205  1.00  0.00     0.006 C 
BRANCH  20  21
ATOM     21  C   UNL     1      63.200  27.701  51.326  1.00  0.00     0.053 C 
BRANCH  21  22
ATOM     22  C   UNL     1      63.672  29.089  51.015  1.00  0.00     0.041 C 
ATOM     23  O   UNL     1      62.896  29.911  50.461  1.00  0.00    -0.550 OA
ATOM     24  O   UNL     1      64.977  29.465  51.307  1.00  0.00    -0.550 OA
ENDBRANCH  21  22
ENDBRANCH  20  21
ENDBRANCH  19  20
ENDBRANCH  18  19
ENDBRANCH  17  18
ENDBRANCH  16  17
ENDBRANCH  15  16
ENDBRANCH  14  15
ENDBRANCH  13  14
ENDBRANCH   1  13
TORSDOF 20
ENDMDL
MODEL 8
REMARK VINA RESULT:    -3.038      8.370     10.905
REMARK INTER + INTRA:         -10.088
REMARK INTER:                  -6.003
REMARK INTRA:                  -4.085
REMARK UNBOUND:                -3.497
REMARK SMILES CCCCCCCCCCCCCCCCCCCCCC(=O)[O-]
REMARK SMILES IDX 12 1 11 2 10 3 9 4 8 5 7 6 6 7 5 8 4 9 3 10 2 11 1 12 13 13
REMARK SMILES IDX 14 14 15 15 16 16 17 17 18 18 19 19 20 20 21 21 22 22 23 23
REMARK SMILES IDX 24 24
REMARK H PARENT
REMARK Flexibility Score: inf
ROOT
ATOM      1  C   UNL     1      63.269  32.185  57.626  1.00  0.00     0.000 C 
ENDROOT
BRANCH   1   2
ATOM      2  C   UNL     1      63.113  30.671  57.434  1.00  0.00     0.000 C 
BRANCH   2   3
ATOM      3  C   UNL     1      61.670  30.228  57.715  1.00  0.00     0.000 C 
BRANCH   3   4
ATOM      4  C   UNL     1      60.867  31.275  58.507  1.00  0.00    -0.000 C 
BRANCH   4   5
ATOM      5  C   UNL     1      60.243  30.760  59.819  1.00  0.00    -0.000 C 
BRANCH   5   6
ATOM      6  C   UNL     1      60.952  31.225  61.108  1.00  0.00    -0.000 C 
BRANCH   6   7
ATOM      7  C   UNL     1      61.934  30.205  61.712  1.00  0.00    -0.000 C 
BRANCH   7   8
ATOM      8  C   UNL     1      63.386  30.443  61.271  1.00  0.00    -0.000 C 
BRANCH   8   9
ATOM      9  C   UNL     1      64.014  29.150  60.729  1.00  0.00    -0.000 C 
BRANCH   9  10
ATOM     10  C   UNL     1      63.126  27.918  60.961  1.00  0.00    -0.000 C 
BRANCH  10  11
ATOM     11  C   UNL     1      62.676  27.258  59.650  1.00  0.00    -0.003 C 
ATOM     12  C   UNL     1      61.159  27.098  59.608  1.00  0.00     0.004 C 
ENDBRANCH  10  11
ENDBRANCH   9  10
ENDBRANCH   8   9
ENDBRANCH   7   8
ENDBRANCH   6   7
ENDBRANCH   5   6
ENDBRANCH   4   5
ENDBRANCH   3   4
ENDBRANCH   2   3
ENDBRANCH   1   2
BRANCH   1  13
ATOM     13  C   UNL     1      64.583  32.567  58.329  1.00  0.00     0.000 C 
BRANCH  13  14
ATOM     14  C   UNL     1      64.503  33.826  59.216  1.00  0.00     0.000 C 
BRANCH  14  15
ATOM     15  C   UNL     1      63.318  33.859  60.202  1.00  0.00     0.000 C 
BRANCH  15  16
ATOM     16  C   UNL     1      63.049  35.228  60.856  1.00  0.00     0.000 C 
BRANCH  16  17
ATOM     17  C   UNL     1      61.631  35.754  60.577  1.00  0.00     0.000 C 
BRANCH  17  18
ATOM     18  C   UNL     1      60.847  34.849  59.614  1.00  0.00     0.000 C 
BRANCH  18  19
ATOM     19  C   UNL     1      60.694  35.464  58.212  1.00  0.00     0.000 C 
BRANCH  19  20
ATOM     20  C   UNL     1      60.029  34.509  57.205  1.00  0.00     0.006 C 
BRANCH  20  21
ATOM     21  C   UNL     1      58.587  34.900  56.832  1.00  0.00     0.053 C 
BRANCH  21  22
ATOM     22  C   UNL     1      57.564  34.065  57.539  1.00  0.00     0.041 C 
ATOM     23  O   UNL     1      56.537  34.603  58.031  1.00  0.00    -0.550 OA
ATOM     24  O   UNL     1      57.757  32.697  57.685  1.00  0.00    -0.550 OA
ENDBRANCH  21  22
ENDBRANCH  20  21
ENDBRANCH  19  20
ENDBRANCH  18  19
ENDBRANCH  17  18
ENDBRANCH  16  17
ENDBRANCH  15  16
ENDBRANCH  14  15
ENDBRANCH  13  14
ENDBRANCH   1  13
TORSDOF 20
ENDMDL
MODEL 9
REMARK VINA RESULT:    -3.026      5.417      9.153
REMARK INTER + INTRA:         -10.061
REMARK INTER:                  -7.834
REMARK INTRA:                  -2.227
REMARK UNBOUND:                -3.497
REMARK SMILES CCCCCCCCCCCCCCCCCCCCCC(=O)[O-]
REMARK SMILES IDX 12 1 11 2 10 3 9 4 8 5 7 6 6 7 5 8 4 9 3 10 2 11 1 12 13 13
REMARK SMILES IDX 14 14 15 15 16 16 17 17 18 18 19 19 20 20 21 21 22 22 23 23
REMARK SMILES IDX 24 24
REMARK H PARENT
REMARK Flexibility Score: inf
ROOT
ATOM      1  C   UNL     1      60.750  23.227  49.631  1.00  0.00     0.000 C 
ENDROOT
BRANCH   1   2
ATOM      2  C   UNL     1      60.346  23.505  51.085  1.00  0.00     0.000 C 
BRANCH   2   3
ATOM      3  C   UNL     1      60.789  24.911  51.517  1.00  0.00     0.000 C 
BRANCH   3   4
ATOM      4  C   UNL     1      61.487  25.691  50.390  1.00  0.00    -0.000 C 
BRANCH   4   5
ATOM      5  C   UNL     1      61.831  27.155  50.729  1.00  0.00    -0.000 C 
BRANCH   5   6
ATOM      6  C   UNL     1      60.750  28.188  50.350  1.00  0.00    -0.000 C 
BRANCH   6   7
ATOM      7  C   UNL     1      59.652  27.661  49.408  1.00  0.00    -0.000 C 
BRANCH   7   8
ATOM      8  C   UNL     1      58.262  27.647  50.060  1.00  0.00    -0.000 C 
BRANCH   8   9
ATOM      9  C   UNL     1      57.673  26.229  50.066  1.00  0.00    -0.000 C 
BRANCH   9  10
ATOM     10  C   UNL     1      56.171  26.213  50.389  1.00  0.00    -0.000 C 
BRANCH  10  11
ATOM     11  C   UNL     1      55.663  27.567  50.905  1.00  0.00    -0.003 C 
ATOM     12  C   UNL     1      54.461  28.047  50.096  1.00  0.00     0.004 C 
ENDBRANCH  10  11
ENDBRANCH   9  10
ENDBRANCH   8   9
ENDBRANCH   7   8
ENDBRANCH   6   7
ENDBRANCH   5   6
ENDBRANCH   4   5
ENDBRANCH   3   4
ENDBRANCH   2   3
ENDBRANCH   1   2
BRANCH   1  13
ATOM     13  C   UNL     1      61.078  21.745  49.374  1.00  0.00     0.000 C 
BRANCH  13  14
ATOM     14  C   UNL     1      61.218  20.882  50.644  1.00  0.00     0.000 C 
BRANCH  14  15
ATOM     15  C   UNL     1      60.454  19.544  50.617  1.00  0.00     0.000 C 
BRANCH  15  16
ATOM     16  C   UNL     1      59.274  19.484  49.628  1.00  0.00     0.000 C 
BRANCH  16  17
ATOM     17  C   UNL     1      58.856  18.045  49.284  1.00  0.00     0.000 C 
BRANCH  17  18
ATOM     18  C   UNL     1      57.719  17.532  50.181  1.00  0.00     0.000 C 
BRANCH  18  19
ATOM     19  C   UNL     1      56.621  18.585  50.410  1.00  0.00     0.000 C 
BRANCH  19  20
ATOM     20  C   UNL     1      56.255  18.761  51.895  1.00  0.00     0.006 C 
BRANCH  20  21
ATOM     21  C   UNL     1      56.991  19.925  52.584  1.00  0.00     0.053 C 
BRANCH  21  22
ATOM     22  C   UNL     1      58.155  19.463  53.408  1.00  0.00     0.041 C 
ATOM     23  O   UNL     1      58.954  20.302  53.899  1.00  0.00    -0.550 OA
ATOM     24  O   UNL     1      58.376  18.106  53.605  1.00  0.00    -0.550 OA
ENDBRANCH  21  22
ENDBRANCH  20  21
ENDBRANCH  19  20
ENDBRANCH  18  19
ENDBRANCH  17  18
ENDBRANCH  16  17
ENDBRANCH  15  16
ENDBRANCH  14  15
ENDBRANCH  13  14
ENDBRANCH   1  13
TORSDOF 20
ENDMDL
