MODEL 1
REMARK VINA RESULT:    -3.194      0.000      0.000
REMARK INTER + INTRA:          -4.237
REMARK INTER:                  -3.941
REMARK INTRA:                  -0.296
REMARK UNBOUND:                -0.296
REMARK SMILES C=CC[C@H](C)C(=O)CC
REMARK SMILES IDX 4 1 5 2 6 3 7 4 8 5 9 6 3 7 2 8 1 9
REMARK H PARENT
REMARK Flexibility Score: inf
ROOT
ATOM      1  C   UNL     1      28.386  29.685  73.608  1.00  0.00     0.057 C 
ATOM      2  C   UNL     1      26.893  29.487  73.313  1.00  0.00     0.016 C 
ENDROOT
BRANCH   1   3
ATOM      3  C   UNL     1      29.045  30.424  72.463  1.00  0.00     0.135 C 
ATOM      4  O   UNL     1      28.694  30.197  71.314  1.00  0.00    -0.299 OA
BRANCH   3   5
ATOM      5  C   UNL     1      30.127  31.442  72.711  1.00  0.00     0.072 C 
ATOM      6  C   UNL     1      29.546  32.852  72.734  1.00  0.00     0.012 C 
ENDBRANCH   3   5
ENDBRANCH   1   3
BRANCH   1   7
ATOM      7  C   UNL     1      29.105  28.340  73.848  1.00  0.00     0.038 C 
BRANCH   7   8
ATOM      8  C   UNL     1      29.999  28.376  75.060  1.00  0.00    -0.034 C 
ATOM      9  C   UNL     1      31.285  28.723  74.974  1.00  0.00     0.004 C 
ENDBRANCH   7   8
ENDBRANCH   1   7
TORSDOF 4
ENDMDL
MODEL 2
REMARK VINA RESULT:    -3.177     16.396     16.876
REMARK INTER + INTRA:          -4.216
REMARK INTER:                  -3.765
REMARK INTRA:                  -0.451
REMARK UNBOUND:                -0.296
REMARK SMILES C=CC[C@H](C)C(=O)CC
REMARK SMILES IDX 4 1 5 2 6 3 7 4 8 5 9 6 3 7 2 8 1 9
REMARK H PARENT
REMARK Flexibility Score: inf
ROOT
ATOM      1  C   UNL     1      23.075  34.175  88.044  1.00  0.00     0.057 C 
ATOM      2  C   UNL     1      22.760  32.864  88.778  1.00  0.00     0.016 C 
ENDROOT
BRANCH   1   3
ATOM      3  C   UNL     1      23.388  35.265  89.048  1.00  0.00     0.135 C 
ATOM      4  O   UNL     1      23.984  34.985  90.079  1.00  0.00    -0.299 OA
BRANCH   3   5
ATOM      5  C   UNL     1      22.983  36.694  88.800  1.00  0.00     0.072 C 
ATOM      6  C   UNL     1      24.117  37.469  88.137  1.00  0.00     0.012 C 
ENDBRANCH   3   5
ENDBRANCH   1   3
BRANCH   1   7
ATOM      7  C   UNL     1      21.909  34.618  87.136  1.00  0.00     0.038 C 
BRANCH   7   8
ATOM      8  C   UNL     1      22.321  34.744  85.693  1.00  0.00    -0.034 C 
ATOM      9  C   UNL     1      23.595  34.932  85.340  1.00  0.00     0.004 C 
ENDBRANCH   7   8
ENDBRANCH   1   7
TORSDOF 4
ENDMDL
MODEL 3
REMARK VINA RESULT:    -3.170     17.458     19.124
REMARK INTER + INTRA:          -4.208
REMARK INTER:                  -3.996
REMARK INTRA:                  -0.212
REMARK UNBOUND:                -0.296
REMARK SMILES C=CC[C@H](C)C(=O)CC
REMARK SMILES IDX 4 1 5 2 6 3 7 4 8 5 9 6 3 7 2 8 1 9
REMARK H PARENT
REMARK Flexibility Score: inf
ROOT
ATOM      1  C   UNL     1      29.500  45.258  84.688  1.00  0.00     0.057 C 
ATOM      2  C   UNL     1      30.373  43.998  84.767  1.00  0.00     0.016 C 
ENDROOT
BRANCH   1   3
ATOM      3  C   UNL     1      28.347  45.148  85.664  1.00  0.00     0.135 C 
ATOM      4  O   UNL     1      27.349  44.514  85.352  1.00  0.00    -0.299 OA
BRANCH   3   5
ATOM      5  C   UNL     1      28.406  45.804  87.018  1.00  0.00     0.072 C 
ATOM      6  C   UNL     1      28.359  44.758  88.127  1.00  0.00     0.012 C 
ENDBRANCH   3   5
ENDBRANCH   1   3
BRANCH   1   7
ATOM      7  C   UNL     1      28.960  45.492  83.262  1.00  0.00     0.038 C 
BRANCH   7   8
ATOM      8  C   UNL     1      29.465  44.466  82.282  1.00  0.00    -0.034 C 
ATOM      9  C   UNL     1      29.000  44.397  81.032  1.00  0.00     0.004 C 
ENDBRANCH   7   8
ENDBRANCH   1   7
TORSDOF 4
ENDMDL
MODEL 4
REMARK VINA RESULT:    -3.124     15.833     16.293
REMARK INTER + INTRA:          -4.151
REMARK INTER:                  -3.825
REMARK INTRA:                  -0.327
REMARK UNBOUND:                -0.296
REMARK SMILES C=CC[C@H](C)C(=O)CC
REMARK SMILES IDX 4 1 5 2 6 3 7 4 8 5 9 6 3 7 2 8 1 9
REMARK H PARENT
REMARK Flexibility Score: inf
ROOT
ATOM      1  C   UNL     1      23.845  36.212  87.714  1.00  0.00     0.057 C 
ATOM      2  C   UNL     1      24.162  37.657  88.124  1.00  0.00     0.016 C 
ENDROOT
BRANCH   1   3
ATOM      3  C   UNL     1      23.312  36.183  86.297  1.00  0.00     0.135 C 
ATOM      4  O   UNL     1      22.777  37.179  85.832  1.00  0.00    -0.299 OA
BRANCH   3   5
ATOM      5  C   UNL     1      23.433  34.948  85.443  1.00  0.00     0.072 C 
ATOM      6  C   UNL     1      22.173  34.745  84.608  1.00  0.00     0.012 C 
ENDBRANCH   3   5
ENDBRANCH   1   3
BRANCH   1   7
ATOM      7  C   UNL     1      22.828  35.555  88.671  1.00  0.00     0.038 C 
BRANCH   7   8
ATOM      8  C   UNL     1      23.230  34.158  89.063  1.00  0.00    -0.034 C 
ATOM      9  C   UNL     1      22.662  33.082  88.512  1.00  0.00     0.004 C 
ENDBRANCH   7   8
ENDBRANCH   1   7
TORSDOF 4
ENDMDL
MODEL 5
REMARK VINA RESULT:    -3.110     15.974     16.681
REMARK INTER + INTRA:          -4.134
REMARK INTER:                  -3.682
REMARK INTRA:                  -0.452
REMARK UNBOUND:                -0.296
REMARK SMILES C=CC[C@H](C)C(=O)CC
REMARK SMILES IDX 4 1 5 2 6 3 7 4 8 5 9 6 3 7 2 8 1 9
REMARK H PARENT
REMARK Flexibility Score: inf
ROOT
ATOM      1  C   UNL     1      23.187  35.681  87.434  1.00  0.00     0.057 C 
ATOM      2  C   UNL     1      23.891  37.015  87.719  1.00  0.00     0.016 C 
ENDROOT
BRANCH   1   3
ATOM      3  C   UNL     1      23.373  34.740  88.605  1.00  0.00     0.135 C 
ATOM      4  O   UNL     1      23.812  35.169  89.663  1.00  0.00    -0.299 OA
BRANCH   3   5
ATOM      5  C   UNL     1      23.021  33.279  88.496  1.00  0.00     0.072 C 
ATOM      6  C   UNL     1      21.514  33.077  88.610  1.00  0.00     0.012 C 
ENDBRANCH   3   5
ENDBRANCH   1   3
BRANCH   1   7
ATOM      7  C   UNL     1      23.711  35.021  86.142  1.00  0.00     0.038 C 
BRANCH   7   8
ATOM      8  C   UNL     1      22.696  35.050  85.030  1.00  0.00    -0.034 C 
ATOM      9  C   UNL     1      21.419  34.720  85.235  1.00  0.00     0.004 C 
ENDBRANCH   7   8
ENDBRANCH   1   7
TORSDOF 4
ENDMDL
MODEL 6
REMARK VINA RESULT:    -3.101     17.513     19.033
REMARK INTER + INTRA:          -4.122
REMARK INTER:                  -3.918
REMARK INTRA:                  -0.204
REMARK UNBOUND:                -0.296
REMARK SMILES C=CC[C@H](C)C(=O)CC
REMARK SMILES IDX 4 1 5 2 6 3 7 4 8 5 9 6 3 7 2 8 1 9
REMARK H PARENT
REMARK Flexibility Score: inf
ROOT
ATOM      1  C   UNL     1      28.896  44.613  85.144  1.00  0.00     0.057 C 
ATOM      2  C   UNL     1      30.307  44.033  84.978  1.00  0.00     0.016 C 
ENDROOT
BRANCH   1   3
ATOM      3  C   UNL     1      28.244  44.779  83.788  1.00  0.00     0.135 C 
ATOM      4  O   UNL     1      27.093  44.403  83.619  1.00  0.00    -0.299 OA
BRANCH   3   5
ATOM      5  C   UNL     1      28.987  45.405  82.636  1.00  0.00     0.072 C 
ATOM      6  C   UNL     1      29.158  44.406  81.498  1.00  0.00     0.012 C 
ENDBRANCH   3   5
ENDBRANCH   1   3
BRANCH   1   7
ATOM      7  C   UNL     1      28.916  45.966  85.886  1.00  0.00     0.038 C 
BRANCH   7   8
ATOM      8  C   UNL     1      28.308  45.875  87.261  1.00  0.00    -0.034 C 
ATOM      9  C   UNL     1      28.399  44.766  87.998  1.00  0.00     0.004 C 
ENDBRANCH   7   8
ENDBRANCH   1   7
TORSDOF 4
ENDMDL
MODEL 7
REMARK VINA RESULT:    -3.057     15.865     16.244
REMARK INTER + INTRA:          -4.068
REMARK INTER:                  -3.582
REMARK INTRA:                  -0.486
REMARK UNBOUND:                -0.296
REMARK SMILES C=CC[C@H](C)C(=O)CC
REMARK SMILES IDX 4 1 5 2 6 3 7 4 8 5 9 6 3 7 2 8 1 9
REMARK H PARENT
REMARK Flexibility Score: inf
ROOT
ATOM      1  C   UNL     1      22.378  35.601  85.897  1.00  0.00     0.057 C 
ATOM      2  C   UNL     1      23.661  34.918  85.401  1.00  0.00     0.016 C 
ENDROOT
BRANCH   1   3
ATOM      3  C   UNL     1      22.647  37.065  86.173  1.00  0.00     0.135 C 
ATOM      4  O   UNL     1      22.816  37.836  85.239  1.00  0.00    -0.299 OA
BRANCH   3   5
ATOM      5  C   UNL     1      22.707  37.596  87.581  1.00  0.00     0.072 C 
ATOM      6  C   UNL     1      24.144  37.620  88.089  1.00  0.00     0.012 C 
ENDBRANCH   3   5
ENDBRANCH   1   3
BRANCH   1   7
ATOM      7  C   UNL     1      21.823  34.921  87.167  1.00  0.00     0.038 C 
BRANCH   7   8
ATOM      8  C   UNL     1      22.770  33.892  87.727  1.00  0.00    -0.034 C 
ATOM      9  C   UNL     1      23.241  33.975  88.973  1.00  0.00     0.004 C 
ENDBRANCH   7   8
ENDBRANCH   1   7
TORSDOF 4
ENDMDL
MODEL 8
REMARK VINA RESULT:    -3.038     16.184     16.778
REMARK INTER + INTRA:          -4.044
REMARK INTER:                  -3.595
REMARK INTRA:                  -0.450
REMARK UNBOUND:                -0.296
REMARK SMILES C=CC[C@H](C)C(=O)CC
REMARK SMILES IDX 4 1 5 2 6 3 7 4 8 5 9 6 3 7 2 8 1 9
REMARK H PARENT
REMARK Flexibility Score: inf
ROOT
ATOM      1  C   UNL     1      23.244  35.352  86.823  1.00  0.00     0.057 C 
ATOM      2  C   UNL     1      23.657  34.904  85.414  1.00  0.00     0.016 C 
ENDROOT
BRANCH   1   3
ATOM      3  C   UNL     1      22.446  34.256  87.498  1.00  0.00     0.135 C 
ATOM      4  O   UNL     1      21.282  34.066  87.173  1.00  0.00    -0.299 OA
BRANCH   3   5
ATOM      5  C   UNL     1      23.060  33.387  88.564  1.00  0.00     0.072 C 
ATOM      6  C   UNL     1      23.757  34.240  89.619  1.00  0.00     0.012 C 
ENDBRANCH   3   5
ENDBRANCH   1   3
BRANCH   1   7
ATOM      7  C   UNL     1      22.420  36.656  86.790  1.00  0.00     0.038 C 
BRANCH   7   8
ATOM      8  C   UNL     1      22.969  37.704  87.723  1.00  0.00    -0.034 C 
ATOM      9  C   UNL     1      24.207  37.626  88.218  1.00  0.00     0.004 C 
ENDBRANCH   7   8
ENDBRANCH   1   7
TORSDOF 4
ENDMDL
MODEL 9
REMARK VINA RESULT:    -2.990     15.607     16.100
REMARK INTER + INTRA:          -3.985
REMARK INTER:                  -3.547
REMARK INTRA:                  -0.438
REMARK UNBOUND:                -0.296
REMARK SMILES C=CC[C@H](C)C(=O)CC
REMARK SMILES IDX 4 1 5 2 6 3 7 4 8 5 9 6 3 7 2 8 1 9
REMARK H PARENT
REMARK Flexibility Score: inf
ROOT
ATOM      1  C   UNL     1      22.805  35.246  87.158  1.00  0.00     0.057 C 
ATOM      2  C   UNL     1      22.654  33.875  87.832  1.00  0.00     0.016 C 
ENDROOT
BRANCH   1   3
ATOM      3  C   UNL     1      22.935  35.072  85.660  1.00  0.00     0.135 C 
ATOM      4  O   UNL     1      24.018  34.774  85.177  1.00  0.00    -0.299 OA
BRANCH   3   5
ATOM      5  C   UNL     1      21.751  35.254  84.747  1.00  0.00     0.072 C 
ATOM      6  C   UNL     1      21.010  36.546  85.076  1.00  0.00     0.012 C 
ENDBRANCH   3   5
ENDBRANCH   1   3
BRANCH   1   7
ATOM      7  C   UNL     1      24.022  36.021  87.704  1.00  0.00     0.038 C 
BRANCH   7   8
ATOM      8  C   UNL     1      23.766  37.503  87.791  1.00  0.00    -0.034 C 
ATOM      9  C   UNL     1      22.741  38.000  88.487  1.00  0.00     0.004 C 
ENDBRANCH   7   8
ENDBRANCH   1   7
TORSDOF 4
ENDMDL
