MODEL 1
REMARK VINA RESULT:    -3.083      0.000      0.000
REMARK INTER + INTRA:          -3.674
REMARK INTER:                  -3.624
REMARK INTRA:                  -0.050
REMARK UNBOUND:                -0.050
REMARK SMILES CCCCC(=O)[O-]
REMARK SMILES IDX 4 1 5 2 6 3 7 4 3 5 2 6 1 7
REMARK H PARENT
REMARK Flexibility Score: inf
ROOT
ATOM      1  C   UNL     1       9.503 -26.659 -29.528  1.00  0.00     0.053 C 
ENDROOT
BRANCH   1   2
ATOM      2  C   UNL     1       8.584 -27.672 -28.918  1.00  0.00     0.041 C 
ATOM      3  O   UNL     1       8.359 -28.762 -29.508  1.00  0.00    -0.550 OA
ATOM      4  O   UNL     1       8.002 -27.426 -27.681  1.00  0.00    -0.550 OA
ENDBRANCH   1   2
BRANCH   1   5
ATOM      5  C   UNL     1      10.724 -27.321 -30.182  1.00  0.00     0.006 C 
BRANCH   5   6
ATOM      6  C   UNL     1      10.882 -26.919 -31.655  1.00  0.00    -0.003 C 
ATOM      7  C   UNL     1      10.981 -25.404 -31.804  1.00  0.00     0.004 C 
ENDBRANCH   5   6
ENDBRANCH   1   5
TORSDOF 3
ENDMDL
MODEL 2
REMARK VINA RESULT:    -3.065      2.639      3.990
REMARK INTER + INTRA:          -3.653
REMARK INTER:                  -3.625
REMARK INTRA:                  -0.028
REMARK UNBOUND:                -0.050
REMARK SMILES CCCCC(=O)[O-]
REMARK SMILES IDX 4 1 5 2 6 3 7 4 3 5 2 6 1 7
REMARK H PARENT
REMARK Flexibility Score: inf
ROOT
ATOM      1  C   UNL     1       9.838 -26.391 -29.824  1.00  0.00     0.053 C 
ENDROOT
BRANCH   1   2
ATOM      2  C   UNL     1      10.805 -26.065 -30.920  1.00  0.00     0.041 C 
ATOM      3  O   UNL     1      11.447 -24.981 -30.899  1.00  0.00    -0.550 OA
ATOM      4  O   UNL     1      11.024 -26.974 -31.947  1.00  0.00    -0.550 OA
ENDBRANCH   1   2
BRANCH   1   5
ATOM      5  C   UNL     1       9.546 -27.896 -29.752  1.00  0.00     0.006 C 
BRANCH   5   6
ATOM      6  C   UNL     1       8.280 -28.203 -28.940  1.00  0.00    -0.003 C 
ATOM      7  C   UNL     1       8.234 -27.375 -27.659  1.00  0.00     0.004 C 
ENDBRANCH   5   6
ENDBRANCH   1   5
TORSDOF 3
ENDMDL
MODEL 3
REMARK VINA RESULT:    -3.057      0.159      1.234
REMARK INTER + INTRA:          -3.644
REMARK INTER:                  -3.592
REMARK INTRA:                  -0.052
REMARK UNBOUND:                -0.050
REMARK SMILES CCCCC(=O)[O-]
REMARK SMILES IDX 4 1 5 2 6 3 7 4 3 5 2 6 1 7
REMARK H PARENT
REMARK Flexibility Score: inf
ROOT
ATOM      1  C   UNL     1       9.508 -26.618 -29.340  1.00  0.00     0.053 C 
ENDROOT
BRANCH   1   2
ATOM      2  C   UNL     1       8.562 -27.626 -28.764  1.00  0.00     0.041 C 
ATOM      3  O   UNL     1       8.003 -27.410 -27.655  1.00  0.00    -0.550 OA
ATOM      4  O   UNL     1       8.272 -28.788 -29.466  1.00  0.00    -0.550 OA
ENDBRANCH   1   2
BRANCH   1   5
ATOM      5  C   UNL     1      10.724 -27.288 -29.995  1.00  0.00     0.006 C 
BRANCH   5   6
ATOM      6  C   UNL     1      10.794 -27.015 -31.504  1.00  0.00    -0.003 C 
ATOM      7  C   UNL     1      11.066 -25.540 -31.784  1.00  0.00     0.004 C 
ENDBRANCH   5   6
ENDBRANCH   1   5
TORSDOF 3
ENDMDL
MODEL 4
REMARK VINA RESULT:    -3.050      2.670      3.880
REMARK INTER + INTRA:          -3.635
REMARK INTER:                  -3.617
REMARK INTRA:                  -0.018
REMARK UNBOUND:                -0.050
REMARK SMILES CCCCC(=O)[O-]
REMARK SMILES IDX 4 1 5 2 6 3 7 4 3 5 2 6 1 7
REMARK H PARENT
REMARK Flexibility Score: inf
ROOT
ATOM      1  C   UNL     1       9.568 -26.241 -29.382  1.00  0.00     0.053 C 
ENDROOT
BRANCH   1   2
ATOM      2  C   UNL     1       9.831 -25.373 -30.574  1.00  0.00     0.041 C 
ATOM      3  O   UNL     1       9.245 -24.265 -30.693  1.00  0.00    -0.550 OA
ATOM      4  O   UNL     1      10.750 -25.773 -31.536  1.00  0.00    -0.550 OA
ENDBRANCH   1   2
BRANCH   1   5
ATOM      5  C   UNL     1       9.545 -27.730 -29.756  1.00  0.00     0.006 C 
BRANCH   5   6
ATOM      6  C   UNL     1       8.355 -28.468 -29.128  1.00  0.00    -0.003 C 
ATOM      7  C   UNL     1       8.022 -29.737 -29.905  1.00  0.00     0.004 C 
ENDBRANCH   5   6
ENDBRANCH   1   5
TORSDOF 3
ENDMDL
MODEL 5
REMARK VINA RESULT:    -3.043      2.399      3.520
REMARK INTER + INTRA:          -3.627
REMARK INTER:                  -3.496
REMARK INTRA:                  -0.131
REMARK UNBOUND:                -0.050
REMARK SMILES CCCCC(=O)[O-]
REMARK SMILES IDX 4 1 5 2 6 3 7 4 3 5 2 6 1 7
REMARK H PARENT
REMARK Flexibility Score: inf
ROOT
ATOM      1  C   UNL     1      10.406 -26.840 -30.640  1.00  0.00     0.053 C 
ENDROOT
BRANCH   1   2
ATOM      2  C   UNL     1      10.027 -25.419 -30.359  1.00  0.00     0.041 C 
ATOM      3  O   UNL     1       9.392 -24.749 -31.217  1.00  0.00    -0.550 OA
ATOM      4  O   UNL     1      10.345 -24.844 -29.136  1.00  0.00    -0.550 OA
ENDBRANCH   1   2
BRANCH   1   5
ATOM      5  C   UNL     1      10.148 -27.747 -29.429  1.00  0.00     0.006 C 
BRANCH   5   6
ATOM      6  C   UNL     1       8.650 -27.971 -29.179  1.00  0.00    -0.003 C 
ATOM      7  C   UNL     1       8.240 -27.456 -27.803  1.00  0.00     0.004 C 
ENDBRANCH   5   6
ENDBRANCH   1   5
TORSDOF 3
ENDMDL
MODEL 6
REMARK VINA RESULT:    -3.026      2.881      3.683
REMARK INTER + INTRA:          -3.607
REMARK INTER:                  -3.587
REMARK INTRA:                  -0.020
REMARK UNBOUND:                -0.050
REMARK SMILES CCCCC(=O)[O-]
REMARK SMILES IDX 4 1 5 2 6 3 7 4 3 5 2 6 1 7
REMARK H PARENT
REMARK Flexibility Score: inf
ROOT
ATOM      1  C   UNL     1       8.166 -27.679 -27.983  1.00  0.00     0.053 C 
ENDROOT
BRANCH   1   2
ATOM      2  C   UNL     1       9.115 -26.687 -27.383  1.00  0.00     0.041 C 
ATOM      3  O   UNL     1       9.218 -26.585 -26.132  1.00  0.00    -0.550 OA
ATOM      4  O   UNL     1       9.909 -25.899 -28.206  1.00  0.00    -0.550 OA
ENDBRANCH   1   2
BRANCH   1   5
ATOM      5  C   UNL     1       8.709 -28.263 -29.295  1.00  0.00     0.006 C 
BRANCH   5   6
ATOM      6  C   UNL     1       8.549 -29.788 -29.360  1.00  0.00    -0.003 C 
ATOM      7  C   UNL     1       7.365 -30.180 -30.239  1.00  0.00     0.004 C 
ENDBRANCH   5   6
ENDBRANCH   1   5
TORSDOF 3
ENDMDL
MODEL 7
REMARK VINA RESULT:    -3.012     17.599     18.464
REMARK INTER + INTRA:          -3.591
REMARK INTER:                  -3.480
REMARK INTRA:                  -0.111
REMARK UNBOUND:                -0.050
REMARK SMILES CCCCC(=O)[O-]
REMARK SMILES IDX 4 1 5 2 6 3 7 4 3 5 2 6 1 7
REMARK H PARENT
REMARK Flexibility Score: inf
ROOT
ATOM      1  C   UNL     1      23.317 -17.034 -27.004  1.00  0.00     0.053 C 
ENDROOT
BRANCH   1   2
ATOM      2  C   UNL     1      23.445 -16.949 -28.494  1.00  0.00     0.041 C 
ATOM      3  O   UNL     1      22.813 -17.750 -29.232  1.00  0.00    -0.550 OA
ATOM      4  O   UNL     1      24.238 -15.963 -29.068  1.00  0.00    -0.550 OA
ENDBRANCH   1   2
BRANCH   1   5
ATOM      5  C   UNL     1      24.275 -16.068 -26.294  1.00  0.00     0.006 C 
BRANCH   5   6
ATOM      6  C   UNL     1      25.528 -16.778 -25.764  1.00  0.00    -0.003 C 
ATOM      7  C   UNL     1      26.751 -16.447 -26.615  1.00  0.00     0.004 C 
ENDBRANCH   5   6
ENDBRANCH   1   5
TORSDOF 3
ENDMDL
MODEL 8
REMARK VINA RESULT:    -2.940      1.725      2.071
REMARK INTER + INTRA:          -3.506
REMARK INTER:                  -3.466
REMARK INTRA:                  -0.040
REMARK UNBOUND:                -0.050
REMARK SMILES CCCCC(=O)[O-]
REMARK SMILES IDX 4 1 5 2 6 3 7 4 3 5 2 6 1 7
REMARK H PARENT
REMARK Flexibility Score: inf
ROOT
ATOM      1  C   UNL     1       8.776 -28.203 -29.364  1.00  0.00     0.053 C 
ENDROOT
BRANCH   1   2
ATOM      2  C   UNL     1       8.363 -29.638 -29.483  1.00  0.00     0.041 C 
ATOM      3  O   UNL     1       7.457 -29.973 -30.291  1.00  0.00    -0.550 OA
ATOM      4  O   UNL     1       9.003 -30.611 -28.726  1.00  0.00    -0.550 OA
ENDBRANCH   1   2
BRANCH   1   5
ATOM      5  C   UNL     1      10.290 -28.063 -29.154  1.00  0.00     0.006 C 
BRANCH   5   6
ATOM      6  C   UNL     1      10.863 -26.834 -29.874  1.00  0.00    -0.003 C 
ATOM      7  C   UNL     1      10.782 -26.996 -31.389  1.00  0.00     0.004 C 
ENDBRANCH   5   6
ENDBRANCH   1   5
TORSDOF 3
ENDMDL
MODEL 9
REMARK VINA RESULT:    -2.885     10.959     11.532
REMARK INTER + INTRA:          -3.441
REMARK INTER:                  -3.323
REMARK INTRA:                  -0.118
REMARK UNBOUND:                -0.050
REMARK SMILES CCCCC(=O)[O-]
REMARK SMILES IDX 4 1 5 2 6 3 7 4 3 5 2 6 1 7
REMARK H PARENT
REMARK Flexibility Score: inf
ROOT
ATOM      1  C   UNL     1      21.769 -25.661 -28.689  1.00  0.00     0.053 C 
ENDROOT
BRANCH   1   2
ATOM      2  C   UNL     1      20.652 -26.556 -29.131  1.00  0.00     0.041 C 
ATOM      3  O   UNL     1      20.045 -26.327 -30.211  1.00  0.00    -0.550 OA
ATOM      4  O   UNL     1      20.304 -27.662 -28.367  1.00  0.00    -0.550 OA
ENDBRANCH   1   2
BRANCH   1   5
ATOM      5  C   UNL     1      21.250 -24.301 -28.204  1.00  0.00     0.006 C 
BRANCH   5   6
ATOM      6  C   UNL     1      20.517 -24.406 -26.859  1.00  0.00    -0.003 C 
ATOM      7  C   UNL     1      19.075 -23.922 -26.979  1.00  0.00     0.004 C 
ENDBRANCH   5   6
ENDBRANCH   1   5
TORSDOF 3
ENDMDL
