MODEL 1
REMARK VINA RESULT:    -3.857      0.000      0.000
REMARK INTER + INTRA:          -5.237
REMARK INTER:                  -4.984
REMARK INTRA:                  -0.253
REMARK UNBOUND:                -0.253
REMARK SMILES CCCCCCC(=O)[O-]
REMARK SMILES IDX 5 1 6 2 7 3 8 4 9 5 4 6 3 7 2 8 1 9
REMARK H PARENT
REMARK Flexibility Score: inf
ROOT
ATOM      1  C   UNL     1     252.175 261.149 247.128  1.00  0.00     0.006 C 
ENDROOT
BRANCH   1   2
ATOM      2  C   UNL     1     251.655 259.710 247.052  1.00  0.00     0.053 C 
BRANCH   2   3
ATOM      3  C   UNL     1     250.164 259.683 247.169  1.00  0.00     0.041 C 
ATOM      4  O   UNL     1     249.501 260.747 247.051  1.00  0.00    -0.550 OA
ATOM      5  O   UNL     1     249.510 258.492 247.456  1.00  0.00    -0.550 OA
ENDBRANCH   2   3
ENDBRANCH   1   2
BRANCH   1   6
ATOM      6  C   UNL     1     253.505 261.212 247.893  1.00  0.00     0.000 C 
BRANCH   6   7
ATOM      7  C   UNL     1     254.599 260.343 247.253  1.00  0.00    -0.000 C 
BRANCH   7   8
ATOM      8  C   UNL     1     255.154 260.950 245.957  1.00  0.00    -0.003 C 
ATOM      9  C   UNL     1     254.787 260.094 244.747  1.00  0.00     0.004 C 
ENDBRANCH   7   8
ENDBRANCH   6   7
ENDBRANCH   1   6
TORSDOF 5
ENDMDL
MODEL 2
REMARK VINA RESULT:    -3.734      3.418      5.765
REMARK INTER + INTRA:          -5.078
REMARK INTER:                  -4.712
REMARK INTRA:                  -0.366
REMARK UNBOUND:                -0.253
REMARK SMILES CCCCCCC(=O)[O-]
REMARK SMILES IDX 5 1 6 2 7 3 8 4 9 5 4 6 3 7 2 8 1 9
REMARK H PARENT
REMARK Flexibility Score: inf
ROOT
ATOM      1  C   UNL     1     249.888 256.963 246.633  1.00  0.00     0.006 C 
ENDROOT
BRANCH   1   2
ATOM      2  C   UNL     1     249.493 258.124 247.551  1.00  0.00     0.053 C 
BRANCH   2   3
ATOM      3  C   UNL     1     250.189 259.381 247.137  1.00  0.00     0.041 C 
ATOM      4  O   UNL     1     251.417 259.362 246.859  1.00  0.00    -0.550 OA
ATOM      5  O   UNL     1     249.494 260.583 247.107  1.00  0.00    -0.550 OA
ENDBRANCH   2   3
ENDBRANCH   1   2
BRANCH   1   6
ATOM      6  C   UNL     1     248.802 256.701 245.579  1.00  0.00     0.000 C 
BRANCH   6   7
ATOM      7  C   UNL     1     247.382 256.908 246.128  1.00  0.00    -0.000 C 
BRANCH   7   8
ATOM      8  C   UNL     1     246.494 257.727 245.181  1.00  0.00    -0.003 C 
ATOM      9  C   UNL     1     247.141 259.069 244.845  1.00  0.00     0.004 C 
ENDBRANCH   7   8
ENDBRANCH   6   7
ENDBRANCH   1   6
TORSDOF 5
ENDMDL
MODEL 3
REMARK VINA RESULT:    -3.730      5.272      6.967
REMARK INTER + INTRA:          -5.073
REMARK INTER:                  -4.940
REMARK INTRA:                  -0.133
REMARK UNBOUND:                -0.253
REMARK SMILES CCCCCCC(=O)[O-]
REMARK SMILES IDX 5 1 6 2 7 3 8 4 9 5 4 6 3 7 2 8 1 9
REMARK H PARENT
REMARK Flexibility Score: inf
ROOT
ATOM      1  C   UNL     1     257.099 261.122 244.627  1.00  0.00     0.006 C 
ENDROOT
BRANCH   1   2
ATOM      2  C   UNL     1     258.620 261.264 244.739  1.00  0.00     0.053 C 
BRANCH   2   3
ATOM      3  C   UNL     1     259.000 262.695 244.948  1.00  0.00     0.041 C 
ATOM      4  O   UNL     1     259.738 263.020 245.915  1.00  0.00    -0.550 OA
ATOM      5  O   UNL     1     258.499 263.678 244.103  1.00  0.00    -0.550 OA
ENDBRANCH   2   3
ENDBRANCH   1   2
BRANCH   1   6
ATOM      6  C   UNL     1     256.434 261.223 246.008  1.00  0.00     0.000 C 
BRANCH   6   7
ATOM      7  C   UNL     1     254.990 260.695 246.009  1.00  0.00    -0.000 C 
BRANCH   7   8
ATOM      8  C   UNL     1     254.310 260.838 247.378  1.00  0.00    -0.003 C 
ATOM      9  C   UNL     1     252.830 261.180 247.223  1.00  0.00     0.004 C 
ENDBRANCH   7   8
ENDBRANCH   6   7
ENDBRANCH   1   6
TORSDOF 5
ENDMDL
MODEL 4
REMARK VINA RESULT:    -3.682      5.779      6.530
REMARK INTER + INTRA:          -5.011
REMARK INTER:                  -4.841
REMARK INTRA:                  -0.171
REMARK UNBOUND:                -0.253
REMARK SMILES CCCCCCC(=O)[O-]
REMARK SMILES IDX 5 1 6 2 7 3 8 4 9 5 4 6 3 7 2 8 1 9
REMARK H PARENT
REMARK Flexibility Score: inf
ROOT
ATOM      1  C   UNL     1     254.466 262.260 252.608  1.00  0.00     0.006 C 
ENDROOT
BRANCH   1   2
ATOM      2  C   UNL     1     254.758 262.005 254.091  1.00  0.00     0.053 C 
BRANCH   2   3
ATOM      3  C   UNL     1     254.095 260.745 254.548  1.00  0.00     0.041 C 
ATOM      4  O   UNL     1     253.101 260.290 253.922  1.00  0.00    -0.550 OA
ATOM      5  O   UNL     1     254.543 260.100 255.693  1.00  0.00    -0.550 OA
ENDBRANCH   2   3
ENDBRANCH   1   2
BRANCH   1   6
ATOM      6  C   UNL     1     255.616 261.753 251.726  1.00  0.00     0.000 C 
BRANCH   6   7
ATOM      7  C   UNL     1     255.155 260.710 250.695  1.00  0.00    -0.000 C 
BRANCH   7   8
ATOM      8  C   UNL     1     255.763 260.944 249.305  1.00  0.00    -0.003 C 
ATOM      9  C   UNL     1     254.735 260.690 248.205  1.00  0.00     0.004 C 
ENDBRANCH   7   8
ENDBRANCH   6   7
ENDBRANCH   1   6
TORSDOF 5
ENDMDL
MODEL 5
REMARK VINA RESULT:    -3.634      5.033      5.823
REMARK INTER + INTRA:          -4.949
REMARK INTER:                  -4.761
REMARK INTRA:                  -0.188
REMARK UNBOUND:                -0.253
REMARK SMILES CCCCCCC(=O)[O-]
REMARK SMILES IDX 5 1 6 2 7 3 8 4 9 5 4 6 3 7 2 8 1 9
REMARK H PARENT
REMARK Flexibility Score: inf
ROOT
ATOM      1  C   UNL     1     255.669 261.617 251.317  1.00  0.00     0.006 C 
ENDROOT
BRANCH   1   2
ATOM      2  C   UNL     1     254.492 262.284 252.036  1.00  0.00     0.053 C 
BRANCH   2   3
ATOM      3  C   UNL     1     254.371 261.767 253.434  1.00  0.00     0.041 C 
ATOM      4  O   UNL     1     255.048 262.285 254.361  1.00  0.00    -0.550 OA
ATOM      5  O   UNL     1     253.548 260.682 253.706  1.00  0.00    -0.550 OA
ENDBRANCH   2   3
ENDBRANCH   1   2
BRANCH   1   6
ATOM      6  C   UNL     1     255.175 260.693 250.194  1.00  0.00     0.000 C 
BRANCH   6   7
ATOM      7  C   UNL     1     255.946 260.894 248.880  1.00  0.00    -0.000 C 
BRANCH   7   8
ATOM      8  C   UNL     1     255.102 260.560 247.642  1.00  0.00    -0.003 C 
ATOM      9  C   UNL     1     253.665 261.048 247.808  1.00  0.00     0.004 C 
ENDBRANCH   7   8
ENDBRANCH   6   7
ENDBRANCH   1   6
TORSDOF 5
ENDMDL
MODEL 6
REMARK VINA RESULT:    -3.625      5.234      6.857
REMARK INTER + INTRA:          -4.937
REMARK INTER:                  -4.785
REMARK INTRA:                  -0.153
REMARK UNBOUND:                -0.253
REMARK SMILES CCCCCCC(=O)[O-]
REMARK SMILES IDX 5 1 6 2 7 3 8 4 9 5 4 6 3 7 2 8 1 9
REMARK H PARENT
REMARK Flexibility Score: inf
ROOT
ATOM      1  C   UNL     1     257.097 260.980 244.595  1.00  0.00     0.006 C 
ENDROOT
BRANCH   1   2
ATOM      2  C   UNL     1     258.328 261.892 244.599  1.00  0.00     0.053 C 
BRANCH   2   3
ATOM      3  C   UNL     1     259.208 261.581 245.767  1.00  0.00     0.041 C 
ATOM      4  O   UNL     1     259.726 260.439 245.884  1.00  0.00    -0.550 OA
ATOM      5  O   UNL     1     259.417 262.536 246.754  1.00  0.00    -0.550 OA
ENDBRANCH   2   3
ENDBRANCH   1   2
BRANCH   1   6
ATOM      6  C   UNL     1     256.191 261.274 245.800  1.00  0.00     0.000 C 
BRANCH   6   7
ATOM      7  C   UNL     1     254.879 260.475 245.763  1.00  0.00    -0.000 C 
BRANCH   7   8
ATOM      8  C   UNL     1     253.794 261.077 246.668  1.00  0.00    -0.003 C 
ATOM      9  C   UNL     1     254.129 260.868 248.142  1.00  0.00     0.004 C 
ENDBRANCH   7   8
ENDBRANCH   6   7
ENDBRANCH   1   6
TORSDOF 5
ENDMDL
MODEL 7
REMARK VINA RESULT:    -3.601      6.351      7.328
REMARK INTER + INTRA:          -4.906
REMARK INTER:                  -4.470
REMARK INTRA:                  -0.436
REMARK UNBOUND:                -0.253
REMARK SMILES CCCCCCC(=O)[O-]
REMARK SMILES IDX 5 1 6 2 7 3 8 4 9 5 4 6 3 7 2 8 1 9
REMARK H PARENT
REMARK Flexibility Score: inf
ROOT
ATOM      1  C   UNL     1     257.224 260.911 247.130  1.00  0.00     0.006 C 
ENDROOT
BRANCH   1   2
ATOM      2  C   UNL     1     258.108 261.820 247.990  1.00  0.00     0.053 C 
BRANCH   2   3
ATOM      3  C   UNL     1     259.549 261.456 247.828  1.00  0.00     0.041 C 
ATOM      4  O   UNL     1     259.990 260.384 248.319  1.00  0.00    -0.550 OA
ATOM      5  O   UNL     1     260.417 262.325 247.178  1.00  0.00    -0.550 OA
ENDBRANCH   2   3
ENDBRANCH   1   2
BRANCH   1   6
ATOM      6  C   UNL     1     256.805 261.618 245.833  1.00  0.00     0.000 C 
BRANCH   6   7
ATOM      7  C   UNL     1     257.683 261.225 244.634  1.00  0.00    -0.000 C 
BRANCH   7   8
ATOM      8  C   UNL     1     258.583 262.374 244.159  1.00  0.00    -0.003 C 
ATOM      9  C   UNL     1     258.127 263.708 244.743  1.00  0.00     0.004 C 
ENDBRANCH   7   8
ENDBRANCH   6   7
ENDBRANCH   1   6
TORSDOF 5
ENDMDL
MODEL 8
REMARK VINA RESULT:    -3.597      1.600      2.305
REMARK INTER + INTRA:          -4.902
REMARK INTER:                  -4.487
REMARK INTRA:                  -0.414
REMARK UNBOUND:                -0.253
REMARK SMILES CCCCCCC(=O)[O-]
REMARK SMILES IDX 5 1 6 2 7 3 8 4 9 5 4 6 3 7 2 8 1 9
REMARK H PARENT
REMARK Flexibility Score: inf
ROOT
ATOM      1  C   UNL     1     252.793 257.504 246.568  1.00  0.00     0.006 C 
ENDROOT
BRANCH   1   2
ATOM      2  C   UNL     1     251.720 257.717 247.640  1.00  0.00     0.053 C 
BRANCH   2   3
ATOM      3  C   UNL     1     250.586 258.526 247.094  1.00  0.00     0.041 C 
ATOM      4  O   UNL     1     250.729 259.760 246.892  1.00  0.00    -0.550 OA
ATOM      5  O   UNL     1     249.356 257.926 246.855  1.00  0.00    -0.550 OA
ENDBRANCH   2   3
ENDBRANCH   1   2
BRANCH   1   6
ATOM      6  C   UNL     1     254.002 258.420 246.809  1.00  0.00     0.000 C 
BRANCH   6   7
ATOM      7  C   UNL     1     254.130 259.523 245.746  1.00  0.00    -0.000 C 
BRANCH   7   8
ATOM      8  C   UNL     1     254.082 260.934 246.349  1.00  0.00    -0.003 C 
ATOM      9  C   UNL     1     253.916 260.879 247.865  1.00  0.00     0.004 C 
ENDBRANCH   7   8
ENDBRANCH   6   7
ENDBRANCH   1   6
TORSDOF 5
ENDMDL
MODEL 9
REMARK VINA RESULT:    -3.560      5.016      6.381
REMARK INTER + INTRA:          -4.854
REMARK INTER:                  -4.634
REMARK INTRA:                  -0.220
REMARK UNBOUND:                -0.253
REMARK SMILES CCCCCCC(=O)[O-]
REMARK SMILES IDX 5 1 6 2 7 3 8 4 9 5 4 6 3 7 2 8 1 9
REMARK H PARENT
REMARK Flexibility Score: inf
ROOT
ATOM      1  C   UNL     1     257.835 261.275 247.827  1.00  0.00     0.006 C 
ENDROOT
BRANCH   1   2
ATOM      2  C   UNL     1     257.396 261.617 246.400  1.00  0.00     0.053 C 
BRANCH   2   3
ATOM      3  C   UNL     1     258.461 261.243 245.419  1.00  0.00     0.041 C 
ATOM      4  O   UNL     1     258.324 261.519 244.198  1.00  0.00    -0.550 OA
ATOM      5  O   UNL     1     259.584 260.545 245.845  1.00  0.00    -0.550 OA
ENDBRANCH   2   3
ENDBRANCH   1   2
BRANCH   1   6
ATOM      6  C   UNL     1     256.627 260.903 248.699  1.00  0.00     0.000 C 
BRANCH   6   7
ATOM      7  C   UNL     1     255.453 260.346 247.878  1.00  0.00    -0.000 C 
BRANCH   7   8
ATOM      8  C   UNL     1     254.097 260.909 248.326  1.00  0.00    -0.003 C 
ATOM      9  C   UNL     1     253.179 261.148 247.130  1.00  0.00     0.004 C 
ENDBRANCH   7   8
ENDBRANCH   6   7
ENDBRANCH   1   6
TORSDOF 5
ENDMDL
