MODEL 1
REMARK VINA RESULT:    -6.089      0.000      0.000
REMARK INTER + INTRA:         -10.647
REMARK INTER:                  -9.293
REMARK INTRA:                  -1.354
REMARK UNBOUND:                -1.354
REMARK SMILES CC(=O)CCC=C(C)CCC=C(C)CCC=C(C)C
REMARK SMILES IDX 10 1 11 2 12 3 13 4 14 5 15 6 16 7 18 8 17 9 19 10 9 11 7 12
REMARK SMILES IDX 6 13 8 14 5 15 4 16 2 17 3 18 1 19
REMARK H PARENT
REMARK Flexibility Score: inf
ROOT
ATOM      1  C   UNL     1     -15.873  40.008  14.903  1.00  0.00     0.032 C 
ENDROOT
BRANCH   1   2
ATOM      2  C   UNL     1     -16.874  38.954  15.312  1.00  0.00    -0.028 C 
ATOM      3  C   UNL     1     -17.569  38.963  16.472  1.00  0.00    -0.077 C 
ATOM      4  C   UNL     1     -17.456  40.097  17.464  1.00  0.00     0.039 C 
BRANCH   3   5
ATOM      5  C   UNL     1     -18.504  37.812  16.776  1.00  0.00     0.034 C 
BRANCH   5   6
ATOM      6  C   UNL     1     -18.355  36.699  15.733  1.00  0.00     0.032 C 
BRANCH   6   7
ATOM      7  C   UNL     1     -19.258  36.950  14.551  1.00  0.00    -0.028 C 
ATOM      8  C   UNL     1     -21.181  35.694  15.551  1.00  0.00     0.039 C 
ATOM      9  C   UNL     1     -20.522  36.483  14.444  1.00  0.00    -0.080 C 
ATOM     10  C   UNL     1     -21.293  36.779  13.183  1.00  0.00     0.039 C 
ENDBRANCH   6   7
ENDBRANCH   5   6
ENDBRANCH   3   5
ENDBRANCH   1   2
BRANCH   1  11
ATOM     11  C   UNL     1     -15.762  40.125  13.376  1.00  0.00     0.034 C 
BRANCH  11  12
ATOM     12  C   UNL     1     -15.498  38.783  12.723  1.00  0.00    -0.077 C 
ATOM     13  C   UNL     1     -16.540  38.044  12.287  1.00  0.00    -0.028 C 
ATOM     14  C   UNL     1     -14.074  38.302  12.577  1.00  0.00     0.039 C 
BRANCH  13  15
ATOM     15  C   UNL     1     -16.375  36.691  11.633  1.00  0.00     0.035 C 
BRANCH  15  16
ATOM     16  C   UNL     1     -17.712  36.125  11.135  1.00  0.00     0.079 C 
BRANCH  16  17
ATOM     17  C   UNL     1     -18.040  34.808  11.793  1.00  0.00     0.130 C 
ATOM     18  O   UNL     1     -18.965  34.136  11.364  1.00  0.00    -0.300 OA
ATOM     19  C   UNL     1     -17.246  34.299  12.959  1.00  0.00     0.087 C 
ENDBRANCH  16  17
ENDBRANCH  15  16
ENDBRANCH  13  15
ENDBRANCH  11  12
ENDBRANCH   1  11
TORSDOF 9
ENDMDL
MODEL 2
REMARK VINA RESULT:    -6.004      1.920      4.591
REMARK INTER + INTRA:         -10.517
REMARK INTER:                  -9.213
REMARK INTRA:                  -1.303
REMARK UNBOUND:                -1.354
REMARK SMILES CC(=O)CCC=C(C)CCC=C(C)CCC=C(C)C
REMARK SMILES IDX 10 1 11 2 12 3 13 4 14 5 15 6 16 7 18 8 17 9 19 10 9 11 7 12
REMARK SMILES IDX 6 13 8 14 5 15 4 16 2 17 3 18 1 19
REMARK H PARENT
REMARK Flexibility Score: inf
ROOT
ATOM      1  C   UNL     1     -19.988  37.383  14.787  1.00  0.00     0.032 C 
ENDROOT
BRANCH   1   2
ATOM      2  C   UNL     1     -18.719  38.186  14.629  1.00  0.00    -0.028 C 
ATOM      3  C   UNL     1     -17.858  38.468  15.632  1.00  0.00    -0.077 C 
ATOM      4  C   UNL     1     -18.056  37.933  17.031  1.00  0.00     0.039 C 
BRANCH   3   5
ATOM      5  C   UNL     1     -16.648  39.330  15.340  1.00  0.00     0.034 C 
BRANCH   5   6
ATOM      6  C   UNL     1     -16.532  39.616  13.839  1.00  0.00     0.032 C 
BRANCH   6   7
ATOM      7  C   UNL     1     -16.281  38.343  13.070  1.00  0.00    -0.028 C 
ATOM      8  C   UNL     1     -13.938  38.986  12.460  1.00  0.00     0.039 C 
ATOM      9  C   UNL     1     -15.129  38.056  12.424  1.00  0.00    -0.080 C 
ATOM     10  C   UNL     1     -15.035  36.759  11.662  1.00  0.00     0.039 C 
ENDBRANCH   6   7
ENDBRANCH   5   6
ENDBRANCH   3   5
ENDBRANCH   1   2
BRANCH   1  11
ATOM     11  C   UNL     1     -19.744  35.884  14.565  1.00  0.00     0.034 C 
BRANCH  11  12
ATOM     12  C   UNL     1     -18.995  35.616  13.275  1.00  0.00    -0.077 C 
ATOM     13  C   UNL     1     -19.554  35.975  12.100  1.00  0.00    -0.028 C 
ATOM     14  C   UNL     1     -17.641  34.951  13.332  1.00  0.00     0.039 C 
BRANCH  13  15
ATOM     15  C   UNL     1     -18.888  35.741  10.763  1.00  0.00     0.035 C 
BRANCH  15  16
ATOM     16  C   UNL     1     -18.666  37.049   9.993  1.00  0.00     0.079 C 
BRANCH  16  17
ATOM     17  C   UNL     1     -19.093  36.926   8.551  1.00  0.00     0.130 C 
ATOM     18  O   UNL     1     -19.717  37.836   8.028  1.00  0.00    -0.300 OA
ATOM     19  C   UNL     1     -18.757  35.710   7.739  1.00  0.00     0.087 C 
ENDBRANCH  16  17
ENDBRANCH  15  16
ENDBRANCH  13  15
ENDBRANCH  11  12
ENDBRANCH   1  11
TORSDOF 9
ENDMDL
MODEL 3
REMARK VINA RESULT:    -5.991      1.871      4.646
REMARK INTER + INTRA:         -10.497
REMARK INTER:                  -8.937
REMARK INTRA:                  -1.560
REMARK UNBOUND:                -1.354
REMARK SMILES CC(=O)CCC=C(C)CCC=C(C)CCC=C(C)C
REMARK SMILES IDX 10 1 11 2 12 3 13 4 14 5 15 6 16 7 18 8 17 9 19 10 9 11 7 12
REMARK SMILES IDX 6 13 8 14 5 15 4 16 2 17 3 18 1 19
REMARK H PARENT
REMARK Flexibility Score: inf
ROOT
ATOM      1  C   UNL     1     -14.993  37.369  12.861  1.00  0.00     0.032 C 
ENDROOT
BRANCH   1   2
ATOM      2  C   UNL     1     -15.755  36.375  12.016  1.00  0.00    -0.028 C 
ATOM      3  C   UNL     1     -16.483  35.347  12.508  1.00  0.00    -0.077 C 
ATOM      4  C   UNL     1     -16.664  35.133  13.992  1.00  0.00     0.039 C 
BRANCH   3   5
ATOM      5  C   UNL     1     -17.154  34.395  11.541  1.00  0.00     0.034 C 
BRANCH   5   6
ATOM      6  C   UNL     1     -18.631  34.756  11.356  1.00  0.00     0.032 C 
BRANCH   6   7
ATOM      7  C   UNL     1     -18.891  35.247   9.954  1.00  0.00    -0.028 C 
ATOM      8  C   UNL     1     -18.626  37.658  10.578  1.00  0.00     0.039 C 
ATOM      9  C   UNL     1     -18.917  36.549   9.594  1.00  0.00    -0.080 C 
ATOM     10  C   UNL     1     -19.231  36.892   8.160  1.00  0.00     0.039 C 
ENDBRANCH   6   7
ENDBRANCH   5   6
ENDBRANCH   3   5
ENDBRANCH   1   2
BRANCH   1  11
ATOM     11  C   UNL     1     -15.678  38.743  12.878  1.00  0.00     0.034 C 
BRANCH  11  12
ATOM     12  C   UNL     1     -16.617  38.893  14.058  1.00  0.00    -0.077 C 
ATOM     13  C   UNL     1     -17.785  38.216  14.064  1.00  0.00    -0.028 C 
ATOM     14  C   UNL     1     -16.226  39.799  15.201  1.00  0.00     0.039 C 
BRANCH  13  15
ATOM     15  C   UNL     1     -18.788  38.311  15.191  1.00  0.00     0.035 C 
BRANCH  15  16
ATOM     16  C   UNL     1     -19.155  36.931  15.752  1.00  0.00     0.079 C 
BRANCH  16  17
ATOM     17  C   UNL     1     -20.411  36.387  15.118  1.00  0.00     0.130 C 
ATOM     18  O   UNL     1     -21.160  35.680  15.775  1.00  0.00    -0.300 OA
ATOM     19  C   UNL     1     -20.768  36.705  13.696  1.00  0.00     0.087 C 
ENDBRANCH  16  17
ENDBRANCH  15  16
ENDBRANCH  13  15
ENDBRANCH  11  12
ENDBRANCH   1  11
TORSDOF 9
ENDMDL
MODEL 4
REMARK VINA RESULT:    -5.941      2.028      4.900
REMARK INTER + INTRA:         -10.421
REMARK INTER:                  -8.820
REMARK INTRA:                  -1.601
REMARK UNBOUND:                -1.354
REMARK SMILES CC(=O)CCC=C(C)CCC=C(C)CCC=C(C)C
REMARK SMILES IDX 10 1 11 2 12 3 13 4 14 5 15 6 16 7 18 8 17 9 19 10 9 11 7 12
REMARK SMILES IDX 6 13 8 14 5 15 4 16 2 17 3 18 1 19
REMARK H PARENT
REMARK Flexibility Score: inf
ROOT
ATOM      1  C   UNL     1     -18.866  34.477  13.056  1.00  0.00     0.032 C 
ENDROOT
BRANCH   1   2
ATOM      2  C   UNL     1     -18.574  35.732  13.843  1.00  0.00    -0.028 C 
ATOM      3  C   UNL     1     -19.501  36.652  14.194  1.00  0.00    -0.077 C 
ATOM      4  C   UNL     1     -20.967  36.471  13.879  1.00  0.00     0.039 C 
BRANCH   3   5
ATOM      5  C   UNL     1     -19.057  37.892  14.940  1.00  0.00     0.034 C 
BRANCH   5   6
ATOM      6  C   UNL     1     -18.212  37.519  16.163  1.00  0.00     0.032 C 
BRANCH   6   7
ATOM      7  C   UNL     1     -16.908  38.277  16.163  1.00  0.00    -0.028 C 
ATOM      8  C   UNL     1     -17.798  40.124  17.601  1.00  0.00     0.039 C 
ATOM      9  C   UNL     1     -16.714  39.461  16.784  1.00  0.00    -0.080 C 
ATOM     10  C   UNL     1     -15.365  40.123  16.664  1.00  0.00     0.039 C 
ENDBRANCH   6   7
ENDBRANCH   5   6
ENDBRANCH   3   5
ENDBRANCH   1   2
BRANCH   1  11
ATOM     11  C   UNL     1     -18.454  34.621  11.583  1.00  0.00     0.034 C 
BRANCH  11  12
ATOM     12  C   UNL     1     -17.576  35.835  11.357  1.00  0.00    -0.077 C 
ATOM     13  C   UNL     1     -16.298  35.816  11.792  1.00  0.00    -0.028 C 
ATOM     14  C   UNL     1     -18.150  37.040  10.652  1.00  0.00     0.039 C 
BRANCH  13  15
ATOM     15  C   UNL     1     -15.351  36.982  11.621  1.00  0.00     0.035 C 
BRANCH  15  16
ATOM     16  C   UNL     1     -15.011  37.650  12.960  1.00  0.00     0.079 C 
BRANCH  16  17
ATOM     17  C   UNL     1     -15.376  39.114  12.961  1.00  0.00     0.130 C 
ATOM     18  O   UNL     1     -14.490  39.955  12.971  1.00  0.00    -0.300 OA
ATOM     19  C   UNL     1     -16.808  39.561  12.939  1.00  0.00     0.087 C 
ENDBRANCH  16  17
ENDBRANCH  15  16
ENDBRANCH  13  15
ENDBRANCH  11  12
ENDBRANCH   1  11
TORSDOF 9
ENDMDL
MODEL 5
REMARK VINA RESULT:    -5.833      1.398      4.202
REMARK INTER + INTRA:         -10.256
REMARK INTER:                  -9.488
REMARK INTRA:                  -0.768
REMARK UNBOUND:                -1.354
REMARK SMILES CC(=O)CCC=C(C)CCC=C(C)CCC=C(C)C
REMARK SMILES IDX 10 1 11 2 12 3 13 4 14 5 15 6 16 7 18 8 17 9 19 10 9 11 7 12
REMARK SMILES IDX 6 13 8 14 5 15 4 16 2 17 3 18 1 19
REMARK H PARENT
REMARK Flexibility Score: inf
ROOT
ATOM      1  C   UNL     1     -18.416  37.228  16.135  1.00  0.00     0.032 C 
ENDROOT
BRANCH   1   2
ATOM      2  C   UNL     1     -19.172  37.297  14.830  1.00  0.00    -0.028 C 
ATOM      3  C   UNL     1     -20.335  36.653  14.580  1.00  0.00    -0.077 C 
ATOM      4  C   UNL     1     -21.041  35.837  15.638  1.00  0.00     0.039 C 
BRANCH   3   5
ATOM      5  C   UNL     1     -20.958  36.771  13.206  1.00  0.00     0.034 C 
BRANCH   5   6
ATOM      6  C   UNL     1     -19.979  36.306  12.122  1.00  0.00     0.032 C 
BRANCH   6   7
ATOM      7  C   UNL     1     -19.112  35.182  12.632  1.00  0.00    -0.028 C 
ATOM      8  C   UNL     1     -18.032  34.793  10.406  1.00  0.00     0.039 C 
ATOM      9  C   UNL     1     -18.250  34.476  11.867  1.00  0.00    -0.080 C 
ATOM     10  C   UNL     1     -17.477  33.351  12.506  1.00  0.00     0.039 C 
ENDBRANCH   6   7
ENDBRANCH   5   6
ENDBRANCH   3   5
ENDBRANCH   1   2
BRANCH   1  11
ATOM     11  C   UNL     1     -18.140  38.625  16.708  1.00  0.00     0.034 C 
BRANCH  11  12
ATOM     12  C   UNL     1     -17.016  39.327  15.972  1.00  0.00    -0.077 C 
ATOM     13  C   UNL     1     -17.067  39.424  14.625  1.00  0.00    -0.028 C 
ATOM     14  C   UNL     1     -15.862  39.898  16.759  1.00  0.00     0.039 C 
BRANCH  13  15
ATOM     15  C   UNL     1     -15.990  40.096  13.806  1.00  0.00     0.035 C 
BRANCH  15  16
ATOM     16  C   UNL     1     -15.205  39.091  12.952  1.00  0.00     0.079 C 
BRANCH  16  17
ATOM     17  C   UNL     1     -16.034  37.875  12.619  1.00  0.00     0.130 C 
ATOM     18  O   UNL     1     -16.897  37.952  11.758  1.00  0.00    -0.300 OA
ATOM     19  C   UNL     1     -15.812  36.566  13.317  1.00  0.00     0.087 C 
ENDBRANCH  16  17
ENDBRANCH  15  16
ENDBRANCH  13  15
ENDBRANCH  11  12
ENDBRANCH   1  11
TORSDOF 9
ENDMDL
MODEL 6
REMARK VINA RESULT:    -5.789      2.021      4.930
REMARK INTER + INTRA:         -10.189
REMARK INTER:                  -8.474
REMARK INTRA:                  -1.714
REMARK UNBOUND:                -1.354
REMARK SMILES CC(=O)CCC=C(C)CCC=C(C)CCC=C(C)C
REMARK SMILES IDX 10 1 11 2 12 3 13 4 14 5 15 6 16 7 18 8 17 9 19 10 9 11 7 12
REMARK SMILES IDX 6 13 8 14 5 15 4 16 2 17 3 18 1 19
REMARK H PARENT
REMARK Flexibility Score: inf
ROOT
ATOM      1  C   UNL     1     -16.586  35.277  13.872  1.00  0.00     0.032 C 
ENDROOT
BRANCH   1   2
ATOM      2  C   UNL     1     -16.219  36.741  13.893  1.00  0.00    -0.028 C 
ATOM      3  C   UNL     1     -15.677  37.413  12.851  1.00  0.00    -0.077 C 
ATOM      4  C   UNL     1     -15.446  36.758  11.510  1.00  0.00     0.039 C 
BRANCH   3   5
ATOM      5  C   UNL     1     -15.311  38.871  13.030  1.00  0.00     0.034 C 
BRANCH   5   6
ATOM      6  C   UNL     1     -16.464  39.648  13.674  1.00  0.00     0.032 C 
BRANCH   6   7
ATOM      7  C   UNL     1     -16.124  40.031  15.093  1.00  0.00    -0.028 C 
ATOM      8  C   UNL     1     -17.999  38.689  16.072  1.00  0.00     0.039 C 
ATOM      9  C   UNL     1     -16.820  39.628  16.179  1.00  0.00    -0.080 C 
ATOM     10  C   UNL     1     -16.387  40.125  17.534  1.00  0.00     0.039 C 
ENDBRANCH   6   7
ENDBRANCH   5   6
ENDBRANCH   3   5
ENDBRANCH   1   2
BRANCH   1  11
ATOM     11  C   UNL     1     -18.065  35.056  14.219  1.00  0.00     0.034 C 
BRANCH  11  12
ATOM     12  C   UNL     1     -18.986  35.604  13.148  1.00  0.00    -0.077 C 
ATOM     13  C   UNL     1     -18.729  35.330  11.851  1.00  0.00    -0.028 C 
ATOM     14  C   UNL     1     -20.170  36.448  13.555  1.00  0.00     0.039 C 
BRANCH  13  15
ATOM     15  C   UNL     1     -19.585  35.842  10.715  1.00  0.00     0.035 C 
BRANCH  15  16
ATOM     16  C   UNL     1     -18.915  37.002   9.966  1.00  0.00     0.079 C 
BRANCH  16  17
ATOM     17  C   UNL     1     -19.170  36.929   8.481  1.00  0.00     0.130 C 
ATOM     18  O   UNL     1     -19.629  37.900   7.901  1.00  0.00    -0.300 OA
ATOM     19  C   UNL     1     -18.861  35.688   7.697  1.00  0.00     0.087 C 
ENDBRANCH  16  17
ENDBRANCH  15  16
ENDBRANCH  13  15
ENDBRANCH  11  12
ENDBRANCH   1  11
TORSDOF 9
ENDMDL
MODEL 7
REMARK VINA RESULT:    -5.739     15.942     19.386
REMARK INTER + INTRA:         -10.113
REMARK INTER:                  -8.514
REMARK INTRA:                  -1.599
REMARK UNBOUND:                -1.354
REMARK SMILES CC(=O)CCC=C(C)CCC=C(C)CCC=C(C)C
REMARK SMILES IDX 10 1 11 2 12 3 13 4 14 5 15 6 16 7 18 8 17 9 19 10 9 11 7 12
REMARK SMILES IDX 6 13 8 14 5 15 4 16 2 17 3 18 1 19
REMARK H PARENT
REMARK Flexibility Score: inf
ROOT
ATOM      1  C   UNL     1     -31.099  19.929  14.220  1.00  0.00     0.032 C 
ENDROOT
BRANCH   1   2
ATOM      2  C   UNL     1     -29.878  20.508  14.893  1.00  0.00    -0.028 C 
ATOM      3  C   UNL     1     -29.669  20.520  16.230  1.00  0.00    -0.077 C 
ATOM      4  C   UNL     1     -30.635  19.875  17.196  1.00  0.00     0.039 C 
BRANCH   3   5
ATOM      5  C   UNL     1     -28.420  21.183  16.771  1.00  0.00     0.034 C 
BRANCH   5   6
ATOM      6  C   UNL     1     -28.114  22.475  16.007  1.00  0.00     0.032 C 
BRANCH   6   7
ATOM      7  C   UNL     1     -27.189  22.204  14.847  1.00  0.00    -0.028 C 
ATOM      8  C   UNL     1     -25.481  23.868  15.614  1.00  0.00     0.039 C 
ATOM      9  C   UNL     1     -26.014  22.840  14.644  1.00  0.00    -0.080 C 
ATOM     10  C   UNL     1     -25.212  22.493  13.416  1.00  0.00     0.039 C 
ENDBRANCH   6   7
ENDBRANCH   5   6
ENDBRANCH   3   5
ENDBRANCH   1   2
BRANCH   1  11
ATOM     11  C   UNL     1     -30.997  20.010  12.690  1.00  0.00     0.034 C 
BRANCH  11  12
ATOM     12  C   UNL     1     -30.779  21.431  12.212  1.00  0.00    -0.077 C 
ATOM     13  C   UNL     1     -29.636  21.742  11.564  1.00  0.00    -0.028 C 
ATOM     14  C   UNL     1     -31.844  22.469  12.473  1.00  0.00     0.039 C 
BRANCH  13  15
ATOM     15  C   UNL     1     -29.326  23.133  11.059  1.00  0.00     0.035 C 
BRANCH  15  16
ATOM     16  C   UNL     1     -28.079  23.725  11.730  1.00  0.00     0.079 C 
BRANCH  16  17
ATOM     17  C   UNL     1     -28.414  24.945  12.552  1.00  0.00     0.130 C 
ATOM     18  O   UNL     1     -27.782  25.976  12.382  1.00  0.00    -0.300 OA
ATOM     19  C   UNL     1     -29.516  24.922  13.569  1.00  0.00     0.087 C 
ENDBRANCH  16  17
ENDBRANCH  15  16
ENDBRANCH  13  15
ENDBRANCH  11  12
ENDBRANCH   1  11
TORSDOF 9
ENDMDL
MODEL 8
REMARK VINA RESULT:    -5.695     16.631     18.998
REMARK INTER + INTRA:         -10.045
REMARK INTER:                  -8.210
REMARK INTRA:                  -1.836
REMARK UNBOUND:                -1.354
REMARK SMILES CC(=O)CCC=C(C)CCC=C(C)CCC=C(C)C
REMARK SMILES IDX 10 1 11 2 12 3 13 4 14 5 15 6 16 7 18 8 17 9 19 10 9 11 7 12
REMARK SMILES IDX 6 13 8 14 5 15 4 16 2 17 3 18 1 19
REMARK H PARENT
REMARK Flexibility Score: inf
ROOT
ATOM      1  C   UNL     1     -31.611  22.096  12.806  1.00  0.00     0.032 C 
ENDROOT
BRANCH   1   2
ATOM      2  C   UNL     1     -30.776  23.105  12.055  1.00  0.00    -0.028 C 
ATOM      3  C   UNL     1     -30.125  24.143  12.627  1.00  0.00    -0.077 C 
ATOM      4  C   UNL     1     -30.116  24.354  14.123  1.00  0.00     0.039 C 
BRANCH   3   5
ATOM      5  C   UNL     1     -29.366  25.109  11.743  1.00  0.00     0.034 C 
BRANCH   5   6
ATOM      6  C   UNL     1     -27.932  24.623  11.508  1.00  0.00     0.032 C 
BRANCH   6   7
ATOM      7  C   UNL     1     -27.744  24.184  10.078  1.00  0.00    -0.028 C 
ATOM      8  C   UNL     1     -28.057  21.758  10.613  1.00  0.00     0.039 C 
ATOM      9  C   UNL     1     -27.772  22.898   9.664  1.00  0.00    -0.080 C 
ATOM     10  C   UNL     1     -27.527  22.607   8.205  1.00  0.00     0.039 C 
ENDBRANCH   6   7
ENDBRANCH   5   6
ENDBRANCH   3   5
ENDBRANCH   1   2
BRANCH   1  11
ATOM     11  C   UNL     1     -30.844  20.787  13.044  1.00  0.00     0.034 C 
BRANCH  11  12
ATOM     12  C   UNL     1     -29.955  20.866  14.269  1.00  0.00    -0.077 C 
ATOM     13  C   UNL     1     -28.651  21.186  14.120  1.00  0.00    -0.028 C 
ATOM     14  C   UNL     1     -30.546  20.582  15.629  1.00  0.00     0.039 C 
BRANCH  13  15
ATOM     15  C   UNL     1     -27.688  21.279  15.280  1.00  0.00     0.035 C 
BRANCH  15  16
ATOM     16  C   UNL     1     -27.396  22.733  15.672  1.00  0.00     0.079 C 
BRANCH  16  17
ATOM     17  C   UNL     1     -26.081  23.210  15.108  1.00  0.00     0.130 C 
ATOM     18  O   UNL     1     -25.353  23.913  15.791  1.00  0.00    -0.300 OA
ATOM     19  C   UNL     1     -25.641  22.829  13.725  1.00  0.00     0.087 C 
ENDBRANCH  16  17
ENDBRANCH  15  16
ENDBRANCH  13  15
ENDBRANCH  11  12
ENDBRANCH   1  11
TORSDOF 9
ENDMDL
