MODEL 1
REMARK VINA RESULT:    -2.766      0.000      0.000
REMARK INTER + INTRA:         -10.902
REMARK INTER:                  -7.212
REMARK INTRA:                  -3.690
REMARK UNBOUND:                -3.690
REMARK SMILES CCCCCCCCCCCCCCCCCCCCCCCCCCCCCO
REMARK SMILES IDX 16 1 15 2 14 3 13 4 12 5 11 6 10 7 9 8 8 9 7 10 6 11 5 12
REMARK SMILES IDX 4 13 3 14 2 15 1 16 17 17 18 18 19 19 20 20 21 21 22 22
REMARK SMILES IDX 23 23 24 24 25 25 26 26 27 27 28 28 29 29 30 30
REMARK H PARENT 30 31
REMARK Flexibility Score: inf
ROOT
ATOM      1  C   UNL     1     112.613 127.654 118.673  1.00  0.00     0.000 C 
ENDROOT
BRANCH   1   2
ATOM      2  C   UNL     1     113.135 129.032 118.233  1.00  0.00     0.000 C 
BRANCH   2   3
ATOM      3  C   UNL     1     112.470 129.508 116.929  1.00  0.00     0.000 C 
BRANCH   3   4
ATOM      4  C   UNL     1     112.435 128.406 115.850  1.00  0.00     0.000 C 
BRANCH   4   5
ATOM      5  C   UNL     1     113.701 128.398 114.975  1.00  0.00     0.000 C 
BRANCH   5   6
ATOM      6  C   UNL     1     114.343 129.788 114.876  1.00  0.00     0.000 C 
BRANCH   6   7
ATOM      7  C   UNL     1     115.758 129.811 115.482  1.00  0.00     0.000 C 
BRANCH   7   8
ATOM      8  C   UNL     1     116.221 128.432 115.993  1.00  0.00    -0.000 C 
BRANCH   8   9
ATOM      9  C   UNL     1     117.749 128.226 115.875  1.00  0.00    -0.000 C 
BRANCH   9  10
ATOM     10  C   UNL     1     118.152 126.740 115.841  1.00  0.00    -0.000 C 
BRANCH  10  11
ATOM     11  C   UNL     1     119.657 126.537 116.084  1.00  0.00    -0.000 C 
BRANCH  11  12
ATOM     12  C   UNL     1     119.948 125.468 117.152  1.00  0.00    -0.000 C 
BRANCH  12  13
ATOM     13  C   UNL     1     119.385 125.853 118.530  1.00  0.00    -0.000 C 
BRANCH  13  14
ATOM     14  C   UNL     1     118.283 124.882 119.001  1.00  0.00    -0.000 C 
BRANCH  14  15
ATOM     15  C   UNL     1     117.094 125.605 119.655  1.00  0.00    -0.003 C 
ATOM     16  C   UNL     1     117.114 127.113 119.412  1.00  0.00     0.004 C 
ENDBRANCH  14  15
ENDBRANCH  13  14
ENDBRANCH  12  13
ENDBRANCH  11  12
ENDBRANCH  10  11
ENDBRANCH   9  10
ENDBRANCH   8   9
ENDBRANCH   7   8
ENDBRANCH   6   7
ENDBRANCH   5   6
ENDBRANCH   4   5
ENDBRANCH   3   4
ENDBRANCH   2   3
ENDBRANCH   1   2
BRANCH   1  17
ATOM     17  C   UNL     1     111.473 127.788 119.690  1.00  0.00     0.000 C 
BRANCH  17  18
ATOM     18  C   UNL     1     110.308 126.845 119.349  1.00  0.00     0.000 C 
BRANCH  18  19
ATOM     19  C   UNL     1     110.652 125.826 118.248  1.00  0.00     0.000 C 
BRANCH  19  20
ATOM     20  C   UNL     1     110.887 124.392 118.767  1.00  0.00     0.000 C 
BRANCH  20  21
ATOM     21  C   UNL     1     110.738 124.288 120.295  1.00  0.00     0.000 C 
BRANCH  21  22
ATOM     22  C   UNL     1     112.081 124.029 121.004  1.00  0.00     0.000 C 
BRANCH  22  23
ATOM     23  C   UNL     1     113.308 124.114 120.076  1.00  0.00     0.000 C 
BRANCH  23  24
ATOM     24  C   UNL     1     114.053 122.771 119.961  1.00  0.00     0.000 C 
BRANCH  24  25
ATOM     25  C   UNL     1     113.149 121.635 119.460  1.00  0.00     0.000 C 
BRANCH  25  26
ATOM     26  C   UNL     1     113.243 121.427 117.941  1.00  0.00     0.000 C 
BRANCH  26  27
ATOM     27  C   UNL     1     114.411 120.496 117.588  1.00  0.00     0.002 C 
BRANCH  27  28
ATOM     28  C   UNL     1     114.156 119.685 116.306  1.00  0.00     0.028 C 
BRANCH  28  29
ATOM     29  C   UNL     1     112.686 119.311 116.097  1.00  0.00     0.156 C 
BRANCH  29  30
ATOM     30  O   UNL     1     112.168 119.972 114.975  1.00  0.00    -0.396 OA
ATOM     31  H   UNL     1     111.436 119.397 114.633  1.00  0.00     0.210 HD
ENDBRANCH  29  30
ENDBRANCH  28  29
ENDBRANCH  27  28
ENDBRANCH  26  27
ENDBRANCH  25  26
ENDBRANCH  24  25
ENDBRANCH  23  24
ENDBRANCH  22  23
ENDBRANCH  21  22
ENDBRANCH  20  21
ENDBRANCH  19  20
ENDBRANCH  18  19
ENDBRANCH  17  18
ENDBRANCH   1  17
TORSDOF 28
ENDMDL
MODEL 2
REMARK VINA RESULT:    -2.739      8.400     12.989
REMARK INTER + INTRA:         -10.833
REMARK INTER:                  -6.874
REMARK INTRA:                  -3.958
REMARK UNBOUND:                -3.690
REMARK SMILES CCCCCCCCCCCCCCCCCCCCCCCCCCCCCO
REMARK SMILES IDX 16 1 15 2 14 3 13 4 12 5 11 6 10 7 9 8 8 9 7 10 6 11 5 12
REMARK SMILES IDX 4 13 3 14 2 15 1 16 17 17 18 18 19 19 20 20 21 21 22 22
REMARK SMILES IDX 23 23 24 24 25 25 26 26 27 27 28 28 29 29 30 30
REMARK H PARENT 30 31
REMARK Flexibility Score: inf
ROOT
ATOM      1  C   UNL     1     128.065 126.808 118.248  1.00  0.00     0.000 C 
ENDROOT
BRANCH   1   2
ATOM      2  C   UNL     1     126.947 127.639 117.598  1.00  0.00     0.000 C 
BRANCH   2   3
ATOM      3  C   UNL     1     126.726 128.977 118.328  1.00  0.00     0.000 C 
BRANCH   3   4
ATOM      4  C   UNL     1     125.490 128.945 119.251  1.00  0.00     0.000 C 
BRANCH   4   5
ATOM      5  C   UNL     1     124.293 128.221 118.608  1.00  0.00     0.000 C 
BRANCH   5   6
ATOM      6  C   UNL     1     123.821 127.028 119.450  1.00  0.00     0.000 C 
BRANCH   6   7
ATOM      7  C   UNL     1     123.962 127.299 120.959  1.00  0.00     0.000 C 
BRANCH   7   8
ATOM      8  C   UNL     1     124.774 126.214 121.696  1.00  0.00    -0.000 C 
BRANCH   8   9
ATOM      9  C   UNL     1     125.904 125.613 120.829  1.00  0.00    -0.000 C 
BRANCH   9  10
ATOM     10  C   UNL     1     126.368 124.230 121.324  1.00  0.00    -0.000 C 
BRANCH  10  11
ATOM     11  C   UNL     1     125.626 123.079 120.623  1.00  0.00    -0.000 C 
BRANCH  11  12
ATOM     12  C   UNL     1     124.696 122.305 121.573  1.00  0.00    -0.000 C 
BRANCH  12  13
ATOM     13  C   UNL     1     123.215 122.648 121.347  1.00  0.00    -0.000 C 
BRANCH  13  14
ATOM     14  C   UNL     1     122.983 123.384 120.011  1.00  0.00    -0.000 C 
BRANCH  14  15
ATOM     15  C   UNL     1     121.494 123.517 119.656  1.00  0.00    -0.003 C 
ATOM     16  C   UNL     1     121.210 124.705 118.739  1.00  0.00     0.004 C 
ENDBRANCH  14  15
ENDBRANCH  13  14
ENDBRANCH  12  13
ENDBRANCH  11  12
ENDBRANCH  10  11
ENDBRANCH   9  10
ENDBRANCH   8   9
ENDBRANCH   7   8
ENDBRANCH   6   7
ENDBRANCH   5   6
ENDBRANCH   4   5
ENDBRANCH   3   4
ENDBRANCH   2   3
ENDBRANCH   1   2
BRANCH   1  17
ATOM     17  C   UNL     1     129.342 126.831 117.401  1.00  0.00     0.000 C 
BRANCH  17  18
ATOM     18  C   UNL     1     129.037 127.206 115.942  1.00  0.00     0.000 C 
BRANCH  18  19
ATOM     19  C   UNL     1     129.281 126.050 114.954  1.00  0.00     0.000 C 
BRANCH  19  20
ATOM     20  C   UNL     1     128.322 124.854 115.133  1.00  0.00     0.000 C 
BRANCH  20  21
ATOM     21  C   UNL     1     129.028 123.618 115.720  1.00  0.00     0.000 C 
BRANCH  21  22
ATOM     22  C   UNL     1     128.365 123.119 117.018  1.00  0.00     0.000 C 
BRANCH  22  23
ATOM     23  C   UNL     1     127.683 121.743 116.886  1.00  0.00     0.000 C 
BRANCH  23  24
ATOM     24  C   UNL     1     127.823 121.151 115.471  1.00  0.00     0.000 C 
BRANCH  24  25
ATOM     25  C   UNL     1     126.475 120.717 114.875  1.00  0.00     0.000 C 
BRANCH  25  26
ATOM     26  C   UNL     1     126.092 119.280 115.257  1.00  0.00     0.000 C 
BRANCH  26  27
ATOM     27  C   UNL     1     124.793 119.260 116.076  1.00  0.00     0.002 C 
BRANCH  27  28
ATOM     28  C   UNL     1     124.963 118.564 117.438  1.00  0.00     0.028 C 
BRANCH  28  29
ATOM     29  C   UNL     1     124.494 119.411 118.624  1.00  0.00     0.156 C 
BRANCH  29  30
ATOM     30  O   UNL     1     124.620 120.775 118.329  1.00  0.00    -0.396 OA
ATOM     31  H   UNL     1     123.725 121.074 118.027  1.00  0.00     0.210 HD
ENDBRANCH  29  30
ENDBRANCH  28  29
ENDBRANCH  27  28
ENDBRANCH  26  27
ENDBRANCH  25  26
ENDBRANCH  24  25
ENDBRANCH  23  24
ENDBRANCH  22  23
ENDBRANCH  21  22
ENDBRANCH  20  21
ENDBRANCH  19  20
ENDBRANCH  18  19
ENDBRANCH  17  18
ENDBRANCH   1  17
TORSDOF 28
ENDMDL
MODEL 3
REMARK VINA RESULT:    -2.691     13.075     17.485
REMARK INTER + INTRA:         -10.707
REMARK INTER:                  -5.325
REMARK INTRA:                  -5.382
REMARK UNBOUND:                -3.690
REMARK SMILES CCCCCCCCCCCCCCCCCCCCCCCCCCCCCO
REMARK SMILES IDX 16 1 15 2 14 3 13 4 12 5 11 6 10 7 9 8 8 9 7 10 6 11 5 12
REMARK SMILES IDX 4 13 3 14 2 15 1 16 17 17 18 18 19 19 20 20 21 21 22 22
REMARK SMILES IDX 23 23 24 24 25 25 26 26 27 27 28 28 29 29 30 30
REMARK H PARENT 30 31
REMARK Flexibility Score: inf
ROOT
ATOM      1  C   UNL     1     124.899 116.354 119.946  1.00  0.00     0.000 C 
ENDROOT
BRANCH   1   2
ATOM      2  C   UNL     1     124.636 115.059 120.732  1.00  0.00     0.000 C 
BRANCH   2   3
ATOM      3  C   UNL     1     123.321 114.384 120.302  1.00  0.00     0.000 C 
BRANCH   3   4
ATOM      4  C   UNL     1     122.885 113.273 121.281  1.00  0.00     0.000 C 
BRANCH   4   5
ATOM      5  C   UNL     1     122.083 112.157 120.587  1.00  0.00     0.000 C 
BRANCH   5   6
ATOM      6  C   UNL     1     122.252 112.188 119.062  1.00  0.00     0.000 C 
BRANCH   6   7
ATOM      7  C   UNL     1     121.975 110.813 118.426  1.00  0.00     0.000 C 
BRANCH   7   8
ATOM      8  C   UNL     1     122.423 110.726 116.953  1.00  0.00    -0.000 C 
BRANCH   8   9
ATOM      9  C   UNL     1     121.275 111.011 115.956  1.00  0.00    -0.000 C 
BRANCH   9  10
ATOM     10  C   UNL     1     121.356 112.420 115.338  1.00  0.00    -0.000 C 
BRANCH  10  11
ATOM     11  C   UNL     1     120.221 113.338 115.825  1.00  0.00    -0.000 C 
BRANCH  11  12
ATOM     12  C   UNL     1     119.153 112.584 116.636  1.00  0.00    -0.000 C 
BRANCH  12  13
ATOM     13  C   UNL     1     118.361 113.517 117.567  1.00  0.00    -0.000 C 
BRANCH  13  14
ATOM     14  C   UNL     1     118.936 113.539 118.998  1.00  0.00    -0.000 C 
BRANCH  14  15
ATOM     15  C   UNL     1     119.686 114.842 119.317  1.00  0.00    -0.003 C 
ATOM     16  C   UNL     1     119.659 115.190 120.804  1.00  0.00     0.004 C 
ENDBRANCH  14  15
ENDBRANCH  13  14
ENDBRANCH  12  13
ENDBRANCH  11  12
ENDBRANCH  10  11
ENDBRANCH   9  10
ENDBRANCH   8   9
ENDBRANCH   7   8
ENDBRANCH   6   7
ENDBRANCH   5   6
ENDBRANCH   4   5
ENDBRANCH   3   4
ENDBRANCH   2   3
ENDBRANCH   1   2
BRANCH   1  17
ATOM     17  C   UNL     1     126.138 116.223 119.052  1.00  0.00     0.000 C 
BRANCH  17  18
ATOM     18  C   UNL     1     127.184 115.290 119.682  1.00  0.00     0.000 C 
BRANCH  18  19
ATOM     19  C   UNL     1     128.128 114.650 118.647  1.00  0.00     0.000 C 
BRANCH  19  20
ATOM     20  C   UNL     1     129.026 113.533 119.219  1.00  0.00     0.000 C 
BRANCH  20  21
ATOM     21  C   UNL     1     128.887 112.212 118.439  1.00  0.00     0.000 C 
BRANCH  21  22
ATOM     22  C   UNL     1     127.601 112.155 117.594  1.00  0.00     0.000 C 
BRANCH  22  23
ATOM     23  C   UNL     1     126.531 111.192 118.143  1.00  0.00     0.000 C 
BRANCH  23  24
ATOM     24  C   UNL     1     125.769 111.781 119.345  1.00  0.00     0.000 C 
BRANCH  24  25
ATOM     25  C   UNL     1     125.620 110.778 120.499  1.00  0.00     0.000 C 
BRANCH  25  26
ATOM     26  C   UNL     1     126.739 110.904 121.544  1.00  0.00     0.000 C 
BRANCH  26  27
ATOM     27  C   UNL     1     126.927 112.368 121.968  1.00  0.00     0.002 C 
BRANCH  27  28
ATOM     28  C   UNL     1     126.079 112.742 123.196  1.00  0.00     0.028 C 
BRANCH  28  29
ATOM     29  C   UNL     1     126.321 111.839 124.409  1.00  0.00     0.156 C 
BRANCH  29  30
ATOM     30  O   UNL     1     127.645 111.963 124.853  1.00  0.00    -0.396 OA
ATOM     31  H   UNL     1     127.632 112.654 125.564  1.00  0.00     0.210 HD
ENDBRANCH  29  30
ENDBRANCH  28  29
ENDBRANCH  27  28
ENDBRANCH  26  27
ENDBRANCH  25  26
ENDBRANCH  24  25
ENDBRANCH  23  24
ENDBRANCH  22  23
ENDBRANCH  21  22
ENDBRANCH  20  21
ENDBRANCH  19  20
ENDBRANCH  18  19
ENDBRANCH  17  18
ENDBRANCH   1  17
TORSDOF 28
ENDMDL
MODEL 4
REMARK VINA RESULT:    -2.679      2.209      6.089
REMARK INTER + INTRA:         -10.676
REMARK INTER:                  -6.015
REMARK INTRA:                  -4.662
REMARK UNBOUND:                -3.690
REMARK SMILES CCCCCCCCCCCCCCCCCCCCCCCCCCCCCO
REMARK SMILES IDX 16 1 15 2 14 3 13 4 12 5 11 6 10 7 9 8 8 9 7 10 6 11 5 12
REMARK SMILES IDX 4 13 3 14 2 15 1 16 17 17 18 18 19 19 20 20 21 21 22 22
REMARK SMILES IDX 23 23 24 24 25 25 26 26 27 27 28 28 29 29 30 30
REMARK H PARENT 30 31
REMARK Flexibility Score: inf
ROOT
ATOM      1  C   UNL     1     116.568 128.253 117.135  1.00  0.00     0.000 C 
ENDROOT
BRANCH   1   2
ATOM      2  C   UNL     1     116.239 128.232 115.633  1.00  0.00     0.000 C 
BRANCH   2   3
ATOM      3  C   UNL     1     114.981 129.058 115.309  1.00  0.00     0.000 C 
BRANCH   3   4
ATOM      4  C   UNL     1     113.778 128.171 114.928  1.00  0.00     0.000 C 
BRANCH   4   5
ATOM      5  C   UNL     1     112.447 128.713 115.481  1.00  0.00     0.000 C 
BRANCH   5   6
ATOM      6  C   UNL     1     112.652 129.943 116.376  1.00  0.00     0.000 C 
BRANCH   6   7
ATOM      7  C   UNL     1     111.968 129.776 117.745  1.00  0.00     0.000 C 
BRANCH   7   8
ATOM      8  C   UNL     1     110.640 128.994 117.668  1.00  0.00    -0.000 C 
BRANCH   8   9
ATOM      9  C   UNL     1     110.568 127.828 118.681  1.00  0.00    -0.000 C 
BRANCH   9  10
ATOM     10  C   UNL     1     111.331 126.576 118.207  1.00  0.00    -0.000 C 
BRANCH  10  11
ATOM     11  C   UNL     1     110.472 125.303 118.288  1.00  0.00    -0.000 C 
BRANCH  11  12
ATOM     12  C   UNL     1     111.192 124.144 118.999  1.00  0.00    -0.000 C 
BRANCH  12  13
ATOM     13  C   UNL     1     112.196 124.641 120.053  1.00  0.00    -0.000 C 
BRANCH  13  14
ATOM     14  C   UNL     1     112.870 123.479 120.810  1.00  0.00    -0.000 C 
BRANCH  14  15
ATOM     15  C   UNL     1     112.956 122.194 119.971  1.00  0.00    -0.003 C 
ATOM     16  C   UNL     1     114.319 122.012 119.307  1.00  0.00     0.004 C 
ENDBRANCH  14  15
ENDBRANCH  13  14
ENDBRANCH  12  13
ENDBRANCH  11  12
ENDBRANCH  10  11
ENDBRANCH   9  10
ENDBRANCH   8   9
ENDBRANCH   7   8
ENDBRANCH   6   7
ENDBRANCH   5   6
ENDBRANCH   4   5
ENDBRANCH   3   4
ENDBRANCH   2   3
ENDBRANCH   1   2
BRANCH   1  17
ATOM     17  C   UNL     1     116.080 129.547 117.795  1.00  0.00     0.000 C 
BRANCH  17  18
ATOM     18  C   UNL     1     115.552 129.286 119.214  1.00  0.00     0.000 C 
BRANCH  18  19
ATOM     19  C   UNL     1     114.661 128.034 119.310  1.00  0.00     0.000 C 
BRANCH  19  20
ATOM     20  C   UNL     1     114.361 127.582 120.755  1.00  0.00     0.000 C 
BRANCH  20  21
ATOM     21  C   UNL     1     115.275 126.430 121.211  1.00  0.00     0.000 C 
BRANCH  21  22
ATOM     22  C   UNL     1     115.771 125.566 120.035  1.00  0.00     0.000 C 
BRANCH  22  23
ATOM     23  C   UNL     1     116.944 124.634 120.393  1.00  0.00     0.000 C 
BRANCH  23  24
ATOM     24  C   UNL     1     118.022 125.341 121.236  1.00  0.00     0.000 C 
BRANCH  24  25
ATOM     25  C   UNL     1     118.865 126.327 120.413  1.00  0.00     0.000 C 
BRANCH  25  26
ATOM     26  C   UNL     1     119.717 125.629 119.342  1.00  0.00     0.000 C 
BRANCH  26  27
ATOM     27  C   UNL     1     119.234 125.999 117.933  1.00  0.00     0.002 C 
BRANCH  27  28
ATOM     28  C   UNL     1     120.129 125.412 116.827  1.00  0.00     0.028 C 
BRANCH  28  29
ATOM     29  C   UNL     1     119.370 124.551 115.814  1.00  0.00     0.156 C 
BRANCH  29  30
ATOM     30  O   UNL     1     118.275 125.256 115.297  1.00  0.00    -0.396 OA
ATOM     31  H   UNL     1     118.167 126.055 115.874  1.00  0.00     0.210 HD
ENDBRANCH  29  30
ENDBRANCH  28  29
ENDBRANCH  27  28
ENDBRANCH  26  27
ENDBRANCH  25  26
ENDBRANCH  24  25
ENDBRANCH  23  24
ENDBRANCH  22  23
ENDBRANCH  21  22
ENDBRANCH  20  21
ENDBRANCH  19  20
ENDBRANCH  18  19
ENDBRANCH  17  18
ENDBRANCH   1  17
TORSDOF 28
ENDMDL
MODEL 5
REMARK VINA RESULT:    -2.674      2.450      4.777
REMARK INTER + INTRA:         -10.663
REMARK INTER:                  -6.055
REMARK INTRA:                  -4.608
REMARK UNBOUND:                -3.690
REMARK SMILES CCCCCCCCCCCCCCCCCCCCCCCCCCCCCO
REMARK SMILES IDX 16 1 15 2 14 3 13 4 12 5 11 6 10 7 9 8 8 9 7 10 6 11 5 12
REMARK SMILES IDX 4 13 3 14 2 15 1 16 17 17 18 18 19 19 20 20 21 21 22 22
REMARK SMILES IDX 23 23 24 24 25 25 26 26 27 27 28 28 29 29 30 30
REMARK H PARENT 30 31
REMARK Flexibility Score: inf
ROOT
ATOM      1  C   UNL     1     111.471 123.758 119.686  1.00  0.00     0.000 C 
ENDROOT
BRANCH   1   2
ATOM      2  C   UNL     1     110.470 124.924 119.709  1.00  0.00     0.000 C 
BRANCH   2   3
ATOM      3  C   UNL     1     110.228 125.501 118.302  1.00  0.00     0.000 C 
BRANCH   3   4
ATOM      4  C   UNL     1     110.642 126.983 118.195  1.00  0.00     0.000 C 
BRANCH   4   5
ATOM      5  C   UNL     1     111.743 127.213 117.145  1.00  0.00     0.000 C 
BRANCH   5   6
ATOM      6  C   UNL     1     112.354 128.618 117.247  1.00  0.00     0.000 C 
BRANCH   6   7
ATOM      7  C   UNL     1     113.849 128.621 116.881  1.00  0.00     0.000 C 
BRANCH   7   8
ATOM      8  C   UNL     1     114.553 129.952 117.216  1.00  0.00    -0.000 C 
BRANCH   8   9
ATOM      9  C   UNL     1     116.068 129.929 116.906  1.00  0.00    -0.000 C 
BRANCH   9  10
ATOM     10  C   UNL     1     116.436 128.929 115.794  1.00  0.00    -0.000 C 
BRANCH  10  11
ATOM     11  C   UNL     1     117.757 128.195 116.080  1.00  0.00    -0.000 C 
BRANCH  11  12
ATOM     12  C   UNL     1     117.725 126.722 115.640  1.00  0.00    -0.000 C 
BRANCH  12  13
ATOM     13  C   UNL     1     119.100 126.227 115.158  1.00  0.00    -0.000 C 
BRANCH  13  14
ATOM     14  C   UNL     1     120.229 126.595 116.141  1.00  0.00    -0.000 C 
BRANCH  14  15
ATOM     15  C   UNL     1     120.268 125.677 117.373  1.00  0.00    -0.003 C 
ATOM     16  C   UNL     1     120.287 124.194 117.005  1.00  0.00     0.004 C 
ENDBRANCH  14  15
ENDBRANCH  13  14
ENDBRANCH  12  13
ENDBRANCH  11  12
ENDBRANCH  10  11
ENDBRANCH   9  10
ENDBRANCH   8   9
ENDBRANCH   7   8
ENDBRANCH   6   7
ENDBRANCH   5   6
ENDBRANCH   4   5
ENDBRANCH   3   4
ENDBRANCH   2   3
ENDBRANCH   1   2
BRANCH   1  17
ATOM     17  C   UNL     1     112.917 124.262 119.749  1.00  0.00     0.000 C 
BRANCH  17  18
ATOM     18  C   UNL     1     113.055 125.444 120.721  1.00  0.00     0.000 C 
BRANCH  18  19
ATOM     19  C   UNL     1     113.838 126.629 120.128  1.00  0.00     0.000 C 
BRANCH  19  20
ATOM     20  C   UNL     1     113.448 128.001 120.718  1.00  0.00     0.000 C 
BRANCH  20  21
ATOM     21  C   UNL     1     114.656 128.945 120.858  1.00  0.00     0.000 C 
BRANCH  21  22
ATOM     22  C   UNL     1     115.975 128.187 121.105  1.00  0.00     0.000 C 
BRANCH  22  23
ATOM     23  C   UNL     1     117.020 128.366 119.987  1.00  0.00     0.000 C 
BRANCH  23  24
ATOM     24  C   UNL     1     117.764 127.057 119.662  1.00  0.00     0.000 C 
BRANCH  24  25
ATOM     25  C   UNL     1     118.877 126.742 120.673  1.00  0.00     0.000 C 
BRANCH  25  26
ATOM     26  C   UNL     1     119.049 125.236 120.918  1.00  0.00     0.000 C 
BRANCH  26  27
ATOM     27  C   UNL     1     118.053 124.428 120.073  1.00  0.00     0.002 C 
BRANCH  27  28
ATOM     28  C   UNL     1     117.991 122.947 120.487  1.00  0.00     0.028 C 
BRANCH  28  29
ATOM     29  C   UNL     1     116.568 122.387 120.556  1.00  0.00     0.156 C 
BRANCH  29  30
ATOM     30  O   UNL     1     115.908 122.579 119.334  1.00  0.00    -0.396 OA
ATOM     31  H   UNL     1     116.472 122.138 118.647  1.00  0.00     0.210 HD
ENDBRANCH  29  30
ENDBRANCH  28  29
ENDBRANCH  27  28
ENDBRANCH  26  27
ENDBRANCH  25  26
ENDBRANCH  24  25
ENDBRANCH  23  24
ENDBRANCH  22  23
ENDBRANCH  21  22
ENDBRANCH  20  21
ENDBRANCH  19  20
ENDBRANCH  18  19
ENDBRANCH  17  18
ENDBRANCH   1  17
TORSDOF 28
ENDMDL
MODEL 6
REMARK VINA RESULT:    -2.673      2.366      6.102
REMARK INTER + INTRA:         -10.661
REMARK INTER:                  -5.343
REMARK INTRA:                  -5.318
REMARK UNBOUND:                -3.690
REMARK SMILES CCCCCCCCCCCCCCCCCCCCCCCCCCCCCO
REMARK SMILES IDX 16 1 15 2 14 3 13 4 12 5 11 6 10 7 9 8 8 9 7 10 6 11 5 12
REMARK SMILES IDX 4 13 3 14 2 15 1 16 17 17 18 18 19 19 20 20 21 21 22 22
REMARK SMILES IDX 23 23 24 24 25 25 26 26 27 27 28 28 29 29 30 30
REMARK H PARENT 30 31
REMARK Flexibility Score: inf
ROOT
ATOM      1  C   UNL     1     113.386 125.438 120.285  1.00  0.00     0.000 C 
ENDROOT
BRANCH   1   2
ATOM      2  C   UNL     1     113.609 126.933 120.561  1.00  0.00     0.000 C 
BRANCH   2   3
ATOM      3  C   UNL     1     114.351 127.626 119.403  1.00  0.00     0.000 C 
BRANCH   3   4
ATOM      4  C   UNL     1     114.801 129.056 119.765  1.00  0.00     0.000 C 
BRANCH   4   5
ATOM      5  C   UNL     1     115.947 129.071 120.793  1.00  0.00     0.000 C 
BRANCH   5   6
ATOM      6  C   UNL     1     117.295 128.704 120.159  1.00  0.00     0.000 C 
BRANCH   6   7
ATOM      7  C   UNL     1     117.928 127.471 120.830  1.00  0.00     0.000 C 
BRANCH   7   8
ATOM      8  C   UNL     1     117.571 126.147 120.125  1.00  0.00    -0.000 C 
BRANCH   8   9
ATOM      9  C   UNL     1     118.353 124.936 120.685  1.00  0.00    -0.000 C 
BRANCH   9  10
ATOM     10  C   UNL     1     117.430 123.821 121.215  1.00  0.00    -0.000 C 
BRANCH  10  11
ATOM     11  C   UNL     1     116.399 124.347 122.228  1.00  0.00    -0.000 C 
BRANCH  11  12
ATOM     12  C   UNL     1     115.357 123.286 122.619  1.00  0.00    -0.000 C 
BRANCH  12  13
ATOM     13  C   UNL     1     115.275 122.142 121.595  1.00  0.00    -0.000 C 
BRANCH  13  14
ATOM     14  C   UNL     1     113.950 121.361 121.697  1.00  0.00    -0.000 C 
BRANCH  14  15
ATOM     15  C   UNL     1     113.210 121.268 120.352  1.00  0.00    -0.003 C 
ATOM     16  C   UNL     1     113.954 121.971 119.219  1.00  0.00     0.004 C 
ENDBRANCH  14  15
ENDBRANCH  13  14
ENDBRANCH  12  13
ENDBRANCH  11  12
ENDBRANCH  10  11
ENDBRANCH   9  10
ENDBRANCH   8   9
ENDBRANCH   7   8
ENDBRANCH   6   7
ENDBRANCH   5   6
ENDBRANCH   4   5
ENDBRANCH   3   4
ENDBRANCH   2   3
ENDBRANCH   1   2
BRANCH   1  17
ATOM     17  C   UNL     1     112.384 124.831 121.275  1.00  0.00     0.000 C 
BRANCH  17  18
ATOM     18  C   UNL     1     111.017 124.596 120.612  1.00  0.00     0.000 C 
BRANCH  18  19
ATOM     19  C   UNL     1     111.112 124.355 119.095  1.00  0.00     0.000 C 
BRANCH  19  20
ATOM     20  C   UNL     1     110.263 125.326 118.247  1.00  0.00     0.000 C 
BRANCH  20  21
ATOM     21  C   UNL     1     110.190 126.735 118.864  1.00  0.00     0.000 C 
BRANCH  21  22
ATOM     22  C   UNL     1     110.896 127.797 117.998  1.00  0.00     0.000 C 
BRANCH  22  23
ATOM     23  C   UNL     1     111.776 127.210 116.878  1.00  0.00     0.000 C 
BRANCH  23  24
ATOM     24  C   UNL     1     112.257 128.283 115.884  1.00  0.00     0.000 C 
BRANCH  24  25
ATOM     25  C   UNL     1     112.785 129.544 116.586  1.00  0.00     0.000 C 
BRANCH  25  26
ATOM     26  C   UNL     1     114.228 129.886 116.187  1.00  0.00     0.000 C 
BRANCH  26  27
ATOM     27  C   UNL     1     115.001 128.620 115.793  1.00  0.00     0.002 C 
BRANCH  27  28
ATOM     28  C   UNL     1     116.489 128.691 116.176  1.00  0.00     0.028 C 
BRANCH  28  29
ATOM     29  C   UNL     1     117.310 127.500 115.676  1.00  0.00     0.156 C 
BRANCH  29  30
ATOM     30  O   UNL     1     117.402 126.518 116.672  1.00  0.00    -0.396 OA
ATOM     31  H   UNL     1     116.541 126.544 117.163  1.00  0.00     0.210 HD
ENDBRANCH  29  30
ENDBRANCH  28  29
ENDBRANCH  27  28
ENDBRANCH  26  27
ENDBRANCH  25  26
ENDBRANCH  24  25
ENDBRANCH  23  24
ENDBRANCH  22  23
ENDBRANCH  21  22
ENDBRANCH  20  21
ENDBRANCH  19  20
ENDBRANCH  18  19
ENDBRANCH  17  18
ENDBRANCH   1  17
TORSDOF 28
ENDMDL
MODEL 7
REMARK VINA RESULT:    -2.666      2.352      3.609
REMARK INTER + INTRA:         -10.643
REMARK INTER:                  -6.045
REMARK INTRA:                  -4.599
REMARK UNBOUND:                -3.690
REMARK SMILES CCCCCCCCCCCCCCCCCCCCCCCCCCCCCO
REMARK SMILES IDX 16 1 15 2 14 3 13 4 12 5 11 6 10 7 9 8 8 9 7 10 6 11 5 12
REMARK SMILES IDX 4 13 3 14 2 15 1 16 17 17 18 18 19 19 20 20 21 21 22 22
REMARK SMILES IDX 23 23 24 24 25 25 26 26 27 27 28 28 29 29 30 30
REMARK H PARENT 30 31
REMARK Flexibility Score: inf
ROOT
ATOM      1  C   UNL     1     111.370 126.950 117.495  1.00  0.00     0.000 C 
ENDROOT
BRANCH   1   2
ATOM      2  C   UNL     1     111.199 128.475 117.396  1.00  0.00     0.000 C 
BRANCH   2   3
ATOM      3  C   UNL     1     111.785 129.034 116.086  1.00  0.00     0.000 C 
BRANCH   3   4
ATOM      4  C   UNL     1     112.530 127.959 115.270  1.00  0.00     0.000 C 
BRANCH   4   5
ATOM      5  C   UNL     1     114.002 128.328 115.013  1.00  0.00     0.000 C 
BRANCH   5   6
ATOM      6  C   UNL     1     114.327 129.757 115.471  1.00  0.00     0.000 C 
BRANCH   6   7
ATOM      7  C   UNL     1     115.427 129.778 116.548  1.00  0.00     0.000 C 
BRANCH   7   8
ATOM      8  C   UNL     1     114.870 129.718 117.985  1.00  0.00    -0.000 C 
BRANCH   8   9
ATOM      9  C   UNL     1     114.890 128.291 118.581  1.00  0.00    -0.000 C 
BRANCH   9  10
ATOM     10  C   UNL     1     113.987 128.148 119.820  1.00  0.00    -0.000 C 
BRANCH  10  11
ATOM     11  C   UNL     1     113.779 126.678 120.225  1.00  0.00    -0.000 C 
BRANCH  11  12
ATOM     12  C   UNL     1     114.726 126.233 121.353  1.00  0.00    -0.000 C 
BRANCH  12  13
ATOM     13  C   UNL     1     115.143 124.759 121.216  1.00  0.00    -0.000 C 
BRANCH  13  14
ATOM     14  C   UNL     1     116.168 124.546 120.084  1.00  0.00    -0.000 C 
BRANCH  14  15
ATOM     15  C   UNL     1     117.337 125.544 120.144  1.00  0.00    -0.003 C 
ATOM     16  C   UNL     1     117.759 126.042 118.763  1.00  0.00     0.004 C 
ENDBRANCH  14  15
ENDBRANCH  13  14
ENDBRANCH  12  13
ENDBRANCH  11  12
ENDBRANCH  10  11
ENDBRANCH   9  10
ENDBRANCH   8   9
ENDBRANCH   7   8
ENDBRANCH   6   7
ENDBRANCH   5   6
ENDBRANCH   4   5
ENDBRANCH   3   4
ENDBRANCH   2   3
ENDBRANCH   1   2
BRANCH   1  17
ATOM     17  C   UNL     1     110.352 126.336 118.463  1.00  0.00     0.000 C 
BRANCH  17  18
ATOM     18  C   UNL     1     110.577 124.825 118.625  1.00  0.00     0.000 C 
BRANCH  18  19
ATOM     19  C   UNL     1     110.777 124.394 120.089  1.00  0.00     0.000 C 
BRANCH  19  20
ATOM     20  C   UNL     1     111.913 123.370 120.296  1.00  0.00     0.000 C 
BRANCH  20  21
ATOM     21  C   UNL     1     112.648 123.035 118.985  1.00  0.00     0.000 C 
BRANCH  21  22
ATOM     22  C   UNL     1     113.422 121.706 119.064  1.00  0.00     0.000 C 
BRANCH  22  23
ATOM     23  C   UNL     1     113.724 121.239 120.501  1.00  0.00     0.000 C 
BRANCH  23  24
ATOM     24  C   UNL     1     115.218 120.933 120.719  1.00  0.00     0.000 C 
BRANCH  24  25
ATOM     25  C   UNL     1     116.024 120.965 119.411  1.00  0.00     0.000 C 
BRANCH  25  26
ATOM     26  C   UNL     1     116.713 119.626 119.105  1.00  0.00     0.000 C 
BRANCH  26  27
ATOM     27  C   UNL     1     115.749 118.453 119.333  1.00  0.00     0.002 C 
BRANCH  27  28
ATOM     28  C   UNL     1     116.325 117.390 120.285  1.00  0.00     0.028 C 
BRANCH  28  29
ATOM     29  C   UNL     1     115.706 116.002 120.104  1.00  0.00     0.156 C 
BRANCH  29  30
ATOM     30  O   UNL     1     114.393 116.111 119.626  1.00  0.00    -0.396 OA
ATOM     31  H   UNL     1     114.243 117.076 119.457  1.00  0.00     0.210 HD
ENDBRANCH  29  30
ENDBRANCH  28  29
ENDBRANCH  27  28
ENDBRANCH  26  27
ENDBRANCH  25  26
ENDBRANCH  24  25
ENDBRANCH  23  24
ENDBRANCH  22  23
ENDBRANCH  21  22
ENDBRANCH  20  21
ENDBRANCH  19  20
ENDBRANCH  18  19
ENDBRANCH  17  18
ENDBRANCH   1  17
TORSDOF 28
ENDMDL
MODEL 8
REMARK VINA RESULT:    -2.648     10.437     13.800
REMARK INTER + INTRA:         -10.595
REMARK INTER:                  -5.273
REMARK INTRA:                  -5.322
REMARK UNBOUND:                -3.690
REMARK SMILES CCCCCCCCCCCCCCCCCCCCCCCCCCCCCO
REMARK SMILES IDX 16 1 15 2 14 3 13 4 12 5 11 6 10 7 9 8 8 9 7 10 6 11 5 12
REMARK SMILES IDX 4 13 3 14 2 15 1 16 17 17 18 18 19 19 20 20 21 21 22 22
REMARK SMILES IDX 23 23 24 24 25 25 26 26 27 27 28 28 29 29 30 30
REMARK H PARENT 30 31
REMARK Flexibility Score: inf
ROOT
ATOM      1  C   UNL     1     127.558 130.125 120.133  1.00  0.00     0.000 C 
ENDROOT
BRANCH   1   2
ATOM      2  C   UNL     1     126.071 130.015 119.758  1.00  0.00     0.000 C 
BRANCH   2   3
ATOM      3  C   UNL     1     125.861 129.181 118.481  1.00  0.00     0.000 C 
BRANCH   3   4
ATOM      4  C   UNL     1     124.698 128.176 118.621  1.00  0.00     0.000 C 
BRANCH   4   5
ATOM      5  C   UNL     1     124.093 128.168 120.036  1.00  0.00     0.000 C 
BRANCH   5   6
ATOM      6  C   UNL     1     123.262 126.905 120.302  1.00  0.00     0.000 C 
BRANCH   6   7
ATOM      7  C   UNL     1     122.977 126.711 121.802  1.00  0.00     0.000 C 
BRANCH   7   8
ATOM      8  C   UNL     1     123.002 128.031 122.600  1.00  0.00    -0.000 C 
BRANCH   8   9
ATOM      9  C   UNL     1     123.262 127.818 124.109  1.00  0.00    -0.000 C 
BRANCH   9  10
ATOM     10  C   UNL     1     124.756 127.642 124.440  1.00  0.00    -0.000 C 
BRANCH  10  11
ATOM     11  C   UNL     1     125.666 128.403 123.461  1.00  0.00    -0.000 C 
BRANCH  11  12
ATOM     12  C   UNL     1     126.939 127.618 123.101  1.00  0.00    -0.000 C 
BRANCH  12  13
ATOM     13  C   UNL     1     126.637 126.377 122.244  1.00  0.00    -0.000 C 
BRANCH  13  14
ATOM     14  C   UNL     1     127.203 126.502 120.816  1.00  0.00    -0.000 C 
BRANCH  14  15
ATOM     15  C   UNL     1     126.962 125.242 119.968  1.00  0.00    -0.003 C 
ATOM     16  C   UNL     1     125.849 124.359 120.527  1.00  0.00     0.004 C 
ENDBRANCH  14  15
ENDBRANCH  13  14
ENDBRANCH  12  13
ENDBRANCH  11  12
ENDBRANCH  10  11
ENDBRANCH   9  10
ENDBRANCH   8   9
ENDBRANCH   7   8
ENDBRANCH   6   7
ENDBRANCH   5   6
ENDBRANCH   4   5
ENDBRANCH   3   4
ENDBRANCH   2   3
ENDBRANCH   1   2
BRANCH   1  17
ATOM     17  C   UNL     1     128.461 129.771 118.945  1.00  0.00     0.000 C 
BRANCH  17  18
ATOM     18  C   UNL     1     129.524 128.735 119.340  1.00  0.00     0.000 C 
BRANCH  18  19
ATOM     19  C   UNL     1     129.679 127.601 118.312  1.00  0.00     0.000 C 
BRANCH  19  20
ATOM     20  C   UNL     1     128.933 127.847 116.984  1.00  0.00     0.000 C 
BRANCH  20  21
ATOM     21  C   UNL     1     127.825 126.808 116.731  1.00  0.00     0.000 C 
BRANCH  21  22
ATOM     22  C   UNL     1     127.903 126.190 115.322  1.00  0.00     0.000 C 
BRANCH  22  23
ATOM     23  C   UNL     1     129.070 125.202 115.133  1.00  0.00     0.000 C 
BRANCH  23  24
ATOM     24  C   UNL     1     128.707 123.771 115.573  1.00  0.00     0.000 C 
BRANCH  24  25
ATOM     25  C   UNL     1     129.309 123.402 116.938  1.00  0.00     0.000 C 
BRANCH  25  26
ATOM     26  C   UNL     1     129.028 121.945 117.336  1.00  0.00     0.000 C 
BRANCH  26  27
ATOM     27  C   UNL     1     128.194 121.882 118.624  1.00  0.00     0.002 C 
BRANCH  27  28
ATOM     28  C   UNL     1     126.720 121.531 118.358  1.00  0.00     0.028 C 
BRANCH  28  29
ATOM     29  C   UNL     1     126.094 120.650 119.442  1.00  0.00     0.156 C 
BRANCH  29  30
ATOM     30  O   UNL     1     126.642 120.954 120.696  1.00  0.00    -0.396 OA
ATOM     31  H   UNL     1     126.418 120.189 121.285  1.00  0.00     0.210 HD
ENDBRANCH  29  30
ENDBRANCH  28  29
ENDBRANCH  27  28
ENDBRANCH  26  27
ENDBRANCH  25  26
ENDBRANCH  24  25
ENDBRANCH  23  24
ENDBRANCH  22  23
ENDBRANCH  21  22
ENDBRANCH  20  21
ENDBRANCH  19  20
ENDBRANCH  18  19
ENDBRANCH  17  18
ENDBRANCH   1  17
TORSDOF 28
ENDMDL
MODEL 9
REMARK VINA RESULT:    -2.636     10.330     13.234
REMARK INTER + INTRA:         -10.564
REMARK INTER:                  -5.799
REMARK INTRA:                  -4.764
REMARK UNBOUND:                -3.690
REMARK SMILES CCCCCCCCCCCCCCCCCCCCCCCCCCCCCO
REMARK SMILES IDX 16 1 15 2 14 3 13 4 12 5 11 6 10 7 9 8 8 9 7 10 6 11 5 12
REMARK SMILES IDX 4 13 3 14 2 15 1 16 17 17 18 18 19 19 20 20 21 21 22 22
REMARK SMILES IDX 23 23 24 24 25 25 26 26 27 27 28 28 29 29 30 30
REMARK H PARENT 30 31
REMARK Flexibility Score: inf
ROOT
ATOM      1  C   UNL     1     127.241 126.495 122.084  1.00  0.00     0.000 C 
ENDROOT
BRANCH   1   2
ATOM      2  C   UNL     1     127.762 126.127 120.686  1.00  0.00     0.000 C 
BRANCH   2   3
ATOM      3  C   UNL     1     126.621 125.721 119.736  1.00  0.00     0.000 C 
BRANCH   3   4
ATOM      4  C   UNL     1     125.349 125.291 120.497  1.00  0.00     0.000 C 
BRANCH   4   5
ATOM      5  C   UNL     1     124.088 126.018 119.996  1.00  0.00     0.000 C 
BRANCH   5   6
ATOM      6  C   UNL     1     124.428 127.323 119.262  1.00  0.00     0.000 C 
BRANCH   6   7
ATOM      7  C   UNL     1     124.372 128.541 120.202  1.00  0.00     0.000 C 
BRANCH   7   8
ATOM      8  C   UNL     1     125.577 129.489 120.037  1.00  0.00    -0.000 C 
BRANCH   8   9
ATOM      9  C   UNL     1     126.249 129.375 118.649  1.00  0.00    -0.000 C 
BRANCH   9  10
ATOM     10  C   UNL     1     127.787 129.366 118.727  1.00  0.00    -0.000 C 
BRANCH  10  11
ATOM     11  C   UNL     1     128.418 128.384 117.725  1.00  0.00    -0.000 C 
BRANCH  11  12
ATOM     12  C   UNL     1     127.370 127.536 116.984  1.00  0.00    -0.000 C 
BRANCH  12  13
ATOM     13  C   UNL     1     127.952 126.847 115.738  1.00  0.00    -0.000 C 
BRANCH  13  14
ATOM     14  C   UNL     1     128.986 125.762 116.101  1.00  0.00    -0.000 C 
BRANCH  14  15
ATOM     15  C   UNL     1     128.650 124.392 115.490  1.00  0.00    -0.003 C 
ATOM     16  C   UNL     1     129.793 123.389 115.625  1.00  0.00     0.004 C 
ENDBRANCH  14  15
ENDBRANCH  13  14
ENDBRANCH  12  13
ENDBRANCH  11  12
ENDBRANCH  10  11
ENDBRANCH   9  10
ENDBRANCH   8   9
ENDBRANCH   7   8
ENDBRANCH   6   7
ENDBRANCH   5   6
ENDBRANCH   4   5
ENDBRANCH   3   4
ENDBRANCH   2   3
ENDBRANCH   1   2
BRANCH   1  17
ATOM     17  C   UNL     1     127.922 125.656 123.172  1.00  0.00     0.000 C 
BRANCH  17  18
ATOM     18  C   UNL     1     128.473 124.341 122.599  1.00  0.00     0.000 C 
BRANCH  18  19
ATOM     19  C   UNL     1     127.483 123.168 122.709  1.00  0.00     0.000 C 
BRANCH  19  20
ATOM     20  C   UNL     1     127.382 122.305 121.434  1.00  0.00     0.000 C 
BRANCH  20  21
ATOM     21  C   UNL     1     128.674 122.340 120.598  1.00  0.00     0.000 C 
BRANCH  21  22
ATOM     22  C   UNL     1     128.405 122.599 119.103  1.00  0.00     0.000 C 
BRANCH  22  23
ATOM     23  C   UNL     1     126.992 122.195 118.640  1.00  0.00     0.000 C 
BRANCH  23  24
ATOM     24  C   UNL     1     127.001 120.931 117.760  1.00  0.00     0.000 C 
BRANCH  24  25
ATOM     25  C   UNL     1     126.806 121.248 116.269  1.00  0.00     0.000 C 
BRANCH  25  26
ATOM     26  C   UNL     1     126.724 119.985 115.399  1.00  0.00     0.000 C 
BRANCH  26  27
ATOM     27  C   UNL     1     125.267 119.664 115.037  1.00  0.00     0.002 C 
BRANCH  27  28
ATOM     28  C   UNL     1     124.528 118.919 116.162  1.00  0.00     0.028 C 
BRANCH  28  29
ATOM     29  C   UNL     1     123.071 119.355 116.334  1.00  0.00     0.156 C 
BRANCH  29  30
ATOM     30  O   UNL     1     122.257 118.246 116.602  1.00  0.00    -0.396 OA
ATOM     31  H   UNL     1     121.486 118.316 115.983  1.00  0.00     0.210 HD
ENDBRANCH  29  30
ENDBRANCH  28  29
ENDBRANCH  27  28
ENDBRANCH  26  27
ENDBRANCH  25  26
ENDBRANCH  24  25
ENDBRANCH  23  24
ENDBRANCH  22  23
ENDBRANCH  21  22
ENDBRANCH  20  21
ENDBRANCH  19  20
ENDBRANCH  18  19
ENDBRANCH  17  18
ENDBRANCH   1  17
TORSDOF 28
ENDMDL
