MODEL 1
REMARK VINA RESULT:    -4.157      0.000      0.000
REMARK INTER + INTRA:          -5.267
REMARK INTER:                  -5.129
REMARK INTRA:                  -0.138
REMARK UNBOUND:                -0.138
REMARK SMILES CCCCCC(=O)[O-]
REMARK SMILES IDX 4 1 5 2 6 3 7 4 8 5 3 6 2 7 1 8
REMARK H PARENT
REMARK Flexibility Score: inf
ROOT
ATOM      1  C   UNL     1      18.924  12.995  17.401  1.00  0.00     0.006 C 
ENDROOT
BRANCH   1   2
ATOM      2  C   UNL     1      18.488  11.835  18.300  1.00  0.00     0.053 C 
BRANCH   2   3
ATOM      3  C   UNL     1      17.153  12.118  18.913  1.00  0.00     0.041 C 
ATOM      4  O   UNL     1      16.114  12.099  18.203  1.00  0.00    -0.550 OA
ATOM      5  O   UNL     1      17.062  12.453  20.258  1.00  0.00    -0.550 OA
ENDBRANCH   2   3
ENDBRANCH   1   2
BRANCH   1   6
ATOM      6  C   UNL     1      19.293  12.496  16.000  1.00  0.00     0.000 C 
BRANCH   6   7
ATOM      7  C   UNL     1      18.049  12.387  15.108  1.00  0.00    -0.003 C 
ATOM      8  C   UNL     1      18.431  12.358  13.631  1.00  0.00     0.004 C 
ENDBRANCH   6   7
ENDBRANCH   1   6
TORSDOF 4
ENDMDL
MODEL 2
REMARK VINA RESULT:    -4.063      2.354      4.332
REMARK INTER + INTRA:          -5.150
REMARK INTER:                  -5.022
REMARK INTRA:                  -0.129
REMARK UNBOUND:                -0.138
REMARK SMILES CCCCCC(=O)[O-]
REMARK SMILES IDX 4 1 5 2 6 3 7 4 8 5 3 6 2 7 1 8
REMARK H PARENT
REMARK Flexibility Score: inf
ROOT
ATOM      1  C   UNL     1      18.896  12.811  16.785  1.00  0.00     0.006 C 
ENDROOT
BRANCH   1   2
ATOM      2  C   UNL     1      19.028  11.964  15.517  1.00  0.00     0.053 C 
BRANCH   2   3
ATOM      3  C   UNL     1      17.935  12.294  14.550  1.00  0.00     0.041 C 
ATOM      4  O   UNL     1      16.739  12.011  14.824  1.00  0.00    -0.550 OA
ATOM      5  O   UNL     1      18.243  12.871  13.324  1.00  0.00    -0.550 OA
ENDBRANCH   2   3
ENDBRANCH   1   2
BRANCH   1   6
ATOM      6  C   UNL     1      18.648  11.929  18.014  1.00  0.00     0.000 C 
BRANCH   6   7
ATOM      7  C   UNL     1      17.224  12.119  18.551  1.00  0.00    -0.003 C 
ATOM      8  C   UNL     1      17.162  11.856  20.053  1.00  0.00     0.004 C 
ENDBRANCH   6   7
ENDBRANCH   1   6
TORSDOF 4
ENDMDL
MODEL 3
REMARK VINA RESULT:    -3.809     11.074     11.722
REMARK INTER + INTRA:          -4.837
REMARK INTER:                  -4.631
REMARK INTRA:                  -0.206
REMARK UNBOUND:                -0.138
REMARK SMILES CCCCCC(=O)[O-]
REMARK SMILES IDX 4 1 5 2 6 3 7 4 8 5 3 6 2 7 1 8
REMARK H PARENT
REMARK Flexibility Score: inf
ROOT
ATOM      1  C   UNL     1      12.362  16.867  24.815  1.00  0.00     0.006 C 
ENDROOT
BRANCH   1   2
ATOM      2  C   UNL     1      11.627  15.569  25.156  1.00  0.00     0.053 C 
BRANCH   2   3
ATOM      3  C   UNL     1      10.374  15.860  25.922  1.00  0.00     0.041 C 
ATOM      4  O   UNL     1       9.301  15.274  25.626  1.00  0.00    -0.550 OA
ATOM      5  O   UNL     1      10.383  16.816  26.930  1.00  0.00    -0.550 OA
ENDBRANCH   2   3
ENDBRANCH   1   2
BRANCH   1   6
ATOM      6  C   UNL     1      11.510  17.759  23.905  1.00  0.00     0.000 C 
BRANCH   6   7
ATOM      7  C   UNL     1      11.519  19.213  24.395  1.00  0.00    -0.003 C 
ATOM      8  C   UNL     1      12.621  19.440  25.426  1.00  0.00     0.004 C 
ENDBRANCH   6   7
ENDBRANCH   1   6
TORSDOF 4
ENDMDL
MODEL 4
REMARK VINA RESULT:    -3.693      2.741      4.363
REMARK INTER + INTRA:          -4.694
REMARK INTER:                  -4.601
REMARK INTRA:                  -0.093
REMARK UNBOUND:                -0.138
REMARK SMILES CCCCCC(=O)[O-]
REMARK SMILES IDX 4 1 5 2 6 3 7 4 8 5 3 6 2 7 1 8
REMARK H PARENT
REMARK Flexibility Score: inf
ROOT
ATOM      1  C   UNL     1      18.987  11.569  18.475  1.00  0.00     0.006 C 
ENDROOT
BRANCH   1   2
ATOM      2  C   UNL     1      19.654  11.287  17.126  1.00  0.00     0.053 C 
BRANCH   2   3
ATOM      3  C   UNL     1      19.751  12.542  16.316  1.00  0.00     0.041 C 
ATOM      4  O   UNL     1      20.435  13.513  16.733  1.00  0.00    -0.550 OA
ATOM      5  O   UNL     1      19.047  12.655  15.124  1.00  0.00    -0.550 OA
ENDBRANCH   2   3
ENDBRANCH   1   2
BRANCH   1   6
ATOM      6  C   UNL     1      17.652  12.298  18.287  1.00  0.00     0.000 C 
BRANCH   6   7
ATOM      7  C   UNL     1      16.964  12.543  19.636  1.00  0.00    -0.003 C 
ATOM      8  C   UNL     1      16.681  11.229  20.357  1.00  0.00     0.004 C 
ENDBRANCH   6   7
ENDBRANCH   1   6
TORSDOF 4
ENDMDL
MODEL 5
REMARK VINA RESULT:    -3.598      1.944      2.538
REMARK INTER + INTRA:          -4.577
REMARK INTER:                  -4.444
REMARK INTRA:                  -0.133
REMARK UNBOUND:                -0.138
REMARK SMILES CCCCCC(=O)[O-]
REMARK SMILES IDX 4 1 5 2 6 3 7 4 8 5 3 6 2 7 1 8
REMARK H PARENT
REMARK Flexibility Score: inf
ROOT
ATOM      1  C   UNL     1      17.882  12.394  15.646  1.00  0.00     0.006 C 
ENDROOT
BRANCH   1   2
ATOM      2  C   UNL     1      19.065  12.763  16.546  1.00  0.00     0.053 C 
BRANCH   2   3
ATOM      3  C   UNL     1      19.236  11.746  17.631  1.00  0.00     0.041 C 
ATOM      4  O   UNL     1      18.460  11.742  18.622  1.00  0.00    -0.550 OA
ATOM      5  O   UNL     1      20.283  10.835  17.571  1.00  0.00    -0.550 OA
ENDBRANCH   2   3
ENDBRANCH   1   2
BRANCH   1   6
ATOM      6  C   UNL     1      18.354  11.638  14.400  1.00  0.00     0.000 C 
BRANCH   6   7
ATOM      7  C   UNL     1      18.797  12.611  13.300  1.00  0.00    -0.003 C 
ATOM      8  C   UNL     1      17.654  13.534  12.887  1.00  0.00     0.004 C 
ENDBRANCH   6   7
ENDBRANCH   1   6
TORSDOF 4
ENDMDL
MODEL 6
REMARK VINA RESULT:    -3.531      2.984      4.303
REMARK INTER + INTRA:          -4.495
REMARK INTER:                  -4.397
REMARK INTRA:                  -0.098
REMARK UNBOUND:                -0.138
REMARK SMILES CCCCCC(=O)[O-]
REMARK SMILES IDX 4 1 5 2 6 3 7 4 8 5 3 6 2 7 1 8
REMARK H PARENT
REMARK Flexibility Score: inf
ROOT
ATOM      1  C   UNL     1      18.077  12.410  16.623  1.00  0.00     0.006 C 
ENDROOT
BRANCH   1   2
ATOM      2  C   UNL     1      19.040  12.870  15.526  1.00  0.00     0.053 C 
BRANCH   2   3
ATOM      3  C   UNL     1      18.591  12.368  14.190  1.00  0.00     0.041 C 
ATOM      4  O   UNL     1      18.110  11.210  14.078  1.00  0.00    -0.550 OA
ATOM      5  O   UNL     1      18.748  13.161  13.060  1.00  0.00    -0.550 OA
ENDBRANCH   2   3
ENDBRANCH   1   2
BRANCH   1   6
ATOM      6  C   UNL     1      18.842  11.859  17.832  1.00  0.00     0.000 C 
BRANCH   6   7
ATOM      7  C   UNL     1      20.299  11.549  17.466  1.00  0.00    -0.003 C 
ATOM      8  C   UNL     1      20.459  10.098  17.023  1.00  0.00     0.004 C 
ENDBRANCH   6   7
ENDBRANCH   1   6
TORSDOF 4
ENDMDL
MODEL 7
REMARK VINA RESULT:    -3.392      1.346      1.856
REMARK INTER + INTRA:          -4.323
REMARK INTER:                  -4.195
REMARK INTRA:                  -0.128
REMARK UNBOUND:                -0.138
REMARK SMILES CCCCCC(=O)[O-]
REMARK SMILES IDX 4 1 5 2 6 3 7 4 8 5 3 6 2 7 1 8
REMARK H PARENT
REMARK Flexibility Score: inf
ROOT
ATOM      1  C   UNL     1      17.490  12.044  17.879  1.00  0.00     0.006 C 
ENDROOT
BRANCH   1   2
ATOM      2  C   UNL     1      17.056  12.578  19.246  1.00  0.00     0.053 C 
BRANCH   2   3
ATOM      3  C   UNL     1      16.954  11.463  20.238  1.00  0.00     0.041 C 
ATOM      4  O   UNL     1      15.900  10.779  20.316  1.00  0.00    -0.550 OA
ATOM      5  O   UNL     1      18.006  11.210  21.109  1.00  0.00    -0.550 OA
ENDBRANCH   2   3
ENDBRANCH   1   2
BRANCH   1   6
ATOM      6  C   UNL     1      19.008  12.157  17.701  1.00  0.00     0.000 C 
BRANCH   6   7
ATOM      7  C   UNL     1      19.368  12.497  16.249  1.00  0.00    -0.003 C 
ATOM      8  C   UNL     1      18.132  12.480  15.356  1.00  0.00     0.004 C 
ENDBRANCH   6   7
ENDBRANCH   1   6
TORSDOF 4
ENDMDL
MODEL 8
REMARK VINA RESULT:    -3.247      2.576      3.708
REMARK INTER + INTRA:          -4.143
REMARK INTER:                  -4.059
REMARK INTRA:                  -0.085
REMARK UNBOUND:                -0.138
REMARK SMILES CCCCCC(=O)[O-]
REMARK SMILES IDX 4 1 5 2 6 3 7 4 8 5 3 6 2 7 1 8
REMARK H PARENT
REMARK Flexibility Score: inf
ROOT
ATOM      1  C   UNL     1      17.796  12.538  18.848  1.00  0.00     0.006 C 
ENDROOT
BRANCH   1   2
ATOM      2  C   UNL     1      18.650  11.868  17.769  1.00  0.00     0.053 C 
BRANCH   2   3
ATOM      3  C   UNL     1      19.204  12.891  16.828  1.00  0.00     0.041 C 
ATOM      4  O   UNL     1      19.334  12.622  15.605  1.00  0.00    -0.550 OA
ATOM      5  O   UNL     1      19.623  14.125  17.311  1.00  0.00    -0.550 OA
ENDBRANCH   2   3
ENDBRANCH   1   2
BRANCH   1   6
ATOM      6  C   UNL     1      16.363  11.995  18.831  1.00  0.00     0.000 C 
BRANCH   6   7
ATOM      7  C   UNL     1      15.705  12.218  17.464  1.00  0.00    -0.003 C 
ATOM      8  C   UNL     1      14.183  12.207  17.575  1.00  0.00     0.004 C 
ENDBRANCH   6   7
ENDBRANCH   1   6
TORSDOF 4
ENDMDL
MODEL 9
REMARK VINA RESULT:    -3.180      2.762      3.399
REMARK INTER + INTRA:          -4.061
REMARK INTER:                  -3.937
REMARK INTRA:                  -0.124
REMARK UNBOUND:                -0.138
REMARK SMILES CCCCCC(=O)[O-]
REMARK SMILES IDX 4 1 5 2 6 3 7 4 8 5 3 6 2 7 1 8
REMARK H PARENT
REMARK Flexibility Score: inf
ROOT
ATOM      1  C   UNL     1      18.542  12.534  15.020  1.00  0.00     0.006 C 
ENDROOT
BRANCH   1   2
ATOM      2  C   UNL     1      18.571  12.486  16.549  1.00  0.00     0.053 C 
BRANCH   2   3
ATOM      3  C   UNL     1      19.850  11.877  17.031  1.00  0.00     0.041 C 
ATOM      4  O   UNL     1      20.836  12.610  17.307  1.00  0.00    -0.550 OA
ATOM      5  O   UNL     1      19.968  10.497  17.130  1.00  0.00    -0.550 OA
ENDBRANCH   2   3
ENDBRANCH   1   2
BRANCH   1   6
ATOM      6  C   UNL     1      17.230  11.960  14.475  1.00  0.00     0.000 C 
BRANCH   6   7
ATOM      7  C   UNL     1      16.147  11.934  15.561  1.00  0.00    -0.003 C 
ATOM      8  C   UNL     1      14.785  11.576  14.972  1.00  0.00     0.004 C 
ENDBRANCH   6   7
ENDBRANCH   1   6
TORSDOF 4
ENDMDL
