MODEL 1
REMARK VINA RESULT:    -3.042      0.000      0.000
REMARK INTER + INTRA:          -5.870
REMARK INTER:                  -4.642
REMARK INTRA:                  -1.227
REMARK UNBOUND:                -1.227
REMARK SMILES CCCCCCCCCCC(=O)[O-]
REMARK SMILES IDX 7 1 8 2 9 3 10 4 11 5 12 6 13 7 6 8 5 9 4 10 3 11 2 12 1 13
REMARK H PARENT
REMARK Flexibility Score: inf
ROOT
ATOM      1  C   UNL     1      25.156  -4.596 -27.316  1.00  0.00     0.000 C 
ENDROOT
BRANCH   1   2
ATOM      2  C   UNL     1      25.162  -4.204 -28.798  1.00  0.00     0.000 C 
BRANCH   2   3
ATOM      3  C   UNL     1      23.790  -4.446 -29.438  1.00  0.00     0.006 C 
BRANCH   3   4
ATOM      4  C   UNL     1      23.903  -5.389 -30.639  1.00  0.00     0.053 C 
BRANCH   4   5
ATOM      5  C   UNL     1      24.050  -4.608 -31.906  1.00  0.00     0.041 C 
ATOM      6  O   UNL     1      24.549  -5.148 -32.930  1.00  0.00    -0.550 OA
ATOM      7  O   UNL     1      23.592  -3.298 -31.974  1.00  0.00    -0.550 OA
ENDBRANCH   4   5
ENDBRANCH   3   4
ENDBRANCH   2   3
ENDBRANCH   1   2
BRANCH   1   8
ATOM      8  C   UNL     1      24.027  -5.589 -27.015  1.00  0.00     0.000 C 
BRANCH   8   9
ATOM      9  C   UNL     1      24.590  -6.951 -26.593  1.00  0.00    -0.000 C 
BRANCH   9  10
ATOM     10  C   UNL     1      24.391  -7.996 -27.697  1.00  0.00    -0.000 C 
BRANCH  10  11
ATOM     11  C   UNL     1      25.538  -7.943 -28.717  1.00  0.00    -0.000 C 
BRANCH  11  12
ATOM     12  C   UNL     1      26.922  -7.986 -28.050  1.00  0.00    -0.003 C 
ATOM     13  C   UNL     1      27.860  -6.893 -28.563  1.00  0.00     0.004 C 
ENDBRANCH  11  12
ENDBRANCH  10  11
ENDBRANCH   9  10
ENDBRANCH   8   9
ENDBRANCH   1   8
TORSDOF 9
ENDMDL
MODEL 2
REMARK VINA RESULT:    -3.011     12.375     13.820
REMARK INTER + INTRA:          -5.823
REMARK INTER:                  -5.355
REMARK INTRA:                  -0.468
REMARK UNBOUND:                -1.227
REMARK SMILES CCCCCCCCCCC(=O)[O-]
REMARK SMILES IDX 7 1 8 2 9 3 10 4 11 5 12 6 13 7 6 8 5 9 4 10 3 11 2 12 1 13
REMARK H PARENT
REMARK Flexibility Score: inf
ROOT
ATOM      1  C   UNL     1      32.105   2.361 -33.233  1.00  0.00     0.000 C 
ENDROOT
BRANCH   1   2
ATOM      2  C   UNL     1      33.464   3.063 -33.346  1.00  0.00     0.000 C 
BRANCH   2   3
ATOM      3  C   UNL     1      33.400   4.481 -32.767  1.00  0.00     0.006 C 
BRANCH   3   4
ATOM      4  C   UNL     1      34.737   5.208 -32.948  1.00  0.00     0.053 C 
BRANCH   4   5
ATOM      5  C   UNL     1      35.315   5.578 -31.619  1.00  0.00     0.041 C 
ATOM      6  O   UNL     1      36.074   6.578 -31.513  1.00  0.00    -0.550 OA
ATOM      7  O   UNL     1      34.978   4.848 -30.485  1.00  0.00    -0.550 OA
ENDBRANCH   4   5
ENDBRANCH   3   4
ENDBRANCH   2   3
ENDBRANCH   1   2
BRANCH   1   8
ATOM      8  C   UNL     1      31.884   1.398 -34.405  1.00  0.00     0.000 C 
BRANCH   8   9
ATOM      9  C   UNL     1      32.853   0.211 -34.333  1.00  0.00    -0.000 C 
BRANCH   9  10
ATOM     10  C   UNL     1      33.728   0.138 -35.591  1.00  0.00    -0.000 C 
BRANCH  10  11
ATOM     11  C   UNL     1      33.183  -0.905 -36.579  1.00  0.00    -0.000 C 
BRANCH  11  12
ATOM     12  C   UNL     1      33.076  -0.360 -38.011  1.00  0.00    -0.003 C 
ATOM     13  C   UNL     1      31.840   0.512 -38.222  1.00  0.00     0.004 C 
ENDBRANCH  11  12
ENDBRANCH  10  11
ENDBRANCH   9  10
ENDBRANCH   8   9
ENDBRANCH   1   8
TORSDOF 9
ENDMDL
MODEL 3
REMARK VINA RESULT:    -2.976     12.616     14.259
REMARK INTER + INTRA:          -5.769
REMARK INTER:                  -4.780
REMARK INTRA:                  -0.989
REMARK UNBOUND:                -1.227
REMARK SMILES CCCCCCCCCCC(=O)[O-]
REMARK SMILES IDX 7 1 8 2 9 3 10 4 11 5 12 6 13 7 6 8 5 9 4 10 3 11 2 12 1 13
REMARK H PARENT
REMARK Flexibility Score: inf
ROOT
ATOM      1  C   UNL     1      33.884   4.356 -33.330  1.00  0.00     0.000 C 
ENDROOT
BRANCH   1   2
ATOM      2  C   UNL     1      33.231   3.847 -32.040  1.00  0.00     0.000 C 
BRANCH   2   3
ATOM      3  C   UNL     1      32.804   2.381 -32.180  1.00  0.00     0.006 C 
BRANCH   3   4
ATOM      4  C   UNL     1      33.274   1.798 -33.517  1.00  0.00     0.053 C 
BRANCH   4   5
ATOM      5  C   UNL     1      32.118   1.218 -34.270  1.00  0.00     0.041 C 
ATOM      6  O   UNL     1      31.266   1.976 -34.805  1.00  0.00    -0.550 OA
ATOM      7  O   UNL     1      32.008  -0.159 -34.423  1.00  0.00    -0.550 OA
ENDBRANCH   4   5
ENDBRANCH   3   4
ENDBRANCH   2   3
ENDBRANCH   1   2
BRANCH   1   8
ATOM      8  C   UNL     1      34.979   5.385 -33.024  1.00  0.00     0.000 C 
BRANCH   8   9
ATOM      9  C   UNL     1      35.250   5.469 -31.517  1.00  0.00    -0.000 C 
BRANCH   9  10
ATOM     10  C   UNL     1      35.467   6.922 -31.077  1.00  0.00    -0.000 C 
BRANCH  10  11
ATOM     11  C   UNL     1      34.152   7.714 -31.130  1.00  0.00    -0.000 C 
BRANCH  11  12
ATOM     12  C   UNL     1      33.080   7.141 -30.189  1.00  0.00    -0.003 C 
ATOM     13  C   UNL     1      31.703   7.054 -30.845  1.00  0.00     0.004 C 
ENDBRANCH  11  12
ENDBRANCH  10  11
ENDBRANCH   9  10
ENDBRANCH   8   9
ENDBRANCH   1   8
TORSDOF 9
ENDMDL
MODEL 4
REMARK VINA RESULT:    -2.899      1.345      2.904
REMARK INTER + INTRA:          -5.651
REMARK INTER:                  -4.254
REMARK INTRA:                  -1.397
REMARK UNBOUND:                -1.227
REMARK SMILES CCCCCCCCCCC(=O)[O-]
REMARK SMILES IDX 7 1 8 2 9 3 10 4 11 5 12 6 13 7 6 8 5 9 4 10 3 11 2 12 1 13
REMARK H PARENT
REMARK Flexibility Score: inf
ROOT
ATOM      1  C   UNL     1      27.612  -5.939 -28.945  1.00  0.00     0.000 C 
ENDROOT
BRANCH   1   2
ATOM      2  C   UNL     1      27.372  -4.533 -28.384  1.00  0.00     0.000 C 
BRANCH   2   3
ATOM      3  C   UNL     1      26.035  -3.966 -28.873  1.00  0.00     0.006 C 
BRANCH   3   4
ATOM      4  C   UNL     1      25.668  -4.533 -30.248  1.00  0.00     0.053 C 
BRANCH   4   5
ATOM      5  C   UNL     1      24.204  -4.833 -30.317  1.00  0.00     0.041 C 
ATOM      6  O   UNL     1      23.359  -3.933 -30.065  1.00  0.00    -0.550 OA
ATOM      7  O   UNL     1      23.769  -6.094 -30.706  1.00  0.00    -0.550 OA
ENDBRANCH   4   5
ENDBRANCH   3   4
ENDBRANCH   2   3
ENDBRANCH   1   2
BRANCH   1   8
ATOM      8  C   UNL     1      28.011  -6.916 -27.832  1.00  0.00     0.000 C 
BRANCH   8   9
ATOM      9  C   UNL     1      27.069  -8.125 -27.796  1.00  0.00    -0.000 C 
BRANCH   9  10
ATOM     10  C   UNL     1      25.751  -7.819 -28.518  1.00  0.00    -0.000 C 
BRANCH  10  11
ATOM     11  C   UNL     1      24.562  -7.897 -27.548  1.00  0.00    -0.000 C 
BRANCH  11  12
ATOM     12  C   UNL     1      24.125  -6.515 -27.038  1.00  0.00    -0.003 C 
ATOM     13  C   UNL     1      24.791  -6.134 -25.716  1.00  0.00     0.004 C 
ENDBRANCH  11  12
ENDBRANCH  10  11
ENDBRANCH   9  10
ENDBRANCH   8   9
ENDBRANCH   1   8
TORSDOF 9
ENDMDL
MODEL 5
REMARK VINA RESULT:    -2.858     15.214     16.681
REMARK INTER + INTRA:          -5.589
REMARK INTER:                  -5.052
REMARK INTRA:                  -0.537
REMARK UNBOUND:                -1.227
REMARK SMILES CCCCCCCCCCC(=O)[O-]
REMARK SMILES IDX 7 1 8 2 9 3 10 4 11 5 12 6 13 7 6 8 5 9 4 10 3 11 2 12 1 13
REMARK H PARENT
REMARK Flexibility Score: inf
ROOT
ATOM      1  C   UNL     1      33.164   8.740 -30.609  1.00  0.00     0.000 C 
ENDROOT
BRANCH   1   2
ATOM      2  C   UNL     1      34.212   7.782 -31.188  1.00  0.00     0.000 C 
BRANCH   2   3
ATOM      3  C   UNL     1      34.215   6.448 -30.432  1.00  0.00     0.006 C 
BRANCH   3   4
ATOM      4  C   UNL     1      35.127   5.428 -31.121  1.00  0.00     0.053 C 
BRANCH   4   5
ATOM      5  C   UNL     1      34.746   5.272 -32.559  1.00  0.00     0.041 C 
ATOM      6  O   UNL     1      35.583   5.519 -33.468  1.00  0.00    -0.550 OA
ATOM      7  O   UNL     1      33.481   4.806 -32.897  1.00  0.00    -0.550 OA
ENDBRANCH   4   5
ENDBRANCH   3   4
ENDBRANCH   2   3
ENDBRANCH   1   2
BRANCH   1   8
ATOM      8  C   UNL     1      31.962   7.969 -30.051  1.00  0.00     0.000 C 
BRANCH   8   9
ATOM      9  C   UNL     1      31.487   8.575 -28.724  1.00  0.00    -0.000 C 
BRANCH   9  10
ATOM     10  C   UNL     1      32.434   9.687 -28.256  1.00  0.00    -0.000 C 
BRANCH  10  11
ATOM     11  C   UNL     1      32.677   9.599 -26.742  1.00  0.00    -0.000 C 
BRANCH  11  12
ATOM     12  C   UNL     1      33.362  10.855 -26.181  1.00  0.00    -0.003 C 
ATOM     13  C   UNL     1      33.681  10.739 -24.691  1.00  0.00     0.004 C 
ENDBRANCH  11  12
ENDBRANCH  10  11
ENDBRANCH   9  10
ENDBRANCH   8   9
ENDBRANCH   1   8
TORSDOF 9
ENDMDL
MODEL 6
REMARK VINA RESULT:    -2.853     13.900     15.424
REMARK INTER + INTRA:          -5.581
REMARK INTER:                  -4.363
REMARK INTRA:                  -1.218
REMARK UNBOUND:                -1.227
REMARK SMILES CCCCCCCCCCC(=O)[O-]
REMARK SMILES IDX 7 1 8 2 9 3 10 4 11 5 12 6 13 7 6 8 5 9 4 10 3 11 2 12 1 13
REMARK H PARENT
REMARK Flexibility Score: inf
ROOT
ATOM      1  C   UNL     1      35.471   6.778 -31.024  1.00  0.00     0.000 C 
ENDROOT
BRANCH   1   2
ATOM      2  C   UNL     1      34.180   7.531 -31.368  1.00  0.00     0.000 C 
BRANCH   2   3
ATOM      3  C   UNL     1      33.317   7.741 -30.119  1.00  0.00     0.006 C 
BRANCH   3   4
ATOM      4  C   UNL     1      31.830   7.807 -30.484  1.00  0.00     0.053 C 
BRANCH   4   5
ATOM      5  C   UNL     1      31.236   9.103 -30.031  1.00  0.00     0.041 C 
ATOM      6  O   UNL     1      31.495   9.552 -28.883  1.00  0.00    -0.550 OA
ATOM      7  O   UNL     1      30.435   9.841 -30.894  1.00  0.00    -0.550 OA
ENDBRANCH   4   5
ENDBRANCH   3   4
ENDBRANCH   2   3
ENDBRANCH   1   2
BRANCH   1   8
ATOM      8  C   UNL     1      35.746   5.664 -32.041  1.00  0.00     0.000 C 
BRANCH   8   9
ATOM      9  C   UNL     1      34.628   5.585 -33.088  1.00  0.00    -0.000 C 
BRANCH   9  10
ATOM     10  C   UNL     1      33.867   4.258 -32.981  1.00  0.00    -0.000 C 
BRANCH  10  11
ATOM     11  C   UNL     1      32.394   4.498 -32.615  1.00  0.00    -0.000 C 
BRANCH  11  12
ATOM     12  C   UNL     1      31.989   3.795 -31.311  1.00  0.00    -0.003 C 
ATOM     13  C   UNL     1      33.038   3.941 -30.209  1.00  0.00     0.004 C 
ENDBRANCH  11  12
ENDBRANCH  10  11
ENDBRANCH   9  10
ENDBRANCH   8   9
ENDBRANCH   1   8
TORSDOF 9
ENDMDL
MODEL 7
REMARK VINA RESULT:    -2.851     15.803     17.394
REMARK INTER + INTRA:          -5.578
REMARK INTER:                  -5.014
REMARK INTRA:                  -0.564
REMARK UNBOUND:                -1.227
REMARK SMILES CCCCCCCCCCC(=O)[O-]
REMARK SMILES IDX 7 1 8 2 9 3 10 4 11 5 12 6 13 7 6 8 5 9 4 10 3 11 2 12 1 13
REMARK H PARENT
REMARK Flexibility Score: inf
ROOT
ATOM      1  C   UNL     1      32.400   8.817 -29.082  1.00  0.00     0.000 C 
ENDROOT
BRANCH   1   2
ATOM      2  C   UNL     1      32.804   9.292 -30.482  1.00  0.00     0.000 C 
BRANCH   2   3
ATOM      3  C   UNL     1      33.802   8.323 -31.126  1.00  0.00     0.006 C 
BRANCH   3   4
ATOM      4  C   UNL     1      33.819   6.980 -30.387  1.00  0.00     0.053 C 
BRANCH   4   5
ATOM      5  C   UNL     1      35.098   6.253 -30.653  1.00  0.00     0.041 C 
ATOM      6  O   UNL     1      36.105   6.876 -31.084  1.00  0.00    -0.550 OA
ATOM      7  O   UNL     1      35.197   4.894 -30.378  1.00  0.00    -0.550 OA
ENDBRANCH   4   5
ENDBRANCH   3   4
ENDBRANCH   2   3
ENDBRANCH   1   2
BRANCH   1   8
ATOM      8  C   UNL     1      32.759   9.863 -28.020  1.00  0.00     0.000 C 
BRANCH   8   9
ATOM      9  C   UNL     1      31.498  10.456 -27.382  1.00  0.00    -0.000 C 
BRANCH   9  10
ATOM     10  C   UNL     1      31.828  11.162 -26.061  1.00  0.00    -0.000 C 
BRANCH  10  11
ATOM     11  C   UNL     1      33.331  11.076 -25.753  1.00  0.00    -0.000 C 
BRANCH  11  12
ATOM     12  C   UNL     1      33.623  10.317 -24.450  1.00  0.00    -0.003 C 
ATOM     13  C   UNL     1      33.148   8.866 -24.490  1.00  0.00     0.004 C 
ENDBRANCH  11  12
ENDBRANCH  10  11
ENDBRANCH   9  10
ENDBRANCH   8   9
ENDBRANCH   1   8
TORSDOF 9
ENDMDL
MODEL 8
REMARK VINA RESULT:    -2.848     13.862     15.354
REMARK INTER + INTRA:          -5.574
REMARK INTER:                  -4.342
REMARK INTRA:                  -1.232
REMARK UNBOUND:                -1.227
REMARK SMILES CCCCCCCCCCC(=O)[O-]
REMARK SMILES IDX 7 1 8 2 9 3 10 4 11 5 12 6 13 7 6 8 5 9 4 10 3 11 2 12 1 13
REMARK H PARENT
REMARK Flexibility Score: inf
ROOT
ATOM      1  C   UNL     1      31.663   5.010 -31.598  1.00  0.00     0.000 C 
ENDROOT
BRANCH   1   2
ATOM      2  C   UNL     1      31.550   6.516 -31.334  1.00  0.00     0.000 C 
BRANCH   2   3
ATOM      3  C   UNL     1      31.773   6.833 -29.850  1.00  0.00     0.006 C 
BRANCH   3   4
ATOM      4  C   UNL     1      32.818   7.939 -29.676  1.00  0.00     0.053 C 
BRANCH   4   5
ATOM      5  C   UNL     1      32.328   9.221 -30.271  1.00  0.00     0.041 C 
ATOM      6  O   UNL     1      31.206   9.688 -29.936  1.00  0.00    -0.550 OA
ATOM      7  O   UNL     1      33.130   9.928 -31.158  1.00  0.00    -0.550 OA
ENDBRANCH   4   5
ENDBRANCH   3   4
ENDBRANCH   2   3
ENDBRANCH   1   2
BRANCH   1   8
ATOM      8  C   UNL     1      32.454   4.735 -32.882  1.00  0.00     0.000 C 
BRANCH   8   9
ATOM      9  C   UNL     1      33.888   4.295 -32.564  1.00  0.00    -0.000 C 
BRANCH   9  10
ATOM     10  C   UNL     1      34.850   5.489 -32.592  1.00  0.00    -0.000 C 
BRANCH  10  11
ATOM     11  C   UNL     1      35.407   5.778 -31.190  1.00  0.00    -0.000 C 
BRANCH  11  12
ATOM     12  C   UNL     1      34.981   4.724 -30.156  1.00  0.00    -0.003 C 
ATOM     13  C   UNL     1      35.123   5.216 -28.717  1.00  0.00     0.004 C 
ENDBRANCH  11  12
ENDBRANCH  10  11
ENDBRANCH   9  10
ENDBRANCH   8   9
ENDBRANCH   1   8
TORSDOF 9
ENDMDL
MODEL 9
REMARK VINA RESULT:    -2.770     15.514     17.037
REMARK INTER + INTRA:          -5.455
REMARK INTER:                  -4.980
REMARK INTRA:                  -0.476
REMARK UNBOUND:                -1.227
REMARK SMILES CCCCCCCCCCC(=O)[O-]
REMARK SMILES IDX 7 1 8 2 9 3 10 4 11 5 12 6 13 7 6 8 5 9 4 10 3 11 2 12 1 13
REMARK H PARENT
REMARK Flexibility Score: inf
ROOT
ATOM      1  C   UNL     1      32.383   8.068 -29.707  1.00  0.00     0.000 C 
ENDROOT
BRANCH   1   2
ATOM      2  C   UNL     1      32.699   9.443 -29.109  1.00  0.00     0.000 C 
BRANCH   2   3
ATOM      3  C   UNL     1      32.461   9.454 -27.595  1.00  0.00     0.006 C 
BRANCH   3   4
ATOM      4  C   UNL     1      33.194  10.624 -26.932  1.00  0.00     0.053 C 
BRANCH   4   5
ATOM      5  C   UNL     1      32.965  10.615 -25.453  1.00  0.00     0.041 C 
ATOM      6  O   UNL     1      31.818  10.845 -24.987  1.00  0.00    -0.550 OA
ATOM      7  O   UNL     1      34.009  10.303 -24.590  1.00  0.00    -0.550 OA
ENDBRANCH   4   5
ENDBRANCH   3   4
ENDBRANCH   2   3
ENDBRANCH   1   2
BRANCH   1   8
ATOM      8  C   UNL     1      33.632   7.442 -30.339  1.00  0.00     0.000 C 
BRANCH   8   9
ATOM      9  C   UNL     1      33.995   6.120 -29.652  1.00  0.00    -0.000 C 
BRANCH   9  10
ATOM     10  C   UNL     1      34.991   5.316 -30.496  1.00  0.00    -0.000 C 
BRANCH  10  11
ATOM     11  C   UNL     1      35.511   6.150 -31.676  1.00  0.00    -0.000 C 
BRANCH  11  12
ATOM     12  C   UNL     1      35.362   5.426 -33.022  1.00  0.00    -0.003 C 
ATOM     13  C   UNL     1      34.163   4.480 -33.056  1.00  0.00     0.004 C 
ENDBRANCH  11  12
ENDBRANCH  10  11
ENDBRANCH   9  10
ENDBRANCH   8   9
ENDBRANCH   1   8
TORSDOF 9
ENDMDL
