MODEL 1
REMARK VINA RESULT:    -3.680      0.000      0.000
REMARK INTER + INTRA:          -4.894
REMARK INTER:                  -4.756
REMARK INTRA:                  -0.138
REMARK UNBOUND:                -0.138
REMARK SMILES CCCCCCC(=O)[O-]
REMARK SMILES IDX 5 1 6 2 7 3 8 4 9 5 4 6 3 7 2 8 1 9
REMARK H PARENT
REMARK Flexibility Score: inf
ROOT
ATOM      1  C   UNL     1      16.571  51.610 158.729  1.00  0.00     0.006 C 
ENDROOT
BRANCH   1   2
ATOM      2  C   UNL     1      15.621  51.109 159.823  1.00  0.00     0.053 C 
BRANCH   2   3
ATOM      3  C   UNL     1      14.248  51.687 159.673  1.00  0.00     0.041 C 
ATOM      4  O   UNL     1      13.329  51.354 160.468  1.00  0.00    -0.550 OA
ATOM      5  O   UNL     1      13.973  52.568 158.635  1.00  0.00    -0.550 OA
ENDBRANCH   2   3
ENDBRANCH   1   2
BRANCH   1   6
ATOM      6  C   UNL     1      17.310  52.891 159.142  1.00  0.00     0.000 C 
BRANCH   6   7
ATOM      7  C   UNL     1      18.325  53.310 158.072  1.00  0.00    -0.000 C 
BRANCH   7   8
ATOM      8  C   UNL     1      19.573  53.931 158.709  1.00  0.00    -0.003 C 
ATOM      9  C   UNL     1      19.658  53.595 160.195  1.00  0.00     0.004 C 
ENDBRANCH   7   8
ENDBRANCH   6   7
ENDBRANCH   1   6
TORSDOF 5
ENDMDL
MODEL 2
REMARK VINA RESULT:    -3.606      3.345      4.516
REMARK INTER + INTRA:          -4.798
REMARK INTER:                  -4.549
REMARK INTRA:                  -0.249
REMARK UNBOUND:                -0.138
REMARK SMILES CCCCCCC(=O)[O-]
REMARK SMILES IDX 5 1 6 2 7 3 8 4 9 5 4 6 3 7 2 8 1 9
REMARK H PARENT
REMARK Flexibility Score: inf
ROOT
ATOM      1  C   UNL     1      13.871  53.382 157.073  1.00  0.00     0.006 C 
ENDROOT
BRANCH   1   2
ATOM      2  C   UNL     1      14.901  54.047 156.151  1.00  0.00     0.053 C 
BRANCH   2   3
ATOM      3  C   UNL     1      15.126  55.482 156.514  1.00  0.00     0.041 C 
ATOM      4  O   UNL     1      14.543  56.398 155.875  1.00  0.00    -0.550 OA
ATOM      5  O   UNL     1      16.005  55.812 157.539  1.00  0.00    -0.550 OA
ENDBRANCH   2   3
ENDBRANCH   1   2
BRANCH   1   6
ATOM      6  C   UNL     1      14.533  52.598 158.214  1.00  0.00     0.000 C 
BRANCH   6   7
ATOM      7  C   UNL     1      15.870  51.994 157.765  1.00  0.00    -0.000 C 
BRANCH   7   8
ATOM      8  C   UNL     1      16.495  51.150 158.881  1.00  0.00    -0.003 C 
ATOM      9  C   UNL     1      15.484  50.863 159.988  1.00  0.00     0.004 C 
ENDBRANCH   7   8
ENDBRANCH   6   7
ENDBRANCH   1   6
TORSDOF 5
ENDMDL
MODEL 3
REMARK VINA RESULT:    -3.582      3.195      4.825
REMARK INTER + INTRA:          -4.767
REMARK INTER:                  -4.509
REMARK INTRA:                  -0.258
REMARK UNBOUND:                -0.138
REMARK SMILES CCCCCCC(=O)[O-]
REMARK SMILES IDX 5 1 6 2 7 3 8 4 9 5 4 6 3 7 2 8 1 9
REMARK H PARENT
REMARK Flexibility Score: inf
ROOT
ATOM      1  C   UNL     1      17.769  52.989 158.889  1.00  0.00     0.006 C 
ENDROOT
BRANCH   1   2
ATOM      2  C   UNL     1      17.594  53.644 160.264  1.00  0.00     0.053 C 
BRANCH   2   3
ATOM      3  C   UNL     1      18.911  54.009 160.876  1.00  0.00     0.041 C 
ATOM      4  O   UNL     1      19.963  53.978 160.185  1.00  0.00    -0.550 OA
ATOM      5  O   UNL     1      18.982  54.353 162.221  1.00  0.00    -0.550 OA
ENDBRANCH   2   3
ENDBRANCH   1   2
BRANCH   1   6
ATOM      6  C   UNL     1      16.529  52.191 158.463  1.00  0.00     0.000 C 
BRANCH   6   7
ATOM      7  C   UNL     1      16.561  50.772 159.044  1.00  0.00    -0.000 C 
BRANCH   7   8
ATOM      8  C   UNL     1      15.455  50.578 160.087  1.00  0.00    -0.003 C 
ATOM      9  C   UNL     1      14.314  51.569 159.872  1.00  0.00     0.004 C 
ENDBRANCH   7   8
ENDBRANCH   6   7
ENDBRANCH   1   6
TORSDOF 5
ENDMDL
MODEL 4
REMARK VINA RESULT:    -3.575      2.868      3.560
REMARK INTER + INTRA:          -4.758
REMARK INTER:                  -4.405
REMARK INTRA:                  -0.353
REMARK UNBOUND:                -0.138
REMARK SMILES CCCCCCC(=O)[O-]
REMARK SMILES IDX 5 1 6 2 7 3 8 4 9 5 4 6 3 7 2 8 1 9
REMARK H PARENT
REMARK Flexibility Score: inf
ROOT
ATOM      1  C   UNL     1      14.200  52.859 158.359  1.00  0.00     0.006 C 
ENDROOT
BRANCH   1   2
ATOM      2  C   UNL     1      14.562  51.791 159.398  1.00  0.00     0.053 C 
BRANCH   2   3
ATOM      3  C   UNL     1      16.035  51.526 159.432  1.00  0.00     0.041 C 
ATOM      4  O   UNL     1      16.478  50.374 159.180  1.00  0.00    -0.550 OA
ATOM      5  O   UNL     1      16.918  52.543 159.774  1.00  0.00    -0.550 OA
ENDBRANCH   2   3
ENDBRANCH   1   2
BRANCH   1   6
ATOM      6  C   UNL     1      14.728  52.511 156.960  1.00  0.00     0.000 C 
BRANCH   6   7
ATOM      7  C   UNL     1      15.370  53.735 156.294  1.00  0.00    -0.000 C 
BRANCH   7   8
ATOM      8  C   UNL     1      15.634  54.845 157.317  1.00  0.00    -0.003 C 
ATOM      9  C   UNL     1      15.393  56.224 156.709  1.00  0.00     0.004 C 
ENDBRANCH   7   8
ENDBRANCH   6   7
ENDBRANCH   1   6
TORSDOF 5
ENDMDL
MODEL 5
REMARK VINA RESULT:    -3.575      2.884      3.913
REMARK INTER + INTRA:          -4.758
REMARK INTER:                  -4.367
REMARK INTRA:                  -0.390
REMARK UNBOUND:                -0.138
REMARK SMILES CCCCCCC(=O)[O-]
REMARK SMILES IDX 5 1 6 2 7 3 8 4 9 5 4 6 3 7 2 8 1 9
REMARK H PARENT
REMARK Flexibility Score: inf
ROOT
ATOM      1  C   UNL     1      14.672  52.586 157.431  1.00  0.00     0.006 C 
ENDROOT
BRANCH   1   2
ATOM      2  C   UNL     1      14.455  54.049 157.025  1.00  0.00     0.053 C 
BRANCH   2   3
ATOM      3  C   UNL     1      15.745  54.808 156.971  1.00  0.00     0.041 C 
ATOM      4  O   UNL     1      15.812  55.979 157.430  1.00  0.00    -0.550 OA
ATOM      5  O   UNL     1      16.866  54.233 156.384  1.00  0.00    -0.550 OA
ENDBRANCH   2   3
ENDBRANCH   1   2
BRANCH   1   6
ATOM      6  C   UNL     1      14.308  52.329 158.899  1.00  0.00     0.000 C 
BRANCH   6   7
ATOM      7  C   UNL     1      15.397  51.510 159.602  1.00  0.00    -0.000 C 
BRANCH   7   8
ATOM      8  C   UNL     1      16.795  52.001 159.210  1.00  0.00    -0.003 C 
ATOM      9  C   UNL     1      17.207  53.212 160.042  1.00  0.00     0.004 C 
ENDBRANCH   7   8
ENDBRANCH   6   7
ENDBRANCH   1   6
TORSDOF 5
ENDMDL
MODEL 6
REMARK VINA RESULT:    -3.533      1.426      2.245
REMARK INTER + INTRA:          -4.703
REMARK INTER:                  -4.571
REMARK INTRA:                  -0.132
REMARK UNBOUND:                -0.138
REMARK SMILES CCCCCCC(=O)[O-]
REMARK SMILES IDX 5 1 6 2 7 3 8 4 9 5 4 6 3 7 2 8 1 9
REMARK H PARENT
REMARK Flexibility Score: inf
ROOT
ATOM      1  C   UNL     1      17.036  53.212 160.209  1.00  0.00     0.006 C 
ENDROOT
BRANCH   1   2
ATOM      2  C   UNL     1      16.498  52.256 159.136  1.00  0.00     0.053 C 
BRANCH   2   3
ATOM      3  C   UNL     1      15.363  51.427 159.651  1.00  0.00     0.041 C 
ATOM      4  O   UNL     1      14.192  51.889 159.660  1.00  0.00    -0.550 OA
ATOM      5  O   UNL     1      15.604  50.153 160.153  1.00  0.00    -0.550 OA
ENDBRANCH   2   3
ENDBRANCH   1   2
BRANCH   1   6
ATOM      6  C   UNL     1      18.522  53.538 160.004  1.00  0.00     0.000 C 
BRANCH   6   7
ATOM      7  C   UNL     1      19.082  54.327 161.195  1.00  0.00    -0.000 C 
BRANCH   7   8
ATOM      8  C   UNL     1      20.607  54.194 161.275  1.00  0.00    -0.003 C 
ATOM      9  C   UNL     1      21.165  53.488 160.043  1.00  0.00     0.004 C 
ENDBRANCH   7   8
ENDBRANCH   6   7
ENDBRANCH   1   6
TORSDOF 5
ENDMDL
MODEL 7
REMARK VINA RESULT:    -3.526      2.864      4.218
REMARK INTER + INTRA:          -4.696
REMARK INTER:                  -4.352
REMARK INTRA:                  -0.344
REMARK UNBOUND:                -0.138
REMARK SMILES CCCCCCC(=O)[O-]
REMARK SMILES IDX 5 1 6 2 7 3 8 4 9 5 4 6 3 7 2 8 1 9
REMARK H PARENT
REMARK Flexibility Score: inf
ROOT
ATOM      1  C   UNL     1      14.979  51.849 159.305  1.00  0.00     0.006 C 
ENDROOT
BRANCH   1   2
ATOM      2  C   UNL     1      16.260  51.636 158.489  1.00  0.00     0.053 C 
BRANCH   2   3
ATOM      3  C   UNL     1      17.308  52.650 158.826  1.00  0.00     0.041 C 
ATOM      4  O   UNL     1      18.149  53.007 157.959  1.00  0.00    -0.550 OA
ATOM      5  O   UNL     1      17.378  53.178 160.110  1.00  0.00    -0.550 OA
ENDBRANCH   2   3
ENDBRANCH   1   2
BRANCH   1   6
ATOM      6  C   UNL     1      13.986  52.780 158.596  1.00  0.00     0.000 C 
BRANCH   6   7
ATOM      7  C   UNL     1      14.200  52.761 157.077  1.00  0.00    -0.000 C 
BRANCH   7   8
ATOM      8  C   UNL     1      14.076  54.169 156.485  1.00  0.00    -0.003 C 
ATOM      9  C   UNL     1      15.214  55.068 156.959  1.00  0.00     0.004 C 
ENDBRANCH   7   8
ENDBRANCH   6   7
ENDBRANCH   1   6
TORSDOF 5
ENDMDL
MODEL 8
REMARK VINA RESULT:    -3.495      2.232      2.956
REMARK INTER + INTRA:          -4.655
REMARK INTER:                  -4.273
REMARK INTRA:                  -0.382
REMARK UNBOUND:                -0.138
REMARK SMILES CCCCCCC(=O)[O-]
REMARK SMILES IDX 5 1 6 2 7 3 8 4 9 5 4 6 3 7 2 8 1 9
REMARK H PARENT
REMARK Flexibility Score: inf
ROOT
ATOM      1  C   UNL     1      15.008  52.262 158.621  1.00  0.00     0.006 C 
ENDROOT
BRANCH   1   2
ATOM      2  C   UNL     1      14.941  52.602 157.127  1.00  0.00     0.053 C 
BRANCH   2   3
ATOM      3  C   UNL     1      14.637  54.050 156.901  1.00  0.00     0.041 C 
ATOM      4  O   UNL     1      13.611  54.390 156.254  1.00  0.00    -0.550 OA
ATOM      5  O   UNL     1      15.504  55.026 157.376  1.00  0.00    -0.550 OA
ENDBRANCH   2   3
ENDBRANCH   1   2
BRANCH   1   6
ATOM      6  C   UNL     1      16.432  51.909 159.073  1.00  0.00     0.000 C 
BRANCH   6   7
ATOM      7  C   UNL     1      17.018  53.014 159.961  1.00  0.00    -0.000 C 
BRANCH   7   8
ATOM      8  C   UNL     1      18.447  53.365 159.532  1.00  0.00    -0.003 C 
ATOM      9  C   UNL     1      18.572  53.406 158.012  1.00  0.00     0.004 C 
ENDBRANCH   7   8
ENDBRANCH   6   7
ENDBRANCH   1   6
TORSDOF 5
ENDMDL
MODEL 9
REMARK VINA RESULT:    -3.437      3.093      4.387
REMARK INTER + INTRA:          -4.580
REMARK INTER:                  -4.265
REMARK INTRA:                  -0.315
REMARK UNBOUND:                -0.138
REMARK SMILES CCCCCCC(=O)[O-]
REMARK SMILES IDX 5 1 6 2 7 3 8 4 9 5 4 6 3 7 2 8 1 9
REMARK H PARENT
REMARK Flexibility Score: inf
ROOT
ATOM      1  C   UNL     1      16.658  51.610 158.907  1.00  0.00     0.006 C 
ENDROOT
BRANCH   1   2
ATOM      2  C   UNL     1      16.979  52.882 159.703  1.00  0.00     0.053 C 
BRANCH   2   3
ATOM      3  C   UNL     1      18.377  53.355 159.453  1.00  0.00     0.041 C 
ATOM      4  O   UNL     1      19.137  53.628 160.419  1.00  0.00    -0.550 OA
ATOM      5  O   UNL     1      18.831  53.526 158.151  1.00  0.00    -0.550 OA
ENDBRANCH   2   3
ENDBRANCH   1   2
BRANCH   1   6
ATOM      6  C   UNL     1      15.742  51.891 157.708  1.00  0.00     0.000 C 
BRANCH   6   7
ATOM      7  C   UNL     1      14.482  52.650 158.143  1.00  0.00    -0.000 C 
BRANCH   7   8
ATOM      8  C   UNL     1      14.106  53.727 157.120  1.00  0.00    -0.003 C 
ATOM      9  C   UNL     1      15.211  54.771 156.988  1.00  0.00     0.004 C 
ENDBRANCH   7   8
ENDBRANCH   6   7
ENDBRANCH   1   6
TORSDOF 5
ENDMDL
