MODEL 1
REMARK VINA RESULT:    19.177      0.000      0.000
REMARK INTER + INTRA:          47.361
REMARK INTER:                  48.326
REMARK INTRA:                  -0.965
REMARK UNBOUND:                -0.965
REMARK SMILES CCCCCCCCCCCCCCCCCCCCCCCCCCCC(=O)[O-]
REMARK SMILES IDX 15 1 16 2 17 3 18 4 19 5 20 6 21 7 22 8 23 9 24 10 25 11
REMARK SMILES IDX 26 12 27 13 28 14 29 15 30 16 14 17 13 18 12 19 11 20 10 21
REMARK SMILES IDX 9 22 8 23 7 24 6 25 5 26 4 27 3 28 2 29 1 30
REMARK H PARENT
REMARK Flexibility Score: inf
ROOT
ATOM      1  C   UNL     1      74.285  51.122  -2.720  1.00  0.00     0.000 C 
ENDROOT
BRANCH   1   2
ATOM      2  C   UNL     1      75.799  51.201  -2.988  1.00  0.00     0.000 C 
BRANCH   2   3
ATOM      3  C   UNL     1      76.311  50.031  -3.843  1.00  0.00     0.000 C 
BRANCH   3   4
ATOM      4  C   UNL     1      77.803  50.163  -4.203  1.00  0.00     0.000 C 
BRANCH   4   5
ATOM      5  C   UNL     1      78.715  49.745  -3.038  1.00  0.00     0.000 C 
BRANCH   5   6
ATOM      6  C   UNL     1      79.501  48.448  -3.333  1.00  0.00     0.000 C 
BRANCH   6   7
ATOM      7  C   UNL     1      80.882  48.422  -2.657  1.00  0.00     0.000 C 
BRANCH   7   8
ATOM      8  C   UNL     1      81.804  49.530  -3.197  1.00  0.00     0.000 C 
BRANCH   8   9
ATOM      9  C   UNL     1      82.125  50.597  -2.138  1.00  0.00     0.000 C 
BRANCH   9  10
ATOM     10  C   UNL     1      80.977  50.785  -1.130  1.00  0.00     0.000 C 
BRANCH  10  11
ATOM     11  C   UNL     1      80.659  52.266  -0.853  1.00  0.00     0.000 C 
BRANCH  11  12
ATOM     12  C   UNL     1      79.702  52.933  -1.861  1.00  0.00     0.006 C 
BRANCH  12  13
ATOM     13  C   UNL     1      79.964  52.572  -3.331  1.00  0.00     0.053 C 
BRANCH  13  14
ATOM     14  C   UNL     1      80.166  53.789  -4.181  1.00  0.00     0.041 C 
ATOM     15  O   UNL     1      79.943  53.739  -5.420  1.00  0.00    -0.550 OA
ATOM     16  O   UNL     1      80.630  54.968  -3.611  1.00  0.00    -0.550 OA
ENDBRANCH  13  14
ENDBRANCH  12  13
ENDBRANCH  11  12
ENDBRANCH  10  11
ENDBRANCH   9  10
ENDBRANCH   8   9
ENDBRANCH   7   8
ENDBRANCH   6   7
ENDBRANCH   5   6
ENDBRANCH   4   5
ENDBRANCH   3   4
ENDBRANCH   2   3
ENDBRANCH   1   2
BRANCH   1  17
ATOM     17  C   UNL     1      73.466  52.102  -3.588  1.00  0.00     0.000 C 
BRANCH  17  18
ATOM     18  C   UNL     1      74.219  53.394  -3.961  1.00  0.00     0.000 C 
BRANCH  18  19
ATOM     19  C   UNL     1      73.343  54.655  -4.085  1.00  0.00     0.000 C 
BRANCH  19  20
ATOM     20  C   UNL     1      71.842  54.444  -3.796  1.00  0.00     0.000 C 
BRANCH  20  21
ATOM     21  C   UNL     1      71.044  55.732  -3.527  1.00  0.00     0.000 C 
BRANCH  21  22
ATOM     22  C   UNL     1      71.872  56.811  -2.814  1.00  0.00    -0.000 C 
BRANCH  22  23
ATOM     23  C   UNL     1      71.071  58.111  -2.673  1.00  0.00    -0.000 C 
BRANCH  23  24
ATOM     24  C   UNL     1      71.550  58.926  -1.463  1.00  0.00    -0.000 C 
BRANCH  24  25
ATOM     25  C   UNL     1      72.104  60.307  -1.858  1.00  0.00    -0.000 C 
BRANCH  25  26
ATOM     26  C   UNL     1      73.233  60.279  -2.908  1.00  0.00    -0.000 C 
BRANCH  26  27
ATOM     27  C   UNL     1      74.597  59.776  -2.392  1.00  0.00    -0.000 C 
BRANCH  27  28
ATOM     28  C   UNL     1      74.823  59.956  -0.881  1.00  0.00    -0.000 C 
BRANCH  28  29
ATOM     29  C   UNL     1      76.306  60.116  -0.515  1.00  0.00    -0.003 C 
ATOM     30  C   UNL     1      76.885  58.809   0.020  1.00  0.00     0.004 C 
ENDBRANCH  28  29
ENDBRANCH  27  28
ENDBRANCH  26  27
ENDBRANCH  25  26
ENDBRANCH  24  25
ENDBRANCH  23  24
ENDBRANCH  22  23
ENDBRANCH  21  22
ENDBRANCH  20  21
ENDBRANCH  19  20
ENDBRANCH  18  19
ENDBRANCH  17  18
ENDBRANCH   1  17
TORSDOF 26
ENDMDL
MODEL 2
REMARK VINA RESULT:    19.489      1.079      1.971
REMARK INTER + INTRA:          48.148
REMARK INTER:                  47.626
REMARK INTRA:                   0.521
REMARK UNBOUND:                -0.965
REMARK SMILES CCCCCCCCCCCCCCCCCCCCCCCCCCCC(=O)[O-]
REMARK SMILES IDX 15 1 16 2 17 3 18 4 19 5 20 6 21 7 22 8 23 9 24 10 25 11
REMARK SMILES IDX 26 12 27 13 28 14 29 15 30 16 14 17 13 18 12 19 11 20 10 21
REMARK SMILES IDX 9 22 8 23 7 24 6 25 5 26 4 27 3 28 2 29 1 30
REMARK H PARENT
REMARK Flexibility Score: inf
ROOT
ATOM      1  C   UNL     1      75.911  50.945  -2.970  1.00  0.00     0.000 C 
ENDROOT
BRANCH   1   2
ATOM      2  C   UNL     1      76.627  50.306  -4.175  1.00  0.00     0.000 C 
BRANCH   2   3
ATOM      3  C   UNL     1      77.543  49.142  -3.771  1.00  0.00     0.000 C 
BRANCH   3   4
ATOM      4  C   UNL     1      79.012  49.570  -3.595  1.00  0.00     0.000 C 
BRANCH   4   5
ATOM      5  C   UNL     1      79.731  48.732  -2.525  1.00  0.00     0.000 C 
BRANCH   5   6
ATOM      6  C   UNL     1      81.128  48.255  -2.982  1.00  0.00     0.000 C 
BRANCH   6   7
ATOM      7  C   UNL     1      82.103  49.418  -3.230  1.00  0.00     0.000 C 
BRANCH   7   8
ATOM      8  C   UNL     1      81.641  50.710  -2.532  1.00  0.00     0.000 C 
BRANCH   8   9
ATOM      9  C   UNL     1      82.125  50.797  -1.075  1.00  0.00     0.000 C 
BRANCH   9  10
ATOM     10  C   UNL     1      81.007  51.236  -0.113  1.00  0.00     0.000 C 
BRANCH  10  11
ATOM     11  C   UNL     1      80.140  52.375  -0.679  1.00  0.00     0.000 C 
BRANCH  11  12
ATOM     12  C   UNL     1      79.224  51.982  -1.856  1.00  0.00     0.006 C 
BRANCH  12  13
ATOM     13  C   UNL     1      78.795  53.153  -2.755  1.00  0.00     0.053 C 
BRANCH  13  14
ATOM     14  C   UNL     1      79.963  53.794  -3.438  1.00  0.00     0.041 C 
ATOM     15  O   UNL     1      80.034  53.802  -4.695  1.00  0.00    -0.550 OA
ATOM     16  O   UNL     1      80.989  54.354  -2.687  1.00  0.00    -0.550 OA
ENDBRANCH  13  14
ENDBRANCH  12  13
ENDBRANCH  11  12
ENDBRANCH  10  11
ENDBRANCH   9  10
ENDBRANCH   8   9
ENDBRANCH   7   8
ENDBRANCH   6   7
ENDBRANCH   5   6
ENDBRANCH   4   5
ENDBRANCH   3   4
ENDBRANCH   2   3
ENDBRANCH   1   2
BRANCH   1  17
ATOM     17  C   UNL     1      74.393  50.666  -2.953  1.00  0.00     0.000 C 
BRANCH  17  18
ATOM     18  C   UNL     1      73.537  51.794  -3.560  1.00  0.00     0.000 C 
BRANCH  18  19
ATOM     19  C   UNL     1      74.274  53.124  -3.802  1.00  0.00     0.000 C 
BRANCH  19  20
ATOM     20  C   UNL     1      73.368  54.328  -4.131  1.00  0.00     0.000 C 
BRANCH  20  21
ATOM     21  C   UNL     1      71.976  54.293  -3.474  1.00  0.00     0.000 C 
BRANCH  21  22
ATOM     22  C   UNL     1      71.189  55.596  -3.670  1.00  0.00    -0.000 C 
BRANCH  22  23
ATOM     23  C   UNL     1      71.888  56.768  -2.971  1.00  0.00    -0.000 C 
BRANCH  23  24
ATOM     24  C   UNL     1      70.903  57.913  -2.694  1.00  0.00    -0.000 C 
BRANCH  24  25
ATOM     25  C   UNL     1      71.243  58.693  -1.410  1.00  0.00    -0.000 C 
BRANCH  25  26
ATOM     26  C   UNL     1      71.983  60.027  -1.637  1.00  0.00    -0.000 C 
BRANCH  26  27
ATOM     27  C   UNL     1      73.482  60.015  -1.274  1.00  0.00    -0.000 C 
BRANCH  27  28
ATOM     28  C   UNL     1      74.424  59.614  -2.422  1.00  0.00    -0.000 C 
BRANCH  28  29
ATOM     29  C   UNL     1      73.787  59.799  -3.807  1.00  0.00    -0.003 C 
ATOM     30  C   UNL     1      73.008  61.109  -3.884  1.00  0.00     0.004 C 
ENDBRANCH  28  29
ENDBRANCH  27  28
ENDBRANCH  26  27
ENDBRANCH  25  26
ENDBRANCH  24  25
ENDBRANCH  23  24
ENDBRANCH  22  23
ENDBRANCH  21  22
ENDBRANCH  20  21
ENDBRANCH  19  20
ENDBRANCH  18  19
ENDBRANCH  17  18
ENDBRANCH   1  17
TORSDOF 26
ENDMDL
MODEL 3
REMARK VINA RESULT:    19.536      2.192      3.347
REMARK INTER + INTRA:          48.266
REMARK INTER:                  49.720
REMARK INTRA:                  -1.455
REMARK UNBOUND:                -0.965
REMARK SMILES CCCCCCCCCCCCCCCCCCCCCCCCCCCC(=O)[O-]
REMARK SMILES IDX 15 1 16 2 17 3 18 4 19 5 20 6 21 7 22 8 23 9 24 10 25 11
REMARK SMILES IDX 26 12 27 13 28 14 29 15 30 16 14 17 13 18 12 19 11 20 10 21
REMARK SMILES IDX 9 22 8 23 7 24 6 25 5 26 4 27 3 28 2 29 1 30
REMARK H PARENT
REMARK Flexibility Score: inf
ROOT
ATOM      1  C   UNL     1      74.583  51.964  -2.488  1.00  0.00     0.000 C 
ENDROOT
BRANCH   1   2
ATOM      2  C   UNL     1      74.943  50.639  -3.185  1.00  0.00     0.000 C 
BRANCH   2   3
ATOM      3  C   UNL     1      76.341  50.664  -3.820  1.00  0.00     0.000 C 
BRANCH   3   4
ATOM      4  C   UNL     1      77.053  49.299  -3.752  1.00  0.00     0.000 C 
BRANCH   4   5
ATOM      5  C   UNL     1      78.570  49.432  -3.957  1.00  0.00     0.000 C 
BRANCH   5   6
ATOM      6  C   UNL     1      79.385  48.766  -2.825  1.00  0.00     0.000 C 
BRANCH   6   7
ATOM      7  C   UNL     1      80.576  47.948  -3.350  1.00  0.00     0.000 C 
BRANCH   7   8
ATOM      8  C   UNL     1      81.922  48.541  -2.894  1.00  0.00     0.000 C 
BRANCH   8   9
ATOM      9  C   UNL     1      81.948  50.076  -2.978  1.00  0.00     0.000 C 
BRANCH   9  10
ATOM     10  C   UNL     1      82.092  50.735  -1.596  1.00  0.00     0.000 C 
BRANCH  10  11
ATOM     11  C   UNL     1      81.015  51.803  -1.325  1.00  0.00     0.000 C 
BRANCH  11  12
ATOM     12  C   UNL     1      79.929  51.931  -2.412  1.00  0.00     0.006 C 
BRANCH  12  13
ATOM     13  C   UNL     1      79.491  53.373  -2.715  1.00  0.00     0.053 C 
BRANCH  13  14
ATOM     14  C   UNL     1      80.106  53.892  -3.978  1.00  0.00     0.041 C 
ATOM     15  O   UNL     1      80.229  53.138  -4.979  1.00  0.00    -0.550 OA
ATOM     16  O   UNL     1      80.573  55.199  -4.040  1.00  0.00    -0.550 OA
ENDBRANCH  13  14
ENDBRANCH  12  13
ENDBRANCH  11  12
ENDBRANCH  10  11
ENDBRANCH   9  10
ENDBRANCH   8   9
ENDBRANCH   7   8
ENDBRANCH   6   7
ENDBRANCH   5   6
ENDBRANCH   4   5
ENDBRANCH   3   4
ENDBRANCH   2   3
ENDBRANCH   1   2
BRANCH   1  17
ATOM     17  C   UNL     1      73.414  52.707  -3.169  1.00  0.00     0.000 C 
BRANCH  17  18
ATOM     18  C   UNL     1      73.852  53.743  -4.222  1.00  0.00     0.000 C 
BRANCH  18  19
ATOM     19  C   UNL     1      73.169  55.118  -4.118  1.00  0.00     0.000 C 
BRANCH  19  20
ATOM     20  C   UNL     1      71.756  55.106  -3.500  1.00  0.00     0.000 C 
BRANCH  20  21
ATOM     21  C   UNL     1      71.055  56.476  -3.449  1.00  0.00     0.000 C 
BRANCH  21  22
ATOM     22  C   UNL     1      71.344  57.247  -2.153  1.00  0.00    -0.000 C 
BRANCH  22  23
ATOM     23  C   UNL     1      70.564  58.567  -2.118  1.00  0.00    -0.000 C 
BRANCH  23  24
ATOM     24  C   UNL     1      69.075  58.336  -2.417  1.00  0.00    -0.000 C 
BRANCH  24  25
ATOM     25  C   UNL     1      68.149  59.085  -1.440  1.00  0.00    -0.000 C 
BRANCH  25  26
ATOM     26  C   UNL     1      67.547  60.394  -1.990  1.00  0.00    -0.000 C 
BRANCH  26  27
ATOM     27  C   UNL     1      67.699  61.623  -1.070  1.00  0.00    -0.000 C 
BRANCH  27  28
ATOM     28  C   UNL     1      69.124  62.196  -0.985  1.00  0.00    -0.000 C 
BRANCH  28  29
ATOM     29  C   UNL     1      69.306  63.469  -1.824  1.00  0.00    -0.003 C 
ATOM     30  C   UNL     1      68.315  64.550  -1.404  1.00  0.00     0.004 C 
ENDBRANCH  28  29
ENDBRANCH  27  28
ENDBRANCH  26  27
ENDBRANCH  25  26
ENDBRANCH  24  25
ENDBRANCH  23  24
ENDBRANCH  22  23
ENDBRANCH  21  22
ENDBRANCH  20  21
ENDBRANCH  19  20
ENDBRANCH  18  19
ENDBRANCH  17  18
ENDBRANCH   1  17
TORSDOF 26
ENDMDL
MODEL 4
REMARK VINA RESULT:    19.615      2.111      9.745
REMARK INTER + INTRA:          48.465
REMARK INTER:                  50.377
REMARK INTRA:                  -1.912
REMARK UNBOUND:                -0.965
REMARK SMILES CCCCCCCCCCCCCCCCCCCCCCCCCCCC(=O)[O-]
REMARK SMILES IDX 15 1 16 2 17 3 18 4 19 5 20 6 21 7 22 8 23 9 24 10 25 11
REMARK SMILES IDX 26 12 27 13 28 14 29 15 30 16 14 17 13 18 12 19 11 20 10 21
REMARK SMILES IDX 9 22 8 23 7 24 6 25 5 26 4 27 3 28 2 29 1 30
REMARK H PARENT
REMARK Flexibility Score: inf
ROOT
ATOM      1  C   UNL     1      74.012  51.866  -2.947  1.00  0.00     0.000 C 
ENDROOT
BRANCH   1   2
ATOM      2  C   UNL     1      73.751  52.788  -4.152  1.00  0.00     0.000 C 
BRANCH   2   3
ATOM      3  C   UNL     1      74.411  54.167  -3.998  1.00  0.00     0.000 C 
BRANCH   3   4
ATOM      4  C   UNL     1      73.387  55.315  -3.931  1.00  0.00     0.000 C 
BRANCH   4   5
ATOM      5  C   UNL     1      71.948  54.794  -3.782  1.00  0.00     0.000 C 
BRANCH   5   6
ATOM      6  C   UNL     1      71.055  55.740  -2.950  1.00  0.00     0.000 C 
BRANCH   6   7
ATOM      7  C   UNL     1      71.112  57.197  -3.439  1.00  0.00     0.000 C 
BRANCH   7   8
ATOM      8  C   UNL     1      70.396  58.154  -2.468  1.00  0.00     0.000 C 
BRANCH   8   9
ATOM      9  C   UNL     1      71.361  58.805  -1.464  1.00  0.00     0.000 C 
BRANCH   9  10
ATOM     10  C   UNL     1      71.952  60.124  -1.991  1.00  0.00     0.000 C 
BRANCH  10  11
ATOM     11  C   UNL     1      73.128  59.909  -2.963  1.00  0.00     0.000 C 
BRANCH  11  12
ATOM     12  C   UNL     1      74.529  59.948  -2.320  1.00  0.00     0.006 C 
BRANCH  12  13
ATOM     13  C   UNL     1      74.535  59.831  -0.787  1.00  0.00     0.053 C 
BRANCH  13  14
ATOM     14  C   UNL     1      75.876  60.154  -0.205  1.00  0.00     0.041 C 
ATOM     15  O   UNL     1      76.107  61.305   0.253  1.00  0.00    -0.550 OA
ATOM     16  O   UNL     1      76.882  59.195  -0.196  1.00  0.00    -0.550 OA
ENDBRANCH  13  14
ENDBRANCH  12  13
ENDBRANCH  11  12
ENDBRANCH  10  11
ENDBRANCH   9  10
ENDBRANCH   8   9
ENDBRANCH   7   8
ENDBRANCH   6   7
ENDBRANCH   5   6
ENDBRANCH   4   5
ENDBRANCH   3   4
ENDBRANCH   2   3
ENDBRANCH   1   2
BRANCH   1  17
ATOM     17  C   UNL     1      74.953  50.688  -3.281  1.00  0.00     0.000 C 
BRANCH  17  18
ATOM     18  C   UNL     1      76.434  51.085  -3.427  1.00  0.00     0.000 C 
BRANCH  18  19
ATOM     19  C   UNL     1      77.249  50.236  -4.420  1.00  0.00     0.000 C 
BRANCH  19  20
ATOM     20  C   UNL     1      77.865  48.949  -3.834  1.00  0.00     0.000 C 
BRANCH  20  21
ATOM     21  C   UNL     1      78.903  49.174  -2.719  1.00  0.00     0.000 C 
BRANCH  21  22
ATOM     22  C   UNL     1      80.197  48.376  -2.936  1.00  0.00    -0.000 C 
BRANCH  22  23
ATOM     23  C   UNL     1      81.257  49.235  -3.636  1.00  0.00    -0.000 C 
BRANCH  23  24
ATOM     24  C   UNL     1      82.123  49.985  -2.613  1.00  0.00    -0.000 C 
BRANCH  24  25
ATOM     25  C   UNL     1      81.316  50.481  -1.400  1.00  0.00    -0.000 C 
BRANCH  25  26
ATOM     26  C   UNL     1      81.160  52.013  -1.306  1.00  0.00    -0.000 C 
BRANCH  26  27
ATOM     27  C   UNL     1      79.708  52.529  -1.361  1.00  0.00    -0.000 C 
BRANCH  27  28
ATOM     28  C   UNL     1      79.324  53.244  -2.669  1.00  0.00    -0.000 C 
BRANCH  28  29
ATOM     29  C   UNL     1      80.468  53.267  -3.693  1.00  0.00    -0.003 C 
ATOM     30  C   UNL     1      79.951  53.611  -5.087  1.00  0.00     0.004 C 
ENDBRANCH  28  29
ENDBRANCH  27  28
ENDBRANCH  26  27
ENDBRANCH  25  26
ENDBRANCH  24  25
ENDBRANCH  23  24
ENDBRANCH  22  23
ENDBRANCH  21  22
ENDBRANCH  20  21
ENDBRANCH  19  20
ENDBRANCH  18  19
ENDBRANCH  17  18
ENDBRANCH   1  17
TORSDOF 26
ENDMDL
MODEL 5
REMARK VINA RESULT:    19.725      4.128     10.870
REMARK INTER + INTRA:          48.742
REMARK INTER:                  50.589
REMARK INTRA:                  -1.848
REMARK UNBOUND:                -0.965
REMARK SMILES CCCCCCCCCCCCCCCCCCCCCCCCCCCC(=O)[O-]
REMARK SMILES IDX 15 1 16 2 17 3 18 4 19 5 20 6 21 7 22 8 23 9 24 10 25 11
REMARK SMILES IDX 26 12 27 13 28 14 29 15 30 16 14 17 13 18 12 19 11 20 10 21
REMARK SMILES IDX 9 22 8 23 7 24 6 25 5 26 4 27 3 28 2 29 1 30
REMARK H PARENT
REMARK Flexibility Score: inf
ROOT
ATOM      1  C   UNL     1      75.549  50.463  -3.066  1.00  0.00     0.000 C 
ENDROOT
BRANCH   1   2
ATOM      2  C   UNL     1      74.184  51.176  -3.074  1.00  0.00     0.000 C 
BRANCH   2   3
ATOM      3  C   UNL     1      74.315  52.705  -3.149  1.00  0.00     0.000 C 
BRANCH   3   4
ATOM      4  C   UNL     1      73.650  53.300  -4.404  1.00  0.00     0.000 C 
BRANCH   4   5
ATOM      5  C   UNL     1      73.235  54.766  -4.195  1.00  0.00     0.000 C 
BRANCH   5   6
ATOM      6  C   UNL     1      72.018  54.911  -3.254  1.00  0.00     0.000 C 
BRANCH   6   7
ATOM      7  C   UNL     1      71.326  56.278  -3.382  1.00  0.00     0.000 C 
BRANCH   7   8
ATOM      8  C   UNL     1      72.135  57.395  -2.695  1.00  0.00     0.000 C 
BRANCH   8   9
ATOM      9  C   UNL     1      71.326  58.691  -2.531  1.00  0.00     0.000 C 
BRANCH   9  10
ATOM     10  C   UNL     1      71.923  59.622  -1.461  1.00  0.00     0.000 C 
BRANCH  10  11
ATOM     11  C   UNL     1      71.561  61.103  -1.684  1.00  0.00     0.000 C 
BRANCH  11  12
ATOM     12  C   UNL     1      70.106  61.482  -1.346  1.00  0.00     0.006 C 
BRANCH  12  13
ATOM     13  C   UNL     1      69.930  62.892  -0.759  1.00  0.00     0.053 C 
BRANCH  13  14
ATOM     14  C   UNL     1      69.209  63.806  -1.701  1.00  0.00     0.041 C 
ATOM     15  O   UNL     1      69.480  63.789  -2.932  1.00  0.00    -0.550 OA
ATOM     16  O   UNL     1      68.262  64.700  -1.218  1.00  0.00    -0.550 OA
ENDBRANCH  13  14
ENDBRANCH  12  13
ENDBRANCH  11  12
ENDBRANCH  10  11
ENDBRANCH   9  10
ENDBRANCH   8   9
ENDBRANCH   7   8
ENDBRANCH   6   7
ENDBRANCH   5   6
ENDBRANCH   4   5
ENDBRANCH   3   4
ENDBRANCH   2   3
ENDBRANCH   1   2
BRANCH   1  17
ATOM     17  C   UNL     1      76.546  51.055  -4.085  1.00  0.00     0.000 C 
BRANCH  17  18
ATOM     18  C   UNL     1      77.846  50.243  -4.241  1.00  0.00     0.000 C 
BRANCH  18  19
ATOM     19  C   UNL     1      78.045  49.114  -3.213  1.00  0.00     0.000 C 
BRANCH  19  20
ATOM     20  C   UNL     1      79.470  48.997  -2.632  1.00  0.00     0.000 C 
BRANCH  20  21
ATOM     21  C   UNL     1      80.285  47.795  -3.143  1.00  0.00     0.000 C 
BRANCH  21  22
ATOM     22  C   UNL     1      81.792  48.079  -3.208  1.00  0.00    -0.000 C 
BRANCH  22  23
ATOM     23  C   UNL     1      82.067  49.587  -3.167  1.00  0.00    -0.000 C 
BRANCH  23  24
ATOM     24  C   UNL     1      82.123  50.098  -1.720  1.00  0.00    -0.000 C 
BRANCH  24  25
ATOM     25  C   UNL     1      81.828  51.606  -1.610  1.00  0.00    -0.000 C 
BRANCH  25  26
ATOM     26  C   UNL     1      80.459  51.957  -0.991  1.00  0.00    -0.000 C 
BRANCH  26  27
ATOM     27  C   UNL     1      79.410  52.495  -1.985  1.00  0.00    -0.000 C 
BRANCH  27  28
ATOM     28  C   UNL     1      79.786  53.821  -2.669  1.00  0.00    -0.000 C 
BRANCH  28  29
ATOM     29  C   UNL     1      79.596  53.781  -4.192  1.00  0.00    -0.003 C 
ATOM     30  C   UNL     1      80.708  52.981  -4.864  1.00  0.00     0.004 C 
ENDBRANCH  28  29
ENDBRANCH  27  28
ENDBRANCH  26  27
ENDBRANCH  25  26
ENDBRANCH  24  25
ENDBRANCH  23  24
ENDBRANCH  22  23
ENDBRANCH  21  22
ENDBRANCH  20  21
ENDBRANCH  19  20
ENDBRANCH  18  19
ENDBRANCH  17  18
ENDBRANCH   1  17
TORSDOF 26
ENDMDL
MODEL 6
REMARK VINA RESULT:    19.758      1.664      3.422
REMARK INTER + INTRA:          48.825
REMARK INTER:                  50.220
REMARK INTRA:                  -1.396
REMARK UNBOUND:                -0.965
REMARK SMILES CCCCCCCCCCCCCCCCCCCCCCCCCCCC(=O)[O-]
REMARK SMILES IDX 15 1 16 2 17 3 18 4 19 5 20 6 21 7 22 8 23 9 24 10 25 11
REMARK SMILES IDX 26 12 27 13 28 14 29 15 30 16 14 17 13 18 12 19 11 20 10 21
REMARK SMILES IDX 9 22 8 23 7 24 6 25 5 26 4 27 3 28 2 29 1 30
REMARK H PARENT
REMARK Flexibility Score: inf
ROOT
ATOM      1  C   UNL     1      74.200  51.851  -2.991  1.00  0.00     0.000 C 
ENDROOT
BRANCH   1   2
ATOM      2  C   UNL     1      75.062  50.587  -3.165  1.00  0.00     0.000 C 
BRANCH   2   3
ATOM      3  C   UNL     1      76.555  50.905  -3.329  1.00  0.00     0.000 C 
BRANCH   3   4
ATOM      4  C   UNL     1      77.297  49.865  -4.189  1.00  0.00     0.000 C 
BRANCH   4   5
ATOM      5  C   UNL     1      77.965  48.780  -3.329  1.00  0.00     0.000 C 
BRANCH   5   6
ATOM      6  C   UNL     1      79.377  49.185  -2.850  1.00  0.00     0.000 C 
BRANCH   6   7
ATOM      7  C   UNL     1      80.462  48.182  -3.275  1.00  0.00     0.000 C 
BRANCH   7   8
ATOM      8  C   UNL     1      81.875  48.688  -2.929  1.00  0.00     0.000 C 
BRANCH   8   9
ATOM      9  C   UNL     1      81.927  50.214  -2.752  1.00  0.00     0.000 C 
BRANCH   9  10
ATOM     10  C   UNL     1      81.648  50.644  -1.302  1.00  0.00     0.000 C 
BRANCH  10  11
ATOM     11  C   UNL     1      80.879  51.975  -1.209  1.00  0.00     0.000 C 
BRANCH  11  12
ATOM     12  C   UNL     1      79.861  52.228  -2.339  1.00  0.00     0.006 C 
BRANCH  12  13
ATOM     13  C   UNL     1      79.719  53.700  -2.758  1.00  0.00     0.053 C 
BRANCH  13  14
ATOM     14  C   UNL     1      80.138  53.923  -4.178  1.00  0.00     0.041 C 
ATOM     15  O   UNL     1      80.172  55.089  -4.652  1.00  0.00    -0.550 OA
ATOM     16  O   UNL     1      80.459  52.841  -4.988  1.00  0.00    -0.550 OA
ENDBRANCH  13  14
ENDBRANCH  12  13
ENDBRANCH  11  12
ENDBRANCH  10  11
ENDBRANCH   9  10
ENDBRANCH   8   9
ENDBRANCH   7   8
ENDBRANCH   6   7
ENDBRANCH   5   6
ENDBRANCH   4   5
ENDBRANCH   3   4
ENDBRANCH   2   3
ENDBRANCH   1   2
BRANCH   1  17
ATOM     17  C   UNL     1      74.576  52.979  -3.977  1.00  0.00     0.000 C 
BRANCH  17  18
ATOM     18  C   UNL     1      73.565  54.141  -4.020  1.00  0.00     0.000 C 
BRANCH  18  19
ATOM     19  C   UNL     1      74.154  55.513  -4.399  1.00  0.00     0.000 C 
BRANCH  19  20
ATOM     20  C   UNL     1      73.770  56.675  -3.460  1.00  0.00     0.000 C 
BRANCH  20  21
ATOM     21  C   UNL     1      74.670  57.920  -3.563  1.00  0.00     0.000 C 
BRANCH  21  22
ATOM     22  C   UNL     1      73.876  59.234  -3.559  1.00  0.00    -0.000 C 
BRANCH  22  23
ATOM     23  C   UNL     1      74.081  59.993  -2.242  1.00  0.00    -0.000 C 
BRANCH  23  24
ATOM     24  C   UNL     1      72.906  59.758  -1.281  1.00  0.00    -0.000 C 
BRANCH  24  25
ATOM     25  C   UNL     1      71.540  59.795  -1.991  1.00  0.00    -0.000 C 
BRANCH  25  26
ATOM     26  C   UNL     1      70.734  58.482  -1.918  1.00  0.00    -0.000 C 
BRANCH  26  27
ATOM     27  C   UNL     1      69.234  58.614  -2.252  1.00  0.00    -0.000 C 
BRANCH  27  28
ATOM     28  C   UNL     1      68.299  58.651  -1.031  1.00  0.00    -0.000 C 
BRANCH  28  29
ATOM     29  C   UNL     1      67.203  59.718  -1.152  1.00  0.00    -0.003 C 
ATOM     30  C   UNL     1      67.033  60.171  -2.599  1.00  0.00     0.004 C 
ENDBRANCH  28  29
ENDBRANCH  27  28
ENDBRANCH  26  27
ENDBRANCH  25  26
ENDBRANCH  24  25
ENDBRANCH  23  24
ENDBRANCH  22  23
ENDBRANCH  21  22
ENDBRANCH  20  21
ENDBRANCH  19  20
ENDBRANCH  18  19
ENDBRANCH  17  18
ENDBRANCH   1  17
TORSDOF 26
ENDMDL
MODEL 7
REMARK VINA RESULT:    19.826      4.253     11.394
REMARK INTER + INTRA:          48.995
REMARK INTER:                  49.719
REMARK INTRA:                  -0.724
REMARK UNBOUND:                -0.965
REMARK SMILES CCCCCCCCCCCCCCCCCCCCCCCCCCCC(=O)[O-]
REMARK SMILES IDX 15 1 16 2 17 3 18 4 19 5 20 6 21 7 22 8 23 9 24 10 25 11
REMARK SMILES IDX 26 12 27 13 28 14 29 15 30 16 14 17 13 18 12 19 11 20 10 21
REMARK SMILES IDX 9 22 8 23 7 24 6 25 5 26 4 27 3 28 2 29 1 30
REMARK H PARENT
REMARK Flexibility Score: inf
ROOT
ATOM      1  C   UNL     1      73.752  55.030  -3.923  1.00  0.00     0.000 C 
ENDROOT
BRANCH   1   2
ATOM      2  C   UNL     1      74.713  56.228  -4.041  1.00  0.00     0.000 C 
BRANCH   2   3
ATOM      3  C   UNL     1      74.243  57.447  -3.233  1.00  0.00     0.000 C 
BRANCH   3   4
ATOM      4  C   UNL     1      74.344  58.764  -4.025  1.00  0.00     0.000 C 
BRANCH   4   5
ATOM      5  C   UNL     1      73.507  59.884  -3.387  1.00  0.00     0.000 C 
BRANCH   5   6
ATOM      6  C   UNL     1      73.535  59.843  -1.842  1.00  0.00     0.000 C 
BRANCH   6   7
ATOM      7  C   UNL     1      72.140  59.657  -1.226  1.00  0.00     0.000 C 
BRANCH   7   8
ATOM      8  C   UNL     1      71.206  58.859  -2.154  1.00  0.00     0.000 C 
BRANCH   8   9
ATOM      9  C   UNL     1      69.941  58.365  -1.434  1.00  0.00     0.000 C 
BRANCH   9  10
ATOM     10  C   UNL     1      68.663  58.628  -2.248  1.00  0.00     0.000 C 
BRANCH  10  11
ATOM     11  C   UNL     1      67.779  59.732  -1.638  1.00  0.00     0.000 C 
BRANCH  11  12
ATOM     12  C   UNL     1      68.199  61.176  -1.979  1.00  0.00     0.006 C 
BRANCH  12  13
ATOM     13  C   UNL     1      68.207  62.142  -0.783  1.00  0.00     0.053 C 
BRANCH  13  14
ATOM     14  C   UNL     1      68.932  63.414  -1.095  1.00  0.00     0.041 C 
ATOM     15  O   UNL     1      70.101  63.599  -0.664  1.00  0.00    -0.550 OA
ATOM     16  O   UNL     1      68.306  64.410  -1.835  1.00  0.00    -0.550 OA
ENDBRANCH  13  14
ENDBRANCH  12  13
ENDBRANCH  11  12
ENDBRANCH  10  11
ENDBRANCH   9  10
ENDBRANCH   8   9
ENDBRANCH   7   8
ENDBRANCH   6   7
ENDBRANCH   5   6
ENDBRANCH   4   5
ENDBRANCH   3   4
ENDBRANCH   2   3
ENDBRANCH   1   2
BRANCH   1  17
ATOM     17  C   UNL     1      74.479  53.668  -3.959  1.00  0.00     0.000 C 
BRANCH  17  18
ATOM     18  C   UNL     1      73.669  52.506  -3.354  1.00  0.00     0.000 C 
BRANCH  18  19
ATOM     19  C   UNL     1      74.411  51.159  -3.270  1.00  0.00     0.000 C 
BRANCH  19  20
ATOM     20  C   UNL     1      75.950  51.257  -3.222  1.00  0.00     0.000 C 
BRANCH  20  21
ATOM     21  C   UNL     1      76.683  50.551  -4.377  1.00  0.00     0.000 C 
BRANCH  21  22
ATOM     22  C   UNL     1      77.462  49.309  -3.920  1.00  0.00    -0.000 C 
BRANCH  22  23
ATOM     23  C   UNL     1      78.727  49.709  -3.152  1.00  0.00    -0.000 C 
BRANCH  23  24
ATOM     24  C   UNL     1      79.529  48.470  -2.726  1.00  0.00    -0.000 C 
BRANCH  24  25
ATOM     25  C   UNL     1      81.024  48.579  -3.081  1.00  0.00    -0.000 C 
BRANCH  25  26
ATOM     26  C   UNL     1      81.718  49.864  -2.585  1.00  0.00    -0.000 C 
BRANCH  26  27
ATOM     27  C   UNL     1      80.892  50.718  -1.601  1.00  0.00    -0.000 C 
BRANCH  27  28
ATOM     28  C   UNL     1      80.873  52.225  -1.910  1.00  0.00    -0.000 C 
BRANCH  28  29
ATOM     29  C   UNL     1      79.708  52.632  -2.823  1.00  0.00    -0.003 C 
ATOM     30  C   UNL     1      79.711  54.136  -3.082  1.00  0.00     0.004 C 
ENDBRANCH  28  29
ENDBRANCH  27  28
ENDBRANCH  26  27
ENDBRANCH  25  26
ENDBRANCH  24  25
ENDBRANCH  23  24
ENDBRANCH  22  23
ENDBRANCH  21  22
ENDBRANCH  20  21
ENDBRANCH  19  20
ENDBRANCH  18  19
ENDBRANCH  17  18
ENDBRANCH   1  17
TORSDOF 26
ENDMDL
MODEL 8
REMARK VINA RESULT:    20.028      4.429     11.643
REMARK INTER + INTRA:          49.504
REMARK INTER:                  50.756
REMARK INTRA:                  -1.252
REMARK UNBOUND:                -0.965
REMARK SMILES CCCCCCCCCCCCCCCCCCCCCCCCCCCC(=O)[O-]
REMARK SMILES IDX 15 1 16 2 17 3 18 4 19 5 20 6 21 7 22 8 23 9 24 10 25 11
REMARK SMILES IDX 26 12 27 13 28 14 29 15 30 16 14 17 13 18 12 19 11 20 10 21
REMARK SMILES IDX 9 22 8 23 7 24 6 25 5 26 4 27 3 28 2 29 1 30
REMARK H PARENT
REMARK Flexibility Score: inf
ROOT
ATOM      1  C   UNL     1      74.482  53.000  -3.481  1.00  0.00     0.000 C 
ENDROOT
BRANCH   1   2
ATOM      2  C   UNL     1      73.500  53.743  -4.405  1.00  0.00     0.000 C 
BRANCH   2   3
ATOM      3  C   UNL     1      73.066  55.103  -3.837  1.00  0.00     0.000 C 
BRANCH   3   4
ATOM      4  C   UNL     1      71.606  55.107  -3.345  1.00  0.00     0.000 C 
BRANCH   4   5
ATOM      5  C   UNL     1      71.011  56.524  -3.327  1.00  0.00     0.000 C 
BRANCH   5   6
ATOM      6  C   UNL     1      71.997  57.578  -2.773  1.00  0.00     0.000 C 
BRANCH   6   7
ATOM      7  C   UNL     1      71.322  58.587  -1.830  1.00  0.00     0.000 C 
BRANCH   7   8
ATOM      8  C   UNL     1      69.911  58.967  -2.313  1.00  0.00     0.000 C 
BRANCH   8   9
ATOM      9  C   UNL     1      68.832  58.697  -1.251  1.00  0.00     0.000 C 
BRANCH   9  10
ATOM     10  C   UNL     1      67.419  59.039  -1.752  1.00  0.00     0.000 C 
BRANCH  10  11
ATOM     11  C   UNL     1      67.287  60.499  -2.227  1.00  0.00     0.000 C 
BRANCH  11  12
ATOM     12  C   UNL     1      67.713  61.566  -1.199  1.00  0.00     0.006 C 
BRANCH  12  13
ATOM     13  C   UNL     1      68.967  62.366  -1.585  1.00  0.00     0.053 C 
BRANCH  13  14
ATOM     14  C   UNL     1      68.929  63.763  -1.048  1.00  0.00     0.041 C 
ATOM     15  O   UNL     1      69.749  64.123  -0.162  1.00  0.00    -0.550 OA
ATOM     16  O   UNL     1      67.969  64.659  -1.502  1.00  0.00    -0.550 OA
ENDBRANCH  13  14
ENDBRANCH  12  13
ENDBRANCH  11  12
ENDBRANCH  10  11
ENDBRANCH   9  10
ENDBRANCH   8   9
ENDBRANCH   7   8
ENDBRANCH   6   7
ENDBRANCH   5   6
ENDBRANCH   4   5
ENDBRANCH   3   4
ENDBRANCH   2   3
ENDBRANCH   1   2
BRANCH   1  17
ATOM     17  C   UNL     1      73.886  51.709  -2.879  1.00  0.00     0.000 C 
BRANCH  17  18
ATOM     18  C   UNL     1      74.770  50.460  -3.063  1.00  0.00     0.000 C 
BRANCH  18  19
ATOM     19  C   UNL     1      76.183  50.728  -3.611  1.00  0.00     0.000 C 
BRANCH  19  20
ATOM     20  C   UNL     1      76.952  49.477  -4.087  1.00  0.00     0.000 C 
BRANCH  20  21
ATOM     21  C   UNL     1      78.484  49.570  -3.968  1.00  0.00     0.000 C 
BRANCH  21  22
ATOM     22  C   UNL     1      79.027  48.900  -2.698  1.00  0.00    -0.000 C 
BRANCH  22  23
ATOM     23  C   UNL     1      80.311  48.119  -2.999  1.00  0.00    -0.000 C 
BRANCH  23  24
ATOM     24  C   UNL     1      81.468  49.070  -3.342  1.00  0.00    -0.000 C 
BRANCH  24  25
ATOM     25  C   UNL     1      82.044  49.779  -2.103  1.00  0.00    -0.000 C 
BRANCH  25  26
ATOM     26  C   UNL     1      81.971  51.319  -2.142  1.00  0.00    -0.000 C 
BRANCH  26  27
ATOM     27  C   UNL     1      81.221  51.971  -0.963  1.00  0.00    -0.000 C 
BRANCH  27  28
ATOM     28  C   UNL     1      79.686  51.900  -1.053  1.00  0.00    -0.000 C 
BRANCH  28  29
ATOM     29  C   UNL     1      79.126  52.645  -2.273  1.00  0.00    -0.003 C 
ATOM     30  C   UNL     1      80.242  53.040  -3.236  1.00  0.00     0.004 C 
ENDBRANCH  28  29
ENDBRANCH  27  28
ENDBRANCH  26  27
ENDBRANCH  25  26
ENDBRANCH  24  25
ENDBRANCH  23  24
ENDBRANCH  22  23
ENDBRANCH  21  22
ENDBRANCH  20  21
ENDBRANCH  19  20
ENDBRANCH  18  19
ENDBRANCH  17  18
ENDBRANCH   1  17
TORSDOF 26
ENDMDL
MODEL 9
REMARK VINA RESULT:    20.325      2.137      4.200
REMARK INTER + INTRA:          50.253
REMARK INTER:                  51.502
REMARK INTRA:                  -1.249
REMARK UNBOUND:                -0.965
REMARK SMILES CCCCCCCCCCCCCCCCCCCCCCCCCCCC(=O)[O-]
REMARK SMILES IDX 15 1 16 2 17 3 18 4 19 5 20 6 21 7 22 8 23 9 24 10 25 11
REMARK SMILES IDX 26 12 27 13 28 14 29 15 30 16 14 17 13 18 12 19 11 20 10 21
REMARK SMILES IDX 9 22 8 23 7 24 6 25 5 26 4 27 3 28 2 29 1 30
REMARK H PARENT
REMARK Flexibility Score: inf
ROOT
ATOM      1  C   UNL     1      73.737  54.494  -3.915  1.00  0.00     0.000 C 
ENDROOT
BRANCH   1   2
ATOM      2  C   UNL     1      74.736  53.381  -3.546  1.00  0.00     0.000 C 
BRANCH   2   3
ATOM      3  C   UNL     1      74.041  52.083  -3.106  1.00  0.00     0.000 C 
BRANCH   3   4
ATOM      4  C   UNL     1      74.759  50.819  -3.615  1.00  0.00     0.000 C 
BRANCH   4   5
ATOM      5  C   UNL     1      76.248  50.811  -3.232  1.00  0.00     0.000 C 
BRANCH   5   6
ATOM      6  C   UNL     1      76.943  49.474  -3.574  1.00  0.00     0.000 C 
BRANCH   6   7
ATOM      7  C   UNL     1      78.460  49.625  -3.772  1.00  0.00     0.000 C 
BRANCH   7   8
ATOM      8  C   UNL     1      79.255  48.705  -2.826  1.00  0.00     0.000 C 
BRANCH   8   9
ATOM      9  C   UNL     1      80.627  48.316  -3.400  1.00  0.00     0.000 C 
BRANCH   9  10
ATOM     10  C   UNL     1      81.789  48.974  -2.635  1.00  0.00     0.000 C 
BRANCH  10  11
ATOM     11  C   UNL     1      81.726  50.513  -2.657  1.00  0.00     0.000 C 
BRANCH  11  12
ATOM     12  C   UNL     1      80.960  51.158  -1.485  1.00  0.00     0.006 C 
BRANCH  12  13
ATOM     13  C   UNL     1      80.749  52.675  -1.613  1.00  0.00     0.053 C 
BRANCH  13  14
ATOM     14  C   UNL     1      79.734  53.015  -2.659  1.00  0.00     0.041 C 
ATOM     15  O   UNL     1      78.504  52.950  -2.393  1.00  0.00    -0.550 OA
ATOM     16  O   UNL     1      80.143  53.372  -3.938  1.00  0.00    -0.550 OA
ENDBRANCH  13  14
ENDBRANCH  12  13
ENDBRANCH  11  12
ENDBRANCH  10  11
ENDBRANCH   9  10
ENDBRANCH   8   9
ENDBRANCH   7   8
ENDBRANCH   6   7
ENDBRANCH   5   6
ENDBRANCH   4   5
ENDBRANCH   3   4
ENDBRANCH   2   3
ENDBRANCH   1   2
BRANCH   1  17
ATOM     17  C   UNL     1      74.425  55.835  -4.248  1.00  0.00     0.000 C 
BRANCH  17  18
ATOM     18  C   UNL     1      73.871  57.040  -3.463  1.00  0.00     0.000 C 
BRANCH  18  19
ATOM     19  C   UNL     1      74.614  58.370  -3.685  1.00  0.00     0.000 C 
BRANCH  19  20
ATOM     20  C   UNL     1      73.881  59.627  -3.171  1.00  0.00     0.000 C 
BRANCH  20  21
ATOM     21  C   UNL     1      73.364  59.532  -1.725  1.00  0.00     0.000 C 
BRANCH  21  22
ATOM     22  C   UNL     1      71.909  60.001  -1.578  1.00  0.00    -0.000 C 
BRANCH  22  23
ATOM     23  C   UNL     1      70.942  58.984  -2.196  1.00  0.00    -0.000 C 
BRANCH  23  24
ATOM     24  C   UNL     1      69.776  58.682  -1.244  1.00  0.00    -0.000 C 
BRANCH  24  25
ATOM     25  C   UNL     1      68.415  58.647  -1.962  1.00  0.00    -0.000 C 
BRANCH  25  26
ATOM     26  C   UNL     1      67.461  59.805  -1.606  1.00  0.00    -0.000 C 
BRANCH  26  27
ATOM     27  C   UNL     1      67.950  61.208  -2.020  1.00  0.00    -0.000 C 
BRANCH  27  28
ATOM     28  C   UNL     1      68.947  61.861  -1.046  1.00  0.00    -0.000 C 
BRANCH  28  29
ATOM     29  C   UNL     1      68.926  63.394  -1.110  1.00  0.00    -0.003 C 
ATOM     30  C   UNL     1      69.074  63.887  -2.547  1.00  0.00     0.004 C 
ENDBRANCH  28  29
ENDBRANCH  27  28
ENDBRANCH  26  27
ENDBRANCH  25  26
ENDBRANCH  24  25
ENDBRANCH  23  24
ENDBRANCH  22  23
ENDBRANCH  21  22
ENDBRANCH  20  21
ENDBRANCH  19  20
ENDBRANCH  18  19
ENDBRANCH  17  18
ENDBRANCH   1  17
TORSDOF 26
ENDMDL
