MODEL 1
REMARK VINA RESULT:    -4.877      0.000      0.000
REMARK INTER + INTRA:          -6.493
REMARK INTER:                  -6.303
REMARK INTRA:                  -0.190
REMARK UNBOUND:                -0.190
REMARK SMILES CCCCCCC(=O)[O-]
REMARK SMILES IDX 5 1 6 2 7 3 8 4 9 5 4 6 3 7 2 8 1 9
REMARK H PARENT
REMARK Flexibility Score: inf
ROOT
ATOM      1  C   UNL     1      15.966  20.425  71.064  1.00  0.00     0.006 C 
ENDROOT
BRANCH   1   2
ATOM      2  C   UNL     1      15.435  19.093  71.609  1.00  0.00     0.053 C 
BRANCH   2   3
ATOM      3  C   UNL     1      16.344  17.951  71.270  1.00  0.00     0.041 C 
ATOM      4  O   UNL     1      17.171  18.056  70.327  1.00  0.00    -0.550 OA
ATOM      5  O   UNL     1      16.254  16.758  71.977  1.00  0.00    -0.550 OA
ENDBRANCH   2   3
ENDBRANCH   1   2
BRANCH   1   6
ATOM      6  C   UNL     1      15.812  21.570  72.075  1.00  0.00     0.000 C 
BRANCH   6   7
ATOM      7  C   UNL     1      16.910  22.627  71.880  1.00  0.00    -0.000 C 
BRANCH   7   8
ATOM      8  C   UNL     1      18.126  22.081  71.117  1.00  0.00    -0.003 C 
ATOM      9  C   UNL     1      18.733  23.104  70.158  1.00  0.00     0.004 C 
ENDBRANCH   7   8
ENDBRANCH   6   7
ENDBRANCH   1   6
TORSDOF 5
ENDMDL
MODEL 2
REMARK VINA RESULT:    -4.766      1.142      1.630
REMARK INTER + INTRA:          -6.350
REMARK INTER:                  -6.155
REMARK INTRA:                  -0.194
REMARK UNBOUND:                -0.190
REMARK SMILES CCCCCCC(=O)[O-]
REMARK SMILES IDX 5 1 6 2 7 3 8 4 9 5 4 6 3 7 2 8 1 9
REMARK H PARENT
REMARK Flexibility Score: inf
ROOT
ATOM      1  C   UNL     1      17.782  20.491  70.171  1.00  0.00     0.006 C 
ENDROOT
BRANCH   1   2
ATOM      2  C   UNL     1      16.620  19.847  70.939  1.00  0.00     0.053 C 
BRANCH   2   3
ATOM      3  C   UNL     1      16.515  18.379  70.657  1.00  0.00     0.041 C 
ATOM      4  O   UNL     1      16.279  17.971  69.490  1.00  0.00    -0.550 OA
ATOM      5  O   UNL     1      16.644  17.462  71.693  1.00  0.00    -0.550 OA
ENDBRANCH   2   3
ENDBRANCH   1   2
BRANCH   1   6
ATOM      6  C   UNL     1      18.350  21.719  70.898  1.00  0.00     0.000 C 
BRANCH   6   7
ATOM      7  C   UNL     1      17.261  22.420  71.725  1.00  0.00    -0.000 C 
BRANCH   7   8
ATOM      8  C   UNL     1      17.359  23.951  71.653  1.00  0.00    -0.003 C 
ATOM      9  C   UNL     1      18.182  24.437  70.460  1.00  0.00     0.004 C 
ENDBRANCH   7   8
ENDBRANCH   6   7
ENDBRANCH   1   6
TORSDOF 5
ENDMDL
MODEL 3
REMARK VINA RESULT:    -4.369     17.464     18.576
REMARK INTER + INTRA:          -5.836
REMARK INTER:                  -5.759
REMARK INTRA:                  -0.077
REMARK UNBOUND:                -0.190
REMARK SMILES CCCCCCC(=O)[O-]
REMARK SMILES IDX 5 1 6 2 7 3 8 4 9 5 4 6 3 7 2 8 1 9
REMARK H PARENT
REMARK Flexibility Score: inf
ROOT
ATOM      1  C   UNL     1      11.120  29.644  55.810  1.00  0.00     0.006 C 
ENDROOT
BRANCH   1   2
ATOM      2  C   UNL     1      10.872  28.360  55.009  1.00  0.00     0.053 C 
BRANCH   2   3
ATOM      3  C   UNL     1      11.335  28.491  53.590  1.00  0.00     0.041 C 
ATOM      4  O   UNL     1      11.066  29.527  52.927  1.00  0.00    -0.550 OA
ATOM      5  O   UNL     1      12.037  27.453  52.989  1.00  0.00    -0.550 OA
ENDBRANCH   2   3
ENDBRANCH   1   2
BRANCH   1   6
ATOM      6  C   UNL     1      10.847  29.456  57.310  1.00  0.00     0.000 C 
BRANCH   6   7
ATOM      7  C   UNL     1      12.016  29.990  58.152  1.00  0.00    -0.000 C 
BRANCH   7   8
ATOM      8  C   UNL     1      11.938  29.545  59.620  1.00  0.00    -0.003 C 
ATOM      9  C   UNL     1      13.205  29.877  60.409  1.00  0.00     0.004 C 
ENDBRANCH   7   8
ENDBRANCH   6   7
ENDBRANCH   1   6
TORSDOF 5
ENDMDL
MODEL 4
REMARK VINA RESULT:    -4.195     11.405     12.147
REMARK INTER + INTRA:          -5.611
REMARK INTER:                  -5.350
REMARK INTRA:                  -0.262
REMARK UNBOUND:                -0.190
REMARK SMILES CCCCCCC(=O)[O-]
REMARK SMILES IDX 5 1 6 2 7 3 8 4 9 5 4 6 3 7 2 8 1 9
REMARK H PARENT
REMARK Flexibility Score: inf
ROOT
ATOM      1  C   UNL     1      16.637  15.993  61.108  1.00  0.00     0.006 C 
ENDROOT
BRANCH   1   2
ATOM      2  C   UNL     1      15.666  16.366  59.980  1.00  0.00     0.053 C 
BRANCH   2   3
ATOM      3  C   UNL     1      15.638  15.324  58.903  1.00  0.00     0.041 C 
ATOM      4  O   UNL     1      16.011  15.608  57.735  1.00  0.00    -0.550 OA
ATOM      5  O   UNL     1      15.169  14.047  59.184  1.00  0.00    -0.550 OA
ENDBRANCH   2   3
ENDBRANCH   1   2
BRANCH   1   6
ATOM      6  C   UNL     1      18.049  15.696  60.584  1.00  0.00     0.000 C 
BRANCH   6   7
ATOM      7  C   UNL     1      18.776  16.993  60.197  1.00  0.00    -0.000 C 
BRANCH   7   8
ATOM      8  C   UNL     1      20.088  17.188  60.971  1.00  0.00    -0.003 C 
ATOM      9  C   UNL     1      19.871  17.340  62.477  1.00  0.00     0.004 C 
ENDBRANCH   7   8
ENDBRANCH   6   7
ENDBRANCH   1   6
TORSDOF 5
ENDMDL
MODEL 5
REMARK VINA RESULT:    -4.194     17.806     18.902
REMARK INTER + INTRA:          -5.610
REMARK INTER:                  -5.374
REMARK INTRA:                  -0.236
REMARK UNBOUND:                -0.190
REMARK SMILES CCCCCCC(=O)[O-]
REMARK SMILES IDX 5 1 6 2 7 3 8 4 9 5 4 6 3 7 2 8 1 9
REMARK H PARENT
REMARK Flexibility Score: inf
ROOT
ATOM      1  C   UNL     1      11.231  29.923  55.624  1.00  0.00     0.006 C 
ENDROOT
BRANCH   1   2
ATOM      2  C   UNL     1      10.927  28.560  54.990  1.00  0.00     0.053 C 
BRANCH   2   3
ATOM      3  C   UNL     1      11.324  28.517  53.546  1.00  0.00     0.041 C 
ATOM      4  O   UNL     1      10.961  29.430  52.760  1.00  0.00    -0.550 OA
ATOM      5  O   UNL     1      12.070  27.449  53.062  1.00  0.00    -0.550 OA
ENDBRANCH   2   3
ENDBRANCH   1   2
BRANCH   1   6
ATOM      6  C   UNL     1      11.526  29.812  57.127  1.00  0.00     0.000 C 
BRANCH   6   7
ATOM      7  C   UNL     1      10.316  29.244  57.884  1.00  0.00    -0.000 C 
BRANCH   7   8
ATOM      8  C   UNL     1      10.692  28.078  58.810  1.00  0.00    -0.003 C 
ATOM      9  C   UNL     1      10.375  26.712  58.203  1.00  0.00     0.004 C 
ENDBRANCH   7   8
ENDBRANCH   6   7
ENDBRANCH   1   6
TORSDOF 5
ENDMDL
MODEL 6
REMARK VINA RESULT:    -4.179     11.934     12.720
REMARK INTER + INTRA:          -5.591
REMARK INTER:                  -5.435
REMARK INTRA:                  -0.156
REMARK UNBOUND:                -0.190
REMARK SMILES CCCCCCC(=O)[O-]
REMARK SMILES IDX 5 1 6 2 7 3 8 4 9 5 4 6 3 7 2 8 1 9
REMARK H PARENT
REMARK Flexibility Score: inf
ROOT
ATOM      1  C   UNL     1      16.811  16.731  59.447  1.00  0.00     0.006 C 
ENDROOT
BRANCH   1   2
ATOM      2  C   UNL     1      16.777  15.479  58.562  1.00  0.00     0.053 C 
BRANCH   2   3
ATOM      3  C   UNL     1      18.075  15.269  57.844  1.00  0.00     0.041 C 
ATOM      4  O   UNL     1      18.629  16.226  57.241  1.00  0.00    -0.550 OA
ATOM      5  O   UNL     1      18.657  14.008  57.814  1.00  0.00    -0.550 OA
ENDBRANCH   2   3
ENDBRANCH   1   2
BRANCH   1   6
ATOM      6  C   UNL     1      17.001  16.388  60.933  1.00  0.00     0.000 C 
BRANCH   6   7
ATOM      7  C   UNL     1      18.422  15.869  61.199  1.00  0.00    -0.000 C 
BRANCH   7   8
ATOM      8  C   UNL     1      19.490  16.959  61.030  1.00  0.00    -0.003 C 
ATOM      9  C   UNL     1      20.173  17.329  62.347  1.00  0.00     0.004 C 
ENDBRANCH   7   8
ENDBRANCH   6   7
ENDBRANCH   1   6
TORSDOF 5
ENDMDL
MODEL 7
REMARK VINA RESULT:    -4.059     10.390     11.176
REMARK INTER + INTRA:          -5.436
REMARK INTER:                  -5.121
REMARK INTRA:                  -0.314
REMARK UNBOUND:                -0.190
REMARK SMILES CCCCCCC(=O)[O-]
REMARK SMILES IDX 5 1 6 2 7 3 8 4 9 5 4 6 3 7 2 8 1 9
REMARK H PARENT
REMARK Flexibility Score: inf
ROOT
ATOM      1  C   UNL     1      16.411  16.113  59.538  1.00  0.00     0.006 C 
ENDROOT
BRANCH   1   2
ATOM      2  C   UNL     1      15.399  16.765  60.488  1.00  0.00     0.053 C 
BRANCH   2   3
ATOM      3  C   UNL     1      15.754  16.529  61.925  1.00  0.00     0.041 C 
ATOM      4  O   UNL     1      16.002  15.365  62.335  1.00  0.00    -0.550 OA
ATOM      5  O   UNL     1      15.778  17.593  62.818  1.00  0.00    -0.550 OA
ENDBRANCH   2   3
ENDBRANCH   1   2
BRANCH   1   6
ATOM      6  C   UNL     1      17.687  16.953  59.382  1.00  0.00     0.000 C 
BRANCH   6   7
ATOM      7  C   UNL     1      18.875  16.285  60.092  1.00  0.00    -0.000 C 
BRANCH   7   8
ATOM      8  C   UNL     1      19.788  17.300  60.796  1.00  0.00    -0.003 C 
ATOM      9  C   UNL     1      19.552  17.363  62.305  1.00  0.00     0.004 C 
ENDBRANCH   7   8
ENDBRANCH   6   7
ENDBRANCH   1   6
TORSDOF 5
ENDMDL
MODEL 8
REMARK VINA RESULT:    -4.025     10.956     12.135
REMARK INTER + INTRA:          -5.391
REMARK INTER:                  -5.126
REMARK INTRA:                  -0.265
REMARK UNBOUND:                -0.190
REMARK SMILES CCCCCCC(=O)[O-]
REMARK SMILES IDX 5 1 6 2 7 3 8 4 9 5 4 6 3 7 2 8 1 9
REMARK H PARENT
REMARK Flexibility Score: inf
ROOT
ATOM      1  C   UNL     1      18.689  16.401  59.768  1.00  0.00     0.006 C 
ENDROOT
BRANCH   1   2
ATOM      2  C   UNL     1      18.737  16.258  61.294  1.00  0.00     0.053 C 
BRANCH   2   3
ATOM      3  C   UNL     1      19.610  17.300  61.924  1.00  0.00     0.041 C 
ATOM      4  O   UNL     1      20.858  17.269  61.757  1.00  0.00    -0.550 OA
ATOM      5  O   UNL     1      19.048  18.287  62.723  1.00  0.00    -0.550 OA
ENDBRANCH   2   3
ENDBRANCH   1   2
BRANCH   1   6
ATOM      6  C   UNL     1      17.417  17.117  59.290  1.00  0.00     0.000 C 
BRANCH   6   7
ATOM      7  C   UNL     1      16.166  16.504  59.939  1.00  0.00    -0.000 C 
BRANCH   7   8
ATOM      8  C   UNL     1      15.453  15.504  59.017  1.00  0.00    -0.003 C 
ATOM      9  C   UNL     1      15.377  14.098  59.612  1.00  0.00     0.004 C 
ENDBRANCH   7   8
ENDBRANCH   6   7
ENDBRANCH   1   6
TORSDOF 5
ENDMDL
MODEL 9
REMARK VINA RESULT:    -3.697     10.806     12.000
REMARK INTER + INTRA:          -4.968
REMARK INTER:                  -4.778
REMARK INTRA:                  -0.191
REMARK UNBOUND:                -0.190
REMARK SMILES CCCCCCC(=O)[O-]
REMARK SMILES IDX 5 1 6 2 7 3 8 4 9 5 4 6 3 7 2 8 1 9
REMARK H PARENT
REMARK Flexibility Score: inf
ROOT
ATOM      1  C   UNL     1      15.367  16.044  59.908  1.00  0.00     0.006 C 
ENDROOT
BRANCH   1   2
ATOM      2  C   UNL     1      16.477  15.435  59.042  1.00  0.00     0.053 C 
BRANCH   2   3
ATOM      3  C   UNL     1      17.540  16.438  58.714  1.00  0.00     0.041 C 
ATOM      4  O   UNL     1      17.710  17.446  59.449  1.00  0.00    -0.550 OA
ATOM      5  O   UNL     1      18.322  16.276  57.577  1.00  0.00    -0.550 OA
ENDBRANCH   2   3
ENDBRANCH   1   2
BRANCH   1   6
ATOM      6  C   UNL     1      15.392  15.506  61.347  1.00  0.00     0.000 C 
BRANCH   6   7
ATOM      7  C   UNL     1      15.847  16.594  62.332  1.00  0.00    -0.000 C 
BRANCH   7   8
ATOM      8  C   UNL     1      14.720  17.048  63.272  1.00  0.00    -0.003 C 
ATOM      9  C   UNL     1      14.203  15.920  64.165  1.00  0.00     0.004 C 
ENDBRANCH   7   8
ENDBRANCH   6   7
ENDBRANCH   1   6
TORSDOF 5
ENDMDL
