MODEL 1
REMARK VINA RESULT:    -4.927      0.000      0.000
REMARK INTER + INTRA:          -6.306
REMARK INTER:                  -5.935
REMARK INTRA:                  -0.372
REMARK UNBOUND:                -0.372
REMARK SMILES CCCCc1oc(O)c2ccccc12
REMARK SMILES IDX 4 1 5 2 7 3 6 4 9 5 14 6 10 7 13 8 11 9 12 10 8 11 3 13 2 14
REMARK SMILES IDX 1 15
REMARK H PARENT 8 12
REMARK Flexibility Score: inf
ROOT
ATOM      1  C   UNL     1      48.463  27.632  18.729  1.00  0.00     0.076 C 
ENDROOT
BRANCH   1   2
ATOM      2  C   UNL     1      47.268  26.890  18.213  1.00  0.00     0.116 A 
ATOM      3  C   UNL     1      45.829  25.320  17.961  1.00  0.00     0.290 A 
ATOM      4  O   UNL     1      46.901  25.693  18.635  1.00  0.00    -0.430 OA
ATOM      5  C   UNL     1      45.481  26.302  17.062  1.00  0.00     0.066 A 
ATOM      6  C   UNL     1      46.399  27.306  17.219  1.00  0.00     0.027 A 
ATOM      7  C   UNL     1      44.449  26.383  16.130  1.00  0.00     0.016 A 
ATOM      8  C   UNL     1      46.354  28.468  16.449  1.00  0.00     0.012 A 
ATOM      9  C   UNL     1      44.375  27.546  15.339  1.00  0.00     0.001 A 
ATOM     10  C   UNL     1      45.323  28.583  15.498  1.00  0.00     0.001 A 
BRANCH   3  11
ATOM     11  O   UNL     1      45.166  24.113  18.143  1.00  0.00    -0.480 OA
ATOM     12  H   UNL     1      44.182  24.098  18.378  1.00  0.00     0.297 HD
ENDBRANCH   3  11
ENDBRANCH   1   2
BRANCH   1  13
ATOM     13  C   UNL     1      49.748  26.852  18.424  1.00  0.00     0.008 C 
BRANCH  13  14
ATOM     14  C   UNL     1      50.696  27.620  17.490  1.00  0.00    -0.003 C 
ATOM     15  C   UNL     1      49.951  28.399  16.406  1.00  0.00     0.004 C 
ENDBRANCH  13  14
ENDBRANCH   1  13
TORSDOF 4
ENDMDL
MODEL 2
REMARK VINA RESULT:    -4.347      9.883     10.742
REMARK INTER + INTRA:          -5.608
REMARK INTER:                  -5.062
REMARK INTRA:                  -0.546
REMARK UNBOUND:                -0.372
REMARK SMILES CCCCc1oc(O)c2ccccc12
REMARK SMILES IDX 4 1 5 2 7 3 6 4 9 5 14 6 10 7 13 8 11 9 12 10 8 11 3 13 2 14
REMARK SMILES IDX 1 15
REMARK H PARENT 8 12
REMARK Flexibility Score: inf
ROOT
ATOM      1  C   UNL     1      51.030  26.889   7.758  1.00  0.00     0.076 C 
ENDROOT
BRANCH   1   2
ATOM      2  C   UNL     1      49.785  26.182   7.317  1.00  0.00     0.116 A 
ATOM      3  C   UNL     1      48.525  24.679   6.449  1.00  0.00     0.290 A 
ATOM      4  O   UNL     1      49.775  24.999   6.728  1.00  0.00    -0.430 OA
ATOM      5  C   UNL     1      47.685  25.686   6.863  1.00  0.00     0.066 A 
ATOM      6  C   UNL     1      48.486  26.649   7.416  1.00  0.00     0.027 A 
ATOM      7  C   UNL     1      46.301  25.828   6.790  1.00  0.00     0.016 A 
ATOM      8  C   UNL     1      47.960  27.832   7.935  1.00  0.00     0.012 A 
ATOM      9  C   UNL     1      45.739  27.011   7.308  1.00  0.00     0.001 A 
ATOM     10  C   UNL     1      46.565  28.007   7.878  1.00  0.00     0.001 A 
BRANCH   3  11
ATOM     11  O   UNL     1      48.136  23.499   5.827  1.00  0.00    -0.480 OA
ATOM     12  H   UNL     1      48.775  23.008   5.214  1.00  0.00     0.297 HD
ENDBRANCH   3  11
ENDBRANCH   1   2
BRANCH   1  13
ATOM     13  C   UNL     1      51.740  27.523   6.555  1.00  0.00     0.008 C 
BRANCH  13  14
ATOM     14  C   UNL     1      51.194  28.918   6.217  1.00  0.00    -0.003 C 
ATOM     15  C   UNL     1      50.432  28.946   4.891  1.00  0.00     0.004 C 
ENDBRANCH  13  14
ENDBRANCH   1  13
TORSDOF 4
ENDMDL
MODEL 3
REMARK VINA RESULT:    -4.333     10.552     12.260
REMARK INTER + INTRA:          -5.592
REMARK INTER:                  -5.325
REMARK INTRA:                  -0.267
REMARK UNBOUND:                -0.372
REMARK SMILES CCCCc1oc(O)c2ccccc12
REMARK SMILES IDX 4 1 5 2 7 3 6 4 9 5 14 6 10 7 13 8 11 9 12 10 8 11 3 13 2 14
REMARK SMILES IDX 1 15
REMARK H PARENT 8 12
REMARK Flexibility Score: inf
ROOT
ATOM      1  C   UNL     1      45.533  25.586   6.858  1.00  0.00     0.076 C 
ENDROOT
BRANCH   1   2
ATOM      2  C   UNL     1      46.906  25.482   6.269  1.00  0.00     0.116 A 
ATOM      3  C   UNL     1      48.496  24.869   4.966  1.00  0.00     0.290 A 
ATOM      4  O   UNL     1      47.201  24.762   5.200  1.00  0.00    -0.430 OA
ATOM      5  C   UNL     1      49.074  25.681   5.914  1.00  0.00     0.066 A 
ATOM      6  C   UNL     1      48.062  26.074   6.748  1.00  0.00     0.027 A 
ATOM      7  C   UNL     1      50.391  26.093   6.104  1.00  0.00     0.016 A 
ATOM      8  C   UNL     1      48.295  26.906   7.843  1.00  0.00     0.012 A 
ATOM      9  C   UNL     1      50.659  26.936   7.200  1.00  0.00     0.001 A 
ATOM     10  C   UNL     1      49.616  27.341   8.064  1.00  0.00     0.001 A 
BRANCH   3  11
ATOM     11  O   UNL     1      49.158  24.244   3.917  1.00  0.00    -0.480 OA
ATOM     12  H   UNL     1      48.670  23.587   3.321  1.00  0.00     0.297 HD
ENDBRANCH   3  11
ENDBRANCH   1   2
BRANCH   1  13
ATOM     13  C   UNL     1      44.470  25.500   5.755  1.00  0.00     0.008 C 
BRANCH  13  14
ATOM     14  C   UNL     1      43.538  24.291   5.928  1.00  0.00    -0.003 C 
ATOM     15  C   UNL     1      43.890  23.136   4.992  1.00  0.00     0.004 C 
ENDBRANCH  13  14
ENDBRANCH   1  13
TORSDOF 4
ENDMDL
MODEL 4
REMARK VINA RESULT:    -4.299      9.715     11.232
REMARK INTER + INTRA:          -5.550
REMARK INTER:                  -4.991
REMARK INTRA:                  -0.559
REMARK UNBOUND:                -0.372
REMARK SMILES CCCCc1oc(O)c2ccccc12
REMARK SMILES IDX 4 1 5 2 7 3 6 4 9 5 14 6 10 7 13 8 11 9 12 10 8 11 3 13 2 14
REMARK SMILES IDX 1 15
REMARK H PARENT 8 12
REMARK Flexibility Score: inf
ROOT
ATOM      1  C   UNL     1      46.109  27.327   6.023  1.00  0.00     0.076 C 
ENDROOT
BRANCH   1   2
ATOM      2  C   UNL     1      47.296  26.452   6.290  1.00  0.00     0.116 A 
ATOM      3  C   UNL     1      48.441  24.691   6.724  1.00  0.00     0.290 A 
ATOM      4  O   UNL     1      47.224  25.148   6.496  1.00  0.00    -0.430 OA
ATOM      5  C   UNL     1      49.344  25.728   6.672  1.00  0.00     0.066 A 
ATOM      6  C   UNL     1      48.616  26.854   6.396  1.00  0.00     0.027 A 
ATOM      7  C   UNL     1      50.725  25.765   6.849  1.00  0.00     0.016 A 
ATOM      8  C   UNL     1      49.219  28.107   6.282  1.00  0.00     0.012 A 
ATOM      9  C   UNL     1      51.364  27.015   6.737  1.00  0.00     0.001 A 
ATOM     10  C   UNL     1      50.614  28.180   6.455  1.00  0.00     0.001 A 
BRANCH   3  11
ATOM     11  O   UNL     1      48.745  23.360   6.980  1.00  0.00    -0.480 OA
ATOM     12  H   UNL     1      49.347  22.842   6.352  1.00  0.00     0.297 HD
ENDBRANCH   3  11
ENDBRANCH   1   2
BRANCH   1  13
ATOM     13  C   UNL     1      45.428  27.719   7.340  1.00  0.00     0.008 C 
BRANCH  13  14
ATOM     14  C   UNL     1      45.962  29.042   7.909  1.00  0.00    -0.003 C 
ATOM     15  C   UNL     1      46.906  28.835   9.094  1.00  0.00     0.004 C 
ENDBRANCH  13  14
ENDBRANCH   1  13
TORSDOF 4
ENDMDL
MODEL 5
REMARK VINA RESULT:    -4.298     10.674     12.096
REMARK INTER + INTRA:          -5.549
REMARK INTER:                  -5.194
REMARK INTRA:                  -0.355
REMARK UNBOUND:                -0.372
REMARK SMILES CCCCc1oc(O)c2ccccc12
REMARK SMILES IDX 4 1 5 2 7 3 6 4 9 5 14 6 10 7 13 8 11 9 12 10 8 11 3 13 2 14
REMARK SMILES IDX 1 15
REMARK H PARENT 8 12
REMARK Flexibility Score: inf
ROOT
ATOM      1  C   UNL     1      46.585  25.127   4.235  1.00  0.00     0.076 C 
ENDROOT
BRANCH   1   2
ATOM      2  C   UNL     1      46.835  25.841   5.527  1.00  0.00     0.116 A 
ATOM      3  C   UNL     1      46.444  26.928   7.335  1.00  0.00     0.290 A 
ATOM      4  O   UNL     1      45.882  26.347   6.291  1.00  0.00    -0.430 OA
ATOM      5  C   UNL     1      47.811  26.804   7.255  1.00  0.00     0.066 A 
ATOM      6  C   UNL     1      48.065  26.113   6.101  1.00  0.00     0.027 A 
ATOM      7  C   UNL     1      48.833  27.246   8.092  1.00  0.00     0.016 A 
ATOM      8  C   UNL     1      49.366  25.815   5.695  1.00  0.00     0.012 A 
ATOM      9  C   UNL     1      50.158  26.959   7.711  1.00  0.00     0.001 A 
ATOM     10  C   UNL     1      50.423  26.247   6.519  1.00  0.00     0.001 A 
BRANCH   3  11
ATOM     11  O   UNL     1      45.742  27.565   8.351  1.00  0.00    -0.480 OA
ATOM     12  H   UNL     1      44.730  27.571   8.349  1.00  0.00     0.297 HD
ENDBRANCH   3  11
ENDBRANCH   1   2
BRANCH   1  13
ATOM     13  C   UNL     1      46.667  23.609   4.439  1.00  0.00     0.008 C 
BRANCH  13  14
ATOM     14  C   UNL     1      47.966  23.009   3.880  1.00  0.00    -0.003 C 
ATOM     15  C   UNL     1      47.955  21.480   3.875  1.00  0.00     0.004 C 
ENDBRANCH  13  14
ENDBRANCH   1  13
TORSDOF 4
ENDMDL
MODEL 6
REMARK VINA RESULT:    -4.222     10.419     12.139
REMARK INTER + INTRA:          -5.457
REMARK INTER:                  -5.205
REMARK INTRA:                  -0.252
REMARK UNBOUND:                -0.372
REMARK SMILES CCCCc1oc(O)c2ccccc12
REMARK SMILES IDX 4 1 5 2 7 3 6 4 9 5 14 6 10 7 13 8 11 9 12 10 8 11 3 13 2 14
REMARK SMILES IDX 1 15
REMARK H PARENT 8 12
REMARK Flexibility Score: inf
ROOT
ATOM      1  C   UNL     1      46.860  24.107   4.615  1.00  0.00     0.076 C 
ENDROOT
BRANCH   1   2
ATOM      2  C   UNL     1      46.985  25.096   5.733  1.00  0.00     0.116 A 
ATOM      3  C   UNL     1      46.414  26.476   7.272  1.00  0.00     0.290 A 
ATOM      4  O   UNL     1      45.956  25.632   6.367  1.00  0.00    -0.430 OA
ATOM      5  C   UNL     1      47.789  26.501   7.232  1.00  0.00     0.066 A 
ATOM      6  C   UNL     1      48.157  25.622   6.249  1.00  0.00     0.027 A 
ATOM      7  C   UNL     1      48.726  27.222   7.968  1.00  0.00     0.016 A 
ATOM      8  C   UNL     1      49.496  25.402   5.926  1.00  0.00     0.012 A 
ATOM      9  C   UNL     1      50.086  27.020   7.667  1.00  0.00     0.001 A 
ATOM     10  C   UNL     1      50.469  26.115   6.651  1.00  0.00     0.001 A 
BRANCH   3  11
ATOM     11  O   UNL     1      45.612  27.221   8.128  1.00  0.00    -0.480 OA
ATOM     12  H   UNL     1      45.196  28.090   7.815  1.00  0.00     0.297 HD
ENDBRANCH   3  11
ENDBRANCH   1   2
BRANCH   1  13
ATOM     13  C   UNL     1      45.436  24.123   4.044  1.00  0.00     0.008 C 
BRANCH  13  14
ATOM     14  C   UNL     1      44.710  22.783   4.234  1.00  0.00    -0.003 C 
ATOM     15  C   UNL     1      43.506  22.893   5.170  1.00  0.00     0.004 C 
ENDBRANCH  13  14
ENDBRANCH   1  13
TORSDOF 4
ENDMDL
MODEL 7
REMARK VINA RESULT:    -4.198     11.640     13.460
REMARK INTER + INTRA:          -5.429
REMARK INTER:                  -5.006
REMARK INTRA:                  -0.423
REMARK UNBOUND:                -0.372
REMARK SMILES CCCCc1oc(O)c2ccccc12
REMARK SMILES IDX 4 1 5 2 7 3 6 4 9 5 14 6 10 7 13 8 11 9 12 10 8 11 3 13 2 14
REMARK SMILES IDX 1 15
REMARK H PARENT 8 12
REMARK Flexibility Score: inf
ROOT
ATOM      1  C   UNL     1      44.019  23.151   4.006  1.00  0.00     0.076 C 
ENDROOT
BRANCH   1   2
ATOM      2  C   UNL     1      45.487  23.263   4.283  1.00  0.00     0.116 A 
ATOM      3  C   UNL     1      47.573  22.766   4.308  1.00  0.00     0.290 A 
ATOM      4  O   UNL     1      46.386  22.384   3.875  1.00  0.00    -0.430 OA
ATOM      5  C   UNL     1      47.452  23.932   5.028  1.00  0.00     0.066 A 
ATOM      6  C   UNL     1      46.121  24.252   5.015  1.00  0.00     0.027 A 
ATOM      7  C   UNL     1      48.395  24.719   5.686  1.00  0.00     0.016 A 
ATOM      8  C   UNL     1      45.631  25.383   5.667  1.00  0.00     0.012 A 
ATOM      9  C   UNL     1      47.933  25.870   6.352  1.00  0.00     0.001 A 
ATOM     10  C   UNL     1      46.558  26.200   6.343  1.00  0.00     0.001 A 
BRANCH   3  11
ATOM     11  O   UNL     1      48.756  22.080   4.065  1.00  0.00    -0.480 OA
ATOM     12  H   UNL     1      48.998  21.790   3.126  1.00  0.00     0.297 HD
ENDBRANCH   3  11
ENDBRANCH   1   2
BRANCH   1  13
ATOM     13  C   UNL     1      43.473  21.822   4.544  1.00  0.00     0.008 C 
BRANCH  13  14
ATOM     14  C   UNL     1      42.656  22.000   5.833  1.00  0.00    -0.003 C 
ATOM     15  C   UNL     1      42.397  23.469   6.168  1.00  0.00     0.004 C 
ENDBRANCH  13  14
ENDBRANCH   1  13
TORSDOF 4
ENDMDL
MODEL 8
REMARK VINA RESULT:    -4.171     10.019     11.574
REMARK INTER + INTRA:          -5.397
REMARK INTER:                  -5.156
REMARK INTRA:                  -0.241
REMARK UNBOUND:                -0.372
REMARK SMILES CCCCc1oc(O)c2ccccc12
REMARK SMILES IDX 4 1 5 2 7 3 6 4 9 5 14 6 10 7 13 8 11 9 12 10 8 11 3 13 2 14
REMARK SMILES IDX 1 15
REMARK H PARENT 8 12
REMARK Flexibility Score: inf
ROOT
ATOM      1  C   UNL     1      48.380  24.636   6.680  1.00  0.00     0.076 C 
ENDROOT
BRANCH   1   2
ATOM      2  C   UNL     1      48.565  26.035   7.182  1.00  0.00     0.116 A 
ATOM      3  C   UNL     1      48.079  27.977   7.951  1.00  0.00     0.290 A 
ATOM      4  O   UNL     1      47.578  26.806   7.606  1.00  0.00    -0.430 OA
ATOM      5  C   UNL     1      49.438  27.981   7.744  1.00  0.00     0.066 A 
ATOM      6  C   UNL     1      49.752  26.742   7.251  1.00  0.00     0.027 A 
ATOM      7  C   UNL     1      50.405  28.964   7.942  1.00  0.00     0.016 A 
ATOM      8  C   UNL     1      51.061  26.397   6.915  1.00  0.00     0.012 A 
ATOM      9  C   UNL     1      51.736  28.646   7.614  1.00  0.00     0.001 A 
ATOM     10  C   UNL     1      52.063  27.368   7.103  1.00  0.00     0.001 A 
BRANCH   3  11
ATOM     11  O   UNL     1      47.328  29.037   8.445  1.00  0.00    -0.480 OA
ATOM     12  H   UNL     1      47.328  29.931   7.970  1.00  0.00     0.297 HD
ENDBRANCH   3  11
ENDBRANCH   1   2
BRANCH   1  13
ATOM     13  C   UNL     1      48.263  24.628   5.151  1.00  0.00     0.008 C 
BRANCH  13  14
ATOM     14  C   UNL     1      47.655  23.324   4.614  1.00  0.00    -0.003 C 
ATOM     15  C   UNL     1      46.178  23.470   4.246  1.00  0.00     0.004 C 
ENDBRANCH  13  14
ENDBRANCH   1  13
TORSDOF 4
ENDMDL
MODEL 9
REMARK VINA RESULT:    -4.139     10.985     11.977
REMARK INTER + INTRA:          -5.358
REMARK INTER:                  -4.899
REMARK INTRA:                  -0.459
REMARK UNBOUND:                -0.372
REMARK SMILES CCCCc1oc(O)c2ccccc12
REMARK SMILES IDX 4 1 5 2 7 3 6 4 9 5 14 6 10 7 13 8 11 9 12 10 8 11 3 13 2 14
REMARK SMILES IDX 1 15
REMARK H PARENT 8 12
REMARK Flexibility Score: inf
ROOT
ATOM      1  C   UNL     1      49.438  25.705   5.370  1.00  0.00     0.076 C 
ENDROOT
BRANCH   1   2
ATOM      2  C   UNL     1      48.215  24.886   5.093  1.00  0.00     0.116 A 
ATOM      3  C   UNL     1      46.994  23.256   4.419  1.00  0.00     0.290 A 
ATOM      4  O   UNL     1      48.237  23.683   4.546  1.00  0.00    -0.430 OA
ATOM      5  C   UNL     1      46.125  24.210   4.895  1.00  0.00     0.066 A 
ATOM      6  C   UNL     1      46.900  25.253   5.325  1.00  0.00     0.027 A 
ATOM      7  C   UNL     1      44.734  24.240   4.975  1.00  0.00     0.016 A 
ATOM      8  C   UNL     1      46.339  26.410   5.863  1.00  0.00     0.012 A 
ATOM      9  C   UNL     1      44.137  25.394   5.517  1.00  0.00     0.001 A 
ATOM     10  C   UNL     1      44.936  26.474   5.959  1.00  0.00     0.001 A 
BRANCH   3  11
ATOM     11  O   UNL     1      46.638  22.025   3.882  1.00  0.00    -0.480 OA
ATOM     12  H   UNL     1      45.799  21.934   3.321  1.00  0.00     0.297 HD
ENDBRANCH   3  11
ENDBRANCH   1   2
BRANCH   1  13
ATOM     13  C   UNL     1      49.878  25.532   6.829  1.00  0.00     0.008 C 
BRANCH  13  14
ATOM     14  C   UNL     1      50.095  26.875   7.541  1.00  0.00    -0.003 C 
ATOM     15  C   UNL     1      48.857  27.345   8.305  1.00  0.00     0.004 C 
ENDBRANCH  13  14
ENDBRANCH   1  13
TORSDOF 4
ENDMDL
