MODEL 1
REMARK VINA RESULT:    -2.180      0.000      0.000
REMARK INTER + INTRA:          -2.180
REMARK INTER:                  -2.180
REMARK INTRA:                   0.000
REMARK UNBOUND:                 0.000
REMARK SMILES CC(=O)[O-]
REMARK SMILES IDX 1 1 2 2 3 3 4 4
REMARK H PARENT
REMARK Flexibility Score: inf
ROOT
ATOM      1  C   UNL     1       8.181 -13.323   6.959  1.00  0.00     0.063 C 
ATOM      2  C   UNL     1       8.475 -14.773   7.147  1.00  0.00     0.038 C 
ATOM      3  O   UNL     1       7.568 -15.628   6.974  1.00  0.00    -0.550 OA
ATOM      4  O   UNL     1       9.764 -15.187   7.460  1.00  0.00    -0.550 OA
ENDROOT
TORSDOF 0
ENDMDL
MODEL 2
REMARK VINA RESULT:    -2.161      6.672      7.207
REMARK INTER + INTRA:          -2.161
REMARK INTER:                  -2.161
REMARK INTRA:                   0.000
REMARK UNBOUND:                 0.000
REMARK SMILES CC(=O)[O-]
REMARK SMILES IDX 1 1 2 2 3 3 4 4
REMARK H PARENT
REMARK Flexibility Score: inf
ROOT
ATOM      1  C   UNL     1      12.392  -8.592   4.128  1.00  0.00     0.063 C 
ATOM      2  C   UNL     1      13.045  -9.722   4.849  1.00  0.00     0.038 C 
ATOM      3  O   UNL     1      12.373 -10.445   5.630  1.00  0.00    -0.550 OA
ATOM      4  O   UNL     1      14.384 -10.014   4.620  1.00  0.00    -0.550 OA
ENDROOT
TORSDOF 0
ENDMDL
MODEL 3
REMARK VINA RESULT:    -2.159      6.761      7.249
REMARK INTER + INTRA:          -2.159
REMARK INTER:                  -2.159
REMARK INTRA:                   0.000
REMARK UNBOUND:                 0.000
REMARK SMILES CC(=O)[O-]
REMARK SMILES IDX 1 1 2 2 3 3 4 4
REMARK H PARENT
REMARK Flexibility Score: inf
ROOT
ATOM      1  C   UNL     1       3.549 -17.493   3.894  1.00  0.00     0.063 C 
ATOM      2  C   UNL     1       3.922 -18.788   3.254  1.00  0.00     0.038 C 
ATOM      3  O   UNL     1       3.569 -19.031   2.071  1.00  0.00    -0.550 OA
ATOM      4  O   UNL     1       4.707 -19.705   3.942  1.00  0.00    -0.550 OA
ENDROOT
TORSDOF 0
ENDMDL
MODEL 4
REMARK VINA RESULT:    -2.156     12.687     13.103
REMARK INTER + INTRA:          -2.156
REMARK INTER:                  -2.156
REMARK INTRA:                   0.000
REMARK UNBOUND:                 0.000
REMARK SMILES CC(=O)[O-]
REMARK SMILES IDX 1 1 2 2 3 3 4 4
REMARK H PARENT
REMARK Flexibility Score: inf
ROOT
ATOM      1  C   UNL     1      13.347  -7.043  -2.681  1.00  0.00     0.063 C 
ATOM      2  C   UNL     1      14.518  -7.675  -2.008  1.00  0.00     0.038 C 
ATOM      3  O   UNL     1      14.520  -7.827  -0.759  1.00  0.00    -0.550 OA
ATOM      4  O   UNL     1      15.585  -8.146  -2.762  1.00  0.00    -0.550 OA
ENDROOT
TORSDOF 0
ENDMDL
MODEL 5
REMARK VINA RESULT:    -2.154      7.010      7.464
REMARK INTER + INTRA:          -2.154
REMARK INTER:                  -2.154
REMARK INTRA:                   0.000
REMARK UNBOUND:                 0.000
REMARK SMILES CC(=O)[O-]
REMARK SMILES IDX 1 1 2 2 3 3 4 4
REMARK H PARENT
REMARK Flexibility Score: inf
ROOT
ATOM      1  C   UNL     1      12.123 -10.811   5.130  1.00  0.00     0.063 C 
ATOM      2  C   UNL     1      13.072  -9.733   4.729  1.00  0.00     0.038 C 
ATOM      3  O   UNL     1      14.308  -9.965   4.688  1.00  0.00    -0.550 OA
ATOM      4  O   UNL     1      12.590  -8.487   4.347  1.00  0.00    -0.550 OA
ENDROOT
TORSDOF 0
ENDMDL
MODEL 6
REMARK VINA RESULT:    -2.153     16.078     16.250
REMARK INTER + INTRA:          -2.153
REMARK INTER:                  -2.153
REMARK INTRA:                   0.000
REMARK UNBOUND:                 0.000
REMARK SMILES CC(=O)[O-]
REMARK SMILES IDX 1 1 2 2 3 3 4 4
REMARK H PARENT
REMARK Flexibility Score: inf
ROOT
ATOM      1  C   UNL     1      12.110  -9.590  -6.739  1.00  0.00     0.063 C 
ATOM      2  C   UNL     1      11.522 -10.011  -8.044  1.00  0.00     0.038 C 
ATOM      3  O   UNL     1      12.139 -10.824  -8.779  1.00  0.00    -0.550 OA
ATOM      4  O   UNL     1      10.269  -9.549  -8.424  1.00  0.00    -0.550 OA
ENDROOT
TORSDOF 0
ENDMDL
MODEL 7
REMARK VINA RESULT:    -2.146     12.602     12.946
REMARK INTER + INTRA:          -2.146
REMARK INTER:                  -2.146
REMARK INTRA:                   0.000
REMARK UNBOUND:                 0.000
REMARK SMILES CC(=O)[O-]
REMARK SMILES IDX 1 1 2 2 3 3 4 4
REMARK H PARENT
REMARK Flexibility Score: inf
ROOT
ATOM      1  C   UNL     1       2.334 -18.149  -2.896  1.00  0.00     0.063 C 
ATOM      2  C   UNL     1       3.163 -18.959  -3.833  1.00  0.00     0.038 C 
ATOM      3  O   UNL     1       3.553 -18.462  -4.922  1.00  0.00    -0.550 OA
ATOM      4  O   UNL     1       3.555 -20.245  -3.483  1.00  0.00    -0.550 OA
ENDROOT
TORSDOF 0
ENDMDL
MODEL 8
REMARK VINA RESULT:    -2.119     15.939     16.122
REMARK INTER + INTRA:          -2.119
REMARK INTER:                  -2.119
REMARK INTRA:                   0.000
REMARK UNBOUND:                 0.000
REMARK SMILES CC(=O)[O-]
REMARK SMILES IDX 1 1 2 2 3 3 4 4
REMARK H PARENT
REMARK Flexibility Score: inf
ROOT
ATOM      1  C   UNL     1       7.647 -14.089  -8.665  1.00  0.00     0.063 C 
ATOM      2  C   UNL     1       6.621 -15.161  -8.813  1.00  0.00     0.038 C 
ATOM      3  O   UNL     1       6.965 -16.318  -9.171  1.00  0.00    -0.550 OA
ATOM      4  O   UNL     1       5.292 -14.901  -8.503  1.00  0.00    -0.550 OA
ENDROOT
TORSDOF 0
ENDMDL
MODEL 9
REMARK VINA RESULT:    -2.115     15.886     16.074
REMARK INTER + INTRA:          -2.115
REMARK INTER:                  -2.115
REMARK INTRA:                   0.000
REMARK UNBOUND:                 0.000
REMARK SMILES CC(=O)[O-]
REMARK SMILES IDX 1 1 2 2 3 3 4 4
REMARK H PARENT
REMARK Flexibility Score: inf
ROOT
ATOM      1  C   UNL     1       5.330 -14.689  -8.069  1.00  0.00     0.063 C 
ATOM      2  C   UNL     1       6.616 -14.993  -8.761  1.00  0.00     0.038 C 
ATOM      3  O   UNL     1       7.458 -14.078  -8.957  1.00  0.00    -0.550 OA
ATOM      4  O   UNL     1       6.912 -16.296  -9.141  1.00  0.00    -0.550 OA
ENDROOT
TORSDOF 0
ENDMDL
