MODEL 1
REMARK VINA RESULT:     4.314      0.000      0.000
REMARK INTER + INTRA:           5.602
REMARK INTER:                   5.322
REMARK INTRA:                   0.280
REMARK UNBOUND:                 0.280
REMARK SMILES C=C1[C@H]2CC[C@@H]3[C@@H]2C(C)(C)CCC[C@]13C
REMARK SMILES IDX 14 1 6 2 7 3 3 4 2 5 1 6 4 7 5 8 15 9 8 10 9 11 10 12 11 13
REMARK SMILES IDX 13 15 12 16
REMARK H PARENT
REMARK Flexibility Score: 80.00
ROOT
ATOM      1  C   UNL     1     151.348 136.879 160.201  1.00  0.00    -0.008 C 
ATOM      2  C   UNL     1     151.648 137.631 161.496  1.00  0.00     0.003 C 
ATOM      3  C   UNL     1     153.158 137.350 161.554  1.00  0.00     0.006 C 
ATOM      4  C   UNL     1     153.471 138.187 160.323  1.00  0.00     0.019 C 
ATOM      5  C   UNL     1     152.487 137.485 159.357  1.00  0.00    -0.068 C 
ATOM      6  C   UNL     1     152.648 137.364 158.037  1.00  0.00     0.009 C 
ATOM      7  C   UNL     1     152.877 139.547 160.655  1.00  0.00     0.008 C 
ATOM      8  C   UNL     1     151.594 139.177 161.400  1.00  0.00     0.005 C 
ATOM      9  C   UNL     1     149.952 137.190 159.629  1.00  0.00     0.016 C 
ENDROOT
BRANCH   3  10
ATOM     10  C   UNL     1     153.570 136.696 162.891  1.00  0.00    -0.032 C 
ATOM     11  C   UNL     1     155.115 136.681 163.003  1.00  0.00     0.011 C 
ATOM     12  C   UNL     1     153.030 137.462 164.124  1.00  0.00     0.011 C 
BRANCH  10  13
ATOM     13  C   UNL     1     153.007 135.196 162.858  1.00  0.00     0.007 CG0
ATOM     14  G   UNL     1     151.682 134.868 162.034  1.00  0.00     0.000 G0
ENDBRANCH  10  13
ENDBRANCH   3  10
BRANCH   1  15
ATOM     15  C   UNL     1     151.526 135.316 160.512  1.00  0.00     0.011 C 
BRANCH  15  16
ATOM     16  C   UNL     1     151.677 134.875 162.040  1.00  0.00     0.001 CG0
ATOM     17  G   UNL     1     153.006 135.197 162.858  1.00  0.00     0.000 G0
ENDBRANCH  15  16
ENDBRANCH   1  15
TORSDOF 0
ENDMDL
MODEL 2
REMARK VINA RESULT:     4.438     20.081     22.077
REMARK INTER + INTRA:           5.756
REMARK INTER:                   5.483
REMARK INTRA:                   0.272
REMARK UNBOUND:                 0.280
REMARK SMILES C=C1[C@H]2CC[C@@H]3[C@@H]2C(C)(C)CCC[C@]13C
REMARK SMILES IDX 14 1 6 2 7 3 3 4 2 5 1 6 4 7 5 8 15 9 8 10 9 11 10 12 11 13
REMARK SMILES IDX 13 15 12 16
REMARK H PARENT
REMARK Flexibility Score: 80.00
ROOT
ATOM      1  C   UNL     1     137.431 152.201 163.243  1.00  0.00    -0.008 C 
ATOM      2  C   UNL     1     138.148 153.518 162.953  1.00  0.00     0.003 C 
ATOM      3  C   UNL     1     137.567 153.767 161.553  1.00  0.00     0.006 C 
ATOM      4  C   UNL     1     136.151 153.989 162.062  1.00  0.00     0.019 C 
ATOM      5  C   UNL     1     136.015 152.659 162.842  1.00  0.00    -0.068 C 
ATOM      6  C   UNL     1     134.875 151.996 163.053  1.00  0.00     0.009 C 
ATOM      7  C   UNL     1     136.310 155.096 163.092  1.00  0.00     0.008 C 
ATOM      8  C   UNL     1     137.643 154.745 163.754  1.00  0.00     0.005 C 
ATOM      9  C   UNL     1     137.521 151.773 164.720  1.00  0.00     0.016 C 
ENDROOT
BRANCH   3  10
ATOM     10  C   UNL     1     138.676 153.966 160.498  1.00  0.00    -0.032 C 
ATOM     11  C   UNL     1     138.043 154.447 159.168  1.00  0.00     0.011 C 
ATOM     12  C   UNL     1     139.720 155.030 160.918  1.00  0.00     0.011 C 
BRANCH  10  13
ATOM     13  C   UNL     1     139.371 152.536 160.290  1.00  0.00     0.007 CG0
ATOM     14  G   UNL     1     139.378 151.481 161.485  1.00  0.00     0.000 G0
ENDBRANCH  10  13
ENDBRANCH   3  10
BRANCH   1  15
ATOM     15  C   UNL     1     138.061 151.096 162.266  1.00  0.00     0.011 C 
BRANCH  15  16
ATOM     16  C   UNL     1     139.391 151.482 161.470  1.00  0.00     0.001 CG0
ATOM     17  G   UNL     1     139.360 152.561 160.298  1.00  0.00     0.000 G0
ENDBRANCH  15  16
ENDBRANCH   1  15
TORSDOF 0
ENDMDL
