MODEL 1
REMARK VINA RESULT:    -4.450      0.000      0.000
REMARK INTER + INTRA:         -10.282
REMARK INTER:                  -8.352
REMARK INTRA:                  -1.930
REMARK UNBOUND:                -1.930
REMARK SMILES O=C([O-])CCCCCCCCCCCCCCC(=O)[O-]
REMARK SMILES IDX 10 1 9 2 8 3 7 4 6 5 5 6 4 7 2 8 1 9 3 10 11 11 12 12 13 13
REMARK SMILES IDX 14 14 15 15 16 16 17 17 18 18 19 19 20 20
REMARK H PARENT
REMARK Flexibility Score: inf
ROOT
ATOM      1  C   UNL     1     -19.850  18.730 -18.611  1.00  0.00     0.000 C 
ENDROOT
BRANCH   1   2
ATOM      2  C   UNL     1     -19.186  17.432 -18.126  1.00  0.00     0.000 C 
BRANCH   2   3
ATOM      3  C   UNL     1     -17.854  17.677 -17.391  1.00  0.00     0.000 C 
BRANCH   3   4
ATOM      4  C   UNL     1     -17.565  19.150 -17.045  1.00  0.00     0.000 C 
BRANCH   4   5
ATOM      5  C   UNL     1     -16.518  19.786 -17.975  1.00  0.00     0.000 C 
BRANCH   5   6
ATOM      6  C   UNL     1     -15.315  20.359 -17.210  1.00  0.00     0.006 C 
BRANCH   6   7
ATOM      7  C   UNL     1     -15.020  21.821 -17.570  1.00  0.00     0.053 C 
BRANCH   7   8
ATOM      8  C   UNL     1     -13.857  22.332 -16.779  1.00  0.00     0.041 C 
ATOM      9  O   UNL     1     -13.778  23.555 -16.487  1.00  0.00    -0.550 OA
ATOM     10  O   UNL     1     -12.877  21.453 -16.334  1.00  0.00    -0.550 OA
ENDBRANCH   7   8
ENDBRANCH   6   7
ENDBRANCH   5   6
ENDBRANCH   4   5
ENDBRANCH   3   4
ENDBRANCH   2   3
ENDBRANCH   1   2
BRANCH   1  11
ATOM     11  C   UNL     1     -19.532  18.987 -20.092  1.00  0.00     0.000 C 
BRANCH  11  12
ATOM     12  C   UNL     1     -19.480  17.696 -20.930  1.00  0.00     0.000 C 
BRANCH  12  13
ATOM     13  C   UNL     1     -18.261  17.574 -21.864  1.00  0.00     0.000 C 
BRANCH  13  14
ATOM     14  C   UNL     1     -16.927  17.789 -21.136  1.00  0.00     0.000 C 
BRANCH  14  15
ATOM     15  C   UNL     1     -16.444  16.489 -20.476  1.00  0.00     0.000 C 
BRANCH  15  16
ATOM     16  C   UNL     1     -14.909  16.392 -20.404  1.00  0.00     0.006 C 
BRANCH  16  17
ATOM     17  C   UNL     1     -14.282  17.140 -19.217  1.00  0.00     0.053 C 
BRANCH  17  18
ATOM     18  C   UNL     1     -12.984  17.791 -19.586  1.00  0.00     0.041 C 
ATOM     19  O   UNL     1     -12.270  17.307 -20.504  1.00  0.00    -0.550 OA
ATOM     20  O   UNL     1     -12.550  18.917 -18.897  1.00  0.00    -0.550 OA
ENDBRANCH  17  18
ENDBRANCH  16  17
ENDBRANCH  15  16
ENDBRANCH  14  15
ENDBRANCH  13  14
ENDBRANCH  12  13
ENDBRANCH  11  12
ENDBRANCH   1  11
TORSDOF 15
ENDMDL
MODEL 2
REMARK VINA RESULT:    -4.400     14.018     16.875
REMARK INTER + INTRA:         -10.188
REMARK INTER:                  -8.011
REMARK INTRA:                  -2.177
REMARK UNBOUND:                -1.930
REMARK SMILES O=C([O-])CCCCCCCCCCCCCCC(=O)[O-]
REMARK SMILES IDX 10 1 9 2 8 3 7 4 6 5 5 6 4 7 2 8 1 9 3 10 11 11 12 12 13 13
REMARK SMILES IDX 14 14 15 15 16 16 17 17 18 18 19 19 20 20
REMARK H PARENT
REMARK Flexibility Score: inf
ROOT
ATOM      1  C   UNL     1      -2.595  14.431 -12.236  1.00  0.00     0.000 C 
ENDROOT
BRANCH   1   2
ATOM      2  C   UNL     1      -1.065  14.575 -12.272  1.00  0.00     0.000 C 
BRANCH   2   3
ATOM      3  C   UNL     1      -0.335  13.361 -11.668  1.00  0.00     0.000 C 
BRANCH   3   4
ATOM      4  C   UNL     1      -0.752  13.002 -10.229  1.00  0.00     0.000 C 
BRANCH   4   5
ATOM      5  C   UNL     1      -1.424  11.622 -10.130  1.00  0.00     0.000 C 
BRANCH   5   6
ATOM      6  C   UNL     1      -2.738  11.656  -9.334  1.00  0.00     0.006 C 
BRANCH   6   7
ATOM      7  C   UNL     1      -2.956  10.395  -8.489  1.00  0.00     0.053 C 
BRANCH   7   8
ATOM      8  C   UNL     1      -3.896   9.457  -9.179  1.00  0.00     0.041 C 
ATOM      9  O   UNL     1      -3.797   8.214  -8.999  1.00  0.00    -0.550 OA
ATOM     10  O   UNL     1      -4.905   9.957  -9.994  1.00  0.00    -0.550 OA
ENDBRANCH   7   8
ENDBRANCH   6   7
ENDBRANCH   5   6
ENDBRANCH   4   5
ENDBRANCH   3   4
ENDBRANCH   2   3
ENDBRANCH   1   2
BRANCH   1  11
ATOM     11  C   UNL     1      -3.082  13.486 -13.345  1.00  0.00     0.000 C 
BRANCH  11  12
ATOM     12  C   UNL     1      -3.918  12.309 -12.808  1.00  0.00     0.000 C 
BRANCH  12  13
ATOM     13  C   UNL     1      -3.444  10.914 -13.259  1.00  0.00     0.000 C 
BRANCH  13  14
ATOM     14  C   UNL     1      -2.073  10.944 -13.950  1.00  0.00     0.000 C 
BRANCH  14  15
ATOM     15  C   UNL     1      -2.059  10.030 -15.184  1.00  0.00     0.000 C 
BRANCH  15  16
ATOM     16  C   UNL     1      -2.520  10.751 -16.464  1.00  0.00     0.006 C 
BRANCH  16  17
ATOM     17  C   UNL     1      -3.957  10.419 -16.896  1.00  0.00     0.053 C 
BRANCH  17  18
ATOM     18  C   UNL     1      -4.868  11.602 -16.772  1.00  0.00     0.041 C 
ATOM     19  O   UNL     1      -6.117  11.449 -16.833  1.00  0.00    -0.550 OA
ATOM     20  O   UNL     1      -4.336  12.876 -16.618  1.00  0.00    -0.550 OA
ENDBRANCH  17  18
ENDBRANCH  16  17
ENDBRANCH  15  16
ENDBRANCH  14  15
ENDBRANCH  13  14
ENDBRANCH  12  13
ENDBRANCH  11  12
ENDBRANCH   1  11
TORSDOF 15
ENDMDL
MODEL 3
REMARK VINA RESULT:    -4.395     14.629     17.119
REMARK INTER + INTRA:         -10.178
REMARK INTER:                  -7.624
REMARK INTRA:                  -2.554
REMARK UNBOUND:                -1.930
REMARK SMILES O=C([O-])CCCCCCCCCCCCCCC(=O)[O-]
REMARK SMILES IDX 10 1 9 2 8 3 7 4 6 5 5 6 4 7 2 8 1 9 3 10 11 11 12 12 13 13
REMARK SMILES IDX 14 14 15 15 16 16 17 17 18 18 19 19 20 20
REMARK H PARENT
REMARK Flexibility Score: inf
ROOT
ATOM      1  C   UNL     1      -1.106  11.042 -10.923  1.00  0.00     0.000 C 
ENDROOT
BRANCH   1   2
ATOM      2  C   UNL     1      -1.749  12.282 -11.566  1.00  0.00     0.000 C 
BRANCH   2   3
ATOM      3  C   UNL     1      -1.977  13.427 -10.561  1.00  0.00     0.000 C 
BRANCH   3   4
ATOM      4  C   UNL     1      -3.447  13.665 -10.170  1.00  0.00     0.000 C 
BRANCH   4   5
ATOM      5  C   UNL     1      -3.655  13.732  -8.647  1.00  0.00     0.000 C 
BRANCH   5   6
ATOM      6  C   UNL     1      -5.125  13.549  -8.240  1.00  0.00     0.006 C 
BRANCH   6   7
ATOM      7  C   UNL     1      -6.086  14.413  -9.068  1.00  0.00     0.053 C 
BRANCH   7   8
ATOM      8  C   UNL     1      -6.952  15.241  -8.172  1.00  0.00     0.041 C 
ATOM      9  O   UNL     1      -6.777  15.222  -6.925  1.00  0.00    -0.550 OA
ATOM     10  O   UNL     1      -7.932  16.063  -8.717  1.00  0.00    -0.550 OA
ENDBRANCH   7   8
ENDBRANCH   6   7
ENDBRANCH   5   6
ENDBRANCH   4   5
ENDBRANCH   3   4
ENDBRANCH   2   3
ENDBRANCH   1   2
BRANCH   1  11
ATOM     11  C   UNL     1      -0.819  11.284  -9.433  1.00  0.00     0.000 C 
BRANCH  11  12
ATOM     12  C   UNL     1      -1.701  10.431  -8.503  1.00  0.00     0.000 C 
BRANCH  12  13
ATOM     13  C   UNL     1      -2.027   9.020  -9.028  1.00  0.00     0.000 C 
BRANCH  13  14
ATOM     14  C   UNL     1      -3.534   8.766  -9.162  1.00  0.00     0.000 C 
BRANCH  14  15
ATOM     15  C   UNL     1      -4.296  10.080  -9.390  1.00  0.00     0.000 C 
BRANCH  15  16
ATOM     16  C   UNL     1      -4.782  10.243 -10.842  1.00  0.00     0.006 C 
BRANCH  16  17
ATOM     17  C   UNL     1      -6.064  11.077 -10.991  1.00  0.00     0.053 C 
BRANCH  17  18
ATOM     18  C   UNL     1      -7.188  10.530 -10.165  1.00  0.00     0.041 C 
ATOM     19  O   UNL     1      -7.606   9.357 -10.359  1.00  0.00    -0.550 OA
ATOM     20  O   UNL     1      -7.794  11.326  -9.200  1.00  0.00    -0.550 OA
ENDBRANCH  17  18
ENDBRANCH  16  17
ENDBRANCH  15  16
ENDBRANCH  14  15
ENDBRANCH  13  14
ENDBRANCH  12  13
ENDBRANCH  11  12
ENDBRANCH   1  11
TORSDOF 15
ENDMDL
MODEL 4
REMARK VINA RESULT:    -4.367      3.124      4.657
REMARK INTER + INTRA:         -10.125
REMARK INTER:                  -7.941
REMARK INTRA:                  -2.184
REMARK UNBOUND:                -1.930
REMARK SMILES O=C([O-])CCCCCCCCCCCCCCC(=O)[O-]
REMARK SMILES IDX 10 1 9 2 8 3 7 4 6 5 5 6 4 7 2 8 1 9 3 10 11 11 12 12 13 13
REMARK SMILES IDX 14 14 15 15 16 16 17 17 18 18 19 19 20 20
REMARK H PARENT
REMARK Flexibility Score: inf
ROOT
ATOM      1  C   UNL     1     -19.263  17.212 -20.406  1.00  0.00     0.000 C 
ENDROOT
BRANCH   1   2
ATOM      2  C   UNL     1     -19.894  17.271 -19.006  1.00  0.00     0.000 C 
BRANCH   2   3
ATOM      3  C   UNL     1     -19.950  18.700 -18.433  1.00  0.00     0.000 C 
BRANCH   3   4
ATOM      4  C   UNL     1     -20.018  18.782 -16.897  1.00  0.00     0.000 C 
BRANCH   4   5
ATOM      5  C   UNL     1     -19.925  17.403 -16.222  1.00  0.00     0.000 C 
BRANCH   5   6
ATOM      6  C   UNL     1     -19.642  17.498 -14.714  1.00  0.00     0.006 C 
BRANCH   6   7
ATOM      7  C   UNL     1     -18.144  17.481 -14.385  1.00  0.00     0.053 C 
BRANCH   7   8
ATOM      8  C   UNL     1     -17.932  17.374 -12.908  1.00  0.00     0.041 C 
ATOM      9  O   UNL     1     -18.560  18.130 -12.121  1.00  0.00    -0.550 OA
ATOM     10  O   UNL     1     -17.066  16.414 -12.397  1.00  0.00    -0.550 OA
ENDBRANCH   7   8
ENDBRANCH   6   7
ENDBRANCH   5   6
ENDBRANCH   4   5
ENDBRANCH   3   4
ENDBRANCH   2   3
ENDBRANCH   1   2
BRANCH   1  11
ATOM     11  C   UNL     1     -18.019  18.111 -20.484  1.00  0.00     0.000 C 
BRANCH  11  12
ATOM     12  C   UNL     1     -16.773  17.370 -21.005  1.00  0.00     0.000 C 
BRANCH  12  13
ATOM     13  C   UNL     1     -15.685  17.104 -19.948  1.00  0.00     0.000 C 
BRANCH  13  14
ATOM     14  C   UNL     1     -16.127  16.101 -18.874  1.00  0.00     0.000 C 
BRANCH  14  15
ATOM     15  C   UNL     1     -16.465  16.816 -17.558  1.00  0.00     0.000 C 
BRANCH  15  16
ATOM     16  C   UNL     1     -15.595  18.063 -17.317  1.00  0.00     0.006 C 
BRANCH  16  17
ATOM     17  C   UNL     1     -16.391  19.354 -17.073  1.00  0.00     0.053 C 
BRANCH  17  18
ATOM     18  C   UNL     1     -15.531  20.575 -17.192  1.00  0.00     0.041 C 
ATOM     19  O   UNL     1     -16.007  21.643 -17.660  1.00  0.00    -0.550 OA
ATOM     20  O   UNL     1     -14.195  20.525 -16.811  1.00  0.00    -0.550 OA
ENDBRANCH  17  18
ENDBRANCH  16  17
ENDBRANCH  15  16
ENDBRANCH  14  15
ENDBRANCH  13  14
ENDBRANCH  12  13
ENDBRANCH  11  12
ENDBRANCH   1  11
TORSDOF 15
ENDMDL
MODEL 5
REMARK VINA RESULT:    -4.361     14.448     17.415
REMARK INTER + INTRA:         -10.115
REMARK INTER:                  -8.108
REMARK INTRA:                  -2.007
REMARK UNBOUND:                -1.930
REMARK SMILES O=C([O-])CCCCCCCCCCCCCCC(=O)[O-]
REMARK SMILES IDX 10 1 9 2 8 3 7 4 6 5 5 6 4 7 2 8 1 9 3 10 11 11 12 12 13 13
REMARK SMILES IDX 14 14 15 15 16 16 17 17 18 18 19 19 20 20
REMARK H PARENT
REMARK Flexibility Score: inf
ROOT
ATOM      1  C   UNL     1      -0.313  14.643 -12.006  1.00  0.00     0.000 C 
ENDROOT
BRANCH   1   2
ATOM      2  C   UNL     1      -0.414  13.263 -12.675  1.00  0.00     0.000 C 
BRANCH   2   3
ATOM      3  C   UNL     1      -0.479  12.108 -11.659  1.00  0.00     0.000 C 
BRANCH   3   4
ATOM      4  C   UNL     1      -1.636  11.115 -11.876  1.00  0.00     0.000 C 
BRANCH   4   5
ATOM      5  C   UNL     1      -2.678  11.158 -10.746  1.00  0.00     0.000 C 
BRANCH   5   6
ATOM      6  C   UNL     1      -3.165   9.759 -10.334  1.00  0.00     0.006 C 
BRANCH   6   7
ATOM      7  C   UNL     1      -2.652   9.333  -8.952  1.00  0.00     0.053 C 
BRANCH   7   8
ATOM      8  C   UNL     1      -1.551   8.329  -9.088  1.00  0.00     0.041 C 
ATOM      9  O   UNL     1      -1.752   7.122  -8.788  1.00  0.00    -0.550 OA
ATOM     10  O   UNL     1      -0.311   8.718  -9.580  1.00  0.00    -0.550 OA
ENDBRANCH   7   8
ENDBRANCH   6   7
ENDBRANCH   5   6
ENDBRANCH   4   5
ENDBRANCH   3   4
ENDBRANCH   2   3
ENDBRANCH   1   2
BRANCH   1  11
ATOM     11  C   UNL     1      -1.430  15.575 -12.500  1.00  0.00     0.000 C 
BRANCH  11  12
ATOM     12  C   UNL     1      -2.834  14.959 -12.358  1.00  0.00     0.000 C 
BRANCH  12  13
ATOM     13  C   UNL     1      -3.723  15.068 -13.612  1.00  0.00     0.000 C 
BRANCH  13  14
ATOM     14  C   UNL     1      -3.783  13.763 -14.417  1.00  0.00     0.000 C 
BRANCH  14  15
ATOM     15  C   UNL     1      -4.524  12.668 -13.637  1.00  0.00     0.000 C 
BRANCH  15  16
ATOM     16  C   UNL     1      -4.453  11.293 -14.326  1.00  0.00     0.006 C 
BRANCH  16  17
ATOM     17  C   UNL     1      -3.212  11.090 -15.209  1.00  0.00     0.053 C 
BRANCH  17  18
ATOM     18  C   UNL     1      -3.577  10.765 -16.625  1.00  0.00     0.041 C 
ATOM     19  O   UNL     1      -4.615  11.258 -17.142  1.00  0.00    -0.550 OA
ATOM     20  O   UNL     1      -2.785   9.895 -17.365  1.00  0.00    -0.550 OA
ENDBRANCH  17  18
ENDBRANCH  16  17
ENDBRANCH  15  16
ENDBRANCH  14  15
ENDBRANCH  13  14
ENDBRANCH  12  13
ENDBRANCH  11  12
ENDBRANCH   1  11
TORSDOF 15
ENDMDL
MODEL 6
REMARK VINA RESULT:    -4.359     15.247     17.415
REMARK INTER + INTRA:         -10.111
REMARK INTER:                  -7.910
REMARK INTRA:                  -2.200
REMARK UNBOUND:                -1.930
REMARK SMILES O=C([O-])CCCCCCCCCCCCCCC(=O)[O-]
REMARK SMILES IDX 10 1 9 2 8 3 7 4 6 5 5 6 4 7 2 8 1 9 3 10 11 11 12 12 13 13
REMARK SMILES IDX 14 14 15 15 16 16 17 17 18 18 19 19 20 20
REMARK H PARENT
REMARK Flexibility Score: inf
ROOT
ATOM      1  C   UNL     1      -1.677  11.645 -13.038  1.00  0.00     0.000 C 
ENDROOT
BRANCH   1   2
ATOM      2  C   UNL     1      -1.179  12.843 -12.213  1.00  0.00     0.000 C 
BRANCH   2   3
ATOM      3  C   UNL     1      -1.491  12.706 -10.710  1.00  0.00     0.000 C 
BRANCH   3   4
ATOM      4  C   UNL     1      -2.716  13.504 -10.226  1.00  0.00     0.000 C 
BRANCH   4   5
ATOM      5  C   UNL     1      -3.148  13.125  -8.799  1.00  0.00     0.000 C 
BRANCH   5   6
ATOM      6  C   UNL     1      -4.442  13.831  -8.363  1.00  0.00     0.006 C 
BRANCH   6   7
ATOM      7  C   UNL     1      -4.460  14.171  -6.867  1.00  0.00     0.053 C 
BRANCH   7   8
ATOM      8  C   UNL     1      -5.781  14.756  -6.478  1.00  0.00     0.041 C 
ATOM      9  O   UNL     1      -5.843  15.919  -5.999  1.00  0.00    -0.550 OA
ATOM     10  O   UNL     1      -6.950  14.031  -6.678  1.00  0.00    -0.550 OA
ENDBRANCH   7   8
ENDBRANCH   6   7
ENDBRANCH   5   6
ENDBRANCH   4   5
ENDBRANCH   3   4
ENDBRANCH   2   3
ENDBRANCH   1   2
BRANCH   1  11
ATOM     11  C   UNL     1      -3.135  11.851 -13.477  1.00  0.00     0.000 C 
BRANCH  11  12
ATOM     12  C   UNL     1      -4.113  10.877 -12.793  1.00  0.00     0.000 C 
BRANCH  12  13
ATOM     13  C   UNL     1      -5.328  11.542 -12.119  1.00  0.00     0.000 C 
BRANCH  13  14
ATOM     14  C   UNL     1      -5.539  11.074 -10.672  1.00  0.00     0.000 C 
BRANCH  14  15
ATOM     15  C   UNL     1      -4.970   9.663 -10.462  1.00  0.00     0.000 C 
BRANCH  15  16
ATOM     16  C   UNL     1      -3.894   9.612  -9.362  1.00  0.00     0.006 C 
BRANCH  16  17
ATOM     17  C   UNL     1      -2.471   9.355  -9.880  1.00  0.00     0.053 C 
BRANCH  17  18
ATOM     18  C   UNL     1      -1.479   9.243  -8.762  1.00  0.00     0.041 C 
ATOM     19  O   UNL     1      -1.359  10.176  -7.925  1.00  0.00    -0.550 OA
ATOM     20  O   UNL     1      -0.667   8.119  -8.664  1.00  0.00    -0.550 OA
ENDBRANCH  17  18
ENDBRANCH  16  17
ENDBRANCH  15  16
ENDBRANCH  14  15
ENDBRANCH  13  14
ENDBRANCH  12  13
ENDBRANCH  11  12
ENDBRANCH   1  11
TORSDOF 15
ENDMDL
MODEL 7
REMARK VINA RESULT:    -4.346      2.786      4.486
REMARK INTER + INTRA:         -10.087
REMARK INTER:                  -8.030
REMARK INTRA:                  -2.057
REMARK UNBOUND:                -1.930
REMARK SMILES O=C([O-])CCCCCCCCCCCCCCC(=O)[O-]
REMARK SMILES IDX 10 1 9 2 8 3 7 4 6 5 5 6 4 7 2 8 1 9 3 10 11 11 12 12 13 13
REMARK SMILES IDX 14 14 15 15 16 16 17 17 18 18 19 19 20 20
REMARK H PARENT
REMARK Flexibility Score: inf
ROOT
ATOM      1  C   UNL     1     -17.139  17.290 -21.324  1.00  0.00     0.000 C 
ENDROOT
BRANCH   1   2
ATOM      2  C   UNL     1     -16.584  16.690 -20.022  1.00  0.00     0.000 C 
BRANCH   2   3
ATOM      3  C   UNL     1     -15.361  17.456 -19.483  1.00  0.00     0.000 C 
BRANCH   3   4
ATOM      4  C   UNL     1     -15.573  18.144 -18.122  1.00  0.00     0.000 C 
BRANCH   4   5
ATOM      5  C   UNL     1     -16.610  19.278 -18.182  1.00  0.00     0.000 C 
BRANCH   5   6
ATOM      6  C   UNL     1     -16.154  20.541 -17.435  1.00  0.00     0.006 C 
BRANCH   6   7
ATOM      7  C   UNL     1     -14.782  20.377 -16.768  1.00  0.00     0.053 C 
BRANCH   7   8
ATOM      8  C   UNL     1     -13.842  21.445 -17.230  1.00  0.00     0.041 C 
ATOM      9  O   UNL     1     -14.038  22.646 -16.905  1.00  0.00    -0.550 OA
ATOM     10  O   UNL     1     -12.728  21.110 -17.990  1.00  0.00    -0.550 OA
ENDBRANCH   7   8
ENDBRANCH   6   7
ENDBRANCH   5   6
ENDBRANCH   4   5
ENDBRANCH   3   4
ENDBRANCH   2   3
ENDBRANCH   1   2
BRANCH   1  11
ATOM     11  C   UNL     1     -18.525  17.912 -21.093  1.00  0.00     0.000 C 
BRANCH  11  12
ATOM     12  C   UNL     1     -19.294  17.254 -19.932  1.00  0.00     0.000 C 
BRANCH  12  13
ATOM     13  C   UNL     1     -20.041  18.235 -19.008  1.00  0.00     0.000 C 
BRANCH  13  14
ATOM     14  C   UNL     1     -19.962  17.838 -17.528  1.00  0.00     0.000 C 
BRANCH  14  15
ATOM     15  C   UNL     1     -19.092  16.587 -17.339  1.00  0.00     0.000 C 
BRANCH  15  16
ATOM     16  C   UNL     1     -18.770  16.302 -15.861  1.00  0.00     0.006 C 
BRANCH  16  17
ATOM     17  C   UNL     1     -18.582  17.561 -15.000  1.00  0.00     0.053 C 
BRANCH  17  18
ATOM     18  C   UNL     1     -18.097  17.232 -13.621  1.00  0.00     0.041 C 
ATOM     19  O   UNL     1     -18.470  17.922 -12.636  1.00  0.00    -0.550 OA
ATOM     20  O   UNL     1     -17.210  16.180 -13.429  1.00  0.00    -0.550 OA
ENDBRANCH  17  18
ENDBRANCH  16  17
ENDBRANCH  15  16
ENDBRANCH  14  15
ENDBRANCH  13  14
ENDBRANCH  12  13
ENDBRANCH  11  12
ENDBRANCH   1  11
TORSDOF 15
ENDMDL
MODEL 8
REMARK VINA RESULT:    -4.294     14.393     16.715
REMARK INTER + INTRA:          -9.989
REMARK INTER:                  -7.587
REMARK INTRA:                  -2.403
REMARK UNBOUND:                -1.930
REMARK SMILES O=C([O-])CCCCCCCCCCCCCCC(=O)[O-]
REMARK SMILES IDX 10 1 9 2 8 3 7 4 6 5 5 6 4 7 2 8 1 9 3 10 11 11 12 12 13 13
REMARK SMILES IDX 14 14 15 15 16 16 17 17 18 18 19 19 20 20
REMARK H PARENT
REMARK Flexibility Score: inf
ROOT
ATOM      1  C   UNL     1      -1.086  14.074 -12.471  1.00  0.00     0.000 C 
ENDROOT
BRANCH   1   2
ATOM      2  C   UNL     1      -2.609  14.279 -12.430  1.00  0.00     0.000 C 
BRANCH   2   3
ATOM      3  C   UNL     1      -3.303  13.884 -13.748  1.00  0.00     0.000 C 
BRANCH   3   4
ATOM      4  C   UNL     1      -4.688  13.232 -13.583  1.00  0.00     0.000 C 
BRANCH   4   5
ATOM      5  C   UNL     1      -4.742  11.798 -14.138  1.00  0.00     0.000 C 
BRANCH   5   6
ATOM      6  C   UNL     1      -3.597  11.497 -15.117  1.00  0.00     0.006 C 
BRANCH   6   7
ATOM      7  C   UNL     1      -4.084  10.875 -16.432  1.00  0.00     0.053 C 
BRANCH   7   8
ATOM      8  C   UNL     1      -2.986  10.094 -17.083  1.00  0.00     0.041 C 
ATOM      9  O   UNL     1      -3.255   9.077 -17.775  1.00  0.00    -0.550 OA
ATOM     10  O   UNL     1      -1.666  10.511 -16.955  1.00  0.00    -0.550 OA
ENDBRANCH   7   8
ENDBRANCH   6   7
ENDBRANCH   5   6
ENDBRANCH   4   5
ENDBRANCH   3   4
ENDBRANCH   2   3
ENDBRANCH   1   2
BRANCH   1  11
ATOM     11  C   UNL     1      -0.737  12.583 -12.581  1.00  0.00     0.000 C 
BRANCH  11  12
ATOM     12  C   UNL     1      -1.309  11.743 -11.423  1.00  0.00     0.000 C 
BRANCH  12  13
ATOM     13  C   UNL     1      -2.105  10.497 -11.854  1.00  0.00     0.000 C 
BRANCH  13  14
ATOM     14  C   UNL     1      -3.367  10.274 -11.009  1.00  0.00     0.000 C 
BRANCH  14  15
ATOM     15  C   UNL     1      -3.690  11.514 -10.163  1.00  0.00     0.000 C 
BRANCH  15  16
ATOM     16  C   UNL     1      -5.190  11.862 -10.164  1.00  0.00     0.006 C 
BRANCH  16  17
ATOM     17  C   UNL     1      -6.105  10.721 -10.635  1.00  0.00     0.053 C 
BRANCH  17  18
ATOM     18  C   UNL     1      -7.423  10.727  -9.923  1.00  0.00     0.041 C 
ATOM     19  O   UNL     1      -7.754  11.712  -9.211  1.00  0.00    -0.550 OA
ATOM     20  O   UNL     1      -8.272   9.632 -10.023  1.00  0.00    -0.550 OA
ENDBRANCH  17  18
ENDBRANCH  16  17
ENDBRANCH  15  16
ENDBRANCH  14  15
ENDBRANCH  13  14
ENDBRANCH  12  13
ENDBRANCH  11  12
ENDBRANCH   1  11
TORSDOF 15
ENDMDL
MODEL 9
REMARK VINA RESULT:    -4.241     14.688     17.357
REMARK INTER + INTRA:          -9.890
REMARK INTER:                  -7.731
REMARK INTRA:                  -2.159
REMARK UNBOUND:                -1.930
REMARK SMILES O=C([O-])CCCCCCCCCCCCCCC(=O)[O-]
REMARK SMILES IDX 10 1 9 2 8 3 7 4 6 5 5 6 4 7 2 8 1 9 3 10 11 11 12 12 13 13
REMARK SMILES IDX 14 14 15 15 16 16 17 17 18 18 19 19 20 20
REMARK H PARENT
REMARK Flexibility Score: inf
ROOT
ATOM      1  C   UNL     1      -2.616  10.541  -8.462  1.00  0.00     0.000 C 
ENDROOT
BRANCH   1   2
ATOM      2  C   UNL     1      -1.172  10.023  -8.365  1.00  0.00     0.000 C 
BRANCH   2   3
ATOM      3  C   UNL     1      -0.264  10.569  -9.483  1.00  0.00     0.000 C 
BRANCH   3   4
ATOM      4  C   UNL     1      -0.721  11.904 -10.099  1.00  0.00     0.000 C 
BRANCH   4   5
ATOM      5  C   UNL     1      -1.002  11.799 -11.608  1.00  0.00     0.000 C 
BRANCH   5   6
ATOM      6  C   UNL     1      -0.354  12.936 -12.413  1.00  0.00     0.006 C 
BRANCH   6   7
ATOM      7  C   UNL     1      -0.503  14.306 -11.738  1.00  0.00     0.053 C 
BRANCH   7   8
ATOM      8  C   UNL     1      -1.472  15.161 -12.492  1.00  0.00     0.041 C 
ATOM      9  O   UNL     1      -1.355  16.415 -12.478  1.00  0.00    -0.550 OA
ATOM     10  O   UNL     1      -2.483  14.571 -13.242  1.00  0.00    -0.550 OA
ENDBRANCH   7   8
ENDBRANCH   6   7
ENDBRANCH   5   6
ENDBRANCH   4   5
ENDBRANCH   3   4
ENDBRANCH   2   3
ENDBRANCH   1   2
BRANCH   1  11
ATOM     11  C   UNL     1      -3.502   9.551  -9.234  1.00  0.00     0.000 C 
BRANCH  11  12
ATOM     12  C   UNL     1      -4.208  10.192 -10.444  1.00  0.00     0.000 C 
BRANCH  12  13
ATOM     13  C   UNL     1      -4.989  11.482 -10.134  1.00  0.00     0.000 C 
BRANCH  13  14
ATOM     14  C   UNL     1      -4.407  12.717 -10.836  1.00  0.00     0.000 C 
BRANCH  14  15
ATOM     15  C   UNL     1      -4.207  13.871  -9.843  1.00  0.00     0.000 C 
BRANCH  15  16
ATOM     16  C   UNL     1      -4.838  13.589  -8.467  1.00  0.00     0.006 C 
BRANCH  16  17
ATOM     17  C   UNL     1      -5.901  14.612  -8.037  1.00  0.00     0.053 C 
BRANCH  17  18
ATOM     18  C   UNL     1      -7.277  14.211  -8.475  1.00  0.00     0.041 C 
ATOM     19  O   UNL     1      -7.733  14.612  -9.579  1.00  0.00    -0.550 OA
ATOM     20  O   UNL     1      -8.065  13.416  -7.652  1.00  0.00    -0.550 OA
ENDBRANCH  17  18
ENDBRANCH  16  17
ENDBRANCH  15  16
ENDBRANCH  14  15
ENDBRANCH  13  14
ENDBRANCH  12  13
ENDBRANCH  11  12
ENDBRANCH   1  11
TORSDOF 15
ENDMDL
