MODEL 1
REMARK VINA RESULT:    -3.220      0.000      0.000
REMARK INTER + INTRA:         -10.847
REMARK INTER:                  -7.361
REMARK INTRA:                  -3.485
REMARK UNBOUND:                -3.485
REMARK SMILES CCCCCCCCCCCCCCCCCCCCCCCC(=O)[O-]
REMARK SMILES IDX 13 1 14 2 15 3 16 4 17 5 18 6 19 7 20 8 21 9 22 10 23 11
REMARK SMILES IDX 24 12 25 13 26 14 12 15 11 16 10 17 9 18 8 19 7 20 6 21 5 22
REMARK SMILES IDX 4 23 3 24 2 25 1 26
REMARK H PARENT
REMARK Flexibility Score: inf
ROOT
ATOM      1  C   UNL     1      22.745  67.855  16.765  1.00  0.00     0.000 C 
ENDROOT
BRANCH   1   2
ATOM      2  C   UNL     1      22.722  68.495  18.161  1.00  0.00     0.000 C 
BRANCH   2   3
ATOM      3  C   UNL     1      22.342  69.984  18.132  1.00  0.00     0.000 C 
BRANCH   3   4
ATOM      4  C   UNL     1      20.929  70.223  17.577  1.00  0.00     0.000 C 
BRANCH   4   5
ATOM      5  C   UNL     1      20.908  71.195  16.382  1.00  0.00     0.000 C 
BRANCH   5   6
ATOM      6  C   UNL     1      22.198  71.221  15.534  1.00  0.00     0.000 C 
BRANCH   6   7
ATOM      7  C   UNL     1      22.664  72.621  15.084  1.00  0.00     0.000 C 
BRANCH   7   8
ATOM      8  C   UNL     1      24.017  72.647  14.351  1.00  0.00     0.000 C 
BRANCH   8   9
ATOM      9  C   UNL     1      23.967  71.941  12.988  1.00  0.00     0.000 C 
BRANCH   9  10
ATOM     10  C   UNL     1      25.206  72.282  12.151  1.00  0.00     0.006 C 
BRANCH  10  11
ATOM     11  C   UNL     1      26.479  71.733  12.803  1.00  0.00     0.053 C 
BRANCH  11  12
ATOM     12  C   UNL     1      27.692  72.122  12.017  1.00  0.00     0.041 C 
ATOM     13  O   UNL     1      28.610  72.795  12.559  1.00  0.00    -0.550 OA
ATOM     14  O   UNL     1      27.821  71.723  10.692  1.00  0.00    -0.550 OA
ENDBRANCH  11  12
ENDBRANCH  10  11
ENDBRANCH   9  10
ENDBRANCH   8   9
ENDBRANCH   7   8
ENDBRANCH   6   7
ENDBRANCH   5   6
ENDBRANCH   4   5
ENDBRANCH   3   4
ENDBRANCH   2   3
ENDBRANCH   1   2
BRANCH   1  15
ATOM     15  C   UNL     1      23.352  66.447  16.819  1.00  0.00     0.000 C 
BRANCH  15  16
ATOM     16  C   UNL     1      23.029  65.757  18.152  1.00  0.00     0.000 C 
BRANCH  16  17
ATOM     17  C   UNL     1      21.735  64.931  18.092  1.00  0.00     0.000 C 
BRANCH  17  18
ATOM     18  C   UNL     1      20.660  65.442  19.067  1.00  0.00    -0.000 C 
BRANCH  18  19
ATOM     19  C   UNL     1      19.620  66.349  18.387  1.00  0.00    -0.000 C 
BRANCH  19  20
ATOM     20  C   UNL     1      19.384  66.065  16.892  1.00  0.00    -0.000 C 
BRANCH  20  21
ATOM     21  C   UNL     1      19.280  67.347  16.048  1.00  0.00    -0.000 C 
BRANCH  21  22
ATOM     22  C   UNL     1      19.709  67.127  14.588  1.00  0.00    -0.000 C 
BRANCH  22  23
ATOM     23  C   UNL     1      20.455  68.338  14.000  1.00  0.00    -0.000 C 
BRANCH  23  24
ATOM     24  C   UNL     1      19.581  69.150  13.029  1.00  0.00    -0.000 C 
BRANCH  24  25
ATOM     25  C   UNL     1      20.412  70.026  12.081  1.00  0.00    -0.003 C 
ATOM     26  C   UNL     1      20.251  71.505  12.416  1.00  0.00     0.004 C 
ENDBRANCH  24  25
ENDBRANCH  23  24
ENDBRANCH  22  23
ENDBRANCH  21  22
ENDBRANCH  20  21
ENDBRANCH  19  20
ENDBRANCH  18  19
ENDBRANCH  17  18
ENDBRANCH  16  17
ENDBRANCH  15  16
ENDBRANCH   1  15
TORSDOF 22
ENDMDL
MODEL 2
REMARK VINA RESULT:    -3.187      1.481      3.808
REMARK INTER + INTRA:         -10.771
REMARK INTER:                  -7.495
REMARK INTRA:                  -3.276
REMARK UNBOUND:                -3.485
REMARK SMILES CCCCCCCCCCCCCCCCCCCCCCCC(=O)[O-]
REMARK SMILES IDX 13 1 14 2 15 3 16 4 17 5 18 6 19 7 20 8 21 9 22 10 23 11
REMARK SMILES IDX 24 12 25 13 26 14 12 15 11 16 10 17 9 18 8 19 7 20 6 21 5 22
REMARK SMILES IDX 4 23 3 24 2 25 1 26
REMARK H PARENT
REMARK Flexibility Score: inf
ROOT
ATOM      1  C   UNL     1      19.562  69.266  15.687  1.00  0.00     0.000 C 
ENDROOT
BRANCH   1   2
ATOM      2  C   UNL     1      20.090  70.492  16.448  1.00  0.00     0.000 C 
BRANCH   2   3
ATOM      3  C   UNL     1      21.490  70.927  15.989  1.00  0.00     0.000 C 
BRANCH   3   4
ATOM      4  C   UNL     1      21.482  72.293  15.283  1.00  0.00     0.000 C 
BRANCH   4   5
ATOM      5  C   UNL     1      22.892  72.895  15.122  1.00  0.00     0.000 C 
BRANCH   5   6
ATOM      6  C   UNL     1      23.181  73.531  13.745  1.00  0.00     0.000 C 
BRANCH   6   7
ATOM      7  C   UNL     1      23.179  72.552  12.553  1.00  0.00     0.000 C 
BRANCH   7   8
ATOM      8  C   UNL     1      24.542  71.905  12.245  1.00  0.00     0.000 C 
BRANCH   8   9
ATOM      9  C   UNL     1      25.366  72.713  11.233  1.00  0.00     0.000 C 
BRANCH   9  10
ATOM     10  C   UNL     1      26.570  71.902  10.739  1.00  0.00     0.006 C 
BRANCH  10  11
ATOM     11  C   UNL     1      27.100  70.978  11.840  1.00  0.00     0.053 C 
BRANCH  11  12
ATOM     12  C   UNL     1      28.086  71.693  12.710  1.00  0.00     0.041 C 
ATOM     13  O   UNL     1      29.213  72.025  12.251  1.00  0.00    -0.550 OA
ATOM     14  O   UNL     1      27.754  72.015  14.020  1.00  0.00    -0.550 OA
ENDBRANCH  11  12
ENDBRANCH  10  11
ENDBRANCH   9  10
ENDBRANCH   8   9
ENDBRANCH   7   8
ENDBRANCH   6   7
ENDBRANCH   5   6
ENDBRANCH   4   5
ENDBRANCH   3   4
ENDBRANCH   2   3
ENDBRANCH   1   2
BRANCH   1  15
ATOM     15  C   UNL     1      20.701  68.542  14.960  1.00  0.00     0.000 C 
BRANCH  15  16
ATOM     16  C   UNL     1      20.665  67.033  15.241  1.00  0.00     0.000 C 
BRANCH  16  17
ATOM     17  C   UNL     1      19.376  66.594  15.951  1.00  0.00     0.000 C 
BRANCH  17  18
ATOM     18  C   UNL     1      19.616  65.471  16.975  1.00  0.00    -0.000 C 
BRANCH  18  19
ATOM     19  C   UNL     1      19.209  65.870  18.405  1.00  0.00    -0.000 C 
BRANCH  19  20
ATOM     20  C   UNL     1      19.500  67.334  18.783  1.00  0.00    -0.000 C 
BRANCH  20  21
ATOM     21  C   UNL     1      20.853  67.512  19.493  1.00  0.00    -0.000 C 
BRANCH  21  22
ATOM     22  C   UNL     1      21.812  68.426  18.712  1.00  0.00    -0.000 C 
BRANCH  22  23
ATOM     23  C   UNL     1      22.899  67.638  17.959  1.00  0.00    -0.000 C 
BRANCH  23  24
ATOM     24  C   UNL     1      22.944  66.158  18.375  1.00  0.00    -0.000 C 
BRANCH  24  25
ATOM     25  C   UNL     1      23.344  65.233  17.216  1.00  0.00    -0.003 C 
ATOM     26  C   UNL     1      24.066  66.008  16.118  1.00  0.00     0.004 C 
ENDBRANCH  24  25
ENDBRANCH  23  24
ENDBRANCH  22  23
ENDBRANCH  21  22
ENDBRANCH  20  21
ENDBRANCH  19  20
ENDBRANCH  18  19
ENDBRANCH  17  18
ENDBRANCH  16  17
ENDBRANCH  15  16
ENDBRANCH   1  15
TORSDOF 22
ENDMDL
MODEL 3
REMARK VINA RESULT:    -3.160      1.662      2.997
REMARK INTER + INTRA:         -10.709
REMARK INTER:                  -6.952
REMARK INTRA:                  -3.757
REMARK UNBOUND:                -3.485
REMARK SMILES CCCCCCCCCCCCCCCCCCCCCCCC(=O)[O-]
REMARK SMILES IDX 13 1 14 2 15 3 16 4 17 5 18 6 19 7 20 8 21 9 22 10 23 11
REMARK SMILES IDX 24 12 25 13 26 14 12 15 11 16 10 17 9 18 8 19 7 20 6 21 5 22
REMARK SMILES IDX 4 23 3 24 2 25 1 26
REMARK H PARENT
REMARK Flexibility Score: inf
ROOT
ATOM      1  C   UNL     1      22.693  69.924  18.100  1.00  0.00     0.000 C 
ENDROOT
BRANCH   1   2
ATOM      2  C   UNL     1      21.472  70.458  17.337  1.00  0.00     0.000 C 
BRANCH   2   3
ATOM      3  C   UNL     1      21.653  70.421  15.812  1.00  0.00     0.000 C 
BRANCH   3   4
ATOM      4  C   UNL     1      20.384  70.848  15.056  1.00  0.00     0.000 C 
BRANCH   4   5
ATOM      5  C   UNL     1      19.693  72.074  15.684  1.00  0.00     0.000 C 
BRANCH   5   6
ATOM      6  C   UNL     1      20.463  73.404  15.545  1.00  0.00     0.000 C 
BRANCH   6   7
ATOM      7  C   UNL     1      20.789  73.831  14.099  1.00  0.00     0.000 C 
BRANCH   7   8
ATOM      8  C   UNL     1      22.290  73.983  13.792  1.00  0.00     0.000 C 
BRANCH   8   9
ATOM      9  C   UNL     1      23.182  73.487  14.939  1.00  0.00     0.000 C 
BRANCH   9  10
ATOM     10  C   UNL     1      24.317  72.605  14.404  1.00  0.00     0.006 C 
BRANCH  10  11
ATOM     11  C   UNL     1      23.914  71.926  13.090  1.00  0.00     0.053 C 
BRANCH  11  12
ATOM     12  C   UNL     1      24.981  72.095  12.053  1.00  0.00     0.041 C 
ATOM     13  O   UNL     1      26.019  71.381  12.090  1.00  0.00    -0.550 OA
ATOM     14  O   UNL     1      24.820  73.024  11.032  1.00  0.00    -0.550 OA
ENDBRANCH  11  12
ENDBRANCH  10  11
ENDBRANCH   9  10
ENDBRANCH   8   9
ENDBRANCH   7   8
ENDBRANCH   6   7
ENDBRANCH   5   6
ENDBRANCH   4   5
ENDBRANCH   3   4
ENDBRANCH   2   3
ENDBRANCH   1   2
BRANCH   1  15
ATOM     15  C   UNL     1      22.385  68.566  18.743  1.00  0.00     0.000 C 
BRANCH  15  16
ATOM     16  C   UNL     1      22.880  67.411  17.860  1.00  0.00     0.000 C 
BRANCH  16  17
ATOM     17  C   UNL     1      22.366  66.043  18.335  1.00  0.00     0.000 C 
BRANCH  17  18
ATOM     18  C   UNL     1      21.140  66.158  19.257  1.00  0.00    -0.000 C 
BRANCH  18  19
ATOM     19  C   UNL     1      19.809  65.965  18.508  1.00  0.00    -0.000 C 
BRANCH  19  20
ATOM     20  C   UNL     1      19.089  67.267  18.110  1.00  0.00    -0.000 C 
BRANCH  20  21
ATOM     21  C   UNL     1      19.263  67.617  16.622  1.00  0.00    -0.000 C 
BRANCH  21  22
ATOM     22  C   UNL     1      19.595  66.385  15.763  1.00  0.00    -0.000 C 
BRANCH  22  23
ATOM     23  C   UNL     1      20.846  66.593  14.890  1.00  0.00    -0.000 C 
BRANCH  23  24
ATOM     24  C   UNL     1      21.596  65.278  14.619  1.00  0.00    -0.000 C 
BRANCH  24  25
ATOM     25  C   UNL     1      23.112  65.412  14.823  1.00  0.00    -0.003 C 
ATOM     26  C   UNL     1      23.878  64.875  13.618  1.00  0.00     0.004 C 
ENDBRANCH  24  25
ENDBRANCH  23  24
ENDBRANCH  22  23
ENDBRANCH  21  22
ENDBRANCH  20  21
ENDBRANCH  19  20
ENDBRANCH  18  19
ENDBRANCH  17  18
ENDBRANCH  16  17
ENDBRANCH  15  16
ENDBRANCH   1  15
TORSDOF 22
ENDMDL
MODEL 4
REMARK VINA RESULT:    -3.120      2.887      6.255
REMARK INTER + INTRA:         -10.618
REMARK INTER:                  -6.322
REMARK INTRA:                  -4.297
REMARK UNBOUND:                -3.485
REMARK SMILES CCCCCCCCCCCCCCCCCCCCCCCC(=O)[O-]
REMARK SMILES IDX 13 1 14 2 15 3 16 4 17 5 18 6 19 7 20 8 21 9 22 10 23 11
REMARK SMILES IDX 24 12 25 13 26 14 12 15 11 16 10 17 9 18 8 19 7 20 6 21 5 22
REMARK SMILES IDX 4 23 3 24 2 25 1 26
REMARK H PARENT
REMARK Flexibility Score: inf
ROOT
ATOM      1  C   UNL     1      22.109  68.839  16.504  1.00  0.00     0.000 C 
ENDROOT
BRANCH   1   2
ATOM      2  C   UNL     1      22.737  67.646  17.240  1.00  0.00     0.000 C 
BRANCH   2   3
ATOM      3  C   UNL     1      22.456  67.657  18.751  1.00  0.00     0.000 C 
BRANCH   3   4
ATOM      4  C   UNL     1      21.269  66.758  19.137  1.00  0.00     0.000 C 
BRANCH   4   5
ATOM      5  C   UNL     1      19.927  67.516  19.173  1.00  0.00     0.000 C 
BRANCH   5   6
ATOM      6  C   UNL     1      18.795  66.885  18.335  1.00  0.00     0.000 C 
BRANCH   6   7
ATOM      7  C   UNL     1      19.023  65.418  17.914  1.00  0.00     0.000 C 
BRANCH   7   8
ATOM      8  C   UNL     1      19.097  65.185  16.394  1.00  0.00     0.000 C 
BRANCH   8   9
ATOM      9  C   UNL     1      19.413  66.468  15.612  1.00  0.00     0.000 C 
BRANCH   9  10
ATOM     10  C   UNL     1      20.445  66.196  14.510  1.00  0.00     0.006 C 
BRANCH  10  11
ATOM     11  C   UNL     1      21.404  65.073  14.921  1.00  0.00     0.053 C 
BRANCH  11  12
ATOM     12  C   UNL     1      22.701  65.182  14.181  1.00  0.00     0.041 C 
ATOM     13  O   UNL     1      22.709  65.247  12.921  1.00  0.00    -0.550 OA
ATOM     14  O   UNL     1      23.901  65.235  14.880  1.00  0.00    -0.550 OA
ENDBRANCH  11  12
ENDBRANCH  10  11
ENDBRANCH   9  10
ENDBRANCH   8   9
ENDBRANCH   7   8
ENDBRANCH   6   7
ENDBRANCH   5   6
ENDBRANCH   4   5
ENDBRANCH   3   4
ENDBRANCH   2   3
ENDBRANCH   1   2
BRANCH   1  15
ATOM     15  C   UNL     1      22.098  70.088  17.394  1.00  0.00     0.000 C 
BRANCH  15  16
ATOM     16  C   UNL     1      20.777  70.857  17.254  1.00  0.00     0.000 C 
BRANCH  16  17
ATOM     17  C   UNL     1      19.689  70.037  16.545  1.00  0.00     0.000 C 
BRANCH  17  18
ATOM     18  C   UNL     1      18.645  70.921  15.840  1.00  0.00    -0.000 C 
BRANCH  18  19
ATOM     19  C   UNL     1      18.719  70.825  14.306  1.00  0.00    -0.000 C 
BRANCH  19  20
ATOM     20  C   UNL     1      19.771  69.839  13.764  1.00  0.00    -0.000 C 
BRANCH  20  21
ATOM     21  C   UNL     1      20.857  70.525  12.919  1.00  0.00    -0.000 C 
BRANCH  21  22
ATOM     22  C   UNL     1      21.989  71.112  13.779  1.00  0.00    -0.000 C 
BRANCH  22  23
ATOM     23  C   UNL     1      23.067  71.816  12.937  1.00  0.00    -0.000 C 
BRANCH  23  24
ATOM     24  C   UNL     1      24.192  72.409  13.803  1.00  0.00    -0.000 C 
BRANCH  24  25
ATOM     25  C   UNL     1      23.681  72.935  15.152  1.00  0.00    -0.003 C 
ATOM     26  C   UNL     1      23.096  74.336  15.010  1.00  0.00     0.004 C 
ENDBRANCH  24  25
ENDBRANCH  23  24
ENDBRANCH  22  23
ENDBRANCH  21  22
ENDBRANCH  20  21
ENDBRANCH  19  20
ENDBRANCH  18  19
ENDBRANCH  17  18
ENDBRANCH  16  17
ENDBRANCH  15  16
ENDBRANCH   1  15
TORSDOF 22
ENDMDL
MODEL 5
REMARK VINA RESULT:    -3.117      1.827      4.587
REMARK INTER + INTRA:         -10.610
REMARK INTER:                  -6.060
REMARK INTRA:                  -4.550
REMARK UNBOUND:                -3.485
REMARK SMILES CCCCCCCCCCCCCCCCCCCCCCCC(=O)[O-]
REMARK SMILES IDX 13 1 14 2 15 3 16 4 17 5 18 6 19 7 20 8 21 9 22 10 23 11
REMARK SMILES IDX 24 12 25 13 26 14 12 15 11 16 10 17 9 18 8 19 7 20 6 21 5 22
REMARK SMILES IDX 4 23 3 24 2 25 1 26
REMARK H PARENT
REMARK Flexibility Score: inf
ROOT
ATOM      1  C   UNL     1      19.678  69.878  16.306  1.00  0.00     0.000 C 
ENDROOT
BRANCH   1   2
ATOM      2  C   UNL     1      20.504  69.115  15.260  1.00  0.00     0.000 C 
BRANCH   2   3
ATOM      3  C   UNL     1      19.682  68.703  14.029  1.00  0.00     0.000 C 
BRANCH   3   4
ATOM      4  C   UNL     1      20.530  67.988  12.965  1.00  0.00     0.000 C 
BRANCH   4   5
ATOM      5  C   UNL     1      20.689  68.808  11.670  1.00  0.00     0.000 C 
BRANCH   5   6
ATOM      6  C   UNL     1      19.607  69.885  11.438  1.00  0.00     0.000 C 
BRANCH   6   7
ATOM      7  C   UNL     1      20.123  71.233  10.894  1.00  0.00     0.000 C 
BRANCH   7   8
ATOM      8  C   UNL     1      19.840  72.446  11.798  1.00  0.00     0.000 C 
BRANCH   8   9
ATOM      9  C   UNL     1      20.197  72.187  13.269  1.00  0.00     0.000 C 
BRANCH   9  10
ATOM     10  C   UNL     1      21.586  72.745  13.600  1.00  0.00     0.006 C 
BRANCH  10  11
ATOM     11  C   UNL     1      22.656  71.652  13.505  1.00  0.00     0.053 C 
BRANCH  11  12
ATOM     12  C   UNL     1      24.003  72.190  13.874  1.00  0.00     0.041 C 
ATOM     13  O   UNL     1      24.166  72.792  14.970  1.00  0.00    -0.550 OA
ATOM     14  O   UNL     1      25.085  72.007  13.022  1.00  0.00    -0.550 OA
ENDBRANCH  11  12
ENDBRANCH  10  11
ENDBRANCH   9  10
ENDBRANCH   8   9
ENDBRANCH   7   8
ENDBRANCH   6   7
ENDBRANCH   5   6
ENDBRANCH   4   5
ENDBRANCH   3   4
ENDBRANCH   2   3
ENDBRANCH   1   2
BRANCH   1  15
ATOM     15  C   UNL     1      20.469  71.065  16.869  1.00  0.00     0.000 C 
BRANCH  15  16
ATOM     16  C   UNL     1      21.968  70.742  16.950  1.00  0.00     0.000 C 
BRANCH  16  17
ATOM     17  C   UNL     1      22.372  70.149  18.309  1.00  0.00     0.000 C 
BRANCH  17  18
ATOM     18  C   UNL     1      22.621  68.632  18.242  1.00  0.00    -0.000 C 
BRANCH  18  19
ATOM     19  C   UNL     1      21.881  67.856  19.346  1.00  0.00    -0.000 C 
BRANCH  19  20
ATOM     20  C   UNL     1      20.388  67.595  19.072  1.00  0.00    -0.000 C 
BRANCH  20  21
ATOM     21  C   UNL     1      20.124  66.204  18.472  1.00  0.00    -0.000 C 
BRANCH  21  22
ATOM     22  C   UNL     1      19.391  66.275  17.122  1.00  0.00    -0.000 C 
BRANCH  22  23
ATOM     23  C   UNL     1      20.053  65.401  16.042  1.00  0.00    -0.000 C 
BRANCH  23  24
ATOM     24  C   UNL     1      21.537  65.128  16.338  1.00  0.00    -0.000 C 
BRANCH  24  25
ATOM     25  C   UNL     1      22.473  66.066  15.562  1.00  0.00    -0.003 C 
ATOM     26  C   UNL     1      23.882  66.042  16.146  1.00  0.00     0.004 C 
ENDBRANCH  24  25
ENDBRANCH  23  24
ENDBRANCH  22  23
ENDBRANCH  21  22
ENDBRANCH  20  21
ENDBRANCH  19  20
ENDBRANCH  18  19
ENDBRANCH  17  18
ENDBRANCH  16  17
ENDBRANCH  15  16
ENDBRANCH   1  15
TORSDOF 22
ENDMDL
MODEL 6
REMARK VINA RESULT:    -3.115      1.220      2.994
REMARK INTER + INTRA:         -10.607
REMARK INTER:                  -7.755
REMARK INTRA:                  -2.852
REMARK UNBOUND:                -3.485
REMARK SMILES CCCCCCCCCCCCCCCCCCCCCCCC(=O)[O-]
REMARK SMILES IDX 13 1 14 2 15 3 16 4 17 5 18 6 19 7 20 8 21 9 22 10 23 11
REMARK SMILES IDX 24 12 25 13 26 14 12 15 11 16 10 17 9 18 8 19 7 20 6 21 5 22
REMARK SMILES IDX 4 23 3 24 2 25 1 26
REMARK H PARENT
REMARK Flexibility Score: inf
ROOT
ATOM      1  C   UNL     1      22.195  70.664  16.763  1.00  0.00     0.000 C 
ENDROOT
BRANCH   1   2
ATOM      2  C   UNL     1      20.787  71.225  16.514  1.00  0.00     0.000 C 
BRANCH   2   3
ATOM      3  C   UNL     1      20.772  72.386  15.508  1.00  0.00     0.000 C 
BRANCH   3   4
ATOM      4  C   UNL     1      22.181  72.766  15.022  1.00  0.00     0.000 C 
BRANCH   4   5
ATOM      5  C   UNL     1      22.328  74.269  14.719  1.00  0.00     0.000 C 
BRANCH   5   6
ATOM      6  C   UNL     1      22.316  74.641  13.221  1.00  0.00     0.000 C 
BRANCH   6   7
ATOM      7  C   UNL     1      22.255  73.448  12.245  1.00  0.00     0.000 C 
BRANCH   7   8
ATOM      8  C   UNL     1      23.604  73.056  11.616  1.00  0.00     0.000 C 
BRANCH   8   9
ATOM      9  C   UNL     1      24.156  71.736  12.171  1.00  0.00     0.000 C 
BRANCH   9  10
ATOM     10  C   UNL     1      25.448  71.974  12.963  1.00  0.00     0.006 C 
BRANCH  10  11
ATOM     11  C   UNL     1      26.665  71.429  12.207  1.00  0.00     0.053 C 
BRANCH  11  12
ATOM     12  C   UNL     1      27.938  71.837  12.880  1.00  0.00     0.041 C 
ATOM     13  O   UNL     1      27.950  72.088  14.116  1.00  0.00    -0.550 OA
ATOM     14  O   UNL     1      29.118  71.919  12.150  1.00  0.00    -0.550 OA
ENDBRANCH  11  12
ENDBRANCH  10  11
ENDBRANCH   9  10
ENDBRANCH   8   9
ENDBRANCH   7   8
ENDBRANCH   6   7
ENDBRANCH   5   6
ENDBRANCH   4   5
ENDBRANCH   3   4
ENDBRANCH   2   3
ENDBRANCH   1   2
BRANCH   1  15
ATOM     15  C   UNL     1      22.386  70.303  18.241  1.00  0.00     0.000 C 
BRANCH  15  16
ATOM     16  C   UNL     1      21.990  68.844  18.510  1.00  0.00     0.000 C 
BRANCH  16  17
ATOM     17  C   UNL     1      22.739  67.852  17.608  1.00  0.00     0.000 C 
BRANCH  17  18
ATOM     18  C   UNL     1      23.161  66.574  18.354  1.00  0.00    -0.000 C 
BRANCH  18  19
ATOM     19  C   UNL     1      22.182  65.407  18.138  1.00  0.00    -0.000 C 
BRANCH  19  20
ATOM     20  C   UNL     1      21.004  65.349  19.129  1.00  0.00    -0.000 C 
BRANCH  20  21
ATOM     21  C   UNL     1      19.659  65.055  18.445  1.00  0.00    -0.000 C 
BRANCH  21  22
ATOM     22  C   UNL     1      19.072  66.291  17.743  1.00  0.00    -0.000 C 
BRANCH  22  23
ATOM     23  C   UNL     1      19.380  66.318  16.235  1.00  0.00    -0.000 C 
BRANCH  23  24
ATOM     24  C   UNL     1      19.663  67.739  15.720  1.00  0.00    -0.000 C 
BRANCH  24  25
ATOM     25  C   UNL     1      20.670  67.755  14.561  1.00  0.00    -0.003 C 
ATOM     26  C   UNL     1      20.469  68.979  13.674  1.00  0.00     0.004 C 
ENDBRANCH  24  25
ENDBRANCH  23  24
ENDBRANCH  22  23
ENDBRANCH  21  22
ENDBRANCH  20  21
ENDBRANCH  19  20
ENDBRANCH  18  19
ENDBRANCH  17  18
ENDBRANCH  16  17
ENDBRANCH  15  16
ENDBRANCH   1  15
TORSDOF 22
ENDMDL
MODEL 7
REMARK VINA RESULT:    -3.074      2.625      3.594
REMARK INTER + INTRA:         -10.513
REMARK INTER:                  -6.139
REMARK INTRA:                  -4.374
REMARK UNBOUND:                -3.485
REMARK SMILES CCCCCCCCCCCCCCCCCCCCCCCC(=O)[O-]
REMARK SMILES IDX 13 1 14 2 15 3 16 4 17 5 18 6 19 7 20 8 21 9 22 10 23 11
REMARK SMILES IDX 24 12 25 13 26 14 12 15 11 16 10 17 9 18 8 19 7 20 6 21 5 22
REMARK SMILES IDX 4 23 3 24 2 25 1 26
REMARK H PARENT
REMARK Flexibility Score: inf
ROOT
ATOM      1  C   UNL     1      22.756  68.046  17.862  1.00  0.00     0.000 C 
ENDROOT
BRANCH   1   2
ATOM      2  C   UNL     1      22.481  69.489  18.311  1.00  0.00     0.000 C 
BRANCH   2   3
ATOM      3  C   UNL     1      21.996  70.392  17.167  1.00  0.00     0.000 C 
BRANCH   3   4
ATOM      4  C   UNL     1      21.643  69.600  15.897  1.00  0.00     0.000 C 
BRANCH   4   5
ATOM      5  C   UNL     1      20.157  69.719  15.506  1.00  0.00     0.000 C 
BRANCH   5   6
ATOM      6  C   UNL     1      19.198  70.060  16.667  1.00  0.00     0.000 C 
BRANCH   6   7
ATOM      7  C   UNL     1      18.330  71.318  16.459  1.00  0.00     0.000 C 
BRANCH   7   8
ATOM      8  C   UNL     1      19.062  72.653  16.684  1.00  0.00     0.000 C 
BRANCH   8   9
ATOM      9  C   UNL     1      19.188  73.484  15.399  1.00  0.00     0.000 C 
BRANCH   9  10
ATOM     10  C   UNL     1      20.582  74.115  15.292  1.00  0.00     0.006 C 
BRANCH  10  11
ATOM     11  C   UNL     1      21.592  73.121  14.710  1.00  0.00     0.053 C 
BRANCH  11  12
ATOM     12  C   UNL     1      22.996  73.572  14.972  1.00  0.00     0.041 C 
ATOM     13  O   UNL     1      23.931  72.729  15.034  1.00  0.00    -0.550 OA
ATOM     14  O   UNL     1      23.277  74.924  15.126  1.00  0.00    -0.550 OA
ENDBRANCH  11  12
ENDBRANCH  10  11
ENDBRANCH   9  10
ENDBRANCH   8   9
ENDBRANCH   7   8
ENDBRANCH   6   7
ENDBRANCH   5   6
ENDBRANCH   4   5
ENDBRANCH   3   4
ENDBRANCH   2   3
ENDBRANCH   1   2
BRANCH   1  15
ATOM     15  C   UNL     1      21.995  67.046  18.740  1.00  0.00     0.000 C 
BRANCH  15  16
ATOM     16  C   UNL     1      20.770  67.702  19.393  1.00  0.00     0.000 C 
BRANCH  16  17
ATOM     17  C   UNL     1      19.448  67.252  18.753  1.00  0.00     0.000 C 
BRANCH  17  18
ATOM     18  C   UNL     1      19.315  65.720  18.682  1.00  0.00    -0.000 C 
BRANCH  18  19
ATOM     19  C   UNL     1      19.073  65.208  17.252  1.00  0.00    -0.000 C 
BRANCH  19  20
ATOM     20  C   UNL     1      19.457  66.193  16.132  1.00  0.00    -0.000 C 
BRANCH  20  21
ATOM     21  C   UNL     1      20.799  65.849  15.465  1.00  0.00    -0.000 C 
BRANCH  21  22
ATOM     22  C   UNL     1      20.890  66.371  14.021  1.00  0.00    -0.000 C 
BRANCH  22  23
ATOM     23  C   UNL     1      19.509  66.531  13.361  1.00  0.00    -0.000 C 
BRANCH  23  24
ATOM     24  C   UNL     1      19.435  67.767  12.449  1.00  0.00    -0.000 C 
BRANCH  24  25
ATOM     25  C   UNL     1      20.812  68.189  11.916  1.00  0.00    -0.003 C 
ATOM     26  C   UNL     1      20.948  69.708  11.887  1.00  0.00     0.004 C 
ENDBRANCH  24  25
ENDBRANCH  23  24
ENDBRANCH  22  23
ENDBRANCH  21  22
ENDBRANCH  20  21
ENDBRANCH  19  20
ENDBRANCH  18  19
ENDBRANCH  17  18
ENDBRANCH  16  17
ENDBRANCH  15  16
ENDBRANCH   1  15
TORSDOF 22
ENDMDL
MODEL 8
REMARK VINA RESULT:    -3.073      1.473      4.130
REMARK INTER + INTRA:         -10.512
REMARK INTER:                  -7.057
REMARK INTRA:                  -3.455
REMARK UNBOUND:                -3.485
REMARK SMILES CCCCCCCCCCCCCCCCCCCCCCCC(=O)[O-]
REMARK SMILES IDX 13 1 14 2 15 3 16 4 17 5 18 6 19 7 20 8 21 9 22 10 23 11
REMARK SMILES IDX 24 12 25 13 26 14 12 15 11 16 10 17 9 18 8 19 7 20 6 21 5 22
REMARK SMILES IDX 4 23 3 24 2 25 1 26
REMARK H PARENT
REMARK Flexibility Score: inf
ROOT
ATOM      1  C   UNL     1      21.183  70.994  16.538  1.00  0.00     0.000 C 
ENDROOT
BRANCH   1   2
ATOM      2  C   UNL     1      21.703  71.746  15.304  1.00  0.00     0.000 C 
BRANCH   2   3
ATOM      3  C   UNL     1      23.196  72.092  15.396  1.00  0.00     0.000 C 
BRANCH   3   4
ATOM      4  C   UNL     1      23.462  73.602  15.276  1.00  0.00     0.000 C 
BRANCH   4   5
ATOM      5  C   UNL     1      22.298  74.367  14.616  1.00  0.00     0.000 C 
BRANCH   5   6
ATOM      6  C   UNL     1      22.567  74.857  13.177  1.00  0.00     0.000 C 
BRANCH   6   7
ATOM      7  C   UNL     1      21.925  74.009  12.060  1.00  0.00     0.000 C 
BRANCH   7   8
ATOM      8  C   UNL     1      22.677  72.708  11.723  1.00  0.00     0.000 C 
BRANCH   8   9
ATOM      9  C   UNL     1      24.196  72.908  11.633  1.00  0.00     0.000 C 
BRANCH   9  10
ATOM     10  C   UNL     1      24.940  71.643  12.079  1.00  0.00     0.006 C 
BRANCH  10  11
ATOM     11  C   UNL     1      26.103  71.991  13.015  1.00  0.00     0.053 C 
BRANCH  11  12
ATOM     12  C   UNL     1      27.411  71.915  12.292  1.00  0.00     0.041 C 
ATOM     13  O   UNL     1      28.390  72.610  12.677  1.00  0.00    -0.550 OA
ATOM     14  O   UNL     1      27.559  71.061  11.205  1.00  0.00    -0.550 OA
ENDBRANCH  11  12
ENDBRANCH  10  11
ENDBRANCH   9  10
ENDBRANCH   8   9
ENDBRANCH   7   8
ENDBRANCH   6   7
ENDBRANCH   5   6
ENDBRANCH   4   5
ENDBRANCH   3   4
ENDBRANCH   2   3
ENDBRANCH   1   2
BRANCH   1  15
ATOM     15  C   UNL     1      19.660  70.828  16.477  1.00  0.00     0.000 C 
BRANCH  15  16
ATOM     16  C   UNL     1      19.235  69.432  16.952  1.00  0.00     0.000 C 
BRANCH  16  17
ATOM     17  C   UNL     1      18.870  68.498  15.788  1.00  0.00     0.000 C 
BRANCH  17  18
ATOM     18  C   UNL     1      19.967  67.458  15.496  1.00  0.00    -0.000 C 
BRANCH  18  19
ATOM     19  C   UNL     1      19.441  66.012  15.523  1.00  0.00    -0.000 C 
BRANCH  19  20
ATOM     20  C   UNL     1      20.044  65.119  16.623  1.00  0.00    -0.000 C 
BRANCH  20  21
ATOM     21  C   UNL     1      19.182  65.072  17.896  1.00  0.00    -0.000 C 
BRANCH  21  22
ATOM     22  C   UNL     1      19.576  66.155  18.914  1.00  0.00    -0.000 C 
BRANCH  22  23
ATOM     23  C   UNL     1      21.100  66.343  19.018  1.00  0.00    -0.000 C 
BRANCH  23  24
ATOM     24  C   UNL     1      21.502  67.824  19.127  1.00  0.00    -0.000 C 
BRANCH  24  25
ATOM     25  C   UNL     1      22.749  68.158  18.296  1.00  0.00    -0.003 C 
ATOM     26  C   UNL     1      23.119  67.002  17.371  1.00  0.00     0.004 C 
ENDBRANCH  24  25
ENDBRANCH  23  24
ENDBRANCH  22  23
ENDBRANCH  21  22
ENDBRANCH  20  21
ENDBRANCH  19  20
ENDBRANCH  18  19
ENDBRANCH  17  18
ENDBRANCH  16  17
ENDBRANCH  15  16
ENDBRANCH   1  15
TORSDOF 22
ENDMDL
MODEL 9
REMARK VINA RESULT:    -3.044      4.020      7.999
REMARK INTER + INTRA:         -10.443
REMARK INTER:                  -7.037
REMARK INTRA:                  -3.406
REMARK UNBOUND:                -3.485
REMARK SMILES CCCCCCCCCCCCCCCCCCCCCCCC(=O)[O-]
REMARK SMILES IDX 13 1 14 2 15 3 16 4 17 5 18 6 19 7 20 8 21 9 22 10 23 11
REMARK SMILES IDX 24 12 25 13 26 14 12 15 11 16 10 17 9 18 8 19 7 20 6 21 5 22
REMARK SMILES IDX 4 23 3 24 2 25 1 26
REMARK H PARENT
REMARK Flexibility Score: inf
ROOT
ATOM      1  C   UNL     1      22.028  70.645  14.998  1.00  0.00     0.000 C 
ENDROOT
BRANCH   1   2
ATOM      2  C   UNL     1      21.494  69.595  15.984  1.00  0.00     0.000 C 
BRANCH   2   3
ATOM      3  C   UNL     1      21.348  70.135  17.415  1.00  0.00     0.000 C 
BRANCH   3   4
ATOM      4  C   UNL     1      22.438  69.604  18.361  1.00  0.00     0.000 C 
BRANCH   4   5
ATOM      5  C   UNL     1      22.126  68.198  18.910  1.00  0.00     0.000 C 
BRANCH   5   6
ATOM      6  C   UNL     1      22.924  67.048  18.260  1.00  0.00     0.000 C 
BRANCH   6   7
ATOM      7  C   UNL     1      22.313  65.642  18.431  1.00  0.00     0.000 C 
BRANCH   7   8
ATOM      8  C   UNL     1      21.852  64.974  17.123  1.00  0.00     0.000 C 
BRANCH   8   9
ATOM      9  C   UNL     1      21.128  65.949  16.183  1.00  0.00     0.000 C 
BRANCH   9  10
ATOM     10  C   UNL     1      19.611  65.887  16.396  1.00  0.00     0.006 C 
BRANCH  10  11
ATOM     11  C   UNL     1      19.123  67.081  17.223  1.00  0.00     0.053 C 
BRANCH  11  12
ATOM     12  C   UNL     1      18.701  66.645  18.592  1.00  0.00     0.041 C 
ATOM     13  O   UNL     1      18.708  65.422  18.898  1.00  0.00    -0.550 OA
ATOM     14  O   UNL     1      18.323  67.590  19.539  1.00  0.00    -0.550 OA
ENDBRANCH  11  12
ENDBRANCH  10  11
ENDBRANCH   9  10
ENDBRANCH   8   9
ENDBRANCH   7   8
ENDBRANCH   6   7
ENDBRANCH   5   6
ENDBRANCH   4   5
ENDBRANCH   3   4
ENDBRANCH   2   3
ENDBRANCH   1   2
BRANCH   1  15
ATOM     15  C   UNL     1      22.314  71.971  15.712  1.00  0.00     0.000 C 
BRANCH  15  16
ATOM     16  C   UNL     1      23.483  72.715  15.052  1.00  0.00     0.000 C 
BRANCH  16  17
ATOM     17  C   UNL     1      23.104  74.137  14.609  1.00  0.00     0.000 C 
BRANCH  17  18
ATOM     18  C   UNL     1      21.585  74.323  14.450  1.00  0.00    -0.000 C 
BRANCH  18  19
ATOM     19  C   UNL     1      21.134  74.313  12.979  1.00  0.00    -0.000 C 
BRANCH  19  20
ATOM     20  C   UNL     1      20.254  73.115  12.574  1.00  0.00    -0.000 C 
BRANCH  20  21
ATOM     21  C   UNL     1      21.020  72.057  11.763  1.00  0.00    -0.000 C 
BRANCH  21  22
ATOM     22  C   UNL     1      22.372  72.577  11.245  1.00  0.00    -0.000 C 
BRANCH  22  23
ATOM     23  C   UNL     1      23.547  71.664  11.639  1.00  0.00    -0.000 C 
BRANCH  23  24
ATOM     24  C   UNL     1      24.901  72.391  11.575  1.00  0.00    -0.000 C 
BRANCH  24  25
ATOM     25  C   UNL     1      25.967  71.726  12.458  1.00  0.00    -0.003 C 
ATOM     26  C   UNL     1      27.032  71.039  11.610  1.00  0.00     0.004 C 
ENDBRANCH  24  25
ENDBRANCH  23  24
ENDBRANCH  22  23
ENDBRANCH  21  22
ENDBRANCH  20  21
ENDBRANCH  19  20
ENDBRANCH  18  19
ENDBRANCH  17  18
ENDBRANCH  16  17
ENDBRANCH  15  16
ENDBRANCH   1  15
TORSDOF 22
ENDMDL
