MODEL 1
REMARK VINA RESULT:    -5.375      0.000      0.000
REMARK INTER + INTRA:          -8.944
REMARK INTER:                  -8.361
REMARK INTRA:                  -0.583
REMARK UNBOUND:                -0.583
REMARK SMILES COc1cc(CNC(=O)CCCCC=CC(C)C)ccc1O
REMARK SMILES IDX 11 1 12 2 13 3 14 4 15 5 16 6 17 7 18 8 10 9 8 10 9 11 7 12
REMARK SMILES IDX 6 14 5 15 4 16 19 17 3 18 20 19 21 20 2 21 1 22 22 23
REMARK H PARENT 7 13 22 24
REMARK Flexibility Score: inf
ROOT
ATOM      1  C   UNL     1     115.150 257.085 338.343  1.00  0.00     0.010 C 
ENDROOT
BRANCH   1   2
ATOM      2  C   UNL     1     114.513 258.421 337.918  1.00  0.00     0.005 C 
BRANCH   2   3
ATOM      3  C   UNL     1     113.089 258.285 337.350  1.00  0.00     0.027 C 
BRANCH   3   4
ATOM      4  C   UNL     1     113.046 258.456 335.854  1.00  0.00    -0.031 C 
ATOM      5  C   UNL     1     113.314 257.438 335.021  1.00  0.00    -0.028 C 
BRANCH   5   6
ATOM      6  C   UNL     1     113.256 257.617 333.522  1.00  0.00     0.005 C 
ATOM      7  C   UNL     1     114.621 257.318 332.892  1.00  0.00     0.012 C 
ATOM      8  C   UNL     1     112.806 259.038 333.169  1.00  0.00     0.012 C 
ENDBRANCH   5   6
ENDBRANCH   3   4
ENDBRANCH   2   3
ENDBRANCH   1   2
BRANCH   1   9
ATOM      9  C   UNL     1     116.579 257.255 338.875  1.00  0.00     0.100 C 
BRANCH   9  10
ATOM     10  C   UNL     1     116.874 256.219 339.916  1.00  0.00     0.220 C 
ATOM     11  O   UNL     1     117.855 255.444 339.760  1.00  0.00    -0.275 OA
ATOM     12  N   UNL     1     116.020 256.088 341.064  1.00  0.00    -0.352 N 
ATOM     13  H   UNL     1     115.186 256.710 341.149  1.00  0.00     0.163 HD
BRANCH  12  14
ATOM     14  C   UNL     1     116.256 255.092 342.107  1.00  0.00     0.151 C 
BRANCH  14  15
ATOM     15  C   UNL     1     115.093 255.049 343.063  1.00  0.00    -0.025 A 
ATOM     16  C   UNL     1     115.108 255.836 344.226  1.00  0.00     0.056 A 
ATOM     17  C   UNL     1     114.001 254.205 342.815  1.00  0.00     0.009 A 
ATOM     18  C   UNL     1     114.035 255.785 345.139  1.00  0.00     0.160 A 
ATOM     19  C   UNL     1     112.934 254.150 343.715  1.00  0.00     0.050 A 
ATOM     20  C   UNL     1     112.949 254.937 344.875  1.00  0.00     0.157 A 
BRANCH  18  21
ATOM     21  O   UNL     1     114.014 256.554 346.312  1.00  0.00    -0.493 OA
ATOM     22  C   UNL     1     115.056 257.436 346.719  1.00  0.00     0.278 C 
ENDBRANCH  18  21
BRANCH  20  23
ATOM     23  O   UNL     1     111.885 254.880 345.774  1.00  0.00    -0.504 OA
ATOM     24  H   UNL     1     111.142 255.570 345.762  1.00  0.00     0.293 HD
ENDBRANCH  20  23
ENDBRANCH  14  15
ENDBRANCH  12  14
ENDBRANCH   9  10
ENDBRANCH   1   9
TORSDOF 10
ENDMDL
MODEL 2
REMARK VINA RESULT:    -5.361      2.858     10.471
REMARK INTER + INTRA:          -8.922
REMARK INTER:                  -8.414
REMARK INTRA:                  -0.507
REMARK UNBOUND:                -0.583
REMARK SMILES COc1cc(CNC(=O)CCCCC=CC(C)C)ccc1O
REMARK SMILES IDX 11 1 12 2 13 3 14 4 15 5 16 6 17 7 18 8 10 9 8 10 9 11 7 12
REMARK SMILES IDX 6 14 5 15 4 16 19 17 3 18 20 19 21 20 2 21 1 22 22 23
REMARK H PARENT 7 13 22 24
REMARK Flexibility Score: inf
ROOT
ATOM      1  C   UNL     1     115.449 256.950 346.836  1.00  0.00     0.010 C 
ENDROOT
BRANCH   1   2
ATOM      2  C   UNL     1     115.805 258.421 347.122  1.00  0.00     0.005 C 
BRANCH   2   3
ATOM      3  C   UNL     1     117.076 258.607 347.970  1.00  0.00     0.027 C 
BRANCH   3   4
ATOM      4  C   UNL     1     116.776 259.122 349.354  1.00  0.00    -0.031 C 
ATOM      5  C   UNL     1     116.586 258.290 350.390  1.00  0.00    -0.028 C 
BRANCH   5   6
ATOM      6  C   UNL     1     116.298 258.818 351.775  1.00  0.00     0.005 C 
ATOM      7  C   UNL     1     117.606 259.125 352.515  1.00  0.00     0.012 C 
ATOM      8  C   UNL     1     115.461 257.812 352.570  1.00  0.00     0.012 C 
ENDBRANCH   5   6
ENDBRANCH   3   4
ENDBRANCH   2   3
ENDBRANCH   1   2
BRANCH   1   9
ATOM      9  C   UNL     1     114.178 256.802 345.992  1.00  0.00     0.100 C 
BRANCH   9  10
ATOM     10  C   UNL     1     114.342 255.700 344.990  1.00  0.00     0.220 C 
ATOM     11  O   UNL     1     113.949 254.538 345.277  1.00  0.00    -0.275 OA
ATOM     12  N   UNL     1     114.978 255.961 343.729  1.00  0.00    -0.352 N 
ATOM     13  H   UNL     1     115.338 256.922 343.532  1.00  0.00     0.163 HD
BRANCH  12  14
ATOM     14  C   UNL     1     115.171 254.924 342.718  1.00  0.00     0.151 C 
BRANCH  14  15
ATOM     15  C   UNL     1     116.220 255.350 341.725  1.00  0.00    -0.025 A 
ATOM     16  C   UNL     1     115.850 256.052 340.567  1.00  0.00     0.056 A 
ATOM     17  C   UNL     1     117.568 255.024 341.933  1.00  0.00     0.009 A 
ATOM     18  C   UNL     1     116.821 256.433 339.619  1.00  0.00     0.160 A 
ATOM     19  C   UNL     1     118.535 255.400 340.998  1.00  0.00     0.050 A 
ATOM     20  C   UNL     1     118.165 256.103 339.843  1.00  0.00     0.157 A 
BRANCH  18  21
ATOM     21  O   UNL     1     116.490 257.134 338.449  1.00  0.00    -0.493 OA
ATOM     22  C   UNL     1     115.174 257.557 338.106  1.00  0.00     0.278 C 
ENDBRANCH  18  21
BRANCH  20  23
ATOM     23  O   UNL     1     119.131 256.475 338.910  1.00  0.00    -0.504 OA
ATOM     24  H   UNL     1     119.157 256.068 337.981  1.00  0.00     0.293 HD
ENDBRANCH  20  23
ENDBRANCH  14  15
ENDBRANCH  12  14
ENDBRANCH   9  10
ENDBRANCH   1   9
TORSDOF 10
ENDMDL
MODEL 3
REMARK VINA RESULT:    -5.306      2.962      8.957
REMARK INTER + INTRA:          -8.837
REMARK INTER:                  -8.513
REMARK INTRA:                  -0.323
REMARK UNBOUND:                -0.583
REMARK SMILES COc1cc(CNC(=O)CCCCC=CC(C)C)ccc1O
REMARK SMILES IDX 11 1 12 2 13 3 14 4 15 5 16 6 17 7 18 8 10 9 8 10 9 11 7 12
REMARK SMILES IDX 6 14 5 15 4 16 19 17 3 18 20 19 21 20 2 21 1 22 22 23
REMARK H PARENT 7 13 22 24
REMARK Flexibility Score: inf
ROOT
ATOM      1  C   UNL     1     118.060 255.536 340.590  1.00  0.00     0.010 C 
ENDROOT
BRANCH   1   2
ATOM      2  C   UNL     1     117.345 255.206 341.913  1.00  0.00     0.005 C 
BRANCH   2   3
ATOM      3  C   UNL     1     115.854 255.587 341.934  1.00  0.00     0.027 C 
BRANCH   3   4
ATOM      4  C   UNL     1     115.252 255.488 343.312  1.00  0.00    -0.031 C 
ATOM      5  C   UNL     1     114.029 254.971 343.511  1.00  0.00    -0.028 C 
BRANCH   5   6
ATOM      6  C   UNL     1     113.440 254.865 344.898  1.00  0.00     0.005 C 
ATOM      7  C   UNL     1     111.909 254.910 344.835  1.00  0.00     0.012 C 
ATOM      8  C   UNL     1     113.970 255.989 345.793  1.00  0.00     0.012 C 
ENDBRANCH   5   6
ENDBRANCH   3   4
ENDBRANCH   2   3
ENDBRANCH   1   2
BRANCH   1   9
ATOM      9  C   UNL     1     117.135 255.413 339.372  1.00  0.00     0.100 C 
BRANCH   9  10
ATOM     10  C   UNL     1     116.539 256.745 339.035  1.00  0.00     0.220 C 
ATOM     11  O   UNL     1     117.160 257.798 339.341  1.00  0.00    -0.275 OA
ATOM     12  N   UNL     1     115.252 256.819 338.401  1.00  0.00    -0.352 N 
ATOM     13  H   UNL     1     114.735 255.934 338.199  1.00  0.00     0.163 HD
BRANCH  12  14
ATOM     14  C   UNL     1     114.620 258.090 338.055  1.00  0.00     0.151 C 
BRANCH  14  15
ATOM     15  C   UNL     1     113.761 257.931 336.828  1.00  0.00    -0.025 A 
ATOM     16  C   UNL     1     114.241 258.343 335.575  1.00  0.00     0.056 A 
ATOM     17  C   UNL     1     112.467 257.398 336.931  1.00  0.00     0.009 A 
ATOM     18  C   UNL     1     113.436 258.220 334.424  1.00  0.00     0.160 A 
ATOM     19  C   UNL     1     111.666 257.273 335.794  1.00  0.00     0.050 A 
ATOM     20  C   UNL     1     112.146 257.683 334.543  1.00  0.00     0.157 A 
BRANCH  18  21
ATOM     21  O   UNL     1     113.879 258.622 333.155  1.00  0.00    -0.493 OA
ATOM     22  C   UNL     1     115.182 259.125 332.876  1.00  0.00     0.278 C 
ENDBRANCH  18  21
BRANCH  20  23
ATOM     23  O   UNL     1     111.343 257.561 333.410  1.00  0.00    -0.504 OA
ATOM     24  H   UNL     1     111.699 257.162 332.547  1.00  0.00     0.293 HD
ENDBRANCH  20  23
ENDBRANCH  14  15
ENDBRANCH  12  14
ENDBRANCH   9  10
ENDBRANCH   1   9
TORSDOF 10
ENDMDL
MODEL 4
REMARK VINA RESULT:    -4.517      3.895      7.093
REMARK INTER + INTRA:          -7.609
REMARK INTER:                  -7.251
REMARK INTRA:                  -0.359
REMARK UNBOUND:                -0.583
REMARK SMILES COc1cc(CNC(=O)CCCCC=CC(C)C)ccc1O
REMARK SMILES IDX 11 1 12 2 13 3 14 4 15 5 16 6 17 7 18 8 10 9 8 10 9 11 7 12
REMARK SMILES IDX 6 14 5 15 4 16 19 17 3 18 20 19 21 20 2 21 1 22 22 23
REMARK H PARENT 7 13 22 24
REMARK Flexibility Score: inf
ROOT
ATOM      1  C   UNL     1     113.996 254.400 343.944  1.00  0.00     0.010 C 
ENDROOT
BRANCH   1   2
ATOM      2  C   UNL     1     114.796 255.466 343.171  1.00  0.00     0.005 C 
BRANCH   2   3
ATOM      3  C   UNL     1     116.153 254.970 342.641  1.00  0.00     0.027 C 
BRANCH   3   4
ATOM      4  C   UNL     1     116.608 255.728 341.421  1.00  0.00    -0.031 C 
ATOM      5  C   UNL     1     117.761 255.437 340.799  1.00  0.00    -0.028 C 
BRANCH   5   6
ATOM      6  C   UNL     1     118.201 256.195 339.569  1.00  0.00     0.005 C 
ATOM      7  C   UNL     1     119.303 257.201 339.924  1.00  0.00     0.012 C 
ATOM      8  C   UNL     1     117.010 256.914 338.928  1.00  0.00     0.012 C 
ENDBRANCH   5   6
ENDBRANCH   3   4
ENDBRANCH   2   3
ENDBRANCH   1   2
BRANCH   1   9
ATOM      9  C   UNL     1     114.024 254.627 345.461  1.00  0.00     0.100 C 
BRANCH   9  10
ATOM     10  C   UNL     1     114.043 256.093 345.769  1.00  0.00     0.220 C 
ATOM     11  O   UNL     1     113.066 256.811 345.425  1.00  0.00    -0.275 OA
ATOM     12  N   UNL     1     115.183 256.679 346.416  1.00  0.00    -0.352 N 
ATOM     13  H   UNL     1     116.001 256.071 346.650  1.00  0.00     0.163 HD
BRANCH  12  14
ATOM     14  C   UNL     1     115.259 258.102 346.735  1.00  0.00     0.151 C 
BRANCH  14  15
ATOM     15  C   UNL     1     116.036 258.314 348.007  1.00  0.00    -0.025 A 
ATOM     16  C   UNL     1     115.364 258.400 349.237  1.00  0.00     0.056 A 
ATOM     17  C   UNL     1     117.432 258.455 347.972  1.00  0.00     0.009 A 
ATOM     18  C   UNL     1     116.081 258.622 350.431  1.00  0.00     0.160 A 
ATOM     19  C   UNL     1     118.147 258.674 349.151  1.00  0.00     0.050 A 
ATOM     20  C   UNL     1     117.476 258.758 350.379  1.00  0.00     0.157 A 
BRANCH  18  21
ATOM     21  O   UNL     1     115.445 258.716 351.678  1.00  0.00    -0.493 OA
ATOM     22  C   UNL     1     115.255 257.623 352.572  1.00  0.00     0.278 C 
ENDBRANCH  18  21
BRANCH  20  23
ATOM     23  O   UNL     1     118.191 258.980 351.555  1.00  0.00    -0.504 OA
ATOM     24  H   UNL     1     118.705 258.235 352.012  1.00  0.00     0.293 HD
ENDBRANCH  20  23
ENDBRANCH  14  15
ENDBRANCH  12  14
ENDBRANCH   9  10
ENDBRANCH   1   9
TORSDOF 10
ENDMDL
MODEL 5
REMARK VINA RESULT:    -3.629      1.216      2.062
REMARK INTER + INTRA:          -6.228
REMARK INTER:                  -5.534
REMARK INTRA:                  -0.695
REMARK UNBOUND:                -0.583
REMARK SMILES COc1cc(CNC(=O)CCCCC=CC(C)C)ccc1O
REMARK SMILES IDX 11 1 12 2 13 3 14 4 15 5 16 6 17 7 18 8 10 9 8 10 9 11 7 12
REMARK SMILES IDX 6 14 5 15 4 16 19 17 3 18 20 19 21 20 2 21 1 22 22 23
REMARK H PARENT 7 13 22 24
REMARK Flexibility Score: inf
ROOT
ATOM      1  C   UNL     1     118.127 256.847 339.377  1.00  0.00     0.010 C 
ENDROOT
BRANCH   1   2
ATOM      2  C   UNL     1     116.918 257.677 338.907  1.00  0.00     0.005 C 
BRANCH   2   3
ATOM      3  C   UNL     1     115.717 256.832 338.446  1.00  0.00     0.027 C 
BRANCH   3   4
ATOM      4  C   UNL     1     114.643 257.662 337.793  1.00  0.00    -0.031 C 
ATOM      5  C   UNL     1     113.754 257.124 336.944  1.00  0.00    -0.028 C 
BRANCH   5   6
ATOM      6  C   UNL     1     112.673 257.964 336.305  1.00  0.00     0.005 C 
ATOM      7  C   UNL     1     113.206 258.651 335.042  1.00  0.00     0.012 C 
ATOM      8  C   UNL     1     112.147 259.005 337.296  1.00  0.00     0.012 C 
ENDBRANCH   5   6
ENDBRANCH   3   4
ENDBRANCH   2   3
ENDBRANCH   1   2
BRANCH   1   9
ATOM      9  C   UNL     1     118.228 256.763 340.905  1.00  0.00     0.100 C 
BRANCH   9  10
ATOM     10  C   UNL     1     117.571 255.512 341.402  1.00  0.00     0.220 C 
ATOM     11  O   UNL     1     118.232 254.439 341.446  1.00  0.00    -0.275 OA
ATOM     12  N   UNL     1     116.188 255.529 341.789  1.00  0.00    -0.352 N 
ATOM     13  H   UNL     1     115.648 256.419 341.700  1.00  0.00     0.163 HD
BRANCH  12  14
ATOM     14  C   UNL     1     115.495 254.338 342.275  1.00  0.00     0.151 C 
BRANCH  14  15
ATOM     15  C   UNL     1     114.513 254.708 343.355  1.00  0.00    -0.025 A 
ATOM     16  C   UNL     1     114.918 255.518 344.428  1.00  0.00     0.056 A 
ATOM     17  C   UNL     1     113.196 254.225 343.314  1.00  0.00     0.009 A 
ATOM     18  C   UNL     1     114.013 255.851 345.456  1.00  0.00     0.160 A 
ATOM     19  C   UNL     1     112.295 254.552 344.330  1.00  0.00     0.050 A 
ATOM     20  C   UNL     1     112.699 255.362 345.399  1.00  0.00     0.157 A 
BRANCH  18  21
ATOM     21  O   UNL     1     114.380 256.655 346.546  1.00  0.00    -0.493 OA
ATOM     22  C   UNL     1     115.183 257.828 346.449  1.00  0.00     0.278 C 
ENDBRANCH  18  21
BRANCH  20  23
ATOM     23  O   UNL     1     111.799 255.684 346.414  1.00  0.00    -0.504 OA
ATOM     24  H   UNL     1     110.806 255.499 346.321  1.00  0.00     0.293 HD
ENDBRANCH  20  23
ENDBRANCH  14  15
ENDBRANCH  12  14
ENDBRANCH   9  10
ENDBRANCH   1   9
TORSDOF 10
ENDMDL
