MODEL 1
REMARK VINA RESULT:    -3.578      0.000      0.000
REMARK INTER + INTRA:          -9.091
REMARK INTER:                  -6.506
REMARK INTRA:                  -2.584
REMARK UNBOUND:                -2.584
REMARK SMILES CCCCCC=CCC=CCCCCCCCC(=O)[O-]
REMARK SMILES IDX 11 1 12 2 13 3 14 4 15 5 16 6 17 7 18 8 19 9 20 10 10 11
REMARK SMILES IDX 9 12 8 13 7 14 6 15 5 16 4 17 3 18 2 19 1 20
REMARK H PARENT
REMARK Flexibility Score: inf
ROOT
ATOM      1  C   UNL     1      25.682  -3.788 -30.444  1.00  0.00     0.027 C 
ENDROOT
BRANCH   1   2
ATOM      2  C   UNL     1      24.357  -4.563 -30.498  1.00  0.00     0.004 C 
BRANCH   2   3
ATOM      3  C   UNL     1      24.190  -5.364 -31.798  1.00  0.00     0.000 C 
BRANCH   3   4
ATOM      4  C   UNL     1      25.042  -4.805 -32.951  1.00  0.00     0.000 C 
BRANCH   4   5
ATOM      5  C   UNL     1      24.246  -3.884 -33.893  1.00  0.00     0.000 C 
BRANCH   5   6
ATOM      6  C   UNL     1      24.475  -2.373 -33.681  1.00  0.00     0.006 C 
BRANCH   6   7
ATOM      7  C   UNL     1      23.194  -1.524 -33.693  1.00  0.00     0.053 C 
BRANCH   7   8
ATOM      8  C   UNL     1      22.561  -1.447 -32.338  1.00  0.00     0.041 C 
ATOM      9  O   UNL     1      21.312  -1.543 -32.214  1.00  0.00    -0.550 OA
ATOM     10  O   UNL     1      23.350  -1.237 -31.214  1.00  0.00    -0.550 OA
ENDBRANCH   7   8
ENDBRANCH   6   7
ENDBRANCH   5   6
ENDBRANCH   4   5
ENDBRANCH   3   4
ENDBRANCH   2   3
ENDBRANCH   1   2
BRANCH   1  11
ATOM     11  C   UNL     1      26.250  -3.797 -29.047  1.00  0.00    -0.031 C 
ATOM     12  C   UNL     1      27.245  -4.605 -28.638  1.00  0.00    -0.027 C 
BRANCH  12  13
ATOM     13  C   UNL     1      27.890  -5.645 -29.520  1.00  0.00     0.054 C 
BRANCH  13  14
ATOM     14  C   UNL     1      28.019  -6.964 -28.803  1.00  0.00    -0.027 C 
ATOM     15  C   UNL     1      27.039  -7.885 -28.715  1.00  0.00    -0.031 C 
BRANCH  15  16
ATOM     16  C   UNL     1      25.671  -7.753 -29.343  1.00  0.00     0.027 C 
BRANCH  16  17
ATOM     17  C   UNL     1      24.556  -7.953 -28.308  1.00  0.00     0.004 C 
BRANCH  17  18
ATOM     18  C   UNL     1      25.076  -7.836 -26.865  1.00  0.00     0.000 C 
BRANCH  18  19
ATOM     19  C   UNL     1      24.969  -6.406 -26.313  1.00  0.00    -0.003 C 
ATOM     20  C   UNL     1      23.814  -5.619 -26.930  1.00  0.00     0.004 C 
ENDBRANCH  18  19
ENDBRANCH  17  18
ENDBRANCH  16  17
ENDBRANCH  15  16
ENDBRANCH  13  14
ENDBRANCH  12  13
ENDBRANCH   1  11
TORSDOF 14
ENDMDL
MODEL 2
REMARK VINA RESULT:    -3.502      1.487      2.515
REMARK INTER + INTRA:          -8.951
REMARK INTER:                  -6.125
REMARK INTRA:                  -2.827
REMARK UNBOUND:                -2.584
REMARK SMILES CCCCCC=CCC=CCCCCCCCC(=O)[O-]
REMARK SMILES IDX 11 1 12 2 13 3 14 4 15 5 16 6 17 7 18 8 19 9 20 10 10 11
REMARK SMILES IDX 9 12 8 13 7 14 6 15 5 16 4 17 3 18 2 19 1 20
REMARK H PARENT
REMARK Flexibility Score: inf
ROOT
ATOM      1  C   UNL     1      27.126  -3.352 -30.515  1.00  0.00     0.027 C 
ENDROOT
BRANCH   1   2
ATOM      2  C   UNL     1      27.178  -4.437 -31.600  1.00  0.00     0.004 C 
BRANCH   2   3
ATOM      3  C   UNL     1      27.478  -3.868 -32.996  1.00  0.00     0.000 C 
BRANCH   3   4
ATOM      4  C   UNL     1      26.523  -4.411 -34.073  1.00  0.00     0.000 C 
BRANCH   4   5
ATOM      5  C   UNL     1      25.207  -4.955 -33.488  1.00  0.00     0.000 C 
BRANCH   5   6
ATOM      6  C   UNL     1      23.999  -4.000 -33.588  1.00  0.00     0.006 C 
BRANCH   6   7
ATOM      7  C   UNL     1      24.339  -2.590 -34.095  1.00  0.00     0.053 C 
BRANCH   7   8
ATOM      8  C   UNL     1      23.211  -1.629 -33.875  1.00  0.00     0.041 C 
ATOM      9  O   UNL     1      22.946  -0.753 -34.738  1.00  0.00    -0.550 OA
ATOM     10  O   UNL     1      22.473  -1.683 -32.699  1.00  0.00    -0.550 OA
ENDBRANCH   7   8
ENDBRANCH   6   7
ENDBRANCH   5   6
ENDBRANCH   4   5
ENDBRANCH   3   4
ENDBRANCH   2   3
ENDBRANCH   1   2
BRANCH   1  11
ATOM     11  C   UNL     1      25.939  -2.444 -30.723  1.00  0.00    -0.031 C 
ATOM     12  C   UNL     1      24.727  -2.644 -30.176  1.00  0.00    -0.027 C 
BRANCH  12  13
ATOM     13  C   UNL     1      24.386  -3.837 -29.317  1.00  0.00     0.054 C 
BRANCH  13  14
ATOM     14  C   UNL     1      23.679  -4.901 -30.117  1.00  0.00    -0.027 C 
ATOM     15  C   UNL     1      24.040  -6.198 -30.149  1.00  0.00    -0.031 C 
BRANCH  15  16
ATOM     16  C   UNL     1      25.189  -6.795 -29.369  1.00  0.00     0.027 C 
BRANCH  16  17
ATOM     17  C   UNL     1      24.728  -7.974 -28.503  1.00  0.00     0.004 C 
BRANCH  17  18
ATOM     18  C   UNL     1      25.041  -7.757 -27.013  1.00  0.00     0.000 C 
BRANCH  18  19
ATOM     19  C   UNL     1      25.102  -6.270 -26.633  1.00  0.00    -0.003 C 
ATOM     20  C   UNL     1      23.747  -5.716 -26.194  1.00  0.00     0.004 C 
ENDBRANCH  18  19
ENDBRANCH  17  18
ENDBRANCH  16  17
ENDBRANCH  15  16
ENDBRANCH  13  14
ENDBRANCH  12  13
ENDBRANCH   1  11
TORSDOF 14
ENDMDL
MODEL 3
REMARK VINA RESULT:    -3.412      7.751     10.388
REMARK INTER + INTRA:          -8.788
REMARK INTER:                  -5.660
REMARK INTRA:                  -3.128
REMARK UNBOUND:                -2.584
REMARK SMILES CCCCCC=CCC=CCCCCCCCC(=O)[O-]
REMARK SMILES IDX 11 1 12 2 13 3 14 4 15 5 16 6 17 7 18 8 19 9 20 10 10 11
REMARK SMILES IDX 9 12 8 13 7 14 6 15 5 16 4 17 3 18 2 19 1 20
REMARK H PARENT
REMARK Flexibility Score: inf
ROOT
ATOM      1  C   UNL     1      29.813  -0.504 -38.642  1.00  0.00     0.027 C 
ENDROOT
BRANCH   1   2
ATOM      2  C   UNL     1      30.112  -1.521 -39.753  1.00  0.00     0.004 C 
BRANCH   2   3
ATOM      3  C   UNL     1      29.102  -2.679 -39.787  1.00  0.00     0.000 C 
BRANCH   3   4
ATOM      4  C   UNL     1      29.783  -4.057 -39.803  1.00  0.00     0.000 C 
BRANCH   4   5
ATOM      5  C   UNL     1      29.035  -5.107 -38.962  1.00  0.00     0.000 C 
BRANCH   5   6
ATOM      6  C   UNL     1      28.763  -4.702 -37.498  1.00  0.00     0.006 C 
BRANCH   6   7
ATOM      7  C   UNL     1      27.284  -4.450 -37.167  1.00  0.00     0.053 C 
BRANCH   7   8
ATOM      8  C   UNL     1      27.065  -4.246 -35.699  1.00  0.00     0.041 C 
ATOM      9  O   UNL     1      27.724  -3.374 -35.075  1.00  0.00    -0.550 OA
ATOM     10  O   UNL     1      26.155  -5.042 -35.016  1.00  0.00    -0.550 OA
ENDBRANCH   7   8
ENDBRANCH   6   7
ENDBRANCH   5   6
ENDBRANCH   4   5
ENDBRANCH   3   4
ENDBRANCH   2   3
ENDBRANCH   1   2
BRANCH   1  11
ATOM     11  C   UNL     1      29.700  -1.191 -37.304  1.00  0.00    -0.031 C 
ATOM     12  C   UNL     1      30.290  -0.755 -36.176  1.00  0.00    -0.027 C 
BRANCH  12  13
ATOM     13  C   UNL     1      31.184   0.459 -36.118  1.00  0.00     0.054 C 
BRANCH  13  14
ATOM     14  C   UNL     1      32.590   0.082 -35.728  1.00  0.00    -0.027 C 
ATOM     15  C   UNL     1      33.568  -0.228 -36.601  1.00  0.00    -0.031 C 
BRANCH  15  16
ATOM     16  C   UNL     1      33.417  -0.221 -38.104  1.00  0.00     0.027 C 
BRANCH  16  17
ATOM     17  C   UNL     1      33.413  -1.644 -38.675  1.00  0.00     0.004 C 
BRANCH  17  18
ATOM     18  C   UNL     1      33.633  -2.708 -37.586  1.00  0.00     0.000 C 
BRANCH  18  19
ATOM     19  C   UNL     1      32.429  -3.649 -37.428  1.00  0.00    -0.003 C 
ATOM     20  C   UNL     1      32.122  -3.976 -35.967  1.00  0.00     0.004 C 
ENDBRANCH  18  19
ENDBRANCH  17  18
ENDBRANCH  16  17
ENDBRANCH  15  16
ENDBRANCH  13  14
ENDBRANCH  12  13
ENDBRANCH   1  11
TORSDOF 14
ENDMDL
MODEL 4
REMARK VINA RESULT:    -3.389     10.364     12.413
REMARK INTER + INTRA:          -8.746
REMARK INTER:                  -6.864
REMARK INTRA:                  -1.882
REMARK UNBOUND:                -2.584
REMARK SMILES CCCCCC=CCC=CCCCCCCCC(=O)[O-]
REMARK SMILES IDX 11 1 12 2 13 3 14 4 15 5 16 6 17 7 18 8 19 9 20 10 10 11
REMARK SMILES IDX 9 12 8 13 7 14 6 15 5 16 4 17 3 18 2 19 1 20
REMARK H PARENT
REMARK Flexibility Score: inf
ROOT
ATOM      1  C   UNL     1      30.561   1.119 -36.227  1.00  0.00     0.027 C 
ENDROOT
BRANCH   1   2
ATOM      2  C   UNL     1      30.350   2.496 -35.582  1.00  0.00     0.004 C 
BRANCH   2   3
ATOM      3  C   UNL     1      31.220   2.708 -34.333  1.00  0.00     0.000 C 
BRANCH   3   4
ATOM      4  C   UNL     1      32.424   1.751 -34.283  1.00  0.00     0.000 C 
BRANCH   4   5
ATOM      5  C   UNL     1      33.702   2.424 -33.750  1.00  0.00     0.000 C 
BRANCH   5   6
ATOM      6  C   UNL     1      33.516   3.861 -33.220  1.00  0.00     0.006 C 
BRANCH   6   7
ATOM      7  C   UNL     1      34.793   4.715 -33.226  1.00  0.00     0.053 C 
BRANCH   7   8
ATOM      8  C   UNL     1      35.217   5.098 -31.840  1.00  0.00     0.041 C 
ATOM      9  O   UNL     1      34.843   4.415 -30.852  1.00  0.00    -0.550 OA
ATOM     10  O   UNL     1      35.999   6.228 -31.641  1.00  0.00    -0.550 OA
ENDBRANCH   7   8
ENDBRANCH   6   7
ENDBRANCH   5   6
ENDBRANCH   4   5
ENDBRANCH   3   4
ENDBRANCH   2   3
ENDBRANCH   1   2
BRANCH   1  11
ATOM     11  C   UNL     1      30.656   1.239 -37.727  1.00  0.00    -0.031 C 
ATOM     12  C   UNL     1      31.689   0.786 -38.460  1.00  0.00    -0.027 C 
BRANCH  12  13
ATOM     13  C   UNL     1      32.913   0.137 -37.863  1.00  0.00     0.054 C 
BRANCH  13  14
ATOM     14  C   UNL     1      33.399  -1.004 -38.720  1.00  0.00    -0.027 C 
ATOM     15  C   UNL     1      32.952  -2.271 -38.630  1.00  0.00    -0.031 C 
BRANCH  15  16
ATOM     16  C   UNL     1      31.878  -2.742 -37.677  1.00  0.00     0.027 C 
BRANCH  16  17
ATOM     17  C   UNL     1      30.670  -3.313 -38.430  1.00  0.00     0.004 C 
BRANCH  17  18
ATOM     18  C   UNL     1      30.251  -2.426 -39.614  1.00  0.00     0.000 C 
BRANCH  18  19
ATOM     19  C   UNL     1      28.774  -2.008 -39.546  1.00  0.00    -0.003 C 
ATOM     20  C   UNL     1      28.327  -1.645 -38.131  1.00  0.00     0.004 C 
ENDBRANCH  18  19
ENDBRANCH  17  18
ENDBRANCH  16  17
ENDBRANCH  15  16
ENDBRANCH  13  14
ENDBRANCH  12  13
ENDBRANCH   1  11
TORSDOF 14
ENDMDL
MODEL 5
REMARK VINA RESULT:    -3.382     12.728     14.900
REMARK INTER + INTRA:          -8.735
REMARK INTER:                  -5.946
REMARK INTRA:                  -2.789
REMARK UNBOUND:                -2.584
REMARK SMILES CCCCCC=CCC=CCCCCCCCC(=O)[O-]
REMARK SMILES IDX 11 1 12 2 13 3 14 4 15 5 16 6 17 7 18 8 19 9 20 10 10 11
REMARK SMILES IDX 9 12 8 13 7 14 6 15 5 16 4 17 3 18 2 19 1 20
REMARK H PARENT
REMARK Flexibility Score: inf
ROOT
ATOM      1  C   UNL     1      32.145   4.873 -32.788  1.00  0.00     0.027 C 
ENDROOT
BRANCH   1   2
ATOM      2  C   UNL     1      31.684   4.870 -31.324  1.00  0.00     0.004 C 
BRANCH   2   3
ATOM      3  C   UNL     1      32.080   3.586 -30.579  1.00  0.00     0.000 C 
BRANCH   3   4
ATOM      4  C   UNL     1      32.788   3.872 -29.243  1.00  0.00     0.000 C 
BRANCH   4   5
ATOM      5  C   UNL     1      34.315   4.000 -29.390  1.00  0.00     0.000 C 
BRANCH   5   6
ATOM      6  C   UNL     1      34.999   4.917 -28.355  1.00  0.00     0.006 C 
BRANCH   6   7
ATOM      7  C   UNL     1      34.050   5.521 -27.309  1.00  0.00     0.053 C 
BRANCH   7   8
ATOM      8  C   UNL     1      34.296   4.961 -25.941  1.00  0.00     0.041 C 
ATOM      9  O   UNL     1      34.683   5.712 -25.008  1.00  0.00    -0.550 OA
ATOM     10  O   UNL     1      34.128   3.602 -25.706  1.00  0.00    -0.550 OA
ENDBRANCH   7   8
ENDBRANCH   6   7
ENDBRANCH   5   6
ENDBRANCH   4   5
ENDBRANCH   3   4
ENDBRANCH   2   3
ENDBRANCH   1   2
BRANCH   1  11
ATOM     11  C   UNL     1      33.230   3.849 -33.010  1.00  0.00    -0.031 C 
ATOM     12  C   UNL     1      34.520   4.150 -33.241  1.00  0.00    -0.027 C 
BRANCH  12  13
ATOM     13  C   UNL     1      35.040   5.561 -33.354  1.00  0.00     0.054 C 
BRANCH  13  14
ATOM     14  C   UNL     1      35.814   5.958 -32.124  1.00  0.00    -0.027 C 
ATOM     15  C   UNL     1      35.505   7.002 -31.330  1.00  0.00    -0.031 C 
BRANCH  15  16
ATOM     16  C   UNL     1      34.321   7.919 -31.533  1.00  0.00     0.027 C 
BRANCH  16  17
ATOM     17  C   UNL     1      33.371   7.884 -30.329  1.00  0.00     0.004 C 
BRANCH  17  18
ATOM     18  C   UNL     1      32.790   9.272 -30.008  1.00  0.00     0.000 C 
BRANCH  18  19
ATOM     19  C   UNL     1      31.960   9.279 -28.715  1.00  0.00    -0.003 C 
ATOM     20  C   UNL     1      32.823   9.163 -27.458  1.00  0.00     0.004 C 
ENDBRANCH  18  19
ENDBRANCH  17  18
ENDBRANCH  16  17
ENDBRANCH  15  16
ENDBRANCH  13  14
ENDBRANCH  12  13
ENDBRANCH   1  11
TORSDOF 14
ENDMDL
MODEL 6
REMARK VINA RESULT:    -3.360      1.948      3.249
REMARK INTER + INTRA:          -8.694
REMARK INTER:                  -5.743
REMARK INTRA:                  -2.951
REMARK UNBOUND:                -2.584
REMARK SMILES CCCCCC=CCC=CCCCCCCCC(=O)[O-]
REMARK SMILES IDX 11 1 12 2 13 3 14 4 15 5 16 6 17 7 18 8 19 9 20 10 10 11
REMARK SMILES IDX 9 12 8 13 7 14 6 15 5 16 4 17 3 18 2 19 1 20
REMARK H PARENT
REMARK Flexibility Score: inf
ROOT
ATOM      1  C   UNL     1      27.145  -4.360 -28.155  1.00  0.00     0.027 C 
ENDROOT
BRANCH   1   2
ATOM      2  C   UNL     1      26.385  -3.093 -28.571  1.00  0.00     0.004 C 
BRANCH   2   3
ATOM      3  C   UNL     1      24.862  -3.292 -28.592  1.00  0.00     0.000 C 
BRANCH   3   4
ATOM      4  C   UNL     1      24.289  -3.328 -30.019  1.00  0.00     0.000 C 
BRANCH   4   5
ATOM      5  C   UNL     1      23.659  -4.686 -30.378  1.00  0.00     0.000 C 
BRANCH   5   6
ATOM      6  C   UNL     1      24.450  -5.526 -31.402  1.00  0.00     0.006 C 
BRANCH   6   7
ATOM      7  C   UNL     1      25.510  -4.742 -32.191  1.00  0.00     0.053 C 
BRANCH   7   8
ATOM      8  C   UNL     1      25.156  -4.628 -33.642  1.00  0.00     0.041 C 
ATOM      9  O   UNL     1      25.929  -5.089 -34.522  1.00  0.00    -0.550 OA
ATOM     10  O   UNL     1      23.986  -3.983 -34.023  1.00  0.00    -0.550 OA
ENDBRANCH   7   8
ENDBRANCH   6   7
ENDBRANCH   5   6
ENDBRANCH   4   5
ENDBRANCH   3   4
ENDBRANCH   2   3
ENDBRANCH   1   2
BRANCH   1  11
ATOM     11  C   UNL     1      27.856  -4.971 -29.336  1.00  0.00    -0.031 C 
ATOM     12  C   UNL     1      27.956  -6.294 -29.559  1.00  0.00    -0.027 C 
BRANCH  12  13
ATOM     13  C   UNL     1      27.406  -7.341 -28.623  1.00  0.00     0.054 C 
BRANCH  13  14
ATOM     14  C   UNL     1      26.186  -8.008 -29.205  1.00  0.00    -0.027 C 
ATOM     15  C   UNL     1      24.932  -7.846 -28.742  1.00  0.00    -0.031 C 
BRANCH  15  16
ATOM     16  C   UNL     1      24.548  -6.951 -27.586  1.00  0.00     0.027 C 
BRANCH  16  17
ATOM     17  C   UNL     1      24.981  -7.551 -26.243  1.00  0.00     0.004 C 
BRANCH  17  18
ATOM     18  C   UNL     1      25.476  -6.476 -25.260  1.00  0.00     0.000 C 
BRANCH  18  19
ATOM     19  C   UNL     1      24.744  -5.136 -25.433  1.00  0.00    -0.003 C 
ATOM     20  C   UNL     1      24.200  -4.586 -24.115  1.00  0.00     0.004 C 
ENDBRANCH  18  19
ENDBRANCH  17  18
ENDBRANCH  16  17
ENDBRANCH  15  16
ENDBRANCH  13  14
ENDBRANCH  12  13
ENDBRANCH   1  11
TORSDOF 14
ENDMDL
MODEL 7
REMARK VINA RESULT:    -3.348      1.958      4.315
REMARK INTER + INTRA:          -8.673
REMARK INTER:                  -5.735
REMARK INTRA:                  -2.938
REMARK UNBOUND:                -2.584
REMARK SMILES CCCCCC=CCC=CCCCCCCCC(=O)[O-]
REMARK SMILES IDX 11 1 12 2 13 3 14 4 15 5 16 6 17 7 18 8 19 9 20 10 10 11
REMARK SMILES IDX 9 12 8 13 7 14 6 15 5 16 4 17 3 18 2 19 1 20
REMARK H PARENT
REMARK Flexibility Score: inf
ROOT
ATOM      1  C   UNL     1      27.508  -7.363 -28.166  1.00  0.00     0.027 C 
ENDROOT
BRANCH   1   2
ATOM      2  C   UNL     1      28.223  -6.074 -28.594  1.00  0.00     0.004 C 
BRANCH   2   3
ATOM      3  C   UNL     1      27.451  -5.294 -29.670  1.00  0.00     0.000 C 
BRANCH   3   4
ATOM      4  C   UNL     1      26.448  -4.294 -29.069  1.00  0.00     0.000 C 
BRANCH   4   5
ATOM      5  C   UNL     1      25.519  -3.668 -30.125  1.00  0.00     0.000 C 
BRANCH   5   6
ATOM      6  C   UNL     1      24.161  -4.377 -30.308  1.00  0.00     0.006 C 
BRANCH   6   7
ATOM      7  C   UNL     1      24.148  -5.464 -31.394  1.00  0.00     0.053 C 
BRANCH   7   8
ATOM      8  C   UNL     1      24.355  -4.890 -32.762  1.00  0.00     0.041 C 
ATOM      9  O   UNL     1      25.406  -5.145 -33.405  1.00  0.00    -0.550 OA
ATOM     10  O   UNL     1      23.398  -4.047 -33.314  1.00  0.00    -0.550 OA
ENDBRANCH   7   8
ENDBRANCH   6   7
ENDBRANCH   5   6
ENDBRANCH   4   5
ENDBRANCH   3   4
ENDBRANCH   2   3
ENDBRANCH   1   2
BRANCH   1  11
ATOM     11  C   UNL     1      26.545  -7.820 -29.233  1.00  0.00    -0.031 C 
ATOM     12  C   UNL     1      25.242  -8.074 -29.019  1.00  0.00    -0.027 C 
BRANCH  12  13
ATOM     13  C   UNL     1      24.585  -7.979 -27.665  1.00  0.00     0.054 C 
BRANCH  13  14
ATOM     14  C   UNL     1      24.115  -6.575 -27.384  1.00  0.00    -0.027 C 
ATOM     15  C   UNL     1      24.253  -5.945 -26.201  1.00  0.00    -0.031 C 
BRANCH  15  16
ATOM     16  C   UNL     1      24.923  -6.535 -24.982  1.00  0.00     0.027 C 
BRANCH  16  17
ATOM     17  C   UNL     1      26.233  -5.807 -24.653  1.00  0.00     0.004 C 
BRANCH  17  18
ATOM     18  C   UNL     1      26.390  -4.504 -25.455  1.00  0.00     0.000 C 
BRANCH  18  19
ATOM     19  C   UNL     1      27.856  -4.063 -25.583  1.00  0.00    -0.003 C 
ATOM     20  C   UNL     1      27.999  -2.617 -26.056  1.00  0.00     0.004 C 
ENDBRANCH  18  19
ENDBRANCH  17  18
ENDBRANCH  16  17
ENDBRANCH  15  16
ENDBRANCH  13  14
ENDBRANCH  12  13
ENDBRANCH   1  11
TORSDOF 14
ENDMDL
MODEL 8
REMARK VINA RESULT:    -3.348      9.985     12.136
REMARK INTER + INTRA:          -8.672
REMARK INTER:                  -6.370
REMARK INTRA:                  -2.302
REMARK UNBOUND:                -2.584
REMARK SMILES CCCCCC=CCC=CCCCCCCCC(=O)[O-]
REMARK SMILES IDX 11 1 12 2 13 3 14 4 15 5 16 6 17 7 18 8 19 9 20 10 10 11
REMARK SMILES IDX 9 12 8 13 7 14 6 15 5 16 4 17 3 18 2 19 1 20
REMARK H PARENT
REMARK Flexibility Score: inf
ROOT
ATOM      1  C   UNL     1      31.738  -0.804 -34.686  1.00  0.00     0.027 C 
ENDROOT
BRANCH   1   2
ATOM      2  C   UNL     1      31.971   0.711 -34.768  1.00  0.00     0.004 C 
BRANCH   2   3
ATOM      3  C   UNL     1      33.460   1.080 -34.854  1.00  0.00     0.000 C 
BRANCH   3   4
ATOM      4  C   UNL     1      33.896   2.042 -33.736  1.00  0.00     0.000 C 
BRANCH   4   5
ATOM      5  C   UNL     1      32.775   3.004 -33.302  1.00  0.00     0.000 C 
BRANCH   5   6
ATOM      6  C   UNL     1      33.213   4.468 -33.085  1.00  0.00     0.006 C 
BRANCH   6   7
ATOM      7  C   UNL     1      34.729   4.702 -33.176  1.00  0.00     0.053 C 
BRANCH   7   8
ATOM      8  C   UNL     1      35.276   5.322 -31.927  1.00  0.00     0.041 C 
ATOM      9  O   UNL     1      35.818   6.457 -31.967  1.00  0.00    -0.550 OA
ATOM     10  O   UNL     1      35.214   4.631 -30.724  1.00  0.00    -0.550 OA
ENDBRANCH   7   8
ENDBRANCH   6   7
ENDBRANCH   5   6
ENDBRANCH   4   5
ENDBRANCH   3   4
ENDBRANCH   2   3
ENDBRANCH   1   2
BRANCH   1  11
ATOM     11  C   UNL     1      33.049  -1.550 -34.723  1.00  0.00    -0.031 C 
ATOM     12  C   UNL     1      33.161  -2.878 -34.904  1.00  0.00    -0.027 C 
BRANCH  12  13
ATOM     13  C   UNL     1      31.977  -3.802 -35.047  1.00  0.00     0.054 C 
BRANCH  13  14
ATOM     14  C   UNL     1      32.030  -4.559 -36.349  1.00  0.00    -0.027 C 
ATOM     15  C   UNL     1      31.496  -4.125 -37.507  1.00  0.00    -0.031 C 
BRANCH  15  16
ATOM     16  C   UNL     1      30.787  -2.803 -37.689  1.00  0.00     0.027 C 
BRANCH  16  17
ATOM     17  C   UNL     1      31.391  -1.997 -38.845  1.00  0.00     0.004 C 
BRANCH  17  18
ATOM     18  C   UNL     1      32.904  -1.776 -38.671  1.00  0.00     0.000 C 
BRANCH  18  19
ATOM     19  C   UNL     1      33.248  -0.330 -38.281  1.00  0.00    -0.003 C 
ATOM     20  C   UNL     1      32.076   0.631 -38.478  1.00  0.00     0.004 C 
ENDBRANCH  18  19
ENDBRANCH  17  18
ENDBRANCH  16  17
ENDBRANCH  15  16
ENDBRANCH  13  14
ENDBRANCH  12  13
ENDBRANCH   1  11
TORSDOF 14
ENDMDL
MODEL 9
REMARK VINA RESULT:    -3.298     10.884     13.035
REMARK INTER + INTRA:          -8.581
REMARK INTER:                  -6.799
REMARK INTRA:                  -1.781
REMARK UNBOUND:                -2.584
REMARK SMILES CCCCCC=CCC=CCCCCCCCC(=O)[O-]
REMARK SMILES IDX 11 1 12 2 13 3 14 4 15 5 16 6 17 7 18 8 19 9 20 10 10 11
REMARK SMILES IDX 9 12 8 13 7 14 6 15 5 16 4 17 3 18 2 19 1 20
REMARK H PARENT
REMARK Flexibility Score: inf
ROOT
ATOM      1  C   UNL     1      33.508   1.846 -33.564  1.00  0.00     0.027 C 
ENDROOT
BRANCH   1   2
ATOM      2  C   UNL     1      32.556   3.042 -33.712  1.00  0.00     0.004 C 
BRANCH   2   3
ATOM      3  C   UNL     1      33.121   4.332 -33.097  1.00  0.00     0.000 C 
BRANCH   3   4
ATOM      4  C   UNL     1      34.657   4.324 -33.017  1.00  0.00     0.000 C 
BRANCH   4   5
ATOM      5  C   UNL     1      35.262   5.739 -32.968  1.00  0.00     0.000 C 
BRANCH   5   6
ATOM      6  C   UNL     1      35.292   6.392 -31.570  1.00  0.00     0.006 C 
BRANCH   6   7
ATOM      7  C   UNL     1      34.666   7.794 -31.505  1.00  0.00     0.053 C 
BRANCH   7   8
ATOM      8  C   UNL     1      33.418   7.811 -30.678  1.00  0.00     0.041 C 
ATOM      9  O   UNL     1      32.735   6.764 -30.537  1.00  0.00    -0.550 OA
ATOM     10  O   UNL     1      32.992   8.995 -30.088  1.00  0.00    -0.550 OA
ENDBRANCH   7   8
ENDBRANCH   6   7
ENDBRANCH   5   6
ENDBRANCH   4   5
ENDBRANCH   3   4
ENDBRANCH   2   3
ENDBRANCH   1   2
BRANCH   1  11
ATOM     11  C   UNL     1      32.766   0.546 -33.743  1.00  0.00    -0.031 C 
ATOM     12  C   UNL     1      32.930  -0.283 -34.790  1.00  0.00    -0.027 C 
BRANCH  12  13
ATOM     13  C   UNL     1      33.850   0.011 -35.949  1.00  0.00     0.054 C 
BRANCH  13  14
ATOM     14  C   UNL     1      33.858  -1.125 -36.940  1.00  0.00    -0.027 C 
ATOM     15  C   UNL     1      33.190  -1.123 -38.109  1.00  0.00    -0.031 C 
BRANCH  15  16
ATOM     16  C   UNL     1      32.352   0.025 -38.623  1.00  0.00     0.027 C 
BRANCH  16  17
ATOM     17  C   UNL     1      30.866  -0.349 -38.688  1.00  0.00     0.004 C 
BRANCH  17  18
ATOM     18  C   UNL     1      30.087   0.153 -37.461  1.00  0.00     0.000 C 
BRANCH  18  19
ATOM     19  C   UNL     1      30.587   1.517 -36.962  1.00  0.00    -0.003 C 
ATOM     20  C   UNL     1      29.802   2.029 -35.754  1.00  0.00     0.004 C 
ENDBRANCH  18  19
ENDBRANCH  17  18
ENDBRANCH  16  17
ENDBRANCH  15  16
ENDBRANCH  13  14
ENDBRANCH  12  13
ENDBRANCH   1  11
TORSDOF 14
ENDMDL
