MODEL 1
REMARK VINA RESULT:    -6.311      0.000      0.000
REMARK INTER + INTRA:          -7.544
REMARK INTER:                  -7.234
REMARK INTRA:                  -0.310
REMARK UNBOUND:                -0.310
REMARK SMILES O=C1C[C@@H](c2ccc(O)cc2)Oc2cc(O)cc(O)c21
REMARK SMILES IDX 3 1 4 2 12 3 13 4 14 5 15 6 17 7 18 8 20 9 2 10 1 11 5 12
REMARK SMILES IDX 6 13 11 14 7 15 10 16 8 17 9 18 19 20 16 22
REMARK H PARENT 9 19 19 21 16 23
REMARK Flexibility Score: inf
ROOT
ATOM      1  C   UNL     1     128.583 129.342 114.082  1.00  0.00     0.131 C 
ATOM      2  C   UNL     1     127.461 129.177 115.117  1.00  0.00     0.211 C 
ATOM      3  O   UNL     1     126.432 130.147 114.903  1.00  0.00    -0.484 OA
ATOM      4  C   UNL     1     126.003 130.525 113.623  1.00  0.00     0.138 A 
ATOM      5  C   UNL     1     124.821 131.257 113.494  1.00  0.00     0.093 A 
ATOM      6  C   UNL     1     124.360 131.635 112.229  1.00  0.00     0.123 A 
ATOM      7  C   UNL     1     125.101 131.302 111.092  1.00  0.00     0.093 A 
ATOM      8  C   UNL     1     126.310 130.603 111.203  1.00  0.00     0.133 A 
ATOM      9  C   UNL     1     126.757 130.177 112.480  1.00  0.00     0.102 A 
ATOM     10  C   UNL     1     127.982 129.371 112.708  1.00  0.00     0.174 C 
ATOM     11  O   UNL     1     128.496 128.672 111.794  1.00  0.00    -0.294 OA
ENDROOT
BRANCH   2  12
ATOM     12  C   UNL     1     128.007 129.303 116.518  1.00  0.00    -0.007 A 
ATOM     13  C   UNL     1     127.159 129.671 117.577  1.00  0.00     0.011 A 
ATOM     14  C   UNL     1     129.353 129.001 116.792  1.00  0.00     0.011 A 
ATOM     15  C   UNL     1     127.655 129.759 118.881  1.00  0.00     0.046 A 
ATOM     16  C   UNL     1     129.845 129.091 118.097  1.00  0.00     0.046 A 
ATOM     17  C   UNL     1     128.997 129.472 119.145  1.00  0.00     0.115 A 
BRANCH  17  18
ATOM     18  O   UNL     1     129.478 129.565 120.450  1.00  0.00    -0.508 OA
ATOM     19  H   UNL     1     130.446 129.366 120.672  1.00  0.00     0.293 HD
ENDBRANCH  17  18
ENDBRANCH   2  12
BRANCH   8  20
ATOM     20  O   UNL     1     127.037 130.391 110.029  1.00  0.00    -0.507 OA
ATOM     21  H   UNL     1     126.770 130.756 109.126  1.00  0.00     0.293 HD
ENDBRANCH   8  20
BRANCH   6  22
ATOM     22  O   UNL     1     123.171 132.347 112.089  1.00  0.00    -0.508 OA
ATOM     23  H   UNL     1     122.937 133.113 112.710  1.00  0.00     0.293 HD
ENDBRANCH   6  22
TORSDOF 4
ENDMDL
MODEL 2
REMARK VINA RESULT:    -5.875      3.283      5.507
REMARK INTER + INTRA:          -7.043
REMARK INTER:                  -6.723
REMARK INTRA:                  -0.320
REMARK UNBOUND:                -0.310
REMARK SMILES O=C1C[C@@H](c2ccc(O)cc2)Oc2cc(O)cc(O)c21
REMARK SMILES IDX 3 1 4 2 12 3 13 4 14 5 15 6 17 7 18 8 20 9 2 10 1 11 5 12
REMARK SMILES IDX 6 13 11 14 7 15 10 16 8 17 9 18 19 20 16 22
REMARK H PARENT 9 19 19 21 16 23
REMARK Flexibility Score: inf
ROOT
ATOM      1  C   UNL     1     129.290 129.004 114.201  1.00  0.00     0.131 C 
ATOM      2  C   UNL     1     130.469 129.447 115.080  1.00  0.00     0.211 C 
ATOM      3  O   UNL     1     131.615 128.626 114.834  1.00  0.00    -0.484 OA
ATOM      4  C   UNL     1     131.969 128.185 113.551  1.00  0.00     0.138 A 
ATOM      5  C   UNL     1     133.235 127.631 113.351  1.00  0.00     0.093 A 
ATOM      6  C   UNL     1     133.621 127.195 112.079  1.00  0.00     0.123 A 
ATOM      7  C   UNL     1     132.724 127.288 111.012  1.00  0.00     0.093 A 
ATOM      8  C   UNL     1     131.435 127.804 111.200  1.00  0.00     0.133 A 
ATOM      9  C   UNL     1     131.057 128.291 112.478  1.00  0.00     0.102 A 
ATOM     10  C   UNL     1     129.746 128.920 112.775  1.00  0.00     0.174 C 
ATOM     11  O   UNL     1     129.035 129.432 111.869  1.00  0.00    -0.294 OA
ENDROOT
BRANCH   2  12
ATOM     12  C   UNL     1     130.096 129.389 116.541  1.00  0.00    -0.007 A 
ATOM     13  C   UNL     1     128.793 129.718 116.951  1.00  0.00     0.011 A 
ATOM     14  C   UNL     1     131.026 128.955 117.501  1.00  0.00     0.011 A 
ATOM     15  C   UNL     1     128.435 129.638 118.300  1.00  0.00     0.046 A 
ATOM     16  C   UNL     1     130.666 128.876 118.849  1.00  0.00     0.046 A 
ATOM     17  C   UNL     1     129.368 129.219 119.252  1.00  0.00     0.115 A 
BRANCH  17  18
ATOM     18  O   UNL     1     128.998 129.144 120.593  1.00  0.00    -0.508 OA
ATOM     19  H   UNL     1     129.631 129.422 121.333  1.00  0.00     0.293 HD
ENDBRANCH  17  18
ENDBRANCH   2  12
BRANCH   8  20
ATOM     20  O   UNL     1     130.568 127.776 110.105  1.00  0.00    -0.507 OA
ATOM     21  H   UNL     1     130.817 127.412 109.197  1.00  0.00     0.293 HD
ENDBRANCH   8  20
BRANCH   6  22
ATOM     22  O   UNL     1     134.889 126.661 111.866  1.00  0.00    -0.508 OA
ATOM     23  H   UNL     1     135.052 125.946 111.167  1.00  0.00     0.293 HD
ENDBRANCH   6  22
TORSDOF 4
ENDMDL
MODEL 3
REMARK VINA RESULT:    -5.830      1.432      2.027
REMARK INTER + INTRA:          -6.992
REMARK INTER:                  -6.677
REMARK INTRA:                  -0.315
REMARK UNBOUND:                -0.310
REMARK SMILES O=C1C[C@@H](c2ccc(O)cc2)Oc2cc(O)cc(O)c21
REMARK SMILES IDX 3 1 4 2 12 3 13 4 14 5 15 6 17 7 18 8 20 9 2 10 1 11 5 12
REMARK SMILES IDX 6 13 11 14 7 15 10 16 8 17 9 18 19 20 16 22
REMARK H PARENT 9 19 19 21 16 23
REMARK Flexibility Score: inf
ROOT
ATOM      1  C   UNL     1     129.614 129.318 113.730  1.00  0.00     0.131 C 
ATOM      2  C   UNL     1     128.250 128.975 114.347  1.00  0.00     0.211 C 
ATOM      3  O   UNL     1     127.214 129.755 113.743  1.00  0.00    -0.484 OA
ATOM      4  C   UNL     1     127.186 130.042 112.371  1.00  0.00     0.138 A 
ATOM      5  C   UNL     1     126.016 130.562 111.812  1.00  0.00     0.093 A 
ATOM      6  C   UNL     1     125.953 130.844 110.444  1.00  0.00     0.123 A 
ATOM      7  C   UNL     1     127.075 130.632 109.640  1.00  0.00     0.093 A 
ATOM      8  C   UNL     1     128.270 130.149 110.187  1.00  0.00     0.133 A 
ATOM      9  C   UNL     1     128.324 129.816 111.565  1.00  0.00     0.102 A 
ATOM     10  C   UNL     1     129.512 129.232 112.237  1.00  0.00     0.174 C 
ATOM     11  O   UNL     1     130.405 128.622 111.591  1.00  0.00    -0.294 OA
ENDROOT
BRANCH   2  12
ATOM     12  C   UNL     1     128.267 129.204 115.838  1.00  0.00    -0.007 A 
ATOM     13  C   UNL     1     129.483 129.183 116.543  1.00  0.00     0.011 A 
ATOM     14  C   UNL     1     127.079 129.496 116.532  1.00  0.00     0.011 A 
ATOM     15  C   UNL     1     129.506 129.424 117.920  1.00  0.00     0.046 A 
ATOM     16  C   UNL     1     127.105 129.736 117.908  1.00  0.00     0.046 A 
ATOM     17  C   UNL     1     128.319 129.700 118.606  1.00  0.00     0.115 A 
BRANCH  17  18
ATOM     18  O   UNL     1     128.357 129.938 119.978  1.00  0.00    -0.508 OA
ATOM     19  H   UNL     1     127.522 129.880 120.549  1.00  0.00     0.293 HD
ENDBRANCH  17  18
ENDBRANCH   2  12
BRANCH   8  20
ATOM     20  O   UNL     1     129.373 130.052 109.335  1.00  0.00    -0.507 OA
ATOM     21  H   UNL     1     129.436 130.513 108.439  1.00  0.00     0.293 HD
ENDBRANCH   8  20
BRANCH   6  22
ATOM     22  O   UNL     1     124.784 131.343 109.875  1.00  0.00    -0.508 OA
ATOM     23  H   UNL     1     123.919 130.816 109.893  1.00  0.00     0.293 HD
ENDBRANCH   6  22
TORSDOF 4
ENDMDL
MODEL 4
REMARK VINA RESULT:    -5.763      3.932      6.317
REMARK INTER + INTRA:          -6.915
REMARK INTER:                  -6.594
REMARK INTRA:                  -0.320
REMARK UNBOUND:                -0.310
REMARK SMILES O=C1C[C@@H](c2ccc(O)cc2)Oc2cc(O)cc(O)c21
REMARK SMILES IDX 3 1 4 2 12 3 13 4 14 5 15 6 17 7 18 8 20 9 2 10 1 11 5 12
REMARK SMILES IDX 6 13 11 14 7 15 10 16 8 17 9 18 19 20 16 22
REMARK H PARENT 9 19 19 21 16 23
REMARK Flexibility Score: inf
ROOT
ATOM      1  C   UNL     1     123.879 131.338 113.005  1.00  0.00     0.131 C 
ATOM      2  C   UNL     1     124.677 131.637 111.727  1.00  0.00     0.211 C 
ATOM      3  O   UNL     1     123.853 131.470 110.569  1.00  0.00    -0.484 OA
ATOM      4  C   UNL     1     122.509 131.869 110.533  1.00  0.00     0.138 A 
ATOM      5  C   UNL     1     121.855 131.933 109.301  1.00  0.00     0.093 A 
ATOM      6  C   UNL     1     120.519 132.341 109.232  1.00  0.00     0.123 A 
ATOM      7  C   UNL     1     119.829 132.658 110.404  1.00  0.00     0.093 A 
ATOM      8  C   UNL     1     120.455 132.562 111.654  1.00  0.00     0.133 A 
ATOM      9  C   UNL     1     121.823 132.194 111.724  1.00  0.00     0.102 A 
ATOM     10  C   UNL     1     122.605 132.129 112.984  1.00  0.00     0.174 C 
ATOM     11  O   UNL     1     122.255 132.763 114.015  1.00  0.00    -0.294 OA
ENDROOT
BRANCH   2  12
ATOM     12  C   UNL     1     125.887 130.741 111.633  1.00  0.00    -0.007 A 
ATOM     13  C   UNL     1     126.647 130.457 112.781  1.00  0.00     0.011 A 
ATOM     14  C   UNL     1     126.240 130.138 110.412  1.00  0.00     0.011 A 
ATOM     15  C   UNL     1     127.752 129.604 112.703  1.00  0.00     0.046 A 
ATOM     16  C   UNL     1     127.345 129.287 110.338  1.00  0.00     0.046 A 
ATOM     17  C   UNL     1     128.105 129.018 111.484  1.00  0.00     0.115 A 
BRANCH  17  18
ATOM     18  O   UNL     1     129.209 128.171 111.422  1.00  0.00    -0.508 OA
ATOM     19  H   UNL     1     129.123 127.210 111.112  1.00  0.00     0.293 HD
ENDBRANCH  17  18
ENDBRANCH   2  12
BRANCH   8  20
ATOM     20  O   UNL     1     119.670 132.806 112.784  1.00  0.00    -0.507 OA
ATOM     21  H   UNL     1     119.876 132.442 113.702  1.00  0.00     0.293 HD
ENDBRANCH   8  20
BRANCH   6  22
ATOM     22  O   UNL     1     119.866 132.427 108.005  1.00  0.00    -0.508 OA
ATOM     23  H   UNL     1     120.282 132.062 107.156  1.00  0.00     0.293 HD
ENDBRANCH   6  22
TORSDOF 4
ENDMDL
MODEL 5
REMARK VINA RESULT:    -5.754      5.174      7.442
REMARK INTER + INTRA:          -6.904
REMARK INTER:                  -6.617
REMARK INTRA:                  -0.288
REMARK UNBOUND:                -0.310
REMARK SMILES O=C1C[C@@H](c2ccc(O)cc2)Oc2cc(O)cc(O)c21
REMARK SMILES IDX 3 1 4 2 12 3 13 4 14 5 15 6 17 7 18 8 20 9 2 10 1 11 5 12
REMARK SMILES IDX 6 13 11 14 7 15 10 16 8 17 9 18 19 20 16 22
REMARK H PARENT 9 19 19 21 16 23
REMARK Flexibility Score: inf
ROOT
ATOM      1  C   UNL     1     125.798 132.375 111.923  1.00  0.00     0.131 C 
ATOM      2  C   UNL     1     124.764 132.964 110.952  1.00  0.00     0.211 C 
ATOM      3  O   UNL     1     124.902 134.385 110.871  1.00  0.00    -0.484 OA
ATOM      4  C   UNL     1     126.150 135.025 110.863  1.00  0.00     0.138 A 
ATOM      5  C   UNL     1     126.217 136.373 110.504  1.00  0.00     0.093 A 
ATOM      6  C   UNL     1     127.449 137.034 110.474  1.00  0.00     0.123 A 
ATOM      7  C   UNL     1     128.612 136.350 110.832  1.00  0.00     0.093 A 
ATOM      8  C   UNL     1     128.562 135.009 111.233  1.00  0.00     0.133 A 
ATOM      9  C   UNL     1     127.321 134.321 111.220  1.00  0.00     0.102 A 
ATOM     10  C   UNL     1     127.160 132.885 111.556  1.00  0.00     0.174 C 
ATOM     11  O   UNL     1     128.124 132.076 111.490  1.00  0.00    -0.294 OA
ENDROOT
BRANCH   2  12
ATOM     12  C   UNL     1     123.364 132.604 111.383  1.00  0.00    -0.007 A 
ATOM     13  C   UNL     1     123.018 132.614 112.745  1.00  0.00     0.011 A 
ATOM     14  C   UNL     1     122.375 132.307 110.428  1.00  0.00     0.011 A 
ATOM     15  C   UNL     1     121.714 132.309 113.146  1.00  0.00     0.046 A 
ATOM     16  C   UNL     1     121.072 132.003 110.832  1.00  0.00     0.046 A 
ATOM     17  C   UNL     1     120.738 132.002 112.193  1.00  0.00     0.115 A 
BRANCH  17  18
ATOM     18  O   UNL     1     119.443 131.700 112.606  1.00  0.00    -0.508 OA
ATOM     19  H   UNL     1     118.909 130.956 112.174  1.00  0.00     0.293 HD
ENDBRANCH  17  18
ENDBRANCH   2  12
BRANCH   8  20
ATOM     20  O   UNL     1     129.755 134.424 111.665  1.00  0.00    -0.507 OA
ATOM     21  H   UNL     1     129.812 133.515 112.100  1.00  0.00     0.293 HD
ENDBRANCH   8  20
BRANCH   6  22
ATOM     22  O   UNL     1     127.527 138.372 110.097  1.00  0.00    -0.508 OA
ATOM     23  H   UNL     1     127.013 138.729 109.299  1.00  0.00     0.293 HD
ENDBRANCH   6  22
TORSDOF 4
ENDMDL
MODEL 6
REMARK VINA RESULT:    -5.641      1.472      2.238
REMARK INTER + INTRA:          -6.775
REMARK INTER:                  -6.463
REMARK INTRA:                  -0.312
REMARK UNBOUND:                -0.310
REMARK SMILES O=C1C[C@@H](c2ccc(O)cc2)Oc2cc(O)cc(O)c21
REMARK SMILES IDX 3 1 4 2 12 3 13 4 14 5 15 6 17 7 18 8 20 9 2 10 1 11 5 12
REMARK SMILES IDX 6 13 11 14 7 15 10 16 8 17 9 18 19 20 16 22
REMARK H PARENT 9 19 19 21 16 23
REMARK Flexibility Score: inf
ROOT
ATOM      1  C   UNL     1     128.238 130.154 112.390  1.00  0.00     0.131 C 
ATOM      2  C   UNL     1     127.615 129.450 113.605  1.00  0.00     0.211 C 
ATOM      3  O   UNL     1     126.462 130.161 114.063  1.00  0.00    -0.484 OA
ATOM      4  C   UNL     1     125.540 130.752 113.186  1.00  0.00     0.138 A 
ATOM      5  C   UNL     1     124.310 131.181 113.688  1.00  0.00     0.093 A 
ATOM      6  C   UNL     1     123.365 131.761 112.835  1.00  0.00     0.123 A 
ATOM      7  C   UNL     1     123.666 131.936 111.482  1.00  0.00     0.093 A 
ATOM      8  C   UNL     1     124.909 131.548 110.967  1.00  0.00     0.133 A 
ATOM      9  C   UNL     1     125.853 130.917 111.819  1.00  0.00     0.102 A 
ATOM     10  C   UNL     1     127.170 130.403 111.368  1.00  0.00     0.174 C 
ATOM     11  O   UNL     1     127.393 130.122 110.160  1.00  0.00    -0.294 OA
ENDROOT
BRANCH   2  12
ATOM     12  C   UNL     1     128.622 129.324 114.722  1.00  0.00    -0.007 A 
ATOM     13  C   UNL     1     129.995 129.454 114.454  1.00  0.00     0.011 A 
ATOM     14  C   UNL     1     128.199 129.130 116.049  1.00  0.00     0.011 A 
ATOM     15  C   UNL     1     130.929 129.368 115.490  1.00  0.00     0.046 A 
ATOM     16  C   UNL     1     129.135 129.044 117.083  1.00  0.00     0.046 A 
ATOM     17  C   UNL     1     130.504 129.161 116.806  1.00  0.00     0.115 A 
BRANCH  17  18
ATOM     18  O   UNL     1     131.446 129.077 117.829  1.00  0.00    -0.508 OA
ATOM     19  H   UNL     1     131.698 128.188 118.244  1.00  0.00     0.293 HD
ENDBRANCH  17  18
ENDBRANCH   2  12
BRANCH   8  20
ATOM     20  O   UNL     1     125.168 131.843 109.626  1.00  0.00    -0.507 OA
ATOM     21  H   UNL     1     125.946 132.403 109.312  1.00  0.00     0.293 HD
ENDBRANCH   8  20
BRANCH   6  22
ATOM     22  O   UNL     1     122.127 132.173 113.322  1.00  0.00    -0.508 OA
ATOM     23  H   UNL     1     121.465 131.512 113.714  1.00  0.00     0.293 HD
ENDBRANCH   6  22
TORSDOF 4
ENDMDL
MODEL 7
REMARK VINA RESULT:    -5.506      5.477      6.809
REMARK INTER + INTRA:          -6.621
REMARK INTER:                  -6.322
REMARK INTRA:                  -0.299
REMARK UNBOUND:                -0.310
REMARK SMILES O=C1C[C@@H](c2ccc(O)cc2)Oc2cc(O)cc(O)c21
REMARK SMILES IDX 3 1 4 2 12 3 13 4 14 5 15 6 17 7 18 8 20 9 2 10 1 11 5 12
REMARK SMILES IDX 6 13 11 14 7 15 10 16 8 17 9 18 19 20 16 22
REMARK H PARENT 9 19 19 21 16 23
REMARK Flexibility Score: inf
ROOT
ATOM      1  C   UNL     1     124.302 131.927 109.308  1.00  0.00     0.131 C 
ATOM      2  C   UNL     1     124.714 131.903 110.788  1.00  0.00     0.211 C 
ATOM      3  O   UNL     1     123.675 132.444 111.608  1.00  0.00    -0.484 OA
ATOM      4  C   UNL     1     122.316 132.194 111.371  1.00  0.00     0.138 A 
ATOM      5  C   UNL     1     121.385 132.518 112.360  1.00  0.00     0.093 A 
ATOM      6  C   UNL     1     120.024 132.267 112.157  1.00  0.00     0.123 A 
ATOM      7  C   UNL     1     119.593 131.717 110.947  1.00  0.00     0.093 A 
ATOM      8  C   UNL     1     120.506 131.423 109.927  1.00  0.00     0.133 A 
ATOM      9  C   UNL     1     121.892 131.631 110.147  1.00  0.00     0.102 A 
ATOM     10  C   UNL     1     122.952 131.290 109.166  1.00  0.00     0.174 C 
ATOM     11  O   UNL     1     122.763 130.442 108.253  1.00  0.00    -0.294 OA
ENDROOT
BRANCH   2  12
ATOM     12  C   UNL     1     125.993 132.676 110.997  1.00  0.00    -0.007 A 
ATOM     13  C   UNL     1     127.221 131.999 111.093  1.00  0.00     0.011 A 
ATOM     14  C   UNL     1     125.981 134.082 111.043  1.00  0.00     0.011 A 
ATOM     15  C   UNL     1     128.411 132.714 111.257  1.00  0.00     0.046 A 
ATOM     16  C   UNL     1     127.172 134.793 111.207  1.00  0.00     0.046 A 
ATOM     17  C   UNL     1     128.391 134.111 111.316  1.00  0.00     0.115 A 
BRANCH  17  18
ATOM     18  O   UNL     1     129.585 134.810 111.480  1.00  0.00    -0.508 OA
ATOM     19  H   UNL     1     129.594 135.802 111.683  1.00  0.00     0.293 HD
ENDBRANCH  17  18
ENDBRANCH   2  12
BRANCH   8  20
ATOM     20  O   UNL     1     119.985 130.963 108.714  1.00  0.00    -0.507 OA
ATOM     21  H   UNL     1     120.550 130.621 107.951  1.00  0.00     0.293 HD
ENDBRANCH   8  20
BRANCH   6  22
ATOM     22  O   UNL     1     119.092 132.567 113.146  1.00  0.00    -0.508 OA
ATOM     23  H   UNL     1     118.266 131.996 113.287  1.00  0.00     0.293 HD
ENDBRANCH   6  22
TORSDOF 4
ENDMDL
MODEL 8
REMARK VINA RESULT:    -5.499      5.906      7.550
REMARK INTER + INTRA:          -6.613
REMARK INTER:                  -6.324
REMARK INTRA:                  -0.289
REMARK UNBOUND:                -0.310
REMARK SMILES O=C1C[C@@H](c2ccc(O)cc2)Oc2cc(O)cc(O)c21
REMARK SMILES IDX 3 1 4 2 12 3 13 4 14 5 15 6 17 7 18 8 20 9 2 10 1 11 5 12
REMARK SMILES IDX 6 13 11 14 7 15 10 16 8 17 9 18 19 20 16 22
REMARK H PARENT 9 19 19 21 16 23
REMARK Flexibility Score: inf
ROOT
ATOM      1  C   UNL     1     124.145 133.037 112.410  1.00  0.00     0.131 C 
ATOM      2  C   UNL     1     124.291 134.255 111.486  1.00  0.00     0.211 C 
ATOM      3  O   UNL     1     123.539 134.068 110.284  1.00  0.00    -0.484 OA
ATOM      4  C   UNL     1     122.274 133.464 110.269  1.00  0.00     0.138 A 
ATOM      5  C   UNL     1     121.489 133.566 109.118  1.00  0.00     0.093 A 
ATOM      6  C   UNL     1     120.217 132.986 109.079  1.00  0.00     0.123 A 
ATOM      7  C   UNL     1     119.743 132.278 110.186  1.00  0.00     0.093 A 
ATOM      8  C   UNL     1     120.530 132.131 111.335  1.00  0.00     0.133 A 
ATOM      9  C   UNL     1     121.802 132.757 111.396  1.00  0.00     0.102 A 
ATOM     10  C   UNL     1     122.689 132.727 112.586  1.00  0.00     0.174 C 
ATOM     11  O   UNL     1     122.241 132.501 113.742  1.00  0.00    -0.294 OA
ENDROOT
BRANCH   2  12
ATOM     12  C   UNL     1     125.742 134.502 111.155  1.00  0.00    -0.007 A 
ATOM     13  C   UNL     1     126.124 135.673 110.478  1.00  0.00     0.011 A 
ATOM     14  C   UNL     1     126.735 133.595 111.567  1.00  0.00     0.011 A 
ATOM     15  C   UNL     1     127.471 135.919 110.196  1.00  0.00     0.046 A 
ATOM     16  C   UNL     1     128.080 133.844 111.283  1.00  0.00     0.046 A 
ATOM     17  C   UNL     1     128.452 135.007 110.596  1.00  0.00     0.115 A 
BRANCH  17  18
ATOM     18  O   UNL     1     129.791 135.265 110.308  1.00  0.00    -0.508 OA
ATOM     19  H   UNL     1     130.062 136.003 109.670  1.00  0.00     0.293 HD
ENDBRANCH  17  18
ENDBRANCH   2  12
BRANCH   8  20
ATOM     20  O   UNL     1     120.022 131.330 112.361  1.00  0.00    -0.507 OA
ATOM     21  H   UNL     1     119.913 131.639 113.316  1.00  0.00     0.293 HD
ENDBRANCH   8  20
BRANCH   6  22
ATOM     22  O   UNL     1     119.419 133.101 107.944  1.00  0.00    -0.508 OA
ATOM     23  H   UNL     1     119.609 132.563 107.106  1.00  0.00     0.293 HD
ENDBRANCH   6  22
TORSDOF 4
ENDMDL
MODEL 9
REMARK VINA RESULT:    -5.406      2.239      6.957
REMARK INTER + INTRA:          -6.506
REMARK INTER:                  -6.185
REMARK INTRA:                  -0.321
REMARK UNBOUND:                -0.310
REMARK SMILES O=C1C[C@@H](c2ccc(O)cc2)Oc2cc(O)cc(O)c21
REMARK SMILES IDX 3 1 4 2 12 3 13 4 14 5 15 6 17 7 18 8 20 9 2 10 1 11 5 12
REMARK SMILES IDX 6 13 11 14 7 15 10 16 8 17 9 18 19 20 16 22
REMARK H PARENT 9 19 19 21 16 23
REMARK Flexibility Score: inf
ROOT
ATOM      1  C   UNL     1     125.185 131.079 110.819  1.00  0.00     0.131 C 
ATOM      2  C   UNL     1     124.696 131.891 112.028  1.00  0.00     0.211 C 
ATOM      3  O   UNL     1     124.945 131.181 113.244  1.00  0.00    -0.484 OA
ATOM      4  C   UNL     1     126.118 130.445 113.464  1.00  0.00     0.138 A 
ATOM      5  C   UNL     1     126.415 130.016 114.760  1.00  0.00     0.093 A 
ATOM      6  C   UNL     1     127.585 129.292 115.012  1.00  0.00     0.123 A 
ATOM      7  C   UNL     1     128.444 128.973 113.958  1.00  0.00     0.093 A 
ATOM      8  C   UNL     1     128.144 129.358 112.645  1.00  0.00     0.133 A 
ATOM      9  C   UNL     1     126.983 130.134 112.392  1.00  0.00     0.102 A 
ATOM     10  C   UNL     1     126.604 130.656 111.055  1.00  0.00     0.174 C 
ATOM     11  O   UNL     1     127.453 130.802 110.136  1.00  0.00    -0.294 OA
ENDROOT
BRANCH   2  12
ATOM     12  C   UNL     1     123.224 132.199 111.901  1.00  0.00    -0.007 A 
ATOM     13  C   UNL     1     122.693 132.616 110.669  1.00  0.00     0.011 A 
ATOM     14  C   UNL     1     122.359 132.022 112.995  1.00  0.00     0.011 A 
ATOM     15  C   UNL     1     121.325 132.875 110.541  1.00  0.00     0.046 A 
ATOM     16  C   UNL     1     120.992 132.281 112.864  1.00  0.00     0.046 A 
ATOM     17  C   UNL     1     120.471 132.710 111.636  1.00  0.00     0.115 A 
BRANCH  17  18
ATOM     18  O   UNL     1     119.110 132.971 111.494  1.00  0.00    -0.508 OA
ATOM     19  H   UNL     1     118.741 133.420 110.664  1.00  0.00     0.293 HD
ENDBRANCH  17  18
ENDBRANCH   2  12
BRANCH   8  20
ATOM     20  O   UNL     1     129.005 128.920 111.636  1.00  0.00    -0.507 OA
ATOM     21  H   UNL     1     128.798 128.985 110.650  1.00  0.00     0.293 HD
ENDBRANCH   8  20
BRANCH   6  22
ATOM     22  O   UNL     1     127.900 128.879 116.304  1.00  0.00    -0.508 OA
ATOM     23  H   UNL     1     128.189 127.928 116.501  1.00  0.00     0.293 HD
ENDBRANCH   6  22
TORSDOF 4
ENDMDL
