MODEL 1
REMARK VINA RESULT:    -3.903      0.000      0.000
REMARK INTER + INTRA:          -6.128
REMARK INTER:                  -5.956
REMARK INTRA:                  -0.172
REMARK UNBOUND:                -0.172
REMARK SMILES CC1=CCC[C@H](C)C(=O)C[C@@H](C(C)C)C(=O)C1
REMARK SMILES IDX 8 1 9 2 6 3 7 4 5 5 4 6 3 7 2 8 1 9 10 11 11 12 15 13 16 14
REMARK SMILES IDX 17 15 12 17 13 18 14 19
REMARK H PARENT
REMARK Flexibility Score: 70.00
ROOT
ATOM      1  C   UNL     1       8.469   3.642  63.046  1.00  0.00     0.136 C 
ATOM      2  O   UNL     1       9.027   3.349  64.095  1.00  0.00    -0.299 OA
ENDROOT
BRANCH   1   3
ATOM      3  C   UNL     1       9.166   4.544  62.035  1.00  0.00     0.053 C 
ATOM      4  C   UNL     1       9.412   5.957  62.587  1.00  0.00     0.016 C 
BRANCH   3   5
ATOM      5  C   UNL     1      10.475   3.921  61.501  1.00  0.00     0.015 C 
BRANCH   5   6
ATOM      6  C   UNL     1      10.380   3.467  60.031  1.00  0.00     0.028 C 
BRANCH   6   7
ATOM      7  C   UNL     1       9.091   3.884  59.371  1.00  0.00    -0.028 C 
ATOM      8  C   UNL     1       8.001   3.096  59.182  1.00  0.00    -0.070 CG0
ATOM      9  C   UNL     1       6.854   3.684  58.396  1.00  0.00     0.039 C 
ATOM     10  G   UNL     1       7.842   1.693  59.762  1.00  0.00     0.000 G0
ENDBRANCH   6   7
ENDBRANCH   5   6
ENDBRANCH   3   5
ENDBRANCH   1   3
BRANCH   1  11
ATOM     11  C   UNL     1       7.072   3.123  62.795  1.00  0.00     0.087 C 
BRANCH  11  12
ATOM     12  C   UNL     1       7.056   1.651  62.296  1.00  0.00     0.066 C 
BRANCH  12  13
ATOM     13  C   UNL     1       6.770   1.512  60.802  1.00  0.00     0.140 C 
ATOM     14  O   UNL     1       5.609   1.386  60.440  1.00  0.00    -0.299 OA
BRANCH  13  15
ATOM     15  C   UNL     1       7.841   1.677  59.750  1.00  0.00     0.106 CG0
ATOM     16  G   UNL     1       7.969   3.096  59.200  1.00  0.00     0.000 G0
ENDBRANCH  13  15
ENDBRANCH  12  13
BRANCH  12  17
ATOM     17  C   UNL     1       6.131   0.711  63.137  1.00  0.00    -0.006 C 
ATOM     18  C   UNL     1       6.574  -0.757  63.029  1.00  0.00     0.008 C 
ATOM     19  C   UNL     1       6.014   1.104  64.622  1.00  0.00     0.008 C 
ENDBRANCH  12  17
ENDBRANCH  11  12
ENDBRANCH   1  11
TORSDOF 1
ENDMDL
MODEL 2
REMARK VINA RESULT:    -3.851     13.469     15.173
REMARK INTER + INTRA:          -6.049
REMARK INTER:                  -5.777
REMARK INTRA:                  -0.272
REMARK UNBOUND:                -0.172
REMARK SMILES CC1=CCC[C@H](C)C(=O)C[C@@H](C(C)C)C(=O)C1
REMARK SMILES IDX 8 1 9 2 6 3 7 4 5 5 4 6 3 7 2 8 1 9 10 11 11 12 15 13 16 14
REMARK SMILES IDX 17 15 12 17 13 18 14 19
REMARK H PARENT
REMARK Flexibility Score: 70.00
ROOT
ATOM      1  C   UNL     1      15.715 -11.474  64.884  1.00  0.00     0.136 C 
ATOM      2  O   UNL     1      16.217 -12.533  65.235  1.00  0.00    -0.299 OA
ENDROOT
BRANCH   1   3
ATOM      3  C   UNL     1      16.512 -10.180  64.983  1.00  0.00     0.053 C 
ATOM      4  C   UNL     1      17.142  -9.987  66.372  1.00  0.00     0.016 C 
BRANCH   3   5
ATOM      5  C   UNL     1      17.577 -10.062  63.869  1.00  0.00     0.015 C 
BRANCH   5   6
ATOM      6  C   UNL     1      16.995  -9.631  62.510  1.00  0.00     0.028 C 
BRANCH   6   7
ATOM      7  C   UNL     1      16.096  -8.425  62.613  1.00  0.00    -0.028 C 
ATOM      8  C   UNL     1      14.882  -8.282  62.021  1.00  0.00    -0.070 CG0
ATOM      9  C   UNL     1      14.198  -6.944  62.165  1.00  0.00     0.039 C 
ATOM     10  G   UNL     1      14.148  -9.399  61.282  1.00  0.00     0.000 G0
ENDBRANCH   6   7
ENDBRANCH   5   6
ENDBRANCH   3   5
ENDBRANCH   1   3
BRANCH   1  11
ATOM     11  C   UNL     1      14.287 -11.474  64.389  1.00  0.00     0.087 C 
BRANCH  11  12
ATOM     12  C   UNL     1      14.185 -11.574  62.841  1.00  0.00     0.066 C 
BRANCH  12  13
ATOM     13  C   UNL     1      13.442 -10.406  62.198  1.00  0.00     0.140 C 
ATOM     14  O   UNL     1      12.281 -10.203  62.525  1.00  0.00    -0.299 OA
BRANCH  13  15
ATOM     15  C   UNL     1      14.123  -9.404  61.297  1.00  0.00     0.106 CG0
ATOM     16  G   UNL     1      14.876  -8.301  62.038  1.00  0.00     0.000 G0
ENDBRANCH  13  15
ENDBRANCH  12  13
BRANCH  12  17
ATOM     17  C   UNL     1      13.630 -12.945  62.334  1.00  0.00    -0.006 C 
ATOM     18  C   UNL     1      14.762 -13.956  62.093  1.00  0.00     0.008 C 
ATOM     19  C   UNL     1      12.566 -13.575  63.252  1.00  0.00     0.008 C 
ENDBRANCH  12  17
ENDBRANCH  11  12
ENDBRANCH   1  11
TORSDOF 1
ENDMDL
MODEL 3
REMARK VINA RESULT:    -3.806     13.841     15.957
REMARK INTER + INTRA:          -5.980
REMARK INTER:                  -5.666
REMARK INTRA:                  -0.314
REMARK UNBOUND:                -0.172
REMARK SMILES CC1=CCC[C@H](C)C(=O)C[C@@H](C(C)C)C(=O)C1
REMARK SMILES IDX 8 1 9 2 6 3 7 4 5 5 4 6 3 7 2 8 1 9 10 11 11 12 15 13 16 14
REMARK SMILES IDX 17 15 12 17 13 18 14 19
REMARK H PARENT
REMARK Flexibility Score: 70.00
ROOT
ATOM      1  C   UNL     1      14.360 -12.356  64.284  1.00  0.00     0.136 C 
ATOM      2  O   UNL     1      13.880 -12.229  65.403  1.00  0.00    -0.299 OA
ENDROOT
BRANCH   1   3
ATOM      3  C   UNL     1      13.467 -12.731  63.108  1.00  0.00     0.053 C 
ATOM      4  C   UNL     1      12.539 -13.912  63.433  1.00  0.00     0.016 C 
BRANCH   3   5
ATOM      5  C   UNL     1      12.663 -11.523  62.576  1.00  0.00     0.015 C 
BRANCH   5   6
ATOM      6  C   UNL     1      13.425 -10.697  61.523  1.00  0.00     0.028 C 
BRANCH   6   7
ATOM      7  C   UNL     1      13.732  -9.296  61.987  1.00  0.00    -0.028 C 
ATOM      8  C   UNL     1      14.949  -8.834  62.378  1.00  0.00    -0.070 CG0
ATOM      9  C   UNL     1      15.011  -7.424  62.912  1.00  0.00     0.039 C 
ATOM     10  G   UNL     1      16.250  -9.623  62.251  1.00  0.00     0.000 G0
ENDBRANCH   6   7
ENDBRANCH   5   6
ENDBRANCH   3   5
ENDBRANCH   1   3
BRANCH   1  11
ATOM     11  C   UNL     1      15.849 -12.170  64.105  1.00  0.00     0.087 C 
BRANCH  11  12
ATOM     12  C   UNL     1      16.354 -10.800  64.637  1.00  0.00     0.066 C 
BRANCH  12  13
ATOM     13  C   UNL     1      16.955  -9.905  63.555  1.00  0.00     0.140 C 
ATOM     14  O   UNL     1      18.103  -9.509  63.698  1.00  0.00    -0.299 OA
BRANCH  13  15
ATOM     15  C   UNL     1      16.249  -9.618  62.251  1.00  0.00     0.106 CG0
ATOM     16  G   UNL     1      14.946  -8.835  62.401  1.00  0.00     0.000 G0
ENDBRANCH  13  15
ENDBRANCH  12  13
BRANCH  12  17
ATOM     17  C   UNL     1      17.309 -10.916  65.869  1.00  0.00    -0.006 C 
ATOM     18  C   UNL     1      16.940  -9.902  66.965  1.00  0.00     0.008 C 
ATOM     19  C   UNL     1      17.385 -12.327  66.480  1.00  0.00     0.008 C 
ENDBRANCH  12  17
ENDBRANCH  11  12
ENDBRANCH   1  11
TORSDOF 1
ENDMDL
MODEL 4
REMARK VINA RESULT:    -3.759     15.935     17.682
REMARK INTER + INTRA:          -5.909
REMARK INTER:                  -6.049
REMARK INTRA:                   0.140
REMARK UNBOUND:                -0.172
REMARK SMILES CC1=CCC[C@H](C)C(=O)C[C@@H](C(C)C)C(=O)C1
REMARK SMILES IDX 8 1 9 2 6 3 7 4 5 5 4 6 3 7 2 8 1 9 10 11 11 12 15 13 16 14
REMARK SMILES IDX 17 15 12 17 13 18 14 19
REMARK H PARENT
REMARK Flexibility Score: 70.00
ROOT
ATOM      1  C   UNL     1      19.153  -9.895  64.660  1.00  0.00     0.136 C 
ATOM      2  O   UNL     1      19.069  -9.182  65.650  1.00  0.00    -0.299 OA
ENDROOT
BRANCH   1   3
ATOM      3  C   UNL     1      20.254 -10.944  64.563  1.00  0.00     0.053 C 
ATOM      4  C   UNL     1      21.569 -10.361  64.021  1.00  0.00     0.016 C 
BRANCH   3   5
ATOM      5  C   UNL     1      20.484 -11.677  65.904  1.00  0.00     0.015 C 
BRANCH   5   6
ATOM      6  C   UNL     1      19.502 -12.841  66.139  1.00  0.00     0.028 C 
BRANCH   6   7
ATOM      7  C   UNL     1      18.188 -12.391  66.725  1.00  0.00    -0.028 C 
ATOM      8  C   UNL     1      16.995 -12.360  66.076  1.00  0.00    -0.070 CG0
ATOM      9  C   UNL     1      15.822 -11.767  66.818  1.00  0.00     0.039 C 
ATOM     10  G   UNL     1      16.757 -12.939  64.683  1.00  0.00     0.000 G0
ENDBRANCH   6   7
ENDBRANCH   5   6
ENDBRANCH   3   5
ENDBRANCH   1   3
BRANCH   1  11
ATOM     11  C   UNL     1      18.171  -9.690  63.530  1.00  0.00     0.087 C 
BRANCH  11  12
ATOM     12  C   UNL     1      16.821 -10.426  63.762  1.00  0.00     0.066 C 
BRANCH  12  13
ATOM     13  C   UNL     1      16.902 -11.937  63.553  1.00  0.00     0.140 C 
ATOM     14  O   UNL     1      17.228 -12.356  62.451  1.00  0.00    -0.299 OA
BRANCH  13  15
ATOM     15  C   UNL     1      16.747 -12.925  64.684  1.00  0.00     0.106 CG0
ATOM     16  G   UNL     1      17.001 -12.337  66.071  1.00  0.00     0.000 G0
ENDBRANCH  13  15
ENDBRANCH  12  13
BRANCH  12  17
ATOM     17  C   UNL     1      15.623  -9.809  62.969  1.00  0.00    -0.006 C 
ATOM     18  C   UNL     1      14.275 -10.181  63.607  1.00  0.00     0.008 C 
ATOM     19  C   UNL     1      15.703  -8.282  62.789  1.00  0.00     0.008 C 
ENDBRANCH  12  17
ENDBRANCH  11  12
ENDBRANCH   1  11
TORSDOF 1
ENDMDL
MODEL 5
REMARK VINA RESULT:    -3.754      8.453     10.619
REMARK INTER + INTRA:          -5.902
REMARK INTER:                  -5.535
REMARK INTRA:                  -0.367
REMARK UNBOUND:                -0.172
REMARK SMILES CC1=CCC[C@H](C)C(=O)C[C@@H](C(C)C)C(=O)C1
REMARK SMILES IDX 8 1 9 2 6 3 7 4 5 5 4 6 3 7 2 8 1 9 10 11 11 12 15 13 16 14
REMARK SMILES IDX 17 15 12 17 13 18 14 19
REMARK H PARENT
REMARK Flexibility Score: 70.00
ROOT
ATOM      1  C   UNL     1      12.927  -2.286  54.944  1.00  0.00     0.136 C 
ATOM      2  O   UNL     1      12.429  -1.897  53.896  1.00  0.00    -0.299 OA
ENDROOT
BRANCH   1   3
ATOM      3  C   UNL     1      13.719  -3.587  54.977  1.00  0.00     0.053 C 
ATOM      4  C   UNL     1      12.957  -4.750  54.321  1.00  0.00     0.016 C 
BRANCH   3   5
ATOM      5  C   UNL     1      15.128  -3.430  54.362  1.00  0.00     0.015 C 
BRANCH   5   6
ATOM      6  C   UNL     1      16.261  -3.519  55.403  1.00  0.00     0.028 C 
BRANCH   6   7
ATOM      7  C   UNL     1      15.820  -4.154  56.697  1.00  0.00    -0.028 C 
ATOM      8  C   UNL     1      15.697  -3.523  57.893  1.00  0.00    -0.070 CG0
ATOM      9  C   UNL     1      15.347  -4.375  59.089  1.00  0.00     0.039 C 
ATOM     10  G   UNL     1      15.829  -2.014  58.088  1.00  0.00     0.000 G0
ENDBRANCH   6   7
ENDBRANCH   5   6
ENDBRANCH   3   5
ENDBRANCH   1   3
BRANCH   1  11
ATOM     11  C   UNL     1      12.709  -1.474  56.199  1.00  0.00     0.087 C 
BRANCH  11  12
ATOM     12  C   UNL     1      13.993  -0.732  56.668  1.00  0.00     0.066 C 
BRANCH  12  13
ATOM     13  C   UNL     1      14.543  -1.238  57.999  1.00  0.00     0.140 C 
ATOM     14  O   UNL     1      13.852  -1.112  59.000  1.00  0.00    -0.299 OA
BRANCH  13  15
ATOM     15  C   UNL     1      15.830  -2.019  58.104  1.00  0.00     0.106 CG0
ATOM     16  G   UNL     1      15.671  -3.524  57.898  1.00  0.00     0.000 G0
ENDBRANCH  13  15
ENDBRANCH  12  13
BRANCH  12  17
ATOM     17  C   UNL     1      13.855   0.826  56.668  1.00  0.00    -0.006 C 
ATOM     18  C   UNL     1      15.156   1.506  57.122  1.00  0.00     0.008 C 
ATOM     19  C   UNL     1      13.407   1.421  55.320  1.00  0.00     0.008 C 
ENDBRANCH  12  17
ENDBRANCH  11  12
ENDBRANCH   1  11
TORSDOF 1
ENDMDL
MODEL 6
REMARK VINA RESULT:    -3.752      2.172      3.164
REMARK INTER + INTRA:          -5.898
REMARK INTER:                  -5.983
REMARK INTRA:                   0.085
REMARK UNBOUND:                -0.172
REMARK SMILES CC1=CCC[C@H](C)C(=O)C[C@@H](C(C)C)C(=O)C1
REMARK SMILES IDX 8 1 9 2 6 3 7 4 5 5 4 6 3 7 2 8 1 9 10 11 11 12 15 13 16 14
REMARK SMILES IDX 17 15 12 17 13 18 14 19
REMARK H PARENT
REMARK Flexibility Score: 70.00
ROOT
ATOM      1  C   UNL     1      10.467   2.988  61.894  1.00  0.00     0.136 C 
ATOM      2  O   UNL     1      10.500   2.927  60.672  1.00  0.00    -0.299 OA
ENDROOT
BRANCH   1   3
ATOM      3  C   UNL     1      10.625   4.330  62.597  1.00  0.00     0.053 C 
ATOM      4  C   UNL     1      12.084   4.814  62.610  1.00  0.00     0.016 C 
BRANCH   3   5
ATOM      5  C   UNL     1       9.687   5.411  62.013  1.00  0.00     0.015 C 
BRANCH   5   6
ATOM      6  C   UNL     1       8.213   5.226  62.423  1.00  0.00     0.028 C 
BRANCH   6   7
ATOM      7  C   UNL     1       7.432   4.391  61.441  1.00  0.00    -0.028 C 
ATOM      8  C   UNL     1       6.820   3.209  61.710  1.00  0.00    -0.070 CG0
ATOM      9  C   UNL     1       6.184   2.481  60.550  1.00  0.00     0.039 C 
ATOM     10  G   UNL     1       6.682   2.609  63.108  1.00  0.00     0.000 G0
ENDBRANCH   6   7
ENDBRANCH   5   6
ENDBRANCH   3   5
ENDBRANCH   1   3
BRANCH   1  11
ATOM     11  C   UNL     1      10.304   1.709  62.682  1.00  0.00     0.087 C 
BRANCH  11  12
ATOM     12  C   UNL     1       8.859   1.140  62.616  1.00  0.00     0.066 C 
BRANCH  12  13
ATOM     13  C   UNL     1       7.886   1.821  63.578  1.00  0.00     0.140 C 
ATOM     14  O   UNL     1       8.167   1.848  64.768  1.00  0.00    -0.299 OA
BRANCH  13  15
ATOM     15  C   UNL     1       6.677   2.590  63.103  1.00  0.00     0.106 CG0
ATOM     16  G   UNL     1       6.827   3.201  61.712  1.00  0.00     0.000 G0
ENDBRANCH  13  15
ENDBRANCH  12  13
BRANCH  12  17
ATOM     17  C   UNL     1       8.788  -0.417  62.749  1.00  0.00    -0.006 C 
ATOM     18  C   UNL     1       7.341  -0.925  62.646  1.00  0.00     0.008 C 
ATOM     19  C   UNL     1       9.674  -1.177  61.744  1.00  0.00     0.008 C 
ENDBRANCH  12  17
ENDBRANCH  11  12
ENDBRANCH   1  11
TORSDOF 1
ENDMDL
MODEL 7
REMARK VINA RESULT:    -3.730     14.411     16.293
REMARK INTER + INTRA:          -5.864
REMARK INTER:                  -5.887
REMARK INTRA:                   0.023
REMARK UNBOUND:                -0.172
REMARK SMILES CC1=CCC[C@H](C)C(=O)C[C@@H](C(C)C)C(=O)C1
REMARK SMILES IDX 8 1 9 2 6 3 7 4 5 5 4 6 3 7 2 8 1 9 10 11 11 12 15 13 16 14
REMARK SMILES IDX 17 15 12 17 13 18 14 19
REMARK H PARENT
REMARK Flexibility Score: 70.00
ROOT
ATOM      1  C   UNL     1      13.917  -9.970  62.223  1.00  0.00     0.136 C 
ATOM      2  O   UNL     1      12.905  -9.687  62.850  1.00  0.00    -0.299 OA
ENDROOT
BRANCH   1   3
ATOM      3  C   UNL     1      14.946  -8.893  61.905  1.00  0.00     0.053 C 
ATOM      4  C   UNL     1      14.347  -7.736  61.090  1.00  0.00     0.016 C 
BRANCH   3   5
ATOM      5  C   UNL     1      15.655  -8.369  63.174  1.00  0.00     0.015 C 
BRANCH   5   6
ATOM      6  C   UNL     1      16.905  -9.185  63.557  1.00  0.00     0.028 C 
BRANCH   6   7
ATOM      7  C   UNL     1      16.708 -10.008  64.804  1.00  0.00    -0.028 C 
ATOM      8  C   UNL     1      16.793 -11.361  64.887  1.00  0.00    -0.070 CG0
ATOM      9  C   UNL     1      16.448 -11.993  66.214  1.00  0.00     0.039 C 
ATOM     10  G   UNL     1      17.270 -12.266  63.753  1.00  0.00     0.000 G0
ENDBRANCH   6   7
ENDBRANCH   5   6
ENDBRANCH   3   5
ENDBRANCH   1   3
BRANCH   1  11
ATOM     11  C   UNL     1      14.103 -11.392  61.745  1.00  0.00     0.087 C 
BRANCH  11  12
ATOM     12  C   UNL     1      14.775 -12.303  62.810  1.00  0.00     0.066 C 
BRANCH  12  13
ATOM     13  C   UNL     1      16.282 -12.462  62.619  1.00  0.00     0.140 C 
ATOM     14  O   UNL     1      16.713 -12.611  61.485  1.00  0.00    -0.299 OA
BRANCH  13  15
ATOM     15  C   UNL     1      17.268 -12.290  63.749  1.00  0.00     0.106 CG0
ATOM     16  G   UNL     1      16.787 -11.369  64.869  1.00  0.00     0.000 G0
ENDBRANCH  13  15
ENDBRANCH  12  13
BRANCH  12  17
ATOM     17  C   UNL     1      14.078 -13.693  62.980  1.00  0.00    -0.006 C 
ATOM     18  C   UNL     1      13.393 -13.815  64.350  1.00  0.00     0.008 C 
ATOM     19  C   UNL     1      13.068 -14.033  61.868  1.00  0.00     0.008 C 
ENDBRANCH  12  17
ENDBRANCH  11  12
ENDBRANCH   1  11
TORSDOF 1
ENDMDL
MODEL 8
REMARK VINA RESULT:    -3.717     13.170     15.250
REMARK INTER + INTRA:          -5.845
REMARK INTER:                  -5.847
REMARK INTRA:                   0.002
REMARK UNBOUND:                -0.172
REMARK SMILES CC1=CCC[C@H](C)C(=O)C[C@@H](C(C)C)C(=O)C1
REMARK SMILES IDX 8 1 9 2 6 3 7 4 5 5 4 6 3 7 2 8 1 9 10 11 11 12 15 13 16 14
REMARK SMILES IDX 17 15 12 17 13 18 14 19
REMARK H PARENT
REMARK Flexibility Score: 70.00
ROOT
ATOM      1  C   UNL     1      16.806  -9.858  63.897  1.00  0.00     0.136 C 
ATOM      2  O   UNL     1      17.653  -9.423  64.665  1.00  0.00    -0.299 OA
ENDROOT
BRANCH   1   3
ATOM      3  C   UNL     1      16.310 -11.292  64.036  1.00  0.00     0.053 C 
ATOM      4  C   UNL     1      17.466 -12.302  64.119  1.00  0.00     0.016 C 
BRANCH   3   5
ATOM      5  C   UNL     1      15.337 -11.462  65.224  1.00  0.00     0.015 C 
BRANCH   5   6
ATOM      6  C   UNL     1      13.876 -11.683  64.790  1.00  0.00     0.028 C 
BRANCH   6   7
ATOM      7  C   UNL     1      13.755 -12.520  63.542  1.00  0.00    -0.028 C 
ATOM      8  C   UNL     1      13.271 -12.100  62.344  1.00  0.00    -0.070 CG0
ATOM      9  C   UNL     1      13.135 -13.135  61.254  1.00  0.00     0.039 C 
ATOM     10  G   UNL     1      12.921 -10.650  62.018  1.00  0.00     0.000 G0
ENDBRANCH   6   7
ENDBRANCH   5   6
ENDBRANCH   3   5
ENDBRANCH   1   3
BRANCH   1  11
ATOM     11  C   UNL     1      16.294  -8.959  62.795  1.00  0.00     0.087 C 
BRANCH  11  12
ATOM     12  C   UNL     1      14.743  -8.860  62.769  1.00  0.00     0.066 C 
BRANCH  12  13
ATOM     13  C   UNL     1      14.088  -9.747  61.712  1.00  0.00     0.140 C 
ATOM     14  O   UNL     1      14.617  -9.832  60.614  1.00  0.00    -0.299 OA
BRANCH  13  15
ATOM     15  C   UNL     1      12.906 -10.637  62.015  1.00  0.00     0.106 CG0
ATOM     16  G   UNL     1      13.276 -12.079  62.355  1.00  0.00     0.000 G0
ENDBRANCH  13  15
ENDBRANCH  12  13
BRANCH  12  17
ATOM     17  C   UNL     1      14.207  -7.393  62.686  1.00  0.00    -0.006 C 
ATOM     18  C   UNL     1      14.692  -6.688  61.409  1.00  0.00     0.008 C 
ATOM     19  C   UNL     1      12.676  -7.272  62.790  1.00  0.00     0.008 C 
ENDBRANCH  12  17
ENDBRANCH  11  12
ENDBRANCH   1  11
TORSDOF 1
ENDMDL
MODEL 9
REMARK VINA RESULT:    -3.684      2.355      3.896
REMARK INTER + INTRA:          -5.794
REMARK INTER:                  -5.448
REMARK INTRA:                  -0.346
REMARK UNBOUND:                -0.172
REMARK SMILES CC1=CCC[C@H](C)C(=O)C[C@@H](C(C)C)C(=O)C1
REMARK SMILES IDX 8 1 9 2 6 3 7 4 5 5 4 6 3 7 2 8 1 9 10 11 11 12 15 13 16 14
REMARK SMILES IDX 17 15 12 17 13 18 14 19
REMARK H PARENT
REMARK Flexibility Score: 70.00
ROOT
ATOM      1  C   UNL     1       9.847   1.374  60.122  1.00  0.00     0.136 C 
ATOM      2  O   UNL     1      10.554   0.861  59.266  1.00  0.00    -0.299 OA
ENDROOT
BRANCH   1   3
ATOM      3  C   UNL     1       8.930   2.536  59.761  1.00  0.00     0.053 C 
ATOM      4  C   UNL     1       9.662   3.632  58.970  1.00  0.00     0.016 C 
BRANCH   3   5
ATOM      5  C   UNL     1       7.659   2.068  59.015  1.00  0.00     0.015 C 
BRANCH   5   6
ATOM      6  C   UNL     1       6.367   2.255  59.834  1.00  0.00     0.028 C 
BRANCH   6   7
ATOM      7  C   UNL     1       6.529   3.233  60.969  1.00  0.00    -0.028 C 
ATOM      8  C   UNL     1       6.509   2.929  62.293  1.00  0.00    -0.070 CG0
ATOM      9  C   UNL     1       6.579   4.080  63.266  1.00  0.00     0.039 C 
ATOM     10  G   UNL     1       6.486   1.507  62.849  1.00  0.00     0.000 G0
ENDBRANCH   6   7
ENDBRANCH   5   6
ENDBRANCH   3   5
ENDBRANCH   1   3
BRANCH   1  11
ATOM     11  C   UNL     1       9.929   0.857  61.540  1.00  0.00     0.087 C 
BRANCH  11  12
ATOM     12  C   UNL     1       8.625   0.147  61.999  1.00  0.00     0.066 C 
BRANCH  12  13
ATOM     13  C   UNL     1       7.861   0.905  63.083  1.00  0.00     0.140 C 
ATOM     14  O   UNL     1       8.431   1.144  64.138  1.00  0.00    -0.299 OA
BRANCH  13  15
ATOM     15  C   UNL     1       6.494   1.502  62.850  1.00  0.00     0.106 CG0
ATOM     16  G   UNL     1       6.515   2.930  62.308  1.00  0.00     0.000 G0
ENDBRANCH  13  15
ENDBRANCH  12  13
BRANCH  12  17
ATOM     17  C   UNL     1       8.831  -1.352  62.396  1.00  0.00    -0.006 C 
ATOM     18  C   UNL     1       7.495  -2.111  62.441  1.00  0.00     0.008 C 
ATOM     19  C   UNL     1       9.824  -2.112  61.499  1.00  0.00     0.008 C 
ENDBRANCH  12  17
ENDBRANCH  11  12
ENDBRANCH   1  11
TORSDOF 1
ENDMDL
