MODEL 1
REMARK VINA RESULT:    -3.231      0.000      0.000
REMARK INTER + INTRA:          -8.628
REMARK INTER:                  -5.875
REMARK INTRA:                  -2.754
REMARK UNBOUND:                -2.754
REMARK SMILES CCCCCCCCCCCCCC[C@@H](C)C(=O)[O-]
REMARK SMILES IDX 9 1 10 2 11 3 12 4 13 5 14 6 15 7 16 8 17 9 18 10 19 11 8 12
REMARK SMILES IDX 7 13 6 14 5 15 4 16 3 17 2 18 1 19
REMARK H PARENT
REMARK Flexibility Score: inf
ROOT
ATOM      1  C   UNL     1      61.913  32.570  59.465  1.00  0.00     0.000 C 
ENDROOT
BRANCH   1   2
ATOM      2  C   UNL     1      61.177  32.565  60.817  1.00  0.00     0.000 C 
BRANCH   2   3
ATOM      3  C   UNL     1      60.652  31.170  61.195  1.00  0.00     0.000 C 
BRANCH   3   4
ATOM      4  C   UNL     1      61.646  30.382  62.065  1.00  0.00     0.000 C 
BRANCH   4   5
ATOM      5  C   UNL     1      62.333  29.245  61.292  1.00  0.00     0.001 C 
BRANCH   5   6
ATOM      6  C   UNL     1      63.801  29.563  60.954  1.00  0.00     0.009 C 
BRANCH   6   7
ATOM      7  C   UNL     1      64.152  29.193  59.498  1.00  0.00     0.032 C 
ATOM      8  C   UNL     1      62.886  29.136  58.636  1.00  0.00     0.014 C 
BRANCH   7   9
ATOM      9  C   UNL     1      65.136  30.165  58.906  1.00  0.00     0.044 C 
ATOM     10  O   UNL     1      66.106  30.592  59.588  1.00  0.00    -0.550 OA
ATOM     11  O   UNL     1      64.979  30.599  57.594  1.00  0.00    -0.550 OA
ENDBRANCH   7   9
ENDBRANCH   6   7
ENDBRANCH   5   6
ENDBRANCH   4   5
ENDBRANCH   3   4
ENDBRANCH   2   3
ENDBRANCH   1   2
BRANCH   1  12
ATOM     12  C   UNL     1      63.270  33.289  59.534  1.00  0.00     0.000 C 
BRANCH  12  13
ATOM     13  C   UNL     1      63.852  33.315  60.956  1.00  0.00    -0.000 C 
BRANCH  13  14
ATOM     14  C   UNL     1      64.205  34.746  61.379  1.00  0.00    -0.000 C 
BRANCH  14  15
ATOM     15  C   UNL     1      63.508  35.774  60.475  1.00  0.00    -0.000 C 
BRANCH  15  16
ATOM     16  C   UNL     1      62.401  36.550  61.208  1.00  0.00    -0.000 C 
BRANCH  16  17
ATOM     17  C   UNL     1      60.994  36.201  60.691  1.00  0.00    -0.000 C 
BRANCH  17  18
ATOM     18  C   UNL     1      60.913  36.211  59.156  1.00  0.00    -0.003 C 
ATOM     19  C   UNL     1      59.572  35.698  58.633  1.00  0.00     0.004 C 
ENDBRANCH  17  18
ENDBRANCH  16  17
ENDBRANCH  15  16
ENDBRANCH  14  15
ENDBRANCH  13  14
ENDBRANCH  12  13
ENDBRANCH   1  12
TORSDOF 14
ENDMDL
MODEL 2
REMARK VINA RESULT:    -3.130      1.232      2.616
REMARK INTER + INTRA:          -8.446
REMARK INTER:                  -6.321
REMARK INTRA:                  -2.126
REMARK UNBOUND:                -2.754
REMARK SMILES CCCCCCCCCCCCCC[C@@H](C)C(=O)[O-]
REMARK SMILES IDX 9 1 10 2 11 3 12 4 13 5 14 6 15 7 16 8 17 9 18 10 19 11 8 12
REMARK SMILES IDX 7 13 6 14 5 15 4 16 3 17 2 18 1 19
REMARK H PARENT
REMARK Flexibility Score: inf
ROOT
ATOM      1  C   UNL     1      61.626  33.097  58.697  1.00  0.00     0.000 C 
ENDROOT
BRANCH   1   2
ATOM      2  C   UNL     1      60.744  32.204  59.586  1.00  0.00     0.000 C 
BRANCH   2   3
ATOM      3  C   UNL     1      61.182  32.225  61.060  1.00  0.00     0.000 C 
BRANCH   3   4
ATOM      4  C   UNL     1      60.803  30.934  61.806  1.00  0.00     0.000 C 
BRANCH   4   5
ATOM      5  C   UNL     1      61.903  29.863  61.726  1.00  0.00     0.001 C 
BRANCH   5   6
ATOM      6  C   UNL     1      63.317  30.471  61.675  1.00  0.00     0.009 C 
BRANCH   6   7
ATOM      7  C   UNL     1      64.166  29.863  60.540  1.00  0.00     0.032 C 
ATOM      8  C   UNL     1      63.266  29.246  59.464  1.00  0.00     0.014 C 
BRANCH   7   9
ATOM      9  C   UNL     1      65.076  30.891  59.923  1.00  0.00     0.044 C 
ATOM     10  O   UNL     1      66.116  30.539  59.306  1.00  0.00    -0.550 OA
ATOM     11  O   UNL     1      64.769  32.243  60.030  1.00  0.00    -0.550 OA
ENDBRANCH   7   9
ENDBRANCH   6   7
ENDBRANCH   5   6
ENDBRANCH   4   5
ENDBRANCH   3   4
ENDBRANCH   2   3
ENDBRANCH   1   2
BRANCH   1  12
ATOM     12  C   UNL     1      60.899  34.368  58.229  1.00  0.00     0.000 C 
BRANCH  12  13
ATOM     13  C   UNL     1      61.503  35.647  58.827  1.00  0.00    -0.000 C 
BRANCH  13  14
ATOM     14  C   UNL     1      61.109  35.802  60.301  1.00  0.00    -0.000 C 
BRANCH  14  15
ATOM     15  C   UNL     1      62.317  36.228  61.150  1.00  0.00    -0.000 C 
BRANCH  15  16
ATOM     16  C   UNL     1      63.381  35.123  61.259  1.00  0.00    -0.000 C 
BRANCH  16  17
ATOM     17  C   UNL     1      64.794  35.686  61.489  1.00  0.00    -0.000 C 
BRANCH  17  18
ATOM     18  C   UNL     1      65.327  36.454  60.270  1.00  0.00    -0.003 C 
ATOM     19  C   UNL     1      65.276  35.629  58.985  1.00  0.00     0.004 C 
ENDBRANCH  17  18
ENDBRANCH  16  17
ENDBRANCH  15  16
ENDBRANCH  14  15
ENDBRANCH  13  14
ENDBRANCH  12  13
ENDBRANCH   1  12
TORSDOF 14
ENDMDL
MODEL 3
REMARK VINA RESULT:    -3.107      9.885     12.233
REMARK INTER + INTRA:          -8.403
REMARK INTER:                  -5.729
REMARK INTRA:                  -2.674
REMARK UNBOUND:                -2.754
REMARK SMILES CCCCCCCCCCCCCC[C@@H](C)C(=O)[O-]
REMARK SMILES IDX 9 1 10 2 11 3 12 4 13 5 14 6 15 7 16 8 17 9 18 10 19 11 8 12
REMARK SMILES IDX 7 13 6 14 5 15 4 16 3 17 2 18 1 19
REMARK H PARENT
REMARK Flexibility Score: inf
ROOT
ATOM      1  C   UNL     1      57.851  27.776  52.828  1.00  0.00     0.000 C 
ENDROOT
BRANCH   1   2
ATOM      2  C   UNL     1      58.004  29.267  53.181  1.00  0.00     0.000 C 
BRANCH   2   3
ATOM      3  C   UNL     1      58.415  30.119  51.969  1.00  0.00     0.000 C 
BRANCH   3   4
ATOM      4  C   UNL     1      57.830  29.587  50.650  1.00  0.00     0.000 C 
BRANCH   4   5
ATOM      5  C   UNL     1      58.856  29.594  49.505  1.00  0.00     0.001 C 
BRANCH   5   6
ATOM      6  C   UNL     1      59.359  28.182  49.155  1.00  0.00     0.009 C 
BRANCH   6   7
ATOM      7  C   UNL     1      60.333  27.635  50.220  1.00  0.00     0.032 C 
ATOM      8  C   UNL     1      60.523  26.123  50.049  1.00  0.00     0.014 C 
BRANCH   7   9
ATOM      9  C   UNL     1      61.665  28.332  50.157  1.00  0.00     0.044 C 
ATOM     10  O   UNL     1      62.070  29.028  51.126  1.00  0.00    -0.550 OA
ATOM     11  O   UNL     1      62.460  28.209  49.023  1.00  0.00    -0.550 OA
ENDBRANCH   7   9
ENDBRANCH   6   7
ENDBRANCH   5   6
ENDBRANCH   4   5
ENDBRANCH   3   4
ENDBRANCH   2   3
ENDBRANCH   1   2
BRANCH   1  12
ATOM     12  C   UNL     1      56.413  27.269  53.017  1.00  0.00     0.000 C 
BRANCH  12  13
ATOM     13  C   UNL     1      56.170  25.917  52.332  1.00  0.00    -0.000 C 
BRANCH  13  14
ATOM     14  C   UNL     1      56.896  25.847  50.982  1.00  0.00    -0.000 C 
BRANCH  14  15
ATOM     15  C   UNL     1      56.067  26.518  49.877  1.00  0.00    -0.000 C 
BRANCH  15  16
ATOM     16  C   UNL     1      54.610  26.027  49.851  1.00  0.00    -0.000 C 
BRANCH  16  17
ATOM     17  C   UNL     1      53.597  27.183  49.919  1.00  0.00    -0.000 C 
BRANCH  17  18
ATOM     18  C   UNL     1      54.278  28.554  50.048  1.00  0.00    -0.003 C 
ATOM     19  C   UNL     1      53.897  29.284  51.336  1.00  0.00     0.004 C 
ENDBRANCH  17  18
ENDBRANCH  16  17
ENDBRANCH  15  16
ENDBRANCH  14  15
ENDBRANCH  13  14
ENDBRANCH  12  13
ENDBRANCH   1  12
TORSDOF 14
ENDMDL
MODEL 4
REMARK VINA RESULT:    -3.040      1.794      3.056
REMARK INTER + INTRA:          -8.281
REMARK INTER:                  -5.932
REMARK INTRA:                  -2.349
REMARK UNBOUND:                -2.754
REMARK SMILES CCCCCCCCCCCCCC[C@@H](C)C(=O)[O-]
REMARK SMILES IDX 9 1 10 2 11 3 12 4 13 5 14 6 15 7 16 8 17 9 18 10 19 11 8 12
REMARK SMILES IDX 7 13 6 14 5 15 4 16 3 17 2 18 1 19
REMARK H PARENT
REMARK Flexibility Score: inf
ROOT
ATOM      1  C   UNL     1      61.054  31.601  58.233  1.00  0.00     0.000 C 
ENDROOT
BRANCH   1   2
ATOM      2  C   UNL     1      60.100  31.509  59.438  1.00  0.00     0.000 C 
BRANCH   2   3
ATOM      3  C   UNL     1      60.720  32.078  60.724  1.00  0.00     0.000 C 
BRANCH   3   4
ATOM      4  C   UNL     1      60.845  31.021  61.835  1.00  0.00     0.000 C 
BRANCH   4   5
ATOM      5  C   UNL     1      62.209  30.312  61.824  1.00  0.00     0.001 C 
BRANCH   5   6
ATOM      6  C   UNL     1      62.108  28.845  61.368  1.00  0.00     0.009 C 
BRANCH   6   7
ATOM      7  C   UNL     1      63.099  28.524  60.231  1.00  0.00     0.032 C 
ATOM      8  C   UNL     1      63.856  29.786  59.802  1.00  0.00     0.014 C 
BRANCH   7   9
ATOM      9  C   UNL     1      64.075  27.453  60.638  1.00  0.00     0.044 C 
ATOM     10  O   UNL     1      63.682  26.274  60.848  1.00  0.00    -0.550 OA
ATOM     11  O   UNL     1      65.422  27.760  60.784  1.00  0.00    -0.550 OA
ENDBRANCH   7   9
ENDBRANCH   6   7
ENDBRANCH   5   6
ENDBRANCH   4   5
ENDBRANCH   3   4
ENDBRANCH   2   3
ENDBRANCH   1   2
BRANCH   1  12
ATOM     12  C   UNL     1      61.829  32.928  58.194  1.00  0.00     0.000 C 
BRANCH  12  13
ATOM     13  C   UNL     1      60.933  34.124  57.839  1.00  0.00    -0.000 C 
BRANCH  13  14
ATOM     14  C   UNL     1      61.481  35.421  58.448  1.00  0.00    -0.000 C 
BRANCH  14  15
ATOM     15  C   UNL     1      60.809  35.721  59.796  1.00  0.00    -0.000 C 
BRANCH  15  16
ATOM     16  C   UNL     1      61.808  35.729  60.965  1.00  0.00    -0.000 C 
BRANCH  16  17
ATOM     17  C   UNL     1      63.272  35.755  60.490  1.00  0.00    -0.000 C 
BRANCH  17  18
ATOM     18  C   UNL     1      64.182  34.858  61.343  1.00  0.00    -0.003 C 
ATOM     19  C   UNL     1      64.098  33.385  60.945  1.00  0.00     0.004 C 
ENDBRANCH  17  18
ENDBRANCH  16  17
ENDBRANCH  15  16
ENDBRANCH  14  15
ENDBRANCH  13  14
ENDBRANCH  12  13
ENDBRANCH   1  12
TORSDOF 14
ENDMDL
MODEL 5
REMARK VINA RESULT:    -3.037      2.243      3.788
REMARK INTER + INTRA:          -8.277
REMARK INTER:                  -5.893
REMARK INTRA:                  -2.384
REMARK UNBOUND:                -2.754
REMARK SMILES CCCCCCCCCCCCCC[C@@H](C)C(=O)[O-]
REMARK SMILES IDX 9 1 10 2 11 3 12 4 13 5 14 6 15 7 16 8 17 9 18 10 19 11 8 12
REMARK SMILES IDX 7 13 6 14 5 15 4 16 3 17 2 18 1 19
REMARK H PARENT
REMARK Flexibility Score: inf
ROOT
ATOM      1  C   UNL     1      62.573  33.739  57.822  1.00  0.00     0.000 C 
ENDROOT
BRANCH   1   2
ATOM      2  C   UNL     1      63.020  32.393  58.422  1.00  0.00     0.000 C 
BRANCH   2   3
ATOM      3  C   UNL     1      64.481  32.417  58.897  1.00  0.00     0.000 C 
BRANCH   3   4
ATOM      4  C   UNL     1      64.626  32.024  60.377  1.00  0.00     0.000 C 
BRANCH   4   5
ATOM      5  C   UNL     1      63.271  31.759  61.052  1.00  0.00     0.001 C 
BRANCH   5   6
ATOM      6  C   UNL     1      63.112  30.297  61.504  1.00  0.00     0.009 C 
BRANCH   6   7
ATOM      7  C   UNL     1      61.635  29.925  61.750  1.00  0.00     0.032 C 
ATOM      8  C   UNL     1      60.753  31.179  61.737  1.00  0.00     0.014 C 
BRANCH   7   9
ATOM      9  C   UNL     1      61.139  28.937  60.728  1.00  0.00     0.044 C 
ATOM     10  O   UNL     1      60.499  27.912  61.085  1.00  0.00    -0.550 OA
ATOM     11  O   UNL     1      61.385  29.154  59.377  1.00  0.00    -0.550 OA
ENDBRANCH   7   9
ENDBRANCH   6   7
ENDBRANCH   5   6
ENDBRANCH   4   5
ENDBRANCH   3   4
ENDBRANCH   2   3
ENDBRANCH   1   2
BRANCH   1  12
ATOM     12  C   UNL     1      61.161  34.147  58.271  1.00  0.00     0.000 C 
BRANCH  12  13
ATOM     13  C   UNL     1      61.067  34.370  59.788  1.00  0.00    -0.000 C 
BRANCH  13  14
ATOM     14  C   UNL     1      60.884  35.858  60.113  1.00  0.00    -0.000 C 
BRANCH  14  15
ATOM     15  C   UNL     1      61.944  36.335  61.117  1.00  0.00    -0.000 C 
BRANCH  15  16
ATOM     16  C   UNL     1      63.185  35.428  61.140  1.00  0.00    -0.000 C 
BRANCH  16  17
ATOM     17  C   UNL     1      64.426  36.140  61.709  1.00  0.00    -0.000 C 
BRANCH  17  18
ATOM     18  C   UNL     1      65.590  36.180  60.706  1.00  0.00    -0.003 C 
ATOM     19  C   UNL     1      65.119  36.130  59.254  1.00  0.00     0.004 C 
ENDBRANCH  17  18
ENDBRANCH  16  17
ENDBRANCH  15  16
ENDBRANCH  14  15
ENDBRANCH  13  14
ENDBRANCH  12  13
ENDBRANCH   1  12
TORSDOF 14
ENDMDL
MODEL 6
REMARK VINA RESULT:    -2.988      2.192      3.688
REMARK INTER + INTRA:          -8.187
REMARK INTER:                  -6.041
REMARK INTRA:                  -2.147
REMARK UNBOUND:                -2.754
REMARK SMILES CCCCCCCCCCCCCC[C@@H](C)C(=O)[O-]
REMARK SMILES IDX 9 1 10 2 11 3 12 4 13 5 14 6 15 7 16 8 17 9 18 10 19 11 8 12
REMARK SMILES IDX 7 13 6 14 5 15 4 16 3 17 2 18 1 19
REMARK H PARENT
REMARK Flexibility Score: inf
ROOT
ATOM      1  C   UNL     1      64.797  31.931  58.809  1.00  0.00     0.000 C 
ENDROOT
BRANCH   1   2
ATOM      2  C   UNL     1      63.651  30.904  58.830  1.00  0.00     0.000 C 
BRANCH   2   3
ATOM      3  C   UNL     1      64.077  29.561  59.444  1.00  0.00     0.000 C 
BRANCH   3   4
ATOM      4  C   UNL     1      64.227  29.633  60.973  1.00  0.00     0.000 C 
BRANCH   4   5
ATOM      5  C   UNL     1      62.949  30.126  61.668  1.00  0.00     0.001 C 
BRANCH   5   6
ATOM      6  C   UNL     1      61.735  29.223  61.383  1.00  0.00     0.009 C 
BRANCH   6   7
ATOM      7  C   UNL     1      60.448  30.040  61.148  1.00  0.00     0.032 C 
ATOM      8  C   UNL     1      60.495  31.357  61.931  1.00  0.00     0.014 C 
BRANCH   7   9
ATOM      9  C   UNL     1      60.234  30.319  59.684  1.00  0.00     0.044 C 
ATOM     10  O   UNL     1      59.999  31.490  59.283  1.00  0.00    -0.550 OA
ATOM     11  O   UNL     1      60.297  29.280  58.764  1.00  0.00    -0.550 OA
ENDBRANCH   7   9
ENDBRANCH   6   7
ENDBRANCH   5   6
ENDBRANCH   4   5
ENDBRANCH   3   4
ENDBRANCH   2   3
ENDBRANCH   1   2
BRANCH   1  12
ATOM     12  C   UNL     1      64.475  33.192  59.628  1.00  0.00     0.000 C 
BRANCH  12  13
ATOM     13  C   UNL     1      63.018  33.223  60.114  1.00  0.00    -0.000 C 
BRANCH  13  14
ATOM     14  C   UNL     1      62.267  34.422  59.521  1.00  0.00    -0.000 C 
BRANCH  14  15
ATOM     15  C   UNL     1      61.254  34.987  60.527  1.00  0.00    -0.000 C 
BRANCH  15  16
ATOM     16  C   UNL     1      61.549  36.449  60.903  1.00  0.00    -0.000 C 
BRANCH  16  17
ATOM     17  C   UNL     1      62.988  36.869  60.556  1.00  0.00    -0.000 C 
BRANCH  17  18
ATOM     18  C   UNL     1      63.862  37.055  61.806  1.00  0.00    -0.003 C 
ATOM     19  C   UNL     1      65.073  36.123  61.824  1.00  0.00     0.004 C 
ENDBRANCH  17  18
ENDBRANCH  16  17
ENDBRANCH  15  16
ENDBRANCH  14  15
ENDBRANCH  13  14
ENDBRANCH  12  13
ENDBRANCH   1  12
TORSDOF 14
ENDMDL
MODEL 7
REMARK VINA RESULT:    -2.952      1.407      2.575
REMARK INTER + INTRA:          -8.121
REMARK INTER:                  -5.879
REMARK INTRA:                  -2.242
REMARK UNBOUND:                -2.754
REMARK SMILES CCCCCCCCCCCCCC[C@@H](C)C(=O)[O-]
REMARK SMILES IDX 9 1 10 2 11 3 12 4 13 5 14 6 15 7 16 8 17 9 18 10 19 11 8 12
REMARK SMILES IDX 7 13 6 14 5 15 4 16 3 17 2 18 1 19
REMARK H PARENT
REMARK Flexibility Score: inf
ROOT
ATOM      1  C   UNL     1      63.976  33.238  60.998  1.00  0.00     0.000 C 
ENDROOT
BRANCH   1   2
ATOM      2  C   UNL     1      63.385  33.059  59.587  1.00  0.00     0.000 C 
BRANCH   2   3
ATOM      3  C   UNL     1      62.001  32.391  59.611  1.00  0.00     0.000 C 
BRANCH   3   4
ATOM      4  C   UNL     1      61.303  32.528  60.974  1.00  0.00     0.000 C 
BRANCH   4   5
ATOM      5  C   UNL     1      60.852  31.174  61.544  1.00  0.00     0.001 C 
BRANCH   5   6
ATOM      6  C   UNL     1      62.036  30.247  61.872  1.00  0.00     0.009 C 
BRANCH   6   7
ATOM      7  C   UNL     1      61.872  28.851  61.236  1.00  0.00     0.032 C 
ATOM      8  C   UNL     1      60.675  28.833  60.279  1.00  0.00     0.014 C 
BRANCH   7   9
ATOM      9  C   UNL     1      63.119  28.428  60.508  1.00  0.00     0.044 C 
ATOM     10  O   UNL     1      63.559  29.108  59.542  1.00  0.00    -0.550 OA
ATOM     11  O   UNL     1      63.797  27.281  60.902  1.00  0.00    -0.550 OA
ENDBRANCH   7   9
ENDBRANCH   6   7
ENDBRANCH   5   6
ENDBRANCH   4   5
ENDBRANCH   3   4
ENDBRANCH   2   3
ENDBRANCH   1   2
BRANCH   1  12
ATOM     12  C   UNL     1      64.181  34.716  61.369  1.00  0.00     0.000 C 
BRANCH  12  13
ATOM     13  C   UNL     1      64.375  35.611  60.136  1.00  0.00    -0.000 C 
BRANCH  13  14
ATOM     14  C   UNL     1      63.303  36.708  60.080  1.00  0.00    -0.000 C 
BRANCH  14  15
ATOM     15  C   UNL     1      62.232  36.484  61.158  1.00  0.00    -0.000 C 
BRANCH  15  16
ATOM     16  C   UNL     1      60.868  36.096  60.562  1.00  0.00    -0.000 C 
BRANCH  16  17
ATOM     17  C   UNL     1      60.900  36.004  59.026  1.00  0.00    -0.000 C 
BRANCH  17  18
ATOM     18  C   UNL     1      59.732  35.179  58.463  1.00  0.00    -0.003 C 
ATOM     19  C   UNL     1      59.177  35.755  57.161  1.00  0.00     0.004 C 
ENDBRANCH  17  18
ENDBRANCH  16  17
ENDBRANCH  15  16
ENDBRANCH  14  15
ENDBRANCH  13  14
ENDBRANCH  12  13
ENDBRANCH   1  12
TORSDOF 14
ENDMDL
MODEL 8
REMARK VINA RESULT:    -2.945      2.345      3.377
REMARK INTER + INTRA:          -8.109
REMARK INTER:                  -5.526
REMARK INTRA:                  -2.584
REMARK UNBOUND:                -2.754
REMARK SMILES CCCCCCCCCCCCCC[C@@H](C)C(=O)[O-]
REMARK SMILES IDX 9 1 10 2 11 3 12 4 13 5 14 6 15 7 16 8 17 9 18 10 19 11 8 12
REMARK SMILES IDX 7 13 6 14 5 15 4 16 3 17 2 18 1 19
REMARK H PARENT
REMARK Flexibility Score: inf
ROOT
ATOM      1  C   UNL     1      63.930  31.170  61.371  1.00  0.00     0.000 C 
ENDROOT
BRANCH   1   2
ATOM      2  C   UNL     1      63.340  29.748  61.368  1.00  0.00     0.000 C 
BRANCH   2   3
ATOM      3  C   UNL     1      61.803  29.750  61.399  1.00  0.00     0.000 C 
BRANCH   3   4
ATOM      4  C   UNL     1      61.229  31.025  62.040  1.00  0.00     0.000 C 
BRANCH   4   5
ATOM      5  C   UNL     1      60.401  31.860  61.049  1.00  0.00     0.001 C 
BRANCH   5   6
ATOM      6  C   UNL     1      60.294  31.198  59.664  1.00  0.00     0.009 C 
BRANCH   6   7
ATOM      7  C   UNL     1      61.024  32.014  58.576  1.00  0.00     0.032 C 
ATOM      8  C   UNL     1      61.767  31.083  57.611  1.00  0.00     0.014 C 
BRANCH   7   9
ATOM      9  C   UNL     1      60.069  32.890  57.812  1.00  0.00     0.044 C 
ATOM     10  O   UNL     1      60.496  33.711  56.957  1.00  0.00    -0.550 OA
ATOM     11  O   UNL     1      58.702  32.796  58.047  1.00  0.00    -0.550 OA
ENDBRANCH   7   9
ENDBRANCH   6   7
ENDBRANCH   5   6
ENDBRANCH   4   5
ENDBRANCH   3   4
ENDBRANCH   2   3
ENDBRANCH   1   2
BRANCH   1  12
ATOM     12  C   UNL     1      64.512  31.571  60.006  1.00  0.00     0.000 C 
BRANCH  12  13
ATOM     13  C   UNL     1      64.464  33.087  59.768  1.00  0.00    -0.000 C 
BRANCH  13  14
ATOM     14  C   UNL     1      63.647  33.790  60.860  1.00  0.00    -0.000 C 
BRANCH  14  15
ATOM     15  C   UNL     1      62.640  34.774  60.246  1.00  0.00    -0.000 C 
BRANCH  15  16
ATOM     16  C   UNL     1      62.379  35.991  61.149  1.00  0.00    -0.000 C 
BRANCH  16  17
ATOM     17  C   UNL     1      61.072  36.721  60.791  1.00  0.00    -0.000 C 
BRANCH  17  18
ATOM     18  C   UNL     1      60.688  36.547  59.313  1.00  0.00    -0.003 C 
ATOM     19  C   UNL     1      59.193  36.301  59.117  1.00  0.00     0.004 C 
ENDBRANCH  17  18
ENDBRANCH  16  17
ENDBRANCH  15  16
ENDBRANCH  14  15
ENDBRANCH  13  14
ENDBRANCH  12  13
ENDBRANCH   1  12
TORSDOF 14
ENDMDL
MODEL 9
REMARK VINA RESULT:    -2.927      3.069      4.347
REMARK INTER + INTRA:          -8.076
REMARK INTER:                  -5.773
REMARK INTRA:                  -2.303
REMARK UNBOUND:                -2.754
REMARK SMILES CCCCCCCCCCCCCC[C@@H](C)C(=O)[O-]
REMARK SMILES IDX 9 1 10 2 11 3 12 4 13 5 14 6 15 7 16 8 17 9 18 10 19 11 8 12
REMARK SMILES IDX 7 13 6 14 5 15 4 16 3 17 2 18 1 19
REMARK H PARENT
REMARK Flexibility Score: inf
ROOT
ATOM      1  C   UNL     1      64.656  31.409  59.981  1.00  0.00     0.000 C 
ENDROOT
BRANCH   1   2
ATOM      2  C   UNL     1      63.926  31.297  61.332  1.00  0.00     0.000 C 
BRANCH   2   3
ATOM      3  C   UNL     1      62.826  30.223  61.319  1.00  0.00     0.000 C 
BRANCH   3   4
ATOM      4  C   UNL     1      61.532  30.696  62.001  1.00  0.00     0.000 C 
BRANCH   4   5
ATOM      5  C   UNL     1      60.377  30.888  61.005  1.00  0.00     0.001 C 
BRANCH   5   6
ATOM      6  C   UNL     1      60.218  29.693  60.048  1.00  0.00     0.009 C 
BRANCH   6   7
ATOM      7  C   UNL     1      59.063  28.762  60.473  1.00  0.00     0.032 C 
ATOM      8  C   UNL     1      58.167  28.431  59.274  1.00  0.00     0.014 C 
BRANCH   7   9
ATOM      9  C   UNL     1      59.580  27.493  61.095  1.00  0.00     0.044 C 
ATOM     10  O   UNL     1      60.818  27.265  61.152  1.00  0.00    -0.550 OA
ATOM     11  O   UNL     1      58.689  26.561  61.614  1.00  0.00    -0.550 OA
ENDBRANCH   7   9
ENDBRANCH   6   7
ENDBRANCH   5   6
ENDBRANCH   4   5
ENDBRANCH   3   4
ENDBRANCH   2   3
ENDBRANCH   1   2
BRANCH   1  12
ATOM     12  C   UNL     1      63.741  31.090  58.787  1.00  0.00     0.000 C 
BRANCH  12  13
ATOM     13  C   UNL     1      63.337  32.346  58.002  1.00  0.00    -0.000 C 
BRANCH  13  14
ATOM     14  C   UNL     1      61.949  32.840  58.433  1.00  0.00    -0.000 C 
BRANCH  14  15
ATOM     15  C   UNL     1      62.022  34.273  58.980  1.00  0.00    -0.000 C 
BRANCH  15  16
ATOM     16  C   UNL     1      61.914  34.325  60.513  1.00  0.00    -0.000 C 
BRANCH  16  17
ATOM     17  C   UNL     1      62.796  35.427  61.129  1.00  0.00    -0.000 C 
BRANCH  17  18
ATOM     18  C   UNL     1      64.213  34.930  61.455  1.00  0.00    -0.003 C 
ATOM     19  C   UNL     1      65.224  36.069  61.576  1.00  0.00     0.004 C 
ENDBRANCH  17  18
ENDBRANCH  16  17
ENDBRANCH  15  16
ENDBRANCH  14  15
ENDBRANCH  13  14
ENDBRANCH  12  13
ENDBRANCH   1  12
TORSDOF 14
ENDMDL
