MODEL 1
REMARK VINA RESULT:    -2.490      0.000      0.000
REMARK INTER + INTRA:          -2.895
REMARK INTER:                  -2.635
REMARK INTRA:                  -0.260
REMARK UNBOUND:                -0.260
REMARK SMILES O=c1cc(-c2ccccc2)oc2ccccc12
REMARK SMILES IDX 4 1 3 2 2 3 1 4 17 5 16 6 15 7 14 8 13 9 12 10 11 11 5 12
REMARK SMILES IDX 8 13 7 14 9 15 6 16 10 17
REMARK H PARENT
REMARK Flexibility Score: inf
ROOT
ATOM      1  C   UNL     1       3.432   0.995 -18.948  1.00  0.00     0.138 A 
ATOM      2  C   UNL     1       3.031   2.332 -18.740  1.00  0.00     0.100 A 
ATOM      3  C   UNL     1       3.244   2.930 -17.496  1.00  0.00     0.193 A 
ATOM      4  O   UNL     1       2.885   4.124 -17.311  1.00  0.00    -0.289 OA
ATOM      5  C   UNL     1       3.853   2.192 -16.472  1.00  0.00     0.065 A 
ATOM      6  C   UNL     1       4.097   2.734 -15.196  1.00  0.00     0.016 A 
ATOM      7  C   UNL     1       4.708   1.955 -14.209  1.00  0.00     0.001 A 
ATOM      8  C   UNL     1       5.080   0.637 -14.485  1.00  0.00     0.004 A 
ATOM      9  C   UNL     1       4.843   0.089 -15.750  1.00  0.00     0.048 A 
ATOM     10  C   UNL     1       4.231   0.861 -16.744  1.00  0.00     0.138 A 
ATOM     11  O   UNL     1       4.009   0.333 -17.943  1.00  0.00    -0.456 OA
ENDROOT
BRANCH   1  12
ATOM     12  C   UNL     1       3.242   0.280 -20.248  1.00  0.00     0.017 A 
ATOM     13  C   UNL     1       2.878  -0.981 -22.746  1.00  0.00     0.000 A 
ATOM     14  C   UNL     1       2.908   0.411 -22.664  1.00  0.00     0.001 A 
ATOM     15  C   UNL     1       3.027  -1.749 -21.591  1.00  0.00     0.001 A 
ATOM     16  C   UNL     1       3.088   1.038 -21.428  1.00  0.00     0.012 A 
ATOM     17  C   UNL     1       3.208  -1.129 -20.351  1.00  0.00     0.012 A 
ENDBRANCH   1  12
TORSDOF 1
ENDMDL
MODEL 2
REMARK VINA RESULT:    -1.978      1.131      2.349
REMARK INTER + INTRA:          -2.353
REMARK INTER:                  -2.090
REMARK INTRA:                  -0.263
REMARK UNBOUND:                -0.260
REMARK SMILES O=c1cc(-c2ccccc2)oc2ccccc12
REMARK SMILES IDX 4 1 3 2 2 3 1 4 17 5 16 6 15 7 14 8 13 9 12 10 11 11 5 12
REMARK SMILES IDX 8 13 7 14 9 15 6 16 10 17
REMARK H PARENT
REMARK Flexibility Score: inf
ROOT
ATOM      1  C   UNL     1       3.514   0.648 -18.698  1.00  0.00     0.138 A 
ATOM      2  C   UNL     1       4.067  -0.227 -17.740  1.00  0.00     0.100 A 
ATOM      3  C   UNL     1       4.231   0.206 -16.423  1.00  0.00     0.193 A 
ATOM      4  O   UNL     1       4.726  -0.577 -15.568  1.00  0.00    -0.289 OA
ATOM      5  C   UNL     1       3.843   1.506 -16.072  1.00  0.00     0.065 A 
ATOM      6  C   UNL     1       3.980   2.006 -14.763  1.00  0.00     0.016 A 
ATOM      7  C   UNL     1       3.577   3.312 -14.467  1.00  0.00     0.001 A 
ATOM      8  C   UNL     1       3.036   4.125 -15.466  1.00  0.00     0.004 A 
ATOM      9  C   UNL     1       2.895   3.637 -16.769  1.00  0.00     0.048 A 
ATOM     10  C   UNL     1       3.296   2.332 -17.077  1.00  0.00     0.138 A 
ATOM     11  O   UNL     1       3.158   1.877 -18.318  1.00  0.00    -0.456 OA
ENDROOT
BRANCH   1  12
ATOM     12  C   UNL     1       3.304   0.264 -20.129  1.00  0.00     0.017 A 
ATOM     13  C   UNL     1       2.899  -0.366 -22.849  1.00  0.00     0.000 A 
ATOM     14  C   UNL     1       2.877   0.964 -22.430  1.00  0.00     0.001 A 
ATOM     15  C   UNL     1       3.121  -1.384 -21.922  1.00  0.00     0.001 A 
ATOM     16  C   UNL     1       3.077   1.278 -21.083  1.00  0.00     0.012 A 
ATOM     17  C   UNL     1       3.323  -1.078 -20.573  1.00  0.00     0.012 A 
ENDBRANCH   1  12
TORSDOF 1
ENDMDL
MODEL 3
REMARK VINA RESULT:    -1.900      1.111      2.612
REMARK INTER + INTRA:          -2.271
REMARK INTER:                  -2.010
REMARK INTRA:                  -0.261
REMARK UNBOUND:                -0.260
REMARK SMILES O=c1cc(-c2ccccc2)oc2ccccc12
REMARK SMILES IDX 4 1 3 2 2 3 1 4 17 5 16 6 15 7 14 8 13 9 12 10 11 11 5 12
REMARK SMILES IDX 8 13 7 14 9 15 6 16 10 17
REMARK H PARENT
REMARK Flexibility Score: inf
ROOT
ATOM      1  C   UNL     1       3.512   0.648 -18.699  1.00  0.00     0.138 A 
ATOM      2  C   UNL     1       4.076  -0.227 -17.747  1.00  0.00     0.100 A 
ATOM      3  C   UNL     1       4.251   0.206 -16.431  1.00  0.00     0.193 A 
ATOM      4  O   UNL     1       4.756  -0.576 -15.581  1.00  0.00    -0.289 OA
ATOM      5  C   UNL     1       3.862   1.505 -16.075  1.00  0.00     0.065 A 
ATOM      6  C   UNL     1       4.010   2.004 -14.767  1.00  0.00     0.016 A 
ATOM      7  C   UNL     1       3.606   3.308 -14.466  1.00  0.00     0.001 A 
ATOM      8  C   UNL     1       3.053   4.120 -15.460  1.00  0.00     0.004 A 
ATOM      9  C   UNL     1       2.901   3.633 -16.762  1.00  0.00     0.048 A 
ATOM     10  C   UNL     1       3.304   2.329 -17.074  1.00  0.00     0.138 A 
ATOM     11  O   UNL     1       3.156   1.875 -18.314  1.00  0.00    -0.456 OA
ENDROOT
BRANCH   1  12
ATOM     12  C   UNL     1       3.290   0.264 -20.128  1.00  0.00     0.017 A 
ATOM     13  C   UNL     1       2.876  -0.555 -22.796  1.00  0.00     0.000 A 
ATOM     14  C   UNL     1       3.032  -1.508 -21.789  1.00  0.00     0.001 A 
ATOM     15  C   UNL     1       2.926   0.802 -22.482  1.00  0.00     0.001 A 
ATOM     16  C   UNL     1       3.237  -1.105 -20.467  1.00  0.00     0.012 A 
ATOM     17  C   UNL     1       3.131   1.214 -21.162  1.00  0.00     0.012 A 
ENDBRANCH   1  12
TORSDOF 1
ENDMDL
MODEL 4
REMARK VINA RESULT:    -0.523      1.254      5.903
REMARK INTER + INTRA:          -0.813
REMARK INTER:                  -0.565
REMARK INTRA:                  -0.248
REMARK UNBOUND:                -0.260
REMARK SMILES O=c1cc(-c2ccccc2)oc2ccccc12
REMARK SMILES IDX 4 1 3 2 2 3 1 4 17 5 16 6 15 7 14 8 13 9 12 10 11 11 5 12
REMARK SMILES IDX 8 13 7 14 9 15 6 16 10 17
REMARK H PARENT
REMARK Flexibility Score: inf
ROOT
ATOM      1  C   UNL     1       3.574   1.858 -18.087  1.00  0.00     0.138 A 
ATOM      2  C   UNL     1       3.355   2.899 -19.015  1.00  0.00     0.100 A 
ATOM      3  C   UNL     1       3.122   2.589 -20.356  1.00  0.00     0.193 A 
ATOM      4  O   UNL     1       2.926   3.519 -21.184  1.00  0.00    -0.289 OA
ATOM      5  C   UNL     1       3.109   1.248 -20.762  1.00  0.00     0.065 A 
ATOM      6  C   UNL     1       2.879   0.866 -22.097  1.00  0.00     0.016 A 
ATOM      7  C   UNL     1       2.877  -0.487 -22.448  1.00  0.00     0.001 A 
ATOM      8  C   UNL     1       3.100  -1.466 -21.476  1.00  0.00     0.004 A 
ATOM      9  C   UNL     1       3.329  -1.097 -20.147  1.00  0.00     0.048 A 
ATOM     10  C   UNL     1       3.334   0.255 -19.785  1.00  0.00     0.138 A 
ATOM     11  O   UNL     1       3.552   0.596 -18.519  1.00  0.00    -0.456 OA
ENDROOT
BRANCH   1  12
ATOM     12  C   UNL     1       3.831   2.103 -16.634  1.00  0.00     0.017 A 
ATOM     13  C   UNL     1       4.384   2.493 -13.895  1.00  0.00     0.000 A 
ATOM     14  C   UNL     1       5.083   1.527 -14.617  1.00  0.00     0.001 A 
ATOM     15  C   UNL     1       3.411   3.266 -14.528  1.00  0.00     0.001 A 
ATOM     16  C   UNL     1       4.811   1.331 -15.974  1.00  0.00     0.012 A 
ATOM     17  C   UNL     1       3.133   3.077 -15.885  1.00  0.00     0.012 A 
ENDBRANCH   1  12
TORSDOF 1
ENDMDL
MODEL 5
REMARK VINA RESULT:    -0.445      1.335      5.837
REMARK INTER + INTRA:          -0.731
REMARK INTER:                  -0.481
REMARK INTRA:                  -0.250
REMARK UNBOUND:                -0.260
REMARK SMILES O=c1cc(-c2ccccc2)oc2ccccc12
REMARK SMILES IDX 4 1 3 2 2 3 1 4 17 5 16 6 15 7 14 8 13 9 12 10 11 11 5 12
REMARK SMILES IDX 8 13 7 14 9 15 6 16 10 17
REMARK H PARENT
REMARK Flexibility Score: inf
ROOT
ATOM      1  C   UNL     1       3.467   1.935 -18.050  1.00  0.00     0.138 A 
ATOM      2  C   UNL     1       3.333   2.930 -19.042  1.00  0.00     0.100 A 
ATOM      3  C   UNL     1       3.149   2.554 -20.375  1.00  0.00     0.193 A 
ATOM      4  O   UNL     1       3.029   3.444 -21.260  1.00  0.00    -0.289 OA
ATOM      5  C   UNL     1       3.101   1.194 -20.707  1.00  0.00     0.065 A 
ATOM      6  C   UNL     1       2.918   0.747 -22.029  1.00  0.00     0.016 A 
ATOM      7  C   UNL     1       2.877  -0.623 -22.306  1.00  0.00     0.001 A 
ATOM      8  C   UNL     1       3.016  -1.553 -21.273  1.00  0.00     0.004 A 
ATOM      9  C   UNL     1       3.198  -1.120 -19.956  1.00  0.00     0.048 A 
ATOM     10  C   UNL     1       3.241   0.249 -19.669  1.00  0.00     0.138 A 
ATOM     11  O   UNL     1       3.413   0.653 -18.414  1.00  0.00    -0.456 OA
ENDROOT
BRANCH   1  12
ATOM     12  C   UNL     1       3.666   2.251 -16.602  1.00  0.00     0.017 A 
ATOM     13  C   UNL     1       3.979   2.921 -13.879  1.00  0.00     0.000 A 
ATOM     14  C   UNL     1       3.125   3.670 -14.688  1.00  0.00     0.001 A 
ATOM     15  C   UNL     1       4.678   1.841 -14.417  1.00  0.00     0.001 A 
ATOM     16  C   UNL     1       2.968   3.340 -16.037  1.00  0.00     0.012 A 
ATOM     17  C   UNL     1       4.527   1.504 -15.765  1.00  0.00     0.012 A 
ENDBRANCH   1  12
TORSDOF 1
ENDMDL
