MODEL 1
REMARK VINA RESULT:    -5.183      0.000      0.000
REMARK INTER + INTRA:          -6.979
REMARK INTER:                  -6.698
REMARK INTRA:                  -0.281
REMARK UNBOUND:                -0.281
REMARK SMILES CCO[C@H]1O[C@H](CO)[C@@H](O)[C@H](O)[C@H]1O
REMARK SMILES IDX 4 1 13 2 11 3 9 4 6 5 5 6 3 7 2 8 1 9 14 10 12 12 7 14 8 15
REMARK SMILES IDX 10 17
REMARK H PARENT 14 11 12 13 8 16 10 18
REMARK Flexibility Score: inf
ROOT
ATOM      1  C   UNL     1     232.594 238.603 240.047  1.00  0.00     0.281 C 
ATOM      2  C   UNL     1     231.860 239.223 241.248  1.00  0.00     0.202 C 
ATOM      3  C   UNL     1     232.488 240.583 241.608  1.00  0.00     0.179 C 
ATOM      4  C   UNL     1     234.016 240.446 241.761  1.00  0.00     0.177 C 
ATOM      5  C   UNL     1     234.602 239.742 240.513  1.00  0.00     0.178 C 
ATOM      6  O   UNL     1     233.985 238.479 240.315  1.00  0.00    -0.341 OA
ENDROOT
BRANCH   1   7
ATOM      7  O   UNL     1     232.356 239.367 238.874  1.00  0.00    -0.350 OA
BRANCH   7   8
ATOM      8  C   UNL     1     232.803 238.682 237.719  1.00  0.00     0.160 C 
ATOM      9  C   UNL     1     233.878 239.495 237.009  1.00  0.00     0.035 C 
ENDBRANCH   7   8
ENDBRANCH   1   7
BRANCH   2  10
ATOM     10  O   UNL     1     230.501 239.382 240.933  1.00  0.00    -0.385 OA
ATOM     11  H   UNL     1     230.386 239.076 239.996  1.00  0.00     0.211 HD
ENDBRANCH   2  10
BRANCH   3  12
ATOM     12  O   UNL     1     231.911 241.106 242.780  1.00  0.00    -0.387 OA
ATOM     13  H   UNL     1     230.974 240.783 242.824  1.00  0.00     0.211 HD
ENDBRANCH   3  12
BRANCH   5  14
ATOM     14  C   UNL     1     236.114 239.507 240.661  1.00  0.00     0.191 C 
BRANCH  14  15
ATOM     15  O   UNL     1     236.851 240.619 240.228  1.00  0.00    -0.394 OA
ATOM     16  H   UNL     1     237.050 240.472 239.268  1.00  0.00     0.210 HD
ENDBRANCH  14  15
ENDBRANCH   5  14
BRANCH   4  17
ATOM     17  O   UNL     1     234.587 241.722 241.904  1.00  0.00    -0.387 OA
ATOM     18  H   UNL     1     233.837 242.372 241.932  1.00  0.00     0.211 HD
ENDBRANCH   4  17
TORSDOF 7
ENDMDL
MODEL 2
REMARK VINA RESULT:    -5.035      1.560      3.656
REMARK INTER + INTRA:          -6.787
REMARK INTER:                  -6.520
REMARK INTRA:                  -0.267
REMARK UNBOUND:                -0.281
REMARK SMILES CCO[C@H]1O[C@H](CO)[C@@H](O)[C@H](O)[C@H]1O
REMARK SMILES IDX 4 1 13 2 11 3 9 4 6 5 5 6 3 7 2 8 1 9 14 10 12 12 7 14 8 15
REMARK SMILES IDX 10 17
REMARK H PARENT 14 11 12 13 8 16 10 18
REMARK Flexibility Score: inf
ROOT
ATOM      1  C   UNL     1     233.495 240.859 240.808  1.00  0.00     0.281 C 
ATOM      2  C   UNL     1     232.789 240.548 239.478  1.00  0.00     0.202 C 
ATOM      3  C   UNL     1     233.030 239.079 239.081  1.00  0.00     0.179 C 
ATOM      4  C   UNL     1     234.534 238.749 239.127  1.00  0.00     0.177 C 
ATOM      5  C   UNL     1     235.119 239.183 240.493  1.00  0.00     0.178 C 
ATOM      6  O   UNL     1     234.884 240.564 240.722  1.00  0.00    -0.341 OA
ENDROOT
BRANCH   1   7
ATOM      7  O   UNL     1     232.878 240.152 241.873  1.00  0.00    -0.350 OA
BRANCH   7   8
ATOM      8  C   UNL     1     232.892 240.912 243.067  1.00  0.00     0.160 C 
ATOM      9  C   UNL     1     232.674 242.387 242.753  1.00  0.00     0.035 C 
ENDBRANCH   7   8
ENDBRANCH   1   7
BRANCH   2  10
ATOM     10  O   UNL     1     231.413 240.798 239.610  1.00  0.00    -0.385 OA
ATOM     11  H   UNL     1     230.966 239.914 239.679  1.00  0.00     0.211 HD
ENDBRANCH   2  10
BRANCH   3  12
ATOM     12  O   UNL     1     232.495 238.811 237.807  1.00  0.00    -0.387 OA
ATOM     13  H   UNL     1     232.302 237.838 237.760  1.00  0.00     0.211 HD
ENDBRANCH   3  12
BRANCH   5  14
ATOM     14  C   UNL     1     236.638 238.951 240.550  1.00  0.00     0.191 C 
BRANCH  14  15
ATOM     15  O   UNL     1     237.348 240.132 240.286  1.00  0.00    -0.394 OA
ATOM     16  H   UNL     1     236.796 240.879 240.633  1.00  0.00     0.210 HD
ENDBRANCH  14  15
ENDBRANCH   5  14
BRANCH   4  17
ATOM     17  O   UNL     1     234.716 237.367 238.945  1.00  0.00    -0.387 OA
ATOM     18  H   UNL     1     235.695 237.205 238.926  1.00  0.00     0.211 HD
ENDBRANCH   4  17
TORSDOF 7
ENDMDL
MODEL 3
REMARK VINA RESULT:    -4.998      1.656      4.017
REMARK INTER + INTRA:          -6.739
REMARK INTER:                  -6.581
REMARK INTRA:                  -0.159
REMARK UNBOUND:                -0.281
REMARK SMILES CCO[C@H]1O[C@H](CO)[C@@H](O)[C@H](O)[C@H]1O
REMARK SMILES IDX 4 1 13 2 11 3 9 4 6 5 5 6 3 7 2 8 1 9 14 10 12 12 7 14 8 15
REMARK SMILES IDX 10 17
REMARK H PARENT 14 11 12 13 8 16 10 18
REMARK Flexibility Score: inf
ROOT
ATOM      1  C   UNL     1     234.345 241.423 242.142  1.00  0.00     0.281 C 
ATOM      2  C   UNL     1     233.024 241.628 241.381  1.00  0.00     0.202 C 
ATOM      3  C   UNL     1     232.652 240.347 240.610  1.00  0.00     0.179 C 
ATOM      4  C   UNL     1     233.842 239.868 239.757  1.00  0.00     0.177 C 
ATOM      5  C   UNL     1     235.112 239.780 240.639  1.00  0.00     0.178 C 
ATOM      6  O   UNL     1     235.383 241.031 241.252  1.00  0.00    -0.341 OA
ENDROOT
BRANCH   1   7
ATOM      7  O   UNL     1     234.172 240.479 243.187  1.00  0.00    -0.350 OA
BRANCH   7   8
ATOM      8  C   UNL     1     234.377 241.077 244.454  1.00  0.00     0.160 C 
ATOM      9  C   UNL     1     233.221 240.739 245.387  1.00  0.00     0.035 C 
ENDBRANCH   7   8
ENDBRANCH   1   7
BRANCH   2  10
ATOM     10  O   UNL     1     232.008 241.961 242.291  1.00  0.00    -0.385 OA
ATOM     11  H   UNL     1     231.144 241.807 241.827  1.00  0.00     0.211 HD
ENDBRANCH   2  10
BRANCH   3  12
ATOM     12  O   UNL     1     231.513 240.557 239.811  1.00  0.00    -0.387 OA
ATOM     13  H   UNL     1     230.990 239.713 239.804  1.00  0.00     0.211 HD
ENDBRANCH   3  12
BRANCH   5  14
ATOM     14  C   UNL     1     236.345 239.388 239.808  1.00  0.00     0.191 C 
BRANCH  14  15
ATOM     15  O   UNL     1     237.417 240.261 240.039  1.00  0.00    -0.394 OA
ATOM     16  H   UNL     1     237.107 241.168 239.783  1.00  0.00     0.210 HD
ENDBRANCH  14  15
ENDBRANCH   5  14
BRANCH   4  17
ATOM     17  O   UNL     1     233.549 238.607 239.212  1.00  0.00    -0.387 OA
ATOM     18  H   UNL     1     233.542 237.961 239.966  1.00  0.00     0.211 HD
ENDBRANCH   4  17
TORSDOF 7
ENDMDL
MODEL 4
REMARK VINA RESULT:    -4.986      1.414      2.546
REMARK INTER + INTRA:          -6.724
REMARK INTER:                  -6.281
REMARK INTRA:                  -0.444
REMARK UNBOUND:                -0.281
REMARK SMILES CCO[C@H]1O[C@H](CO)[C@@H](O)[C@H](O)[C@H]1O
REMARK SMILES IDX 4 1 13 2 11 3 9 4 6 5 5 6 3 7 2 8 1 9 14 10 12 12 7 14 8 15
REMARK SMILES IDX 10 17
REMARK H PARENT 14 11 12 13 8 16 10 18
REMARK Flexibility Score: inf
ROOT
ATOM      1  C   UNL     1     234.149 239.321 240.105  1.00  0.00     0.281 C 
ATOM      2  C   UNL     1     232.717 238.781 240.254  1.00  0.00     0.202 C 
ATOM      3  C   UNL     1     231.817 239.840 240.918  1.00  0.00     0.179 C 
ATOM      4  C   UNL     1     232.468 240.362 242.214  1.00  0.00     0.177 C 
ATOM      5  C   UNL     1     233.924 240.800 241.924  1.00  0.00     0.178 C 
ATOM      6  O   UNL     1     234.667 239.727 241.366  1.00  0.00    -0.341 OA
ENDROOT
BRANCH   1   7
ATOM      7  O   UNL     1     234.183 240.382 239.163  1.00  0.00    -0.350 OA
BRANCH   7   8
ATOM      8  C   UNL     1     235.263 240.231 238.261  1.00  0.00     0.160 C 
ATOM      9  C   UNL     1     234.745 239.837 236.883  1.00  0.00     0.035 C 
ENDBRANCH   7   8
ENDBRANCH   1   7
BRANCH   2  10
ATOM     10  O   UNL     1     232.214 238.439 238.988  1.00  0.00    -0.385 OA
ATOM     11  H   UNL     1     231.446 239.043 238.811  1.00  0.00     0.211 HD
ENDBRANCH   2  10
BRANCH   3  12
ATOM     12  O   UNL     1     230.536 239.319 241.174  1.00  0.00    -0.387 OA
ATOM     13  H   UNL     1     230.618 238.331 241.231  1.00  0.00     0.211 HD
ENDBRANCH   3  12
BRANCH   5  14
ATOM     14  C   UNL     1     234.640 241.248 243.210  1.00  0.00     0.191 C 
BRANCH  14  15
ATOM     15  O   UNL     1     233.998 240.751 244.353  1.00  0.00    -0.394 OA
ATOM     16  H   UNL     1     234.706 240.372 244.935  1.00  0.00     0.210 HD
ENDBRANCH  14  15
ENDBRANCH   5  14
BRANCH   4  17
ATOM     17  O   UNL     1     231.727 241.452 242.702  1.00  0.00    -0.387 OA
ATOM     18  H   UNL     1     231.653 241.332 243.685  1.00  0.00     0.211 HD
ENDBRANCH   4  17
TORSDOF 7
ENDMDL
MODEL 5
REMARK VINA RESULT:    -4.891      1.535      3.908
REMARK INTER + INTRA:          -6.602
REMARK INTER:                  -6.214
REMARK INTRA:                  -0.387
REMARK UNBOUND:                -0.281
REMARK SMILES CCO[C@H]1O[C@H](CO)[C@@H](O)[C@H](O)[C@H]1O
REMARK SMILES IDX 4 1 13 2 11 3 9 4 6 5 5 6 3 7 2 8 1 9 14 10 12 12 7 14 8 15
REMARK SMILES IDX 10 17
REMARK H PARENT 14 11 12 13 8 16 10 18
REMARK Flexibility Score: inf
ROOT
ATOM      1  C   UNL     1     235.615 240.192 240.648  1.00  0.00     0.281 C 
ATOM      2  C   UNL     1     234.743 241.111 241.521  1.00  0.00     0.202 C 
ATOM      3  C   UNL     1     233.261 240.708 241.400  1.00  0.00     0.179 C 
ATOM      4  C   UNL     1     232.849 240.613 239.918  1.00  0.00     0.177 C 
ATOM      5  C   UNL     1     233.856 239.717 239.155  1.00  0.00     0.178 C 
ATOM      6  O   UNL     1     235.176 240.219 239.295  1.00  0.00    -0.341 OA
ENDROOT
BRANCH   1   7
ATOM      7  O   UNL     1     235.616 238.871 241.168  1.00  0.00    -0.350 OA
BRANCH   7   8
ATOM      8  C   UNL     1     236.832 238.209 240.876  1.00  0.00     0.160 C 
ATOM      9  C   UNL     1     237.438 237.636 242.151  1.00  0.00     0.035 C 
ENDBRANCH   7   8
ENDBRANCH   1   7
BRANCH   2  10
ATOM     10  O   UNL     1     235.165 241.022 242.857  1.00  0.00    -0.385 OA
ATOM     11  H   UNL     1     235.855 241.724 242.988  1.00  0.00     0.211 HD
ENDBRANCH   2  10
BRANCH   3  12
ATOM     12  O   UNL     1     232.438 241.613 242.094  1.00  0.00    -0.387 OA
ATOM     13  H   UNL     1     232.244 242.372 241.484  1.00  0.00     0.211 HD
ENDBRANCH   3  12
BRANCH   5  14
ATOM     14  C   UNL     1     233.531 239.665 237.653  1.00  0.00     0.191 C 
BRANCH  14  15
ATOM     15  O   UNL     1     232.559 238.694 237.372  1.00  0.00    -0.394 OA
ATOM     16  H   UNL     1     231.713 239.181 237.197  1.00  0.00     0.210 HD
ENDBRANCH  14  15
ENDBRANCH   5  14
BRANCH   4  17
ATOM     17  O   UNL     1     231.557 240.066 239.827  1.00  0.00    -0.387 OA
ATOM     18  H   UNL     1     231.304 240.083 238.866  1.00  0.00     0.211 HD
ENDBRANCH   4  17
TORSDOF 7
ENDMDL
MODEL 6
REMARK VINA RESULT:    -4.746      1.656      4.404
REMARK INTER + INTRA:          -6.415
REMARK INTER:                  -6.350
REMARK INTRA:                  -0.065
REMARK UNBOUND:                -0.281
REMARK SMILES CCO[C@H]1O[C@H](CO)[C@@H](O)[C@H](O)[C@H]1O
REMARK SMILES IDX 4 1 13 2 11 3 9 4 6 5 5 6 3 7 2 8 1 9 14 10 12 12 7 14 8 15
REMARK SMILES IDX 10 17
REMARK H PARENT 14 11 12 13 8 16 10 18
REMARK Flexibility Score: inf
ROOT
ATOM      1  C   UNL     1     233.971 239.400 240.373  1.00  0.00     0.281 C 
ATOM      2  C   UNL     1     235.474 239.434 240.701  1.00  0.00     0.202 C 
ATOM      3  C   UNL     1     236.229 240.256 239.640  1.00  0.00     0.179 C 
ATOM      4  C   UNL     1     235.871 239.764 238.224  1.00  0.00     0.177 C 
ATOM      5  C   UNL     1     234.331 239.713 238.067  1.00  0.00     0.178 C 
ATOM      6  O   UNL     1     233.754 238.885 239.065  1.00  0.00    -0.341 OA
ENDROOT
BRANCH   1   7
ATOM      7  O   UNL     1     233.402 240.691 240.526  1.00  0.00    -0.350 OA
BRANCH   7   8
ATOM      8  C   UNL     1     232.580 240.754 241.676  1.00  0.00     0.160 C 
ATOM      9  C   UNL     1     232.810 242.067 242.415  1.00  0.00     0.035 C 
ENDBRANCH   7   8
ENDBRANCH   1   7
BRANCH   2  10
ATOM     10  O   UNL     1     235.659 239.996 241.975  1.00  0.00    -0.385 OA
ATOM     11  H   UNL     1     236.565 239.724 242.280  1.00  0.00     0.211 HD
ENDBRANCH   2  10
BRANCH   3  12
ATOM     12  O   UNL     1     237.618 240.195 239.856  1.00  0.00    -0.387 OA
ATOM     13  H   UNL     1     237.769 240.119 240.834  1.00  0.00     0.211 HD
ENDBRANCH   3  12
BRANCH   5  14
ATOM     14  C   UNL     1     233.928 239.146 236.696  1.00  0.00     0.191 C 
BRANCH  14  15
ATOM     15  O   UNL     1     232.645 238.580 236.733  1.00  0.00    -0.394 OA
ATOM     16  H   UNL     1     232.005 239.332 236.825  1.00  0.00     0.210 HD
ENDBRANCH  14  15
ENDBRANCH   5  14
BRANCH   4  17
ATOM     17  O   UNL     1     236.421 240.640 237.272  1.00  0.00    -0.387 OA
ATOM     18  H   UNL     1     236.841 241.386 237.776  1.00  0.00     0.211 HD
ENDBRANCH   4  17
TORSDOF 7
ENDMDL
MODEL 7
REMARK VINA RESULT:    -4.704      7.610     10.348
REMARK INTER + INTRA:          -6.360
REMARK INTER:                  -5.932
REMARK INTRA:                  -0.428
REMARK UNBOUND:                -0.281
REMARK SMILES CCO[C@H]1O[C@H](CO)[C@@H](O)[C@H](O)[C@H]1O
REMARK SMILES IDX 4 1 13 2 11 3 9 4 6 5 5 6 3 7 2 8 1 9 14 10 12 12 7 14 8 15
REMARK SMILES IDX 10 17
REMARK H PARENT 14 11 12 13 8 16 10 18
REMARK Flexibility Score: inf
ROOT
ATOM      1  C   UNL     1     234.667 240.015 231.763  1.00  0.00     0.281 C 
ATOM      2  C   UNL     1     233.266 239.449 231.472  1.00  0.00     0.202 C 
ATOM      3  C   UNL     1     233.377 238.164 230.630  1.00  0.00     0.179 C 
ATOM      4  C   UNL     1     234.266 238.406 229.394  1.00  0.00     0.177 C 
ATOM      5  C   UNL     1     235.607 239.041 229.835  1.00  0.00     0.178 C 
ATOM      6  O   UNL     1     235.378 240.244 230.553  1.00  0.00    -0.341 OA
ENDROOT
BRANCH   1   7
ATOM      7  O   UNL     1     235.380 239.145 232.629  1.00  0.00    -0.350 OA
BRANCH   7   8
ATOM      8  C   UNL     1     235.913 239.850 233.734  1.00  0.00     0.160 C 
ATOM      9  C   UNL     1     235.188 239.448 235.013  1.00  0.00     0.035 C 
ENDBRANCH   7   8
ENDBRANCH   1   7
BRANCH   2  10
ATOM     10  O   UNL     1     232.609 239.183 232.684  1.00  0.00    -0.385 OA
ATOM     11  H   UNL     1     232.343 238.227 232.662  1.00  0.00     0.211 HD
ENDBRANCH   2  10
BRANCH   3  12
ATOM     12  O   UNL     1     232.103 237.703 230.251  1.00  0.00    -0.387 OA
ATOM     13  H   UNL     1     231.500 238.489 230.200  1.00  0.00     0.211 HD
ENDBRANCH   3  12
BRANCH   5  14
ATOM     14  C   UNL     1     236.491 239.379 228.623  1.00  0.00     0.191 C 
BRANCH  14  15
ATOM     15  O   UNL     1     235.730 239.498 227.451  1.00  0.00    -0.394 OA
ATOM     16  H   UNL     1     234.958 238.883 227.550  1.00  0.00     0.210 HD
ENDBRANCH  14  15
ENDBRANCH   5  14
BRANCH   4  17
ATOM     17  O   UNL     1     234.505 237.183 228.745  1.00  0.00    -0.387 OA
ATOM     18  H   UNL     1     234.452 237.359 227.769  1.00  0.00     0.211 HD
ENDBRANCH   4  17
TORSDOF 7
ENDMDL
MODEL 8
REMARK VINA RESULT:    -4.611      7.122      8.625
REMARK INTER + INTRA:          -6.239
REMARK INTER:                  -5.858
REMARK INTRA:                  -0.381
REMARK UNBOUND:                -0.281
REMARK SMILES CCO[C@H]1O[C@H](CO)[C@@H](O)[C@H](O)[C@H]1O
REMARK SMILES IDX 4 1 13 2 11 3 9 4 6 5 5 6 3 7 2 8 1 9 14 10 12 12 7 14 8 15
REMARK SMILES IDX 10 17
REMARK H PARENT 14 11 12 13 8 16 10 18
REMARK Flexibility Score: inf
ROOT
ATOM      1  C   UNL     1     237.053 233.337 238.366  1.00  0.00     0.281 C 
ATOM      2  C   UNL     1     236.680 231.920 237.897  1.00  0.00     0.202 C 
ATOM      3  C   UNL     1     236.105 231.107 239.072  1.00  0.00     0.179 C 
ATOM      4  C   UNL     1     237.050 231.177 240.288  1.00  0.00     0.177 C 
ATOM      5  C   UNL     1     237.393 232.655 240.595  1.00  0.00     0.178 C 
ATOM      6  O   UNL     1     237.964 233.282 239.457  1.00  0.00    -0.341 OA
ENDROOT
BRANCH   1   7
ATOM      7  O   UNL     1     235.885 234.071 238.701  1.00  0.00    -0.350 OA
BRANCH   7   8
ATOM      8  C   UNL     1     236.142 235.463 238.711  1.00  0.00     0.160 C 
ATOM      9  C   UNL     1     235.469 236.112 239.915  1.00  0.00     0.035 C 
ENDBRANCH   7   8
ENDBRANCH   1   7
BRANCH   2  10
ATOM     10  O   UNL     1     235.740 232.006 236.857  1.00  0.00    -0.385 OA
ATOM     11  H   UNL     1     235.739 232.949 236.548  1.00  0.00     0.211 HD
ENDBRANCH   2  10
BRANCH   3  12
ATOM     12  O   UNL     1     235.874 229.773 238.691  1.00  0.00    -0.387 OA
ATOM     13  H   UNL     1     236.651 229.234 238.992  1.00  0.00     0.211 HD
ENDBRANCH   3  12
BRANCH   5  14
ATOM     14  C   UNL     1     238.403 232.767 241.749  1.00  0.00     0.191 C 
BRANCH  14  15
ATOM     15  O   UNL     1     237.764 232.724 242.996  1.00  0.00    -0.394 OA
ATOM     16  H   UNL     1     236.888 233.175 242.882  1.00  0.00     0.210 HD
ENDBRANCH  14  15
ENDBRANCH   5  14
BRANCH   4  17
ATOM     17  O   UNL     1     236.424 230.589 241.400  1.00  0.00    -0.387 OA
ATOM     18  H   UNL     1     236.565 231.203 242.168  1.00  0.00     0.211 HD
ENDBRANCH   4  17
TORSDOF 7
ENDMDL
MODEL 9
REMARK VINA RESULT:    -4.564      1.684      2.202
REMARK INTER + INTRA:          -6.179
REMARK INTER:                  -5.708
REMARK INTRA:                  -0.471
REMARK UNBOUND:                -0.281
REMARK SMILES CCO[C@H]1O[C@H](CO)[C@@H](O)[C@H](O)[C@H]1O
REMARK SMILES IDX 4 1 13 2 11 3 9 4 6 5 5 6 3 7 2 8 1 9 14 10 12 12 7 14 8 15
REMARK SMILES IDX 10 17
REMARK H PARENT 14 11 12 13 8 16 10 18
REMARK Flexibility Score: inf
ROOT
ATOM      1  C   UNL     1     234.304 238.622 238.126  1.00  0.00     0.281 C 
ATOM      2  C   UNL     1     233.277 238.829 239.253  1.00  0.00     0.202 C 
ATOM      3  C   UNL     1     233.812 239.847 240.277  1.00  0.00     0.179 C 
ATOM      4  C   UNL     1     235.230 239.455 240.735  1.00  0.00     0.177 C 
ATOM      5  C   UNL     1     236.126 239.210 239.497  1.00  0.00     0.178 C 
ATOM      6  O   UNL     1     235.559 238.216 238.658  1.00  0.00    -0.341 OA
ENDROOT
BRANCH   1   7
ATOM      7  O   UNL     1     234.426 239.801 237.346  1.00  0.00    -0.350 OA
BRANCH   7   8
ATOM      8  C   UNL     1     234.738 239.493 236.000  1.00  0.00     0.160 C 
ATOM      9  C   UNL     1     233.766 238.449 235.462  1.00  0.00     0.035 C 
ENDBRANCH   7   8
ENDBRANCH   1   7
BRANCH   2  10
ATOM     10  O   UNL     1     232.066 239.280 238.703  1.00  0.00    -0.385 OA
ATOM     11  H   UNL     1     232.083 239.044 237.739  1.00  0.00     0.211 HD
ENDBRANCH   2  10
BRANCH   3  12
ATOM     12  O   UNL     1     232.941 239.956 241.376  1.00  0.00    -0.387 OA
ATOM     13  H   UNL     1     233.151 240.805 241.845  1.00  0.00     0.211 HD
ENDBRANCH   3  12
BRANCH   5  14
ATOM     14  C   UNL     1     237.529 238.732 239.907  1.00  0.00     0.191 C 
BRANCH  14  15
ATOM     15  O   UNL     1     238.348 239.807 240.282  1.00  0.00    -0.394 OA
ATOM     16  H   UNL     1     238.817 240.107 239.461  1.00  0.00     0.210 HD
ENDBRANCH  14  15
ENDBRANCH   5  14
BRANCH   4  17
ATOM     17  O   UNL     1     235.770 240.488 241.520  1.00  0.00    -0.387 OA
ATOM     18  H   UNL     1     235.168 241.272 241.418  1.00  0.00     0.211 HD
ENDBRANCH   4  17
TORSDOF 7
ENDMDL
