MODEL 1
REMARK VINA RESULT:    76.652      0.000      0.000
REMARK INTER + INTRA:         163.975
REMARK INTER:                 161.793
REMARK INTRA:                   2.182
REMARK UNBOUND:                 2.182
REMARK SMILES CCC(=O)CCCCC[C@H]1NC(=O)[C@H]2CCCCN2C(=O)[C@@H]([C@@H](C)CC)NC(=O)[C@@H](Cc2cn(OC)c3ccccc23)NC1=O
REMARK SMILES IDX 9 1 10 2 44 3 43 4 45 6 30 7 28 8 27 9 29 11 22 12 23 14
REMARK SMILES IDX 24 15 25 16 26 17 31 18 32 19 33 20 42 21 34 22 37 23 41 24
REMARK SMILES IDX 38 25 40 26 39 27 35 28 36 29 11 30 12 31 13 33 14 34 19 35
REMARK SMILES IDX 15 36 18 37 16 38 17 39 20 40 21 41 8 43 7 44 6 45 5 46 3 47
REMARK SMILES IDX 4 48 2 49 1 50
REMARK H PARENT 43 5 27 10 11 32
REMARK Flexibility Score: 80.00
ROOT
ATOM      1  C   UNL     1      -2.611 -20.163  23.082  1.00  0.00     0.035 C 
ENDROOT
BRANCH   1   2
ATOM      2  C   UNL     1      -4.076 -19.994  22.601  1.00  0.00     0.171 C 
BRANCH   2   3
ATOM      3  C   UNL     1      -4.898 -19.063  23.461  1.00  0.00     0.243 C 
ATOM      4  N   UNL     1      -4.969 -19.182  24.896  1.00  0.00    -0.342 N 
ATOM      5  H   UNL     1      -4.285 -19.788  25.393  1.00  0.00     0.164 HD
ATOM      6  O   UNL     1      -5.552 -18.148  22.894  1.00  0.00    -0.273 OA
BRANCH   4   7
ATOM      7  C   UNL     1      -6.154 -18.753  25.655  1.00  0.00     0.175 C 
BRANCH   7   8
ATOM      8  C   UNL     1      -6.984 -19.954  26.079  1.00  0.00     0.243 C 
ATOM      9  N   UNL     1      -6.353 -21.212  26.359  1.00  0.00    -0.342 N 
ATOM     10  H   UNL     1      -5.331 -21.197  26.524  1.00  0.00     0.164 HD
ATOM     11  O   UNL     1      -8.236 -19.852  26.133  1.00  0.00    -0.273 OA
BRANCH   9  12
ATOM     12  C   UNL     1      -6.996 -22.533  26.311  1.00  0.00     0.174 CG0
ATOM     13  G   UNL     1      -6.107 -23.466  25.506  1.00  0.00     0.000 G0
BRANCH  12  14
ATOM     14  C   UNL     1      -7.345 -23.081  27.733  1.00  0.00     0.018 C 
ATOM     15  C   UNL     1      -6.285 -24.092  28.217  1.00  0.00     0.010 C 
BRANCH  14  16
ATOM     16  C   UNL     1      -7.588 -21.966  28.789  1.00  0.00     0.002 C 
ATOM     17  C   UNL     1      -8.995 -21.374  28.706  1.00  0.00     0.004 C 
ENDBRANCH  14  16
ENDBRANCH  12  14
ENDBRANCH   9  12
ENDBRANCH   7   8
BRANCH   7  18
ATOM     18  C   UNL     1      -5.720 -17.921  26.876  1.00  0.00     0.073 C 
BRANCH  18  19
ATOM     19  C   UNL     1      -6.889 -17.625  27.773  1.00  0.00    -0.016 A 
ATOM     20  C   UNL     1      -6.928 -17.799  29.147  1.00  0.00     0.134 A 
ATOM     21  C   UNL     1      -8.106 -17.071  27.425  1.00  0.00     0.006 A 
ATOM     22  N   UNL     1      -8.124 -17.398  29.641  1.00  0.00    -0.191 N 
ATOM     23  C   UNL     1      -8.847 -16.944  28.583  1.00  0.00     0.087 A 
ATOM     24  C   UNL     1      -8.590 -16.674  26.178  1.00  0.00     0.011 A 
ATOM     25  C   UNL     1     -10.129 -16.373  28.545  1.00  0.00     0.030 A 
ATOM     26  C   UNL     1      -9.875 -16.112  26.119  1.00  0.00     0.001 A 
ATOM     27  C   UNL     1     -10.634 -15.959  27.298  1.00  0.00     0.002 A 
BRANCH  22  28
ATOM     28  O   UNL     1      -8.429 -17.521  30.988  1.00  0.00    -0.417 OA
ATOM     29  C   UNL     1      -8.276 -18.707  31.754  1.00  0.00     0.313 C 
ENDBRANCH  22  28
ENDBRANCH  18  19
ENDBRANCH   7  18
ENDBRANCH   4   7
ENDBRANCH   2   3
BRANCH   2  30
ATOM     30  N   UNL     1      -4.805 -21.262  22.388  1.00  0.00    -0.343 N 
ATOM     31  C   UNL     1      -4.628 -22.512  23.085  1.00  0.00     0.243 C 
ATOM     32  H   UNL     1      -5.617 -21.203  21.729  1.00  0.00     0.164 HD
ATOM     33  O   UNL     1      -3.591 -22.717  23.771  1.00  0.00    -0.273 OA
BRANCH  31  34
ATOM     34  C   UNL     1      -5.652 -23.625  22.951  1.00  0.00     0.174 C 
ATOM     35  N   UNL     1      -6.584 -23.686  24.101  1.00  0.00    -0.329 N 
ATOM     36  C   UNL     1      -4.971 -24.993  22.789  1.00  0.00     0.035 C 
ATOM     37  C   UNL     1      -7.650 -24.685  23.976  1.00  0.00     0.120 C 
ATOM     38  C   UNL     1      -6.007 -26.125  22.687  1.00  0.00     0.004 C 
ATOM     39  C   UNL     1      -7.018 -26.081  23.844  1.00  0.00     0.022 C 
BRANCH  35  40
ATOM     40  C   UNL     1      -6.114 -23.409  25.430  1.00  0.00     0.246 CG0
ATOM     41  O   UNL     1      -4.933 -23.733  25.752  1.00  0.00    -0.272 OA
ATOM     42  G   UNL     1      -6.957 -22.565  26.372  1.00  0.00     0.000 G0
ENDBRANCH  35  40
ENDBRANCH  31  34
ENDBRANCH   2  30
ENDBRANCH   1   2
BRANCH   1  43
ATOM     43  C   UNL     1      -1.622 -19.326  22.255  1.00  0.00     0.003 C 
BRANCH  43  44
ATOM     44  C   UNL     1      -0.463 -18.811  23.126  1.00  0.00     0.001 C 
BRANCH  44  45
ATOM     45  C   UNL     1      -0.258 -19.667  24.390  1.00  0.00     0.008 C 
BRANCH  45  46
ATOM     46  C   UNL     1      -0.381 -18.863  25.695  1.00  0.00     0.075 C 
BRANCH  46  47
ATOM     47  C   UNL     1      -1.204 -17.601  25.528  1.00  0.00     0.132 C 
ATOM     48  O   UNL     1      -0.677 -16.605  25.044  1.00  0.00    -0.300 OA
BRANCH  47  49
ATOM     49  C   UNL     1      -2.644 -17.521  25.975  1.00  0.00     0.072 C 
ATOM     50  C   UNL     1      -2.762 -17.387  27.498  1.00  0.00     0.012 C 
ENDBRANCH  47  49
ENDBRANCH  46  47
ENDBRANCH  45  46
ENDBRANCH  44  45
ENDBRANCH  43  44
ENDBRANCH   1  43
TORSDOF 12
ENDMDL
MODEL 2
REMARK VINA RESULT:    78.881      2.783      6.955
REMARK INTER + INTRA:         168.679
REMARK INTER:                 161.367
REMARK INTRA:                   7.313
REMARK UNBOUND:                 2.182
REMARK SMILES CCC(=O)CCCCC[C@H]1NC(=O)[C@H]2CCCCN2C(=O)[C@@H]([C@@H](C)CC)NC(=O)[C@@H](Cc2cn(OC)c3ccccc23)NC1=O
REMARK SMILES IDX 9 1 10 2 44 3 43 4 45 6 30 7 28 8 27 9 29 11 22 12 23 14
REMARK SMILES IDX 24 15 25 16 26 17 31 18 32 19 33 20 42 21 34 22 37 23 41 24
REMARK SMILES IDX 38 25 40 26 39 27 35 28 36 29 11 30 12 31 13 33 14 34 19 35
REMARK SMILES IDX 15 36 18 37 16 38 17 39 20 40 21 41 8 43 7 44 6 45 5 46 3 47
REMARK SMILES IDX 4 48 2 49 1 50
REMARK H PARENT 43 5 27 10 11 32
REMARK Flexibility Score: 80.00
ROOT
ATOM      1  C   UNL     1      -5.403 -23.552  23.852  1.00  0.00     0.035 C 
ENDROOT
BRANCH   1   2
ATOM      2  C   UNL     1      -4.550 -22.484  24.583  1.00  0.00     0.171 C 
BRANCH   2   3
ATOM      3  C   UNL     1      -5.363 -21.371  25.202  1.00  0.00     0.243 C 
ATOM      4  N   UNL     1      -5.341 -20.018  24.705  1.00  0.00    -0.342 N 
ATOM      5  H   UNL     1      -4.922 -19.822  23.773  1.00  0.00     0.164 HD
ATOM      6  O   UNL     1      -6.085 -21.641  26.198  1.00  0.00    -0.273 OA
BRANCH   4   7
ATOM      7  C   UNL     1      -5.584 -18.863  25.582  1.00  0.00     0.175 C 
BRANCH   7   8
ATOM      8  C   UNL     1      -4.273 -18.211  25.988  1.00  0.00     0.243 C 
ATOM      9  N   UNL     1      -3.218 -18.041  25.030  1.00  0.00    -0.342 N 
ATOM     10  H   UNL     1      -3.475 -18.123  24.030  1.00  0.00     0.164 HD
ATOM     11  O   UNL     1      -4.097 -17.866  27.185  1.00  0.00    -0.273 OA
BRANCH   9  12
ATOM     12  C   UNL     1      -1.788 -17.887  25.334  1.00  0.00     0.174 CG0
ATOM     13  G   UNL     1      -1.124 -19.249  25.204  1.00  0.00     0.000 G0
BRANCH  12  14
ATOM     14  C   UNL     1      -1.107 -16.779  24.468  1.00  0.00     0.018 C 
ATOM     15  C   UNL     1      -2.064 -15.593  24.225  1.00  0.00     0.010 C 
BRANCH  14  16
ATOM     16  C   UNL     1       0.259 -16.298  25.032  1.00  0.00     0.002 C 
ATOM     17  C   UNL     1       0.621 -14.885  24.572  1.00  0.00     0.004 C 
ENDBRANCH  14  16
ENDBRANCH  12  14
ENDBRANCH   9  12
ENDBRANCH   7   8
BRANCH   7  18
ATOM     18  C   UNL     1      -6.509 -17.854  24.876  1.00  0.00     0.073 C 
BRANCH  18  19
ATOM     19  C   UNL     1      -7.496 -17.257  25.838  1.00  0.00    -0.016 A 
ATOM     20  C   UNL     1      -7.852 -15.920  25.918  1.00  0.00     0.134 A 
ATOM     21  C   UNL     1      -8.278 -17.915  26.768  1.00  0.00     0.006 A 
ATOM     22  N   UNL     1      -8.795 -15.738  26.873  1.00  0.00    -0.191 N 
ATOM     23  C   UNL     1      -9.063 -16.966  27.392  1.00  0.00     0.087 A 
ATOM     24  C   UNL     1      -8.344 -19.271  27.089  1.00  0.00     0.011 A 
ATOM     25  C   UNL     1      -9.992 -17.348  28.372  1.00  0.00     0.030 A 
ATOM     26  C   UNL     1      -9.260 -19.670  28.075  1.00  0.00     0.001 A 
ATOM     27  C   UNL     1     -10.080 -18.713  28.706  1.00  0.00     0.002 A 
BRANCH  22  28
ATOM     28  O   UNL     1      -9.279 -14.475  27.182  1.00  0.00    -0.417 OA
ATOM     29  C   UNL     1     -10.579 -14.000  26.866  1.00  0.00     0.313 C 
ENDBRANCH  22  28
ENDBRANCH  18  19
ENDBRANCH   7  18
ENDBRANCH   4   7
ENDBRANCH   2   3
BRANCH   2  30
ATOM     30  N   UNL     1      -3.446 -21.918  23.779  1.00  0.00    -0.343 N 
ATOM     31  C   UNL     1      -3.187 -20.529  23.488  1.00  0.00     0.243 C 
ATOM     32  H   UNL     1      -2.712 -22.604  23.485  1.00  0.00     0.164 HD
ATOM     33  O   UNL     1      -4.084 -19.664  23.665  1.00  0.00    -0.273 OA
BRANCH  31  34
ATOM     34  C   UNL     1      -1.855 -20.098  22.901  1.00  0.00     0.174 C 
ATOM     35  N   UNL     1      -0.821 -19.866  23.936  1.00  0.00    -0.329 N 
ATOM     36  C   UNL     1      -2.005 -18.823  22.054  1.00  0.00     0.035 C 
ATOM     37  C   UNL     1       0.509 -19.537  23.415  1.00  0.00     0.120 C 
ATOM     38  C   UNL     1      -0.651 -18.366  21.487  1.00  0.00     0.004 C 
ATOM     39  C   UNL     1       0.417 -18.245  22.585  1.00  0.00     0.022 C 
BRANCH  35  40
ATOM     40  C   UNL     1      -1.179 -19.285  25.200  1.00  0.00     0.246 CG0
ATOM     41  O   UNL     1      -0.804 -19.846  26.271  1.00  0.00    -0.272 OA
ATOM     42  G   UNL     1      -1.831 -17.912  25.247  1.00  0.00     0.000 G0
ENDBRANCH  35  40
ENDBRANCH  31  34
ENDBRANCH   2  30
ENDBRANCH   1   2
BRANCH   1  43
ATOM     43  C   UNL     1      -6.886 -23.492  24.250  1.00  0.00     0.003 C 
BRANCH  43  44
ATOM     44  C   UNL     1      -7.493 -24.902  24.352  1.00  0.00     0.001 C 
BRANCH  44  45
ATOM     45  C   UNL     1      -8.929 -24.961  23.797  1.00  0.00     0.008 C 
BRANCH  45  46
ATOM     46  C   UNL     1      -9.558 -23.573  23.591  1.00  0.00     0.075 C 
BRANCH  46  47
ATOM     47  C   UNL     1     -10.940 -23.462  24.207  1.00  0.00     0.132 C 
ATOM     48  O   UNL     1     -11.795 -24.288  23.908  1.00  0.00    -0.300 OA
BRANCH  47  49
ATOM     49  C   UNL     1     -11.306 -22.340  25.149  1.00  0.00     0.072 C 
ATOM     50  C   UNL     1     -12.681 -22.561  25.791  1.00  0.00     0.012 C 
ENDBRANCH  47  49
ENDBRANCH  46  47
ENDBRANCH  45  46
ENDBRANCH  44  45
ENDBRANCH  43  44
ENDBRANCH   1  43
TORSDOF 12
ENDMDL
