MODEL 1
REMARK VINA RESULT:    -4.073      0.000      0.000
REMARK INTER + INTRA:          -5.222
REMARK INTER:                  -5.025
REMARK INTRA:                  -0.197
REMARK UNBOUND:                -0.197
REMARK SMILES C=CC[C@H](C)C(=O)CC
REMARK SMILES IDX 4 1 5 2 6 3 7 4 8 5 9 6 3 7 2 8 1 9
REMARK H PARENT
REMARK Flexibility Score: inf
ROOT
ATOM      1  C   UNL     1     -27.188  20.403 -34.129  1.00  0.00     0.057 C 
ATOM      2  C   UNL     1     -27.424  21.780 -33.494  1.00  0.00     0.016 C 
ENDROOT
BRANCH   1   3
ATOM      3  C   UNL     1     -28.367  19.497 -33.854  1.00  0.00     0.135 C 
ATOM      4  O   UNL     1     -29.482  19.821 -34.242  1.00  0.00    -0.299 OA
BRANCH   3   5
ATOM      5  C   UNL     1     -28.157  18.204 -33.104  1.00  0.00     0.072 C 
ATOM      6  C   UNL     1     -29.099  17.087 -33.554  1.00  0.00     0.012 C 
ENDBRANCH   3   5
ENDBRANCH   1   3
BRANCH   1   7
ATOM      7  C   UNL     1     -25.889  19.750 -33.613  1.00  0.00     0.038 C 
BRANCH   7   8
ATOM      8  C   UNL     1     -24.714  20.016 -34.518  1.00  0.00    -0.034 C 
ATOM      9  C   UNL     1     -23.458  19.998 -34.064  1.00  0.00     0.004 C 
ENDBRANCH   7   8
ENDBRANCH   1   7
TORSDOF 4
ENDMDL
MODEL 2
REMARK VINA RESULT:    -4.017      7.404      9.553
REMARK INTER + INTRA:          -5.154
REMARK INTER:                  -4.775
REMARK INTRA:                  -0.379
REMARK UNBOUND:                -0.197
REMARK SMILES C=CC[C@H](C)C(=O)CC
REMARK SMILES IDX 4 1 5 2 6 3 7 4 8 5 9 6 3 7 2 8 1 9
REMARK H PARENT
REMARK Flexibility Score: inf
ROOT
ATOM      1  C   UNL     1     -26.797  11.228 -28.849  1.00  0.00     0.057 C 
ATOM      2  C   UNL     1     -25.847  10.665 -27.783  1.00  0.00     0.016 C 
ENDROOT
BRANCH   1   3
ATOM      3  C   UNL     1     -26.001  11.853 -29.973  1.00  0.00     0.135 C 
ATOM      4  O   UNL     1     -26.075  11.383 -31.101  1.00  0.00    -0.299 OA
BRANCH   3   5
ATOM      5  C   UNL     1     -25.123  13.049 -29.692  1.00  0.00     0.072 C 
ATOM      6  C   UNL     1     -25.594  14.320 -30.399  1.00  0.00     0.012 C 
ENDBRANCH   3   5
ENDBRANCH   1   3
BRANCH   1   7
ATOM      7  C   UNL     1     -27.774  12.264 -28.256  1.00  0.00     0.038 C 
BRANCH   7   8
ATOM      8  C   UNL     1     -29.128  12.220 -28.916  1.00  0.00    -0.034 C 
ATOM      9  C   UNL     1     -29.424  12.989 -29.967  1.00  0.00     0.004 C 
ENDBRANCH   7   8
ENDBRANCH   1   7
TORSDOF 4
ENDMDL
MODEL 3
REMARK VINA RESULT:    -3.946      6.794      8.954
REMARK INTER + INTRA:          -5.066
REMARK INTER:                  -4.620
REMARK INTRA:                  -0.445
REMARK UNBOUND:                -0.197
REMARK SMILES C=CC[C@H](C)C(=O)CC
REMARK SMILES IDX 4 1 5 2 6 3 7 4 8 5 9 6 3 7 2 8 1 9
REMARK H PARENT
REMARK Flexibility Score: inf
ROOT
ATOM      1  C   UNL     1     -29.383  12.209 -29.779  1.00  0.00     0.057 C 
ATOM      2  C   UNL     1     -29.332  10.795 -30.375  1.00  0.00     0.016 C 
ENDROOT
BRANCH   1   3
ATOM      3  C   UNL     1     -28.749  13.196 -30.734  1.00  0.00     0.135 C 
ATOM      4  O   UNL     1     -29.381  14.181 -31.094  1.00  0.00    -0.299 OA
BRANCH   3   5
ATOM      5  C   UNL     1     -27.344  12.956 -31.232  1.00  0.00     0.072 C 
ATOM      6  C   UNL     1     -26.327  13.949 -30.669  1.00  0.00     0.012 C 
ENDBRANCH   3   5
ENDBRANCH   1   3
BRANCH   1   7
ATOM      7  C   UNL     1     -28.682  12.278 -28.406  1.00  0.00     0.038 C 
BRANCH   7   8
ATOM      8  C   UNL     1     -27.866  11.045 -28.117  1.00  0.00    -0.034 C 
ATOM      9  C   UNL     1     -26.538  11.095 -27.982  1.00  0.00     0.004 C 
ENDBRANCH   7   8
ENDBRANCH   1   7
TORSDOF 4
ENDMDL
MODEL 4
REMARK VINA RESULT:    -3.936      7.514      8.877
REMARK INTER + INTRA:          -5.053
REMARK INTER:                  -4.685
REMARK INTRA:                  -0.368
REMARK UNBOUND:                -0.197
REMARK SMILES C=CC[C@H](C)C(=O)CC
REMARK SMILES IDX 4 1 5 2 6 3 7 4 8 5 9 6 3 7 2 8 1 9
REMARK H PARENT
REMARK Flexibility Score: inf
ROOT
ATOM      1  C   UNL     1     -26.823  12.818 -30.122  1.00  0.00     0.057 C 
ATOM      2  C   UNL     1     -25.778  13.942 -30.159  1.00  0.00     0.016 C 
ENDROOT
BRANCH   1   3
ATOM      3  C   UNL     1     -26.329  11.626 -30.910  1.00  0.00     0.135 C 
ATOM      4  O   UNL     1     -25.550  10.838 -30.391  1.00  0.00    -0.299 OA
BRANCH   3   5
ATOM      5  C   UNL     1     -26.802  11.420 -32.330  1.00  0.00     0.072 C 
ATOM      6  C   UNL     1     -27.551  10.103 -32.530  1.00  0.00     0.012 C 
ENDBRANCH   3   5
ENDBRANCH   1   3
BRANCH   1   7
ATOM      7  C   UNL     1     -28.187  13.286 -30.672  1.00  0.00     0.038 C 
BRANCH   7   8
ATOM      8  C   UNL     1     -29.341  12.790 -29.842  1.00  0.00    -0.034 C 
ATOM      9  C   UNL     1     -29.154  12.184 -28.666  1.00  0.00     0.004 C 
ENDBRANCH   7   8
ENDBRANCH   1   7
TORSDOF 4
ENDMDL
MODEL 5
REMARK VINA RESULT:    -3.930      7.269      8.394
REMARK INTER + INTRA:          -5.046
REMARK INTER:                  -4.588
REMARK INTRA:                  -0.458
REMARK UNBOUND:                -0.197
REMARK SMILES C=CC[C@H](C)C(=O)CC
REMARK SMILES IDX 4 1 5 2 6 3 7 4 8 5 9 6 3 7 2 8 1 9
REMARK H PARENT
REMARK Flexibility Score: inf
ROOT
ATOM      1  C   UNL     1     -27.155  11.767 -31.301  1.00  0.00     0.057 C 
ATOM      2  C   UNL     1     -26.853  10.961 -32.572  1.00  0.00     0.016 C 
ENDROOT
BRANCH   1   3
ATOM      3  C   UNL     1     -28.554  11.461 -30.815  1.00  0.00     0.135 C 
ATOM      4  O   UNL     1     -29.068  10.384 -31.090  1.00  0.00    -0.299 OA
BRANCH   3   5
ATOM      5  C   UNL     1     -29.302  12.485 -29.996  1.00  0.00     0.072 C 
ATOM      6  C   UNL     1     -28.955  12.437 -28.508  1.00  0.00     0.012 C 
ENDBRANCH   3   5
ENDBRANCH   1   3
BRANCH   1   7
ATOM      7  C   UNL     1     -26.998  13.284 -31.534  1.00  0.00     0.038 C 
BRANCH   7   8
ATOM      8  C   UNL     1     -25.888  13.880 -30.708  1.00  0.00    -0.034 C 
ATOM      9  C   UNL     1     -25.342  13.220 -29.683  1.00  0.00     0.004 C 
ENDBRANCH   7   8
ENDBRANCH   1   7
TORSDOF 4
ENDMDL
MODEL 6
REMARK VINA RESULT:    -3.913      7.387      9.188
REMARK INTER + INTRA:          -5.025
REMARK INTER:                  -4.565
REMARK INTRA:                  -0.460
REMARK UNBOUND:                -0.197
REMARK SMILES C=CC[C@H](C)C(=O)CC
REMARK SMILES IDX 4 1 5 2 6 3 7 4 8 5 9 6 3 7 2 8 1 9
REMARK H PARENT
REMARK Flexibility Score: inf
ROOT
ATOM      1  C   UNL     1     -27.058  11.953 -31.353  1.00  0.00     0.057 C 
ATOM      2  C   UNL     1     -26.755  11.154 -32.628  1.00  0.00     0.016 C 
ENDROOT
BRANCH   1   3
ATOM      3  C   UNL     1     -25.964  11.734 -30.333  1.00  0.00     0.135 C 
ATOM      4  O   UNL     1     -25.719  10.600 -29.943  1.00  0.00    -0.299 OA
BRANCH   3   5
ATOM      5  C   UNL     1     -25.185  12.916 -29.807  1.00  0.00     0.072 C 
ATOM      6  C   UNL     1     -25.662  14.253 -30.375  1.00  0.00     0.012 C 
ENDBRANCH   3   5
ENDBRANCH   1   3
BRANCH   1   7
ATOM      7  C   UNL     1     -28.426  11.572 -30.750  1.00  0.00     0.038 C 
BRANCH   7   8
ATOM      8  C   UNL     1     -28.983  12.654 -29.862  1.00  0.00    -0.034 C 
ATOM      9  C   UNL     1     -29.008  12.529 -28.532  1.00  0.00     0.004 C 
ENDBRANCH   7   8
ENDBRANCH   1   7
TORSDOF 4
ENDMDL
MODEL 7
REMARK VINA RESULT:    -3.833      7.751      9.335
REMARK INTER + INTRA:          -4.926
REMARK INTER:                  -4.529
REMARK INTRA:                  -0.397
REMARK UNBOUND:                -0.197
REMARK SMILES C=CC[C@H](C)C(=O)CC
REMARK SMILES IDX 4 1 5 2 6 3 7 4 8 5 9 6 3 7 2 8 1 9
REMARK H PARENT
REMARK Flexibility Score: inf
ROOT
ATOM      1  C   UNL     1     -26.454  11.428 -28.485  1.00  0.00     0.057 C 
ATOM      2  C   UNL     1     -25.919  10.225 -27.695  1.00  0.00     0.016 C 
ENDROOT
BRANCH   1   3
ATOM      3  C   UNL     1     -27.875  11.164 -28.930  1.00  0.00     0.135 C 
ATOM      4  O   UNL     1     -28.146  10.110 -29.491  1.00  0.00    -0.299 OA
BRANCH   3   5
ATOM      5  C   UNL     1     -28.943  12.201 -28.677  1.00  0.00     0.072 C 
ATOM      6  C   UNL     1     -29.409  12.908 -29.950  1.00  0.00     0.012 C 
ENDBRANCH   3   5
ENDBRANCH   1   3
BRANCH   1   7
ATOM      7  C   UNL     1     -25.569  11.751 -29.707  1.00  0.00     0.038 C 
BRANCH   7   8
ATOM      8  C   UNL     1     -25.167  13.201 -29.757  1.00  0.00    -0.034 C 
ATOM      9  C   UNL     1     -25.887  14.109 -30.422  1.00  0.00     0.004 C 
ENDBRANCH   7   8
ENDBRANCH   1   7
TORSDOF 4
ENDMDL
MODEL 8
REMARK VINA RESULT:    -3.811      7.489      9.304
REMARK INTER + INTRA:          -4.899
REMARK INTER:                  -4.504
REMARK INTRA:                  -0.396
REMARK UNBOUND:                -0.197
REMARK SMILES C=CC[C@H](C)C(=O)CC
REMARK SMILES IDX 4 1 5 2 6 3 7 4 8 5 9 6 3 7 2 8 1 9
REMARK H PARENT
REMARK Flexibility Score: inf
ROOT
ATOM      1  C   UNL     1     -26.677  12.801 -29.795  1.00  0.00     0.057 C 
ATOM      2  C   UNL     1     -25.748  14.002 -30.022  1.00  0.00     0.016 C 
ENDROOT
BRANCH   1   3
ATOM      3  C   UNL     1     -25.967  11.520 -30.172  1.00  0.00     0.135 C 
ATOM      4  O   UNL     1     -26.083  11.076 -31.307  1.00  0.00    -0.299 OA
BRANCH   3   5
ATOM      5  C   UNL     1     -25.124  10.803 -29.145  1.00  0.00     0.072 C 
ATOM      6  C   UNL     1     -25.839  10.608 -27.808  1.00  0.00     0.012 C 
ENDBRANCH   3   5
ENDBRANCH   1   3
BRANCH   1   7
ATOM      7  C   UNL     1     -27.989  12.932 -30.596  1.00  0.00     0.038 C 
BRANCH   7   8
ATOM      8  C   UNL     1     -29.209  12.848 -29.717  1.00  0.00    -0.034 C 
ATOM      9  C   UNL     1     -29.305  11.952 -28.730  1.00  0.00     0.004 C 
ENDBRANCH   7   8
ENDBRANCH   1   7
TORSDOF 4
ENDMDL
MODEL 9
REMARK VINA RESULT:    -3.767      8.059      9.435
REMARK INTER + INTRA:          -4.845
REMARK INTER:                  -4.338
REMARK INTRA:                  -0.506
REMARK UNBOUND:                -0.197
REMARK SMILES C=CC[C@H](C)C(=O)CC
REMARK SMILES IDX 4 1 5 2 6 3 7 4 8 5 9 6 3 7 2 8 1 9
REMARK H PARENT
REMARK Flexibility Score: inf
ROOT
ATOM      1  C   UNL     1     -28.380  11.885 -29.786  1.00  0.00     0.057 C 
ATOM      2  C   UNL     1     -28.976  12.515 -28.519  1.00  0.00     0.016 C 
ENDROOT
BRANCH   1   3
ATOM      3  C   UNL     1     -27.626  10.623 -29.431  1.00  0.00     0.135 C 
ATOM      4  O   UNL     1     -27.191   9.907 -30.323  1.00  0.00    -0.299 OA
BRANCH   3   5
ATOM      5  C   UNL     1     -27.419  10.260 -27.980  1.00  0.00     0.072 C 
ATOM      6  C   UNL     1     -25.945  10.213 -27.575  1.00  0.00     0.012 C 
ENDBRANCH   3   5
ENDBRANCH   1   3
BRANCH   1   7
ATOM      7  C   UNL     1     -27.448  12.865 -30.528  1.00  0.00     0.038 C 
BRANCH   7   8
ATOM      8  C   UNL     1     -26.330  13.369 -29.653  1.00  0.00    -0.034 C 
ATOM      9  C   UNL     1     -25.048  13.228 -29.998  1.00  0.00     0.004 C 
ENDBRANCH   7   8
ENDBRANCH   1   7
TORSDOF 4
ENDMDL
