MODEL 1
REMARK VINA RESULT:    -3.484      0.000      0.000
REMARK INTER + INTRA:          -5.350
REMARK INTER:                  -4.707
REMARK INTRA:                  -0.643
REMARK UNBOUND:                -0.643
REMARK SMILES O=C[C@@H](O)[C@H](O)[C@@H](O)CO
REMARK SMILES IDX 7 1 9 2 10 3 5 5 3 6 2 7 1 8 4 9 6 11 8 13
REMARK H PARENT 10 4 4 10 6 12 8 14
REMARK Flexibility Score: inf
ROOT
ATOM      1  C   UNL     1      -0.086  -2.809  -0.572  1.00  0.00     0.171 C 
ENDROOT
BRANCH   1   2
ATOM      2  C   UNL     1      -0.812  -2.561  -1.909  1.00  0.00     0.190 C 
BRANCH   2   3
ATOM      3  O   UNL     1       0.111  -2.262  -2.923  1.00  0.00    -0.394 OA
ATOM      4  H   UNL     1       0.918  -1.897  -2.474  1.00  0.00     0.210 HD
ENDBRANCH   2   3
ENDBRANCH   1   2
BRANCH   1   5
ATOM      5  C   UNL     1       0.830  -1.627  -0.137  1.00  0.00     0.181 C 
BRANCH   5   6
ATOM      6  C   UNL     1       1.075  -1.518   1.392  1.00  0.00     0.209 C 
BRANCH   6   7
ATOM      7  C   UNL     1       2.255  -0.647   1.727  1.00  0.00     0.258 C 
ATOM      8  O   UNL     1       3.096  -0.394   0.879  1.00  0.00    -0.300 OA
ENDBRANCH   6   7
BRANCH   6   9
ATOM      9  O   UNL     1      -0.065  -1.027   2.048  1.00  0.00    -0.383 OA
ATOM     10  H   UNL     1      -0.823  -1.615   1.793  1.00  0.00     0.211 HD
ENDBRANCH   6   9
ENDBRANCH   5   6
BRANCH   5  11
ATOM     11  O   UNL     1       0.264  -0.417  -0.581  1.00  0.00    -0.387 OA
ATOM     12  H   UNL     1       0.737  -0.160  -1.415  1.00  0.00     0.211 HD
ENDBRANCH   5  11
ENDBRANCH   1   5
BRANCH   1  13
ATOM     13  O   UNL     1      -1.026  -3.084   0.437  1.00  0.00    -0.388 OA
ATOM     14  H   UNL     1      -0.772  -3.949   0.855  1.00  0.00     0.211 HD
ENDBRANCH   1  13
TORSDOF 8
ENDMDL
MODEL 2
REMARK VINA RESULT:    -3.192      0.888      3.946
REMARK INTER + INTRA:          -4.955
REMARK INTER:                  -4.674
REMARK INTRA:                  -0.282
REMARK UNBOUND:                -0.643
REMARK SMILES O=C[C@@H](O)[C@H](O)[C@@H](O)CO
REMARK SMILES IDX 7 1 9 2 10 3 5 5 3 6 2 7 1 8 4 9 6 11 8 13
REMARK H PARENT 10 4 4 10 6 12 8 14
REMARK Flexibility Score: inf
ROOT
ATOM      1  C   UNL     1       0.682  -0.995   1.117  1.00  0.00     0.171 C 
ENDROOT
BRANCH   1   2
ATOM      2  C   UNL     1       2.143  -0.874   1.592  1.00  0.00     0.190 C 
BRANCH   2   3
ATOM      3  O   UNL     1       2.937  -0.280   0.599  1.00  0.00    -0.394 OA
ATOM      4  H   UNL     1       3.301   0.557   0.990  1.00  0.00     0.210 HD
ENDBRANCH   2   3
ENDBRANCH   1   2
BRANCH   1   5
ATOM      5  C   UNL     1       0.331  -2.404   0.553  1.00  0.00     0.181 C 
BRANCH   5   6
ATOM      6  C   UNL     1       0.373  -2.518  -0.995  1.00  0.00     0.209 C 
BRANCH   6   7
ATOM      7  C   UNL     1      -0.994  -2.450  -1.617  1.00  0.00     0.258 C 
ATOM      8  O   UNL     1      -1.143  -1.977  -2.733  1.00  0.00    -0.300 OA
ENDBRANCH   6   7
BRANCH   6   9
ATOM      9  O   UNL     1       1.186  -1.516  -1.549  1.00  0.00    -0.383 OA
ATOM     10  H   UNL     1       1.165  -1.637  -2.534  1.00  0.00     0.211 HD
ENDBRANCH   6   9
ENDBRANCH   5   6
BRANCH   5  11
ATOM     11  O   UNL     1      -0.958  -2.766   0.986  1.00  0.00    -0.387 OA
ATOM     12  H   UNL     1      -0.870  -3.120   1.909  1.00  0.00     0.211 HD
ENDBRANCH   5  11
ENDBRANCH   1   5
BRANCH   1  13
ATOM     13  O   UNL     1      -0.191  -0.668   2.169  1.00  0.00    -0.388 OA
ATOM     14  H   UNL     1       0.321  -0.123   2.824  1.00  0.00     0.211 HD
ENDBRANCH   1  13
TORSDOF 8
ENDMDL
MODEL 3
REMARK VINA RESULT:    -2.947      0.887      3.687
REMARK INTER + INTRA:          -4.624
REMARK INTER:                  -4.948
REMARK INTRA:                   0.325
REMARK UNBOUND:                -0.643
REMARK SMILES O=C[C@@H](O)[C@H](O)[C@@H](O)CO
REMARK SMILES IDX 7 1 9 2 10 3 5 5 3 6 2 7 1 8 4 9 6 11 8 13
REMARK H PARENT 10 4 4 10 6 12 8 14
REMARK Flexibility Score: inf
ROOT
ATOM      1  C   UNL     1       0.912  -0.979   1.365  1.00  0.00     0.171 C 
ENDROOT
BRANCH   1   2
ATOM      2  C   UNL     1       2.446  -0.868   1.469  1.00  0.00     0.190 C 
BRANCH   2   3
ATOM      3  O   UNL     1       2.937   0.059   0.537  1.00  0.00    -0.394 OA
ATOM      4  H   UNL     1       2.521   0.933   0.760  1.00  0.00     0.210 HD
ENDBRANCH   2   3
ENDBRANCH   1   2
BRANCH   1   5
ATOM      5  C   UNL     1       0.407  -1.226  -0.087  1.00  0.00     0.181 C 
BRANCH   5   6
ATOM      6  C   UNL     1      -0.768  -2.234  -0.209  1.00  0.00     0.209 C 
BRANCH   6   7
ATOM      7  C   UNL     1      -0.725  -3.019  -1.491  1.00  0.00     0.258 C 
ATOM      8  O   UNL     1      -0.632  -2.444  -2.564  1.00  0.00    -0.300 OA
ENDBRANCH   6   7
BRANCH   6   9
ATOM      9  O   UNL     1      -0.781  -3.122   0.879  1.00  0.00    -0.383 OA
ATOM     10  H   UNL     1      -1.638  -3.620   0.837  1.00  0.00     0.211 HD
ENDBRANCH   6   9
ENDBRANCH   5   6
BRANCH   5  11
ATOM     11  O   UNL     1       1.475  -1.697  -0.874  1.00  0.00    -0.387 OA
ATOM     12  H   UNL     1       1.248  -2.621  -1.155  1.00  0.00     0.211 HD
ENDBRANCH   5  11
ENDBRANCH   1   5
BRANCH   1  13
ATOM     13  O   UNL     1       0.449  -2.000   2.214  1.00  0.00    -0.388 OA
ATOM     14  H   UNL     1       0.293  -2.807   1.655  1.00  0.00     0.211 HD
ENDBRANCH   1  13
TORSDOF 8
ENDMDL
MODEL 4
REMARK VINA RESULT:    -2.026      1.470      2.275
REMARK INTER + INTRA:          -3.380
REMARK INTER:                  -3.122
REMARK INTRA:                  -0.258
REMARK UNBOUND:                -0.643
REMARK SMILES O=C[C@@H](O)[C@H](O)[C@@H](O)CO
REMARK SMILES IDX 7 1 9 2 10 3 5 5 3 6 2 7 1 8 4 9 6 11 8 13
REMARK H PARENT 10 4 4 10 6 12 8 14
REMARK Flexibility Score: inf
ROOT
ATOM      1  C   UNL     1       0.324  -2.035   1.311  1.00  0.00     0.171 C 
ENDROOT
BRANCH   1   2
ATOM      2  C   UNL     1      -0.608  -3.067   0.646  1.00  0.00     0.190 C 
BRANCH   2   3
ATOM      3  O   UNL     1      -1.329  -2.477  -0.404  1.00  0.00    -0.394 OA
ATOM      4  H   UNL     1      -0.774  -1.725  -0.740  1.00  0.00     0.210 HD
ENDBRANCH   2   3
ENDBRANCH   1   2
BRANCH   1   5
ATOM      5  C   UNL     1       1.541  -1.640   0.423  1.00  0.00     0.181 C 
BRANCH   5   6
ATOM      6  C   UNL     1       2.335  -0.400   0.916  1.00  0.00     0.209 C 
BRANCH   6   7
ATOM      7  C   UNL     1       3.364  -0.749   1.956  1.00  0.00     0.258 C 
ATOM      8  O   UNL     1       4.552  -0.745   1.675  1.00  0.00    -0.300 OA
ENDBRANCH   6   7
BRANCH   6   9
ATOM      9  O   UNL     1       2.961   0.253  -0.158  1.00  0.00    -0.383 OA
ATOM     10  H   UNL     1       2.957   1.224   0.050  1.00  0.00     0.211 HD
ENDBRANCH   6   9
ENDBRANCH   5   6
BRANCH   5  11
ATOM     11  O   UNL     1       1.094  -1.385  -0.887  1.00  0.00    -0.387 OA
ATOM     12  H   UNL     1       1.031  -0.400  -0.990  1.00  0.00     0.211 HD
ENDBRANCH   5  11
ENDBRANCH   1   5
BRANCH   1  13
ATOM     13  O   UNL     1      -0.408  -0.886   1.661  1.00  0.00    -0.388 OA
ATOM     14  H   UNL     1      -0.873  -0.567   0.842  1.00  0.00     0.211 HD
ENDBRANCH   1  13
TORSDOF 8
ENDMDL
MODEL 5
REMARK VINA RESULT:    -1.892      1.299      4.215
REMARK INTER + INTRA:          -3.199
REMARK INTER:                  -3.100
REMARK INTRA:                  -0.099
REMARK UNBOUND:                -0.643
REMARK SMILES O=C[C@@H](O)[C@H](O)[C@@H](O)CO
REMARK SMILES IDX 7 1 9 2 10 3 5 5 3 6 2 7 1 8 4 9 6 11 8 13
REMARK H PARENT 10 4 4 10 6 12 8 14
REMARK Flexibility Score: inf
ROOT
ATOM      1  C   UNL     1       2.498  -0.881   0.619  1.00  0.00     0.171 C 
ENDROOT
BRANCH   1   2
ATOM      2  C   UNL     1       2.905  -0.661   2.089  1.00  0.00     0.190 C 
BRANCH   2   3
ATOM      3  O   UNL     1       4.208  -0.146   2.168  1.00  0.00    -0.394 OA
ATOM      4  H   UNL     1       4.707  -0.731   2.797  1.00  0.00     0.210 HD
ENDBRANCH   2   3
ENDBRANCH   1   2
BRANCH   1   5
ATOM      5  C   UNL     1       0.959  -1.014   0.417  1.00  0.00     0.181 C 
BRANCH   5   6
ATOM      6  C   UNL     1       0.517  -2.200  -0.483  1.00  0.00     0.209 C 
BRANCH   6   7
ATOM      7  C   UNL     1      -0.556  -3.039   0.154  1.00  0.00     0.258 C 
ATOM      8  O   UNL     1      -0.640  -3.117   1.370  1.00  0.00    -0.300 OA
ENDBRANCH   6   7
BRANCH   6   9
ATOM      9  O   UNL     1       0.069  -1.741  -1.732  1.00  0.00    -0.383 OA
ATOM     10  H   UNL     1       0.444  -2.352  -2.417  1.00  0.00     0.211 HD
ENDBRANCH   6   9
ENDBRANCH   5   6
BRANCH   5  11
ATOM     11  O   UNL     1       0.462   0.176  -0.146  1.00  0.00    -0.387 OA
ATOM     12  H   UNL     1       1.238   0.778  -0.294  1.00  0.00     0.211 HD
ENDBRANCH   5  11
ENDBRANCH   1   5
BRANCH   1  13
ATOM     13  O   UNL     1       2.997   0.166  -0.176  1.00  0.00    -0.388 OA
ATOM     14  H   UNL     1       2.997  -0.148  -1.119  1.00  0.00     0.211 HD
ENDBRANCH   1  13
TORSDOF 8
ENDMDL
MODEL 6
REMARK VINA RESULT:    -1.773      1.342      1.989
REMARK INTER + INTRA:          -3.038
REMARK INTER:                  -3.919
REMARK INTRA:                   0.881
REMARK UNBOUND:                -0.643
REMARK SMILES O=C[C@@H](O)[C@H](O)[C@@H](O)CO
REMARK SMILES IDX 7 1 9 2 10 3 5 5 3 6 2 7 1 8 4 9 6 11 8 13
REMARK H PARENT 10 4 4 10 6 12 8 14
REMARK Flexibility Score: inf
ROOT
ATOM      1  C   UNL     1       0.067  -1.663  -0.223  1.00  0.00     0.171 C 
ENDROOT
BRANCH   1   2
ATOM      2  C   UNL     1      -0.564  -3.061  -0.382  1.00  0.00     0.190 C 
BRANCH   2   3
ATOM      3  O   UNL     1      -1.335  -3.124  -1.552  1.00  0.00    -0.394 OA
ATOM      4  H   UNL     1      -0.961  -2.447  -2.175  1.00  0.00     0.210 HD
ENDBRANCH   2   3
ENDBRANCH   1   2
BRANCH   1   5
ATOM      5  C   UNL     1       0.345  -1.275   1.259  1.00  0.00     0.181 C 
BRANCH   5   6
ATOM      6  C   UNL     1       1.844  -1.082   1.615  1.00  0.00     0.209 C 
BRANCH   6   7
ATOM      7  C   UNL     1       2.577  -0.256   0.595  1.00  0.00     0.258 C 
ATOM      8  O   UNL     1       3.795  -0.307   0.518  1.00  0.00    -0.300 OA
ENDBRANCH   6   7
BRANCH   6   9
ATOM      9  O   UNL     1       1.986  -0.492   2.881  1.00  0.00    -0.383 OA
ATOM     10  H   UNL     1       1.209   0.113   3.008  1.00  0.00     0.211 HD
ENDBRANCH   6   9
ENDBRANCH   5   6
BRANCH   5  11
ATOM     11  O   UNL     1      -0.184  -2.269   2.104  1.00  0.00    -0.387 OA
ATOM     12  H   UNL     1      -0.273  -3.097   1.564  1.00  0.00     0.211 HD
ENDBRANCH   5  11
ENDBRANCH   1   5
BRANCH   1  13
ATOM     13  O   UNL     1       1.256  -1.589  -0.970  1.00  0.00    -0.388 OA
ATOM     14  H   UNL     1       1.985  -1.330  -0.346  1.00  0.00     0.211 HD
ENDBRANCH   1  13
TORSDOF 8
ENDMDL
MODEL 7
REMARK VINA RESULT:    -1.635      1.629      4.256
REMARK INTER + INTRA:          -2.851
REMARK INTER:                  -2.739
REMARK INTRA:                  -0.112
REMARK UNBOUND:                -0.643
REMARK SMILES O=C[C@@H](O)[C@H](O)[C@@H](O)CO
REMARK SMILES IDX 7 1 9 2 10 3 5 5 3 6 2 7 1 8 4 9 6 11 8 13
REMARK H PARENT 10 4 4 10 6 12 8 14
REMARK Flexibility Score: inf
ROOT
ATOM      1  C   UNL     1       3.432  -0.919   0.777  1.00  0.00     0.171 C 
ENDROOT
BRANCH   1   2
ATOM      2  C   UNL     1       4.756  -0.870   1.565  1.00  0.00     0.190 C 
BRANCH   2   3
ATOM      3  O   UNL     1       5.726  -1.677   0.952  1.00  0.00    -0.394 OA
ATOM      4  H   UNL     1       6.601  -1.412   1.338  1.00  0.00     0.210 HD
ENDBRANCH   2   3
ENDBRANCH   1   2
BRANCH   1   5
ATOM      5  C   UNL     1       2.182  -1.133   1.682  1.00  0.00     0.181 C 
BRANCH   5   6
ATOM      6  C   UNL     1       0.817  -0.991   0.955  1.00  0.00     0.209 C 
BRANCH   6   7
ATOM      7  C   UNL     1       0.607  -2.052  -0.091  1.00  0.00     0.258 C 
ATOM      8  O   UNL     1       0.822  -1.810  -1.268  1.00  0.00    -0.300 OA
ENDBRANCH   6   7
BRANCH   6   9
ATOM      9  O   UNL     1      -0.245  -1.027   1.873  1.00  0.00    -0.383 OA
ATOM     10  H   UNL     1       0.152  -1.177   2.770  1.00  0.00     0.211 HD
ENDBRANCH   6   9
ENDBRANCH   5   6
BRANCH   5  11
ATOM     11  O   UNL     1       2.216  -0.208   2.741  1.00  0.00    -0.387 OA
ATOM     12  H   UNL     1       2.129  -0.723   3.585  1.00  0.00     0.211 HD
ENDBRANCH   5  11
ENDBRANCH   1   5
BRANCH   1  13
ATOM     13  O   UNL     1       3.282   0.257   0.021  1.00  0.00    -0.388 OA
ATOM     14  H   UNL     1       3.201   1.014   0.659  1.00  0.00     0.211 HD
ENDBRANCH   1  13
TORSDOF 8
ENDMDL
MODEL 8
REMARK VINA RESULT:    -0.550      0.915      1.801
REMARK INTER + INTRA:          -1.386
REMARK INTER:                  -1.398
REMARK INTRA:                   0.012
REMARK UNBOUND:                -0.643
REMARK SMILES O=C[C@@H](O)[C@H](O)[C@@H](O)CO
REMARK SMILES IDX 7 1 9 2 10 3 5 5 3 6 2 7 1 8 4 9 6 11 8 13
REMARK H PARENT 10 4 4 10 6 12 8 14
REMARK Flexibility Score: inf
ROOT
ATOM      1  C   UNL     1      -0.014  -1.904  -1.009  1.00  0.00     0.171 C 
ENDROOT
BRANCH   1   2
ATOM      2  C   UNL     1      -0.861  -3.125  -0.600  1.00  0.00     0.190 C 
BRANCH   2   3
ATOM      3  O   UNL     1      -1.943  -2.728   0.201  1.00  0.00    -0.394 OA
ATOM      4  H   UNL     1      -1.970  -3.354   0.971  1.00  0.00     0.210 HD
ENDBRANCH   2   3
ENDBRANCH   1   2
BRANCH   1   5
ATOM      5  C   UNL     1       1.238  -1.690  -0.108  1.00  0.00     0.181 C 
BRANCH   5   6
ATOM      6  C   UNL     1       0.943  -1.611   1.415  1.00  0.00     0.209 C 
BRANCH   6   7
ATOM      7  C   UNL     1       2.114  -1.096   2.204  1.00  0.00     0.258 C 
ATOM      8  O   UNL     1       2.849  -0.242   1.733  1.00  0.00    -0.300 OA
ENDBRANCH   6   7
BRANCH   6   9
ATOM      9  O   UNL     1      -0.179  -0.805   1.666  1.00  0.00    -0.383 OA
ATOM     10  H   UNL     1      -0.771  -1.313   2.279  1.00  0.00     0.211 HD
ENDBRANCH   6   9
ENDBRANCH   5   6
BRANCH   5  11
ATOM     11  O   UNL     1       1.887  -0.503  -0.493  1.00  0.00    -0.387 OA
ATOM     12  H   UNL     1       2.811  -0.746  -0.762  1.00  0.00     0.211 HD
ENDBRANCH   5  11
ENDBRANCH   1   5
BRANCH   1  13
ATOM     13  O   UNL     1       0.378  -2.023  -2.354  1.00  0.00    -0.388 OA
ATOM     14  H   UNL     1      -0.434  -1.900  -2.915  1.00  0.00     0.211 HD
ENDBRANCH   1  13
TORSDOF 8
ENDMDL
