MODEL 1
REMARK VINA RESULT:    -4.524      0.000      0.000
REMARK INTER + INTRA:         -12.647
REMARK INTER:                  -9.813
REMARK INTRA:                  -2.834
REMARK UNBOUND:                -2.834
REMARK SMILES CCCCCCCCCCCCCCCCCCCCCC(=O)[O-]
REMARK SMILES IDX 12 1 11 2 10 3 9 4 8 5 7 6 6 7 5 8 4 9 3 10 2 11 1 12 13 13
REMARK SMILES IDX 14 14 15 15 16 16 17 17 18 18 19 19 20 20 21 21 22 22 23 23
REMARK SMILES IDX 24 24
REMARK H PARENT
REMARK Flexibility Score: inf
ROOT
ATOM      1  C   UNL     1      11.119  18.901  63.475  1.00  0.00     0.000 C 
ENDROOT
BRANCH   1   2
ATOM      2  C   UNL     1      10.228  19.737  64.406  1.00  0.00     0.000 C 
BRANCH   2   3
ATOM      3  C   UNL     1       9.679  21.004  63.728  1.00  0.00     0.000 C 
BRANCH   3   4
ATOM      4  C   UNL     1       9.905  21.006  62.207  1.00  0.00    -0.000 C 
BRANCH   4   5
ATOM      5  C   UNL     1      10.195  22.413  61.658  1.00  0.00    -0.000 C 
BRANCH   5   6
ATOM      6  C   UNL     1      10.230  23.483  62.761  1.00  0.00    -0.000 C 
BRANCH   6   7
ATOM      7  C   UNL     1      11.588  24.204  62.842  1.00  0.00    -0.000 C 
BRANCH   7   8
ATOM      8  C   UNL     1      12.375  23.844  64.112  1.00  0.00    -0.000 C 
BRANCH   8   9
ATOM      9  C   UNL     1      13.102  22.494  63.993  1.00  0.00    -0.000 C 
BRANCH   9  10
ATOM     10  C   UNL     1      13.940  22.387  62.708  1.00  0.00    -0.000 C 
BRANCH  10  11
ATOM     11  C   UNL     1      13.737  21.050  61.978  1.00  0.00    -0.003 C 
ATOM     12  C   UNL     1      13.519  21.268  60.484  1.00  0.00     0.004 C 
ENDBRANCH  10  11
ENDBRANCH   9  10
ENDBRANCH   8   9
ENDBRANCH   7   8
ENDBRANCH   6   7
ENDBRANCH   5   6
ENDBRANCH   4   5
ENDBRANCH   3   4
ENDBRANCH   2   3
ENDBRANCH   1   2
BRANCH   1  13
ATOM     13  C   UNL     1      11.155  17.415  63.871  1.00  0.00     0.000 C 
BRANCH  13  14
ATOM     14  C   UNL     1      12.474  16.730  63.476  1.00  0.00     0.000 C 
BRANCH  14  15
ATOM     15  C   UNL     1      13.703  17.614  63.738  1.00  0.00     0.000 C 
BRANCH  15  16
ATOM     16  C   UNL     1      14.638  17.628  62.522  1.00  0.00     0.000 C 
BRANCH  16  17
ATOM     17  C   UNL     1      15.542  16.389  62.507  1.00  0.00     0.000 C 
BRANCH  17  18
ATOM     18  C   UNL     1      15.329  15.568  61.227  1.00  0.00     0.000 C 
BRANCH  18  19
ATOM     19  C   UNL     1      15.596  16.382  59.951  1.00  0.00     0.000 C 
BRANCH  19  20
ATOM     20  C   UNL     1      17.072  16.792  59.806  1.00  0.00     0.006 C 
BRANCH  20  21
ATOM     21  C   UNL     1      17.997  15.577  59.644  1.00  0.00     0.053 C 
BRANCH  21  22
ATOM     22  C   UNL     1      18.402  15.375  58.217  1.00  0.00     0.041 C 
ATOM     23  O   UNL     1      18.423  16.351  57.418  1.00  0.00    -0.550 OA
ATOM     24  O   UNL     1      18.733  14.103  57.762  1.00  0.00    -0.550 OA
ENDBRANCH  21  22
ENDBRANCH  20  21
ENDBRANCH  19  20
ENDBRANCH  18  19
ENDBRANCH  17  18
ENDBRANCH  16  17
ENDBRANCH  15  16
ENDBRANCH  14  15
ENDBRANCH  13  14
ENDBRANCH   1  13
TORSDOF 20
ENDMDL
MODEL 2
REMARK VINA RESULT:    -4.407      2.073      3.209
REMARK INTER + INTRA:         -12.394
REMARK INTER:                 -10.598
REMARK INTRA:                  -1.796
REMARK UNBOUND:                -2.834
REMARK SMILES CCCCCCCCCCCCCCCCCCCCCC(=O)[O-]
REMARK SMILES IDX 12 1 11 2 10 3 9 4 8 5 7 6 6 7 5 8 4 9 3 10 2 11 1 12 13 13
REMARK SMILES IDX 14 14 15 15 16 16 17 17 18 18 19 19 20 20 21 21 22 22 23 23
REMARK SMILES IDX 24 24
REMARK H PARENT
REMARK Flexibility Score: inf
ROOT
ATOM      1  C   UNL     1      13.272  16.804  63.599  1.00  0.00     0.000 C 
ENDROOT
BRANCH   1   2
ATOM      2  C   UNL     1      11.836  16.316  63.844  1.00  0.00     0.000 C 
BRANCH   2   3
ATOM      3  C   UNL     1      10.800  17.451  63.773  1.00  0.00     0.000 C 
BRANCH   3   4
ATOM      4  C   UNL     1      11.450  18.845  63.772  1.00  0.00    -0.000 C 
BRANCH   4   5
ATOM      5  C   UNL     1      10.609  19.884  63.011  1.00  0.00    -0.000 C 
BRANCH   5   6
ATOM      6  C   UNL     1      11.396  21.168  62.700  1.00  0.00    -0.000 C 
BRANCH   6   7
ATOM      7  C   UNL     1      12.913  20.991  62.892  1.00  0.00    -0.000 C 
BRANCH   7   8
ATOM      8  C   UNL     1      13.695  21.114  61.575  1.00  0.00    -0.000 C 
BRANCH   8   9
ATOM      9  C   UNL     1      13.123  22.200  60.648  1.00  0.00    -0.000 C 
BRANCH   9  10
ATOM     10  C   UNL     1      13.736  23.585  60.915  1.00  0.00    -0.000 C 
BRANCH  10  11
ATOM     11  C   UNL     1      12.741  24.731  60.673  1.00  0.00    -0.003 C 
ATOM     12  C   UNL     1      11.595  24.280  59.771  1.00  0.00     0.004 C 
ENDBRANCH  10  11
ENDBRANCH   9  10
ENDBRANCH   8   9
ENDBRANCH   7   8
ENDBRANCH   6   7
ENDBRANCH   5   6
ENDBRANCH   4   5
ENDBRANCH   3   4
ENDBRANCH   2   3
ENDBRANCH   1   2
BRANCH   1  13
ATOM     13  C   UNL     1      14.324  15.734  63.939  1.00  0.00     0.000 C 
BRANCH  13  14
ATOM     14  C   UNL     1      13.807  14.698  64.951  1.00  0.00     0.000 C 
BRANCH  14  15
ATOM     15  C   UNL     1      13.898  13.258  64.424  1.00  0.00     0.000 C 
BRANCH  15  16
ATOM     16  C   UNL     1      13.635  13.209  62.914  1.00  0.00     0.000 C 
BRANCH  16  17
ATOM     17  C   UNL     1      14.709  12.385  62.193  1.00  0.00     0.000 C 
BRANCH  17  18
ATOM     18  C   UNL     1      14.903  12.876  60.751  1.00  0.00     0.000 C 
BRANCH  18  19
ATOM     19  C   UNL     1      16.319  13.415  60.494  1.00  0.00     0.000 C 
BRANCH  19  20
ATOM     20  C   UNL     1      16.382  14.953  60.518  1.00  0.00     0.006 C 
BRANCH  20  21
ATOM     21  C   UNL     1      17.565  15.496  59.705  1.00  0.00     0.053 C 
BRANCH  21  22
ATOM     22  C   UNL     1      17.219  15.650  58.256  1.00  0.00     0.041 C 
ATOM     23  O   UNL     1      18.124  15.877  57.407  1.00  0.00    -0.550 OA
ATOM     24  O   UNL     1      15.893  15.569  57.845  1.00  0.00    -0.550 OA
ENDBRANCH  21  22
ENDBRANCH  20  21
ENDBRANCH  19  20
ENDBRANCH  18  19
ENDBRANCH  17  18
ENDBRANCH  16  17
ENDBRANCH  15  16
ENDBRANCH  14  15
ENDBRANCH  13  14
ENDBRANCH   1  13
TORSDOF 20
ENDMDL
MODEL 3
REMARK VINA RESULT:    -4.374      2.022      3.433
REMARK INTER + INTRA:         -12.322
REMARK INTER:                 -10.407
REMARK INTRA:                  -1.915
REMARK UNBOUND:                -2.834
REMARK SMILES CCCCCCCCCCCCCCCCCCCCCC(=O)[O-]
REMARK SMILES IDX 12 1 11 2 10 3 9 4 8 5 7 6 6 7 5 8 4 9 3 10 2 11 1 12 13 13
REMARK SMILES IDX 14 14 15 15 16 16 17 17 18 18 19 19 20 20 21 21 22 22 23 23
REMARK SMILES IDX 24 24
REMARK H PARENT
REMARK Flexibility Score: inf
ROOT
ATOM      1  C   UNL     1      14.148  15.973  64.262  1.00  0.00     0.000 C 
ENDROOT
BRANCH   1   2
ATOM      2  C   UNL     1      13.209  16.823  63.392  1.00  0.00     0.000 C 
BRANCH   2   3
ATOM      3  C   UNL     1      11.723  16.581  63.706  1.00  0.00     0.000 C 
BRANCH   3   4
ATOM      4  C   UNL     1      10.925  17.889  63.830  1.00  0.00    -0.000 C 
BRANCH   4   5
ATOM      5  C   UNL     1      11.763  19.126  63.464  1.00  0.00    -0.000 C 
BRANCH   5   6
ATOM      6  C   UNL     1      11.235  20.413  64.120  1.00  0.00    -0.000 C 
BRANCH   6   7
ATOM      7  C   UNL     1      10.380  21.257  63.159  1.00  0.00    -0.000 C 
BRANCH   7   8
ATOM      8  C   UNL     1      10.793  21.083  61.689  1.00  0.00    -0.000 C 
BRANCH   8   9
ATOM      9  C   UNL     1      11.504  22.324  61.124  1.00  0.00    -0.000 C 
BRANCH   9  10
ATOM     10  C   UNL     1      13.018  22.113  60.960  1.00  0.00    -0.000 C 
BRANCH  10  11
ATOM     11  C   UNL     1      13.834  23.363  61.322  1.00  0.00    -0.003 C 
ATOM     12  C   UNL     1      14.153  23.396  62.814  1.00  0.00     0.004 C 
ENDBRANCH  10  11
ENDBRANCH   9  10
ENDBRANCH   8   9
ENDBRANCH   7   8
ENDBRANCH   6   7
ENDBRANCH   5   6
ENDBRANCH   4   5
ENDBRANCH   3   4
ENDBRANCH   2   3
ENDBRANCH   1   2
BRANCH   1  13
ATOM     13  C   UNL     1      13.418  14.806  64.950  1.00  0.00     0.000 C 
BRANCH  13  14
ATOM     14  C   UNL     1      13.864  13.434  64.419  1.00  0.00     0.000 C 
BRANCH  14  15
ATOM     15  C   UNL     1      13.378  13.167  62.986  1.00  0.00     0.000 C 
BRANCH  15  16
ATOM     16  C   UNL     1      14.562  12.930  62.041  1.00  0.00     0.000 C 
BRANCH  16  17
ATOM     17  C   UNL     1      14.952  14.221  61.310  1.00  0.00     0.000 C 
BRANCH  17  18
ATOM     18  C   UNL     1      15.431  13.922  59.882  1.00  0.00     0.000 C 
BRANCH  18  19
ATOM     19  C   UNL     1      15.532  15.185  59.014  1.00  0.00     0.000 C 
BRANCH  19  20
ATOM     20  C   UNL     1      16.987  15.588  58.720  1.00  0.00     0.006 C 
BRANCH  20  21
ATOM     21  C   UNL     1      17.355  16.935  59.358  1.00  0.00     0.053 C 
BRANCH  21  22
ATOM     22  C   UNL     1      18.314  16.767  60.496  1.00  0.00     0.041 C 
ATOM     23  O   UNL     1      19.142  17.678  60.769  1.00  0.00    -0.550 OA
ATOM     24  O   UNL     1      18.311  15.592  61.240  1.00  0.00    -0.550 OA
ENDBRANCH  21  22
ENDBRANCH  20  21
ENDBRANCH  19  20
ENDBRANCH  18  19
ENDBRANCH  17  18
ENDBRANCH  16  17
ENDBRANCH  15  16
ENDBRANCH  14  15
ENDBRANCH  13  14
ENDBRANCH   1  13
TORSDOF 20
ENDMDL
MODEL 4
REMARK VINA RESULT:    -4.367      1.531      2.893
REMARK INTER + INTRA:         -12.307
REMARK INTER:                  -9.750
REMARK INTRA:                  -2.556
REMARK UNBOUND:                -2.834
REMARK SMILES CCCCCCCCCCCCCCCCCCCCCC(=O)[O-]
REMARK SMILES IDX 12 1 11 2 10 3 9 4 8 5 7 6 6 7 5 8 4 9 3 10 2 11 1 12 13 13
REMARK SMILES IDX 14 14 15 15 16 16 17 17 18 18 19 19 20 20 21 21 22 22 23 23
REMARK SMILES IDX 24 24
REMARK H PARENT
REMARK Flexibility Score: inf
ROOT
ATOM      1  C   UNL     1      10.460  19.352  63.138  1.00  0.00     0.000 C 
ENDROOT
BRANCH   1   2
ATOM      2  C   UNL     1      10.221  20.622  63.969  1.00  0.00     0.000 C 
BRANCH   2   3
ATOM      3  C   UNL     1      11.511  21.173  64.600  1.00  0.00     0.000 C 
BRANCH   3   4
ATOM      4  C   UNL     1      11.973  22.487  63.950  1.00  0.00    -0.000 C 
BRANCH   4   5
ATOM      5  C   UNL     1      13.422  22.412  63.437  1.00  0.00    -0.000 C 
BRANCH   5   6
ATOM      6  C   UNL     1      13.586  21.421  62.273  1.00  0.00    -0.000 C 
BRANCH   6   7
ATOM      7  C   UNL     1      13.482  22.105  60.898  1.00  0.00    -0.000 C 
BRANCH   7   8
ATOM      8  C   UNL     1      13.867  23.592  60.945  1.00  0.00    -0.000 C 
BRANCH   8   9
ATOM      9  C   UNL     1      12.799  24.499  60.313  1.00  0.00    -0.000 C 
BRANCH   9  10
ATOM     10  C   UNL     1      11.495  23.746  60.000  1.00  0.00    -0.000 C 
BRANCH  10  11
ATOM     11  C   UNL     1      10.383  24.035  61.020  1.00  0.00    -0.003 C 
ATOM     12  C   UNL     1       9.411  22.864  61.118  1.00  0.00     0.004 C 
ENDBRANCH  10  11
ENDBRANCH   9  10
ENDBRANCH   8   9
ENDBRANCH   7   8
ENDBRANCH   6   7
ENDBRANCH   5   6
ENDBRANCH   4   5
ENDBRANCH   3   4
ENDBRANCH   2   3
ENDBRANCH   1   2
BRANCH   1  13
ATOM     13  C   UNL     1      11.431  18.374  63.823  1.00  0.00     0.000 C 
BRANCH  13  14
ATOM     14  C   UNL     1      10.854  16.953  63.939  1.00  0.00     0.000 C 
BRANCH  14  15
ATOM     15  C   UNL     1      11.869  15.946  64.502  1.00  0.00     0.000 C 
BRANCH  15  16
ATOM     16  C   UNL     1      12.936  15.602  63.455  1.00  0.00     0.000 C 
BRANCH  16  17
ATOM     17  C   UNL     1      14.346  15.881  63.992  1.00  0.00     0.000 C 
BRANCH  17  18
ATOM     18  C   UNL     1      14.933  17.151  63.361  1.00  0.00     0.000 C 
BRANCH  18  19
ATOM     19  C   UNL     1      15.089  17.037  61.836  1.00  0.00     0.000 C 
BRANCH  19  20
ATOM     20  C   UNL     1      16.436  16.419  61.422  1.00  0.00     0.006 C 
BRANCH  20  21
ATOM     21  C   UNL     1      16.288  15.441  60.248  1.00  0.00     0.053 C 
BRANCH  21  22
ATOM     22  C   UNL     1      16.547  16.109  58.934  1.00  0.00     0.041 C 
ATOM     23  O   UNL     1      17.174  17.203  58.890  1.00  0.00    -0.550 OA
ATOM     24  O   UNL     1      16.074  15.538  57.758  1.00  0.00    -0.550 OA
ENDBRANCH  21  22
ENDBRANCH  20  21
ENDBRANCH  19  20
ENDBRANCH  18  19
ENDBRANCH  17  18
ENDBRANCH  16  17
ENDBRANCH  15  16
ENDBRANCH  14  15
ENDBRANCH  13  14
ENDBRANCH   1  13
TORSDOF 20
ENDMDL
MODEL 5
REMARK VINA RESULT:    -4.348      2.772      4.498
REMARK INTER + INTRA:         -12.265
REMARK INTER:                 -10.216
REMARK INTRA:                  -2.049
REMARK UNBOUND:                -2.834
REMARK SMILES CCCCCCCCCCCCCCCCCCCCCC(=O)[O-]
REMARK SMILES IDX 12 1 11 2 10 3 9 4 8 5 7 6 6 7 5 8 4 9 3 10 2 11 1 12 13 13
REMARK SMILES IDX 14 14 15 15 16 16 17 17 18 18 19 19 20 20 21 21 22 22 23 23
REMARK SMILES IDX 24 24
REMARK H PARENT
REMARK Flexibility Score: inf
ROOT
ATOM      1  C   UNL     1      14.633  15.857  63.749  1.00  0.00     0.000 C 
ENDROOT
BRANCH   1   2
ATOM      2  C   UNL     1      13.284  15.970  64.476  1.00  0.00     0.000 C 
BRANCH   2   3
ATOM      3  C   UNL     1      12.089  16.029  63.509  1.00  0.00     0.000 C 
BRANCH   3   4
ATOM      4  C   UNL     1      11.047  17.082  63.921  1.00  0.00    -0.000 C 
BRANCH   4   5
ATOM      5  C   UNL     1      11.495  18.514  63.582  1.00  0.00    -0.000 C 
BRANCH   5   6
ATOM      6  C   UNL     1      10.314  19.436  63.238  1.00  0.00    -0.000 C 
BRANCH   6   7
ATOM      7  C   UNL     1      10.769  20.837  62.791  1.00  0.00    -0.000 C 
BRANCH   7   8
ATOM      8  C   UNL     1      11.668  21.526  63.830  1.00  0.00    -0.000 C 
BRANCH   8   9
ATOM      9  C   UNL     1      13.056  21.878  63.270  1.00  0.00    -0.000 C 
BRANCH   9  10
ATOM     10  C   UNL     1      13.000  22.997  62.216  1.00  0.00    -0.000 C 
BRANCH  10  11
ATOM     11  C   UNL     1      13.774  22.646  60.936  1.00  0.00    -0.003 C 
ATOM     12  C   UNL     1      13.600  21.173  60.576  1.00  0.00     0.004 C 
ENDBRANCH  10  11
ENDBRANCH   9  10
ENDBRANCH   8   9
ENDBRANCH   7   8
ENDBRANCH   6   7
ENDBRANCH   5   6
ENDBRANCH   4   5
ENDBRANCH   3   4
ENDBRANCH   2   3
ENDBRANCH   1   2
BRANCH   1  13
ATOM     13  C   UNL     1      14.784  16.894  62.622  1.00  0.00     0.000 C 
BRANCH  13  14
ATOM     14  C   UNL     1      15.865  16.503  61.600  1.00  0.00     0.000 C 
BRANCH  14  15
ATOM     15  C   UNL     1      15.349  16.528  60.153  1.00  0.00     0.000 C 
BRANCH  15  16
ATOM     16  C   UNL     1      16.479  16.225  59.163  1.00  0.00     0.000 C 
BRANCH  16  17
ATOM     17  C   UNL     1      17.366  15.080  59.670  1.00  0.00     0.000 C 
BRANCH  17  18
ATOM     18  C   UNL     1      16.764  13.716  59.304  1.00  0.00     0.000 C 
BRANCH  18  19
ATOM     19  C   UNL     1      16.573  12.805  60.527  1.00  0.00     0.000 C 
BRANCH  19  20
ATOM     20  C   UNL     1      15.111  12.364  60.715  1.00  0.00     0.006 C 
BRANCH  20  21
ATOM     21  C   UNL     1      14.469  13.002  61.955  1.00  0.00     0.053 C 
BRANCH  21  22
ATOM     22  C   UNL     1      14.614  12.131  63.165  1.00  0.00     0.041 C 
ATOM     23  O   UNL     1      13.795  12.229  64.120  1.00  0.00    -0.550 OA
ATOM     24  O   UNL     1      15.668  11.229  63.250  1.00  0.00    -0.550 OA
ENDBRANCH  21  22
ENDBRANCH  20  21
ENDBRANCH  19  20
ENDBRANCH  18  19
ENDBRANCH  17  18
ENDBRANCH  16  17
ENDBRANCH  15  16
ENDBRANCH  14  15
ENDBRANCH  13  14
ENDBRANCH   1  13
TORSDOF 20
ENDMDL
MODEL 6
REMARK VINA RESULT:    -4.332      3.926      7.970
REMARK INTER + INTRA:         -12.230
REMARK INTER:                 -10.248
REMARK INTRA:                  -1.982
REMARK UNBOUND:                -2.834
REMARK SMILES CCCCCCCCCCCCCCCCCCCCCC(=O)[O-]
REMARK SMILES IDX 12 1 11 2 10 3 9 4 8 5 7 6 6 7 5 8 4 9 3 10 2 11 1 12 13 13
REMARK SMILES IDX 14 14 15 15 16 16 17 17 18 18 19 19 20 20 21 21 22 22 23 23
REMARK SMILES IDX 24 24
REMARK H PARENT
REMARK Flexibility Score: inf
ROOT
ATOM      1  C   UNL     1      12.103  16.141  63.499  1.00  0.00     0.000 C 
ENDROOT
BRANCH   1   2
ATOM      2  C   UNL     1      12.889  15.513  64.661  1.00  0.00     0.000 C 
BRANCH   2   3
ATOM      3  C   UNL     1      14.358  15.230  64.303  1.00  0.00     0.000 C 
BRANCH   3   4
ATOM      4  C   UNL     1      14.605  15.219  62.786  1.00  0.00    -0.000 C 
BRANCH   4   5
ATOM      5  C   UNL     1      15.419  16.437  62.314  1.00  0.00    -0.000 C 
BRANCH   5   6
ATOM      6  C   UNL     1      15.010  16.913  60.911  1.00  0.00    -0.000 C 
BRANCH   6   7
ATOM      7  C   UNL     1      16.218  17.089  59.973  1.00  0.00    -0.000 C 
BRANCH   7   8
ATOM      8  C   UNL     1      16.860  15.750  59.576  1.00  0.00    -0.000 C 
BRANCH   8   9
ATOM      9  C   UNL     1      18.372  15.715  59.849  1.00  0.00    -0.000 C 
BRANCH   9  10
ATOM     10  C   UNL     1      18.940  17.101  60.199  1.00  0.00    -0.000 C 
BRANCH  10  11
ATOM     11  C   UNL     1      19.990  17.046  61.320  1.00  0.00    -0.003 C 
ATOM     12  C   UNL     1      19.492  17.761  62.573  1.00  0.00     0.004 C 
ENDBRANCH  10  11
ENDBRANCH   9  10
ENDBRANCH   8   9
ENDBRANCH   7   8
ENDBRANCH   6   7
ENDBRANCH   5   6
ENDBRANCH   4   5
ENDBRANCH   3   4
ENDBRANCH   2   3
ENDBRANCH   1   2
BRANCH   1  13
ATOM     13  C   UNL     1      10.984  17.079  63.984  1.00  0.00     0.000 C 
BRANCH  13  14
ATOM     14  C   UNL     1      11.192  18.533  63.528  1.00  0.00     0.000 C 
BRANCH  14  15
ATOM     15  C   UNL     1      12.674  18.935  63.487  1.00  0.00     0.000 C 
BRANCH  15  16
ATOM     16  C   UNL     1      12.834  20.394  63.044  1.00  0.00     0.000 C 
BRANCH  16  17
ATOM     17  C   UNL     1      13.891  20.524  61.940  1.00  0.00     0.000 C 
BRANCH  17  18
ATOM     18  C   UNL     1      13.412  21.468  60.828  1.00  0.00     0.000 C 
BRANCH  18  19
ATOM     19  C   UNL     1      11.901  21.744  60.896  1.00  0.00     0.000 C 
BRANCH  19  20
ATOM     20  C   UNL     1      11.579  23.163  61.398  1.00  0.00     0.006 C 
BRANCH  20  21
ATOM     21  C   UNL     1      11.269  24.128  60.245  1.00  0.00     0.053 C 
BRANCH  21  22
ATOM     22  C   UNL     1      11.849  25.487  60.488  1.00  0.00     0.041 C 
ATOM     23  O   UNL     1      11.380  26.494  59.890  1.00  0.00    -0.550 OA
ATOM     24  O   UNL     1      12.924  25.639  61.356  1.00  0.00    -0.550 OA
ENDBRANCH  21  22
ENDBRANCH  20  21
ENDBRANCH  19  20
ENDBRANCH  18  19
ENDBRANCH  17  18
ENDBRANCH  16  17
ENDBRANCH  15  16
ENDBRANCH  14  15
ENDBRANCH  13  14
ENDBRANCH   1  13
TORSDOF 20
ENDMDL
MODEL 7
REMARK VINA RESULT:    -4.305      1.450      2.916
REMARK INTER + INTRA:         -12.172
REMARK INTER:                 -10.070
REMARK INTRA:                  -2.102
REMARK UNBOUND:                -2.834
REMARK SMILES CCCCCCCCCCCCCCCCCCCCCC(=O)[O-]
REMARK SMILES IDX 12 1 11 2 10 3 9 4 8 5 7 6 6 7 5 8 4 9 3 10 2 11 1 12 13 13
REMARK SMILES IDX 14 14 15 15 16 16 17 17 18 18 19 19 20 20 21 21 22 22 23 23
REMARK SMILES IDX 24 24
REMARK H PARENT
REMARK Flexibility Score: inf
ROOT
ATOM      1  C   UNL     1      10.902  18.661  63.739  1.00  0.00     0.000 C 
ENDROOT
BRANCH   1   2
ATOM      2  C   UNL     1      12.333  19.172  63.507  1.00  0.00     0.000 C 
BRANCH   2   3
ATOM      3  C   UNL     1      12.371  20.542  62.808  1.00  0.00     0.000 C 
BRANCH   3   4
ATOM      4  C   UNL     1      13.690  20.786  62.056  1.00  0.00    -0.000 C 
BRANCH   4   5
ATOM      5  C   UNL     1      13.492  21.620  60.779  1.00  0.00    -0.000 C 
BRANCH   5   6
ATOM      6  C   UNL     1      13.737  23.120  61.009  1.00  0.00    -0.000 C 
BRANCH   6   7
ATOM      7  C   UNL     1      12.719  24.005  60.268  1.00  0.00    -0.000 C 
BRANCH   7   8
ATOM      8  C   UNL     1      11.388  24.138  61.025  1.00  0.00    -0.000 C 
BRANCH   8   9
ATOM      9  C   UNL     1      11.261  25.481  61.763  1.00  0.00    -0.000 C 
BRANCH   9  10
ATOM     10  C   UNL     1      11.173  25.309  63.289  1.00  0.00    -0.000 C 
BRANCH  10  11
ATOM     11  C   UNL     1      11.298  23.842  63.728  1.00  0.00    -0.003 C 
ATOM     12  C   UNL     1      12.412  23.670  64.756  1.00  0.00     0.004 C 
ENDBRANCH  10  11
ENDBRANCH   9  10
ENDBRANCH   8   9
ENDBRANCH   7   8
ENDBRANCH   6   7
ENDBRANCH   5   6
ENDBRANCH   4   5
ENDBRANCH   3   4
ENDBRANCH   2   3
ENDBRANCH   1   2
BRANCH   1  13
ATOM     13  C   UNL     1      10.864  17.176  64.140  1.00  0.00     0.000 C 
BRANCH  13  14
ATOM     14  C   UNL     1      11.980  16.355  63.472  1.00  0.00     0.000 C 
BRANCH  14  15
ATOM     15  C   UNL     1      12.779  15.513  64.478  1.00  0.00     0.000 C 
BRANCH  15  16
ATOM     16  C   UNL     1      14.264  15.469  64.098  1.00  0.00     0.000 C 
BRANCH  16  17
ATOM     17  C   UNL     1      14.710  16.790  63.459  1.00  0.00     0.000 C 
BRANCH  17  18
ATOM     18  C   UNL     1      15.735  16.543  62.343  1.00  0.00     0.000 C 
BRANCH  18  19
ATOM     19  C   UNL     1      15.368  15.343  61.457  1.00  0.00     0.000 C 
BRANCH  19  20
ATOM     20  C   UNL     1      15.596  15.618  59.960  1.00  0.00     0.006 C 
BRANCH  20  21
ATOM     21  C   UNL     1      16.106  17.044  59.706  1.00  0.00     0.053 C 
BRANCH  21  22
ATOM     22  C   UNL     1      17.534  17.050  59.255  1.00  0.00     0.041 C 
ATOM     23  O   UNL     1      17.848  16.568  58.132  1.00  0.00    -0.550 OA
ATOM     24  O   UNL     1      18.523  17.567  60.085  1.00  0.00    -0.550 OA
ENDBRANCH  21  22
ENDBRANCH  20  21
ENDBRANCH  19  20
ENDBRANCH  18  19
ENDBRANCH  17  18
ENDBRANCH  16  17
ENDBRANCH  15  16
ENDBRANCH  14  15
ENDBRANCH  13  14
ENDBRANCH   1  13
TORSDOF 20
ENDMDL
MODEL 8
REMARK VINA RESULT:    -4.304      6.182      9.781
REMARK INTER + INTRA:         -12.170
REMARK INTER:                  -9.843
REMARK INTRA:                  -2.327
REMARK UNBOUND:                -2.834
REMARK SMILES CCCCCCCCCCCCCCCCCCCCCC(=O)[O-]
REMARK SMILES IDX 12 1 11 2 10 3 9 4 8 5 7 6 6 7 5 8 4 9 3 10 2 11 1 12 13 13
REMARK SMILES IDX 14 14 15 15 16 16 17 17 18 18 19 19 20 20 21 21 22 22 23 23
REMARK SMILES IDX 24 24
REMARK H PARENT
REMARK Flexibility Score: inf
ROOT
ATOM      1  C   UNL     1      10.022  23.387  62.196  1.00  0.00     0.000 C 
ENDROOT
BRANCH   1   2
ATOM      2  C   UNL     1       9.054  22.478  61.421  1.00  0.00     0.000 C 
BRANCH   2   3
ATOM      3  C   UNL     1       8.855  21.109  62.093  1.00  0.00     0.000 C 
BRANCH   3   4
ATOM      4  C   UNL     1       9.843  20.866  63.246  1.00  0.00    -0.000 C 
BRANCH   4   5
ATOM      5  C   UNL     1      10.562  19.512  63.128  1.00  0.00    -0.000 C 
BRANCH   5   6
ATOM      6  C   UNL     1      12.055  19.602  63.483  1.00  0.00    -0.000 C 
BRANCH   6   7
ATOM      7  C   UNL     1      12.644  20.998  63.206  1.00  0.00    -0.000 C 
BRANCH   7   8
ATOM      8  C   UNL     1      13.099  21.171  61.749  1.00  0.00    -0.000 C 
BRANCH   8   9
ATOM      9  C   UNL     1      13.661  22.574  61.468  1.00  0.00    -0.000 C 
BRANCH   9  10
ATOM     10  C   UNL     1      13.775  23.430  62.741  1.00  0.00    -0.000 C 
BRANCH  10  11
ATOM     11  C   UNL     1      14.315  24.840  62.460  1.00  0.00    -0.003 C 
ATOM     12  C   UNL     1      13.408  25.906  63.068  1.00  0.00     0.004 C 
ENDBRANCH  10  11
ENDBRANCH   9  10
ENDBRANCH   8   9
ENDBRANCH   7   8
ENDBRANCH   6   7
ENDBRANCH   5   6
ENDBRANCH   4   5
ENDBRANCH   3   4
ENDBRANCH   2   3
ENDBRANCH   1   2
BRANCH   1  13
ATOM     13  C   UNL     1      10.121  24.796  61.588  1.00  0.00     0.000 C 
BRANCH  13  14
ATOM     14  C   UNL     1      10.112  24.779  60.050  1.00  0.00     0.000 C 
BRANCH  14  15
ATOM     15  C   UNL     1      11.167  25.715  59.440  1.00  0.00     0.000 C 
BRANCH  15  16
ATOM     16  C   UNL     1      10.534  26.651  58.404  1.00  0.00     0.000 C 
BRANCH  16  17
ATOM     17  C   UNL     1      10.286  28.044  58.997  1.00  0.00     0.000 C 
BRANCH  17  18
ATOM     18  C   UNL     1       9.944  29.058  57.895  1.00  0.00     0.000 C 
BRANCH  18  19
ATOM     19  C   UNL     1      11.194  29.637  57.214  1.00  0.00     0.000 C 
BRANCH  19  20
ATOM     20  C   UNL     1      11.033  29.767  55.690  1.00  0.00     0.006 C 
BRANCH  20  21
ATOM     21  C   UNL     1      10.921  28.400  55.001  1.00  0.00     0.053 C 
BRANCH  21  22
ATOM     22  C   UNL     1      11.299  28.475  53.554  1.00  0.00     0.041 C 
ATOM     23  O   UNL     1      10.957  29.471  52.859  1.00  0.00    -0.550 OA
ATOM     24  O   UNL     1      12.007  27.433  52.965  1.00  0.00    -0.550 OA
ENDBRANCH  21  22
ENDBRANCH  20  21
ENDBRANCH  19  20
ENDBRANCH  18  19
ENDBRANCH  17  18
ENDBRANCH  16  17
ENDBRANCH  15  16
ENDBRANCH  14  15
ENDBRANCH  13  14
ENDBRANCH   1  13
TORSDOF 20
ENDMDL
MODEL 9
REMARK VINA RESULT:    -4.292      1.770      2.502
REMARK INTER + INTRA:         -12.144
REMARK INTER:                  -9.812
REMARK INTRA:                  -2.331
REMARK UNBOUND:                -2.834
REMARK SMILES CCCCCCCCCCCCCCCCCCCCCC(=O)[O-]
REMARK SMILES IDX 12 1 11 2 10 3 9 4 8 5 7 6 6 7 5 8 4 9 3 10 2 11 1 12 13 13
REMARK SMILES IDX 14 14 15 15 16 16 17 17 18 18 19 19 20 20 21 21 22 22 23 23
REMARK SMILES IDX 24 24
REMARK H PARENT
REMARK Flexibility Score: inf
ROOT
ATOM      1  C   UNL     1      11.792  18.893  63.550  1.00  0.00     0.000 C 
ENDROOT
BRANCH   1   2
ATOM      2  C   UNL     1      10.482  19.584  63.141  1.00  0.00     0.000 C 
BRANCH   2   3
ATOM      3  C   UNL     1       9.914  20.489  64.248  1.00  0.00     0.000 C 
BRANCH   3   4
ATOM      4  C   UNL     1      10.418  21.938  64.142  1.00  0.00    -0.000 C 
BRANCH   4   5
ATOM      5  C   UNL     1      11.378  22.311  65.285  1.00  0.00    -0.000 C 
BRANCH   5   6
ATOM      6  C   UNL     1      12.855  22.234  64.864  1.00  0.00    -0.000 C 
BRANCH   6   7
ATOM      7  C   UNL     1      13.097  22.799  63.453  1.00  0.00    -0.000 C 
BRANCH   7   8
ATOM      8  C   UNL     1      13.929  21.854  62.572  1.00  0.00    -0.000 C 
BRANCH   8   9
ATOM      9  C   UNL     1      13.390  21.758  61.135  1.00  0.00    -0.000 C 
BRANCH   9  10
ATOM     10  C   UNL     1      12.258  22.763  60.861  1.00  0.00    -0.000 C 
BRANCH  10  11
ATOM     11  C   UNL     1      12.766  24.071  60.234  1.00  0.00    -0.003 C 
ATOM     12  C   UNL     1      11.667  24.756  59.428  1.00  0.00     0.004 C 
ENDBRANCH  10  11
ENDBRANCH   9  10
ENDBRANCH   8   9
ENDBRANCH   7   8
ENDBRANCH   6   7
ENDBRANCH   5   6
ENDBRANCH   4   5
ENDBRANCH   3   4
ENDBRANCH   2   3
ENDBRANCH   1   2
BRANCH   1  13
ATOM     13  C   UNL     1      11.636  17.369  63.692  1.00  0.00     0.000 C 
BRANCH  13  14
ATOM     14  C   UNL     1      12.967  16.619  63.519  1.00  0.00     0.000 C 
BRANCH  14  15
ATOM     15  C   UNL     1      14.185  17.555  63.569  1.00  0.00     0.000 C 
BRANCH  15  16
ATOM     16  C   UNL     1      15.378  16.940  62.828  1.00  0.00     0.000 C 
BRANCH  16  17
ATOM     17  C   UNL     1      14.910  16.048  61.671  1.00  0.00     0.000 C 
BRANCH  17  18
ATOM     18  C   UNL     1      15.227  16.694  60.315  1.00  0.00     0.000 C 
BRANCH  18  19
ATOM     19  C   UNL     1      15.659  15.668  59.256  1.00  0.00     0.000 C 
BRANCH  19  20
ATOM     20  C   UNL     1      17.188  15.576  59.107  1.00  0.00     0.006 C 
BRANCH  20  21
ATOM     21  C   UNL     1      17.899  16.816  59.667  1.00  0.00     0.053 C 
BRANCH  21  22
ATOM     22  C   UNL     1      18.820  16.464  60.794  1.00  0.00     0.041 C 
ATOM     23  O   UNL     1      18.471  15.616  61.659  1.00  0.00    -0.550 OA
ATOM     24  O   UNL     1      20.055  17.093  60.905  1.00  0.00    -0.550 OA
ENDBRANCH  21  22
ENDBRANCH  20  21
ENDBRANCH  19  20
ENDBRANCH  18  19
ENDBRANCH  17  18
ENDBRANCH  16  17
ENDBRANCH  15  16
ENDBRANCH  14  15
ENDBRANCH  13  14
ENDBRANCH   1  13
TORSDOF 20
ENDMDL
