MODEL 1
REMARK VINA RESULT:    -3.770      0.000      0.000
REMARK INTER + INTRA:          -3.647
REMARK INTER:                  -4.652
REMARK INTRA:                   1.005
REMARK UNBOUND:                 1.005
REMARK SMILES C=C1[C@@H]2CC[C@H]3[C@@H]2C(C)(C)CCC[C@@]13C
REMARK SMILES IDX 14 1 6 2 7 3 3 4 2 5 1 6 4 7 5 8 15 9 8 10 9 11 10 12 11 13
REMARK SMILES IDX 13 15 12 16
REMARK H PARENT
REMARK Flexibility Score: 80.00
ROOT
ATOM      1  C   UNL     1     133.812 135.688 134.258  1.00  0.00    -0.008 C 
ATOM      2  C   UNL     1     133.918 136.983 133.363  1.00  0.00     0.003 C 
ATOM      3  C   UNL     1     133.274 138.100 134.216  1.00  0.00     0.006 C 
ATOM      4  C   UNL     1     131.995 137.315 134.472  1.00  0.00     0.019 C 
ATOM      5  C   UNL     1     132.532 136.012 134.994  1.00  0.00    -0.068 C 
ATOM      6  C   UNL     1     131.907 135.232 135.885  1.00  0.00     0.009 C 
ATOM      7  C   UNL     1     131.520 137.052 133.024  1.00  0.00     0.008 C 
ATOM      8  C   UNL     1     132.849 136.923 132.237  1.00  0.00     0.005 C 
ATOM      9  C   UNL     1     133.639 134.373 133.450  1.00  0.00     0.016 C 
ENDROOT
BRANCH   3  10
ATOM     10  C   UNL     1     134.044 138.719 135.443  1.00  0.00    -0.032 C 
ATOM     11  C   UNL     1     135.119 139.700 134.901  1.00  0.00     0.011 C 
ATOM     12  C   UNL     1     133.053 139.565 136.280  1.00  0.00     0.011 C 
BRANCH  10  13
ATOM     13  C   UNL     1     134.702 137.697 136.411  1.00  0.00     0.007 CG0
ATOM     14  G   UNL     1     135.701 136.747 135.749  1.00  0.00     0.000 G0
ENDBRANCH  10  13
ENDBRANCH   3  10
BRANCH   1  15
ATOM     15  C   UNL     1     135.026 135.483 135.210  1.00  0.00     0.011 C 
BRANCH  15  16
ATOM     16  C   UNL     1     135.695 136.738 135.765  1.00  0.00     0.001 CG0
ATOM     17  G   UNL     1     134.704 137.708 136.410  1.00  0.00     0.000 G0
ENDBRANCH  15  16
ENDBRANCH   1  15
TORSDOF 0
ENDMDL
MODEL 2
REMARK VINA RESULT:    -3.752      4.334      6.816
REMARK INTER + INTRA:          -3.624
REMARK INTER:                  -4.635
REMARK INTRA:                   1.011
REMARK UNBOUND:                 1.005
REMARK SMILES C=C1[C@@H]2CC[C@H]3[C@@H]2C(C)(C)CCC[C@@]13C
REMARK SMILES IDX 14 1 6 2 7 3 3 4 2 5 1 6 4 7 5 8 15 9 8 10 9 11 10 12 11 13
REMARK SMILES IDX 13 15 12 16
REMARK H PARENT
REMARK Flexibility Score: 80.00
ROOT
ATOM      1  C   UNL     1     138.941 138.621 134.961  1.00  0.00    -0.008 C 
ATOM      2  C   UNL     1     140.380 137.978 135.041  1.00  0.00     0.003 C 
ATOM      3  C   UNL     1     140.130 136.454 134.982  1.00  0.00     0.006 C 
ATOM      4  C   UNL     1     139.113 136.468 136.116  1.00  0.00     0.019 C 
ATOM      5  C   UNL     1     138.156 137.533 135.658  1.00  0.00    -0.068 C 
ATOM      6  C   UNL     1     136.844 137.546 135.930  1.00  0.00     0.009 C 
ATOM      7  C   UNL     1     139.956 137.088 137.254  1.00  0.00     0.008 C 
ATOM      8  C   UNL     1     140.903 138.058 136.501  1.00  0.00     0.005 C 
ATOM      9  C   UNL     1     138.800 139.956 135.742  1.00  0.00     0.016 C 
ENDROOT
BRANCH   3  10
ATOM     10  C   UNL     1     139.742 135.754 133.624  1.00  0.00    -0.032 C 
ATOM     11  C   UNL     1     141.025 135.626 132.758  1.00  0.00     0.011 C 
ATOM     12  C   UNL     1     139.262 134.312 133.923  1.00  0.00     0.011 C 
BRANCH  10  13
ATOM     13  C   UNL     1     138.619 136.448 132.805  1.00  0.00     0.007 CG0
ATOM     14  G   UNL     1     138.907 137.905 132.439  1.00  0.00     0.000 G0
ENDBRANCH  10  13
ENDBRANCH   3  10
BRANCH   1  15
ATOM     15  C   UNL     1     138.452 138.887 133.508  1.00  0.00     0.011 C 
BRANCH  15  16
ATOM     16  C   UNL     1     138.903 137.904 132.431  1.00  0.00     0.001 CG0
ATOM     17  G   UNL     1     138.634 136.445 132.802  1.00  0.00     0.000 G0
ENDBRANCH  15  16
ENDBRANCH   1  15
TORSDOF 0
ENDMDL
MODEL 3
REMARK VINA RESULT:    -3.751      4.216      6.652
REMARK INTER + INTRA:          -3.624
REMARK INTER:                  -4.646
REMARK INTRA:                   1.023
REMARK UNBOUND:                 1.005
REMARK SMILES C=C1[C@@H]2CC[C@H]3[C@@H]2C(C)(C)CCC[C@@]13C
REMARK SMILES IDX 14 1 6 2 7 3 3 4 2 5 1 6 4 7 5 8 15 9 8 10 9 11 10 12 11 13
REMARK SMILES IDX 13 15 12 16
REMARK H PARENT
REMARK Flexibility Score: 80.00
ROOT
ATOM      1  C   UNL     1     138.873 136.909 134.166  1.00  0.00    -0.008 C 
ATOM      2  C   UNL     1     138.834 135.598 133.289  1.00  0.00     0.003 C 
ATOM      3  C   UNL     1     139.476 134.511 134.183  1.00  0.00     0.006 C 
ATOM      4  C   UNL     1     140.724 135.334 134.473  1.00  0.00     0.019 C 
ATOM      5  C   UNL     1     140.133 136.630 134.953  1.00  0.00    -0.068 C 
ATOM      6  C   UNL     1     140.705 137.440 135.854  1.00  0.00     0.009 C 
ATOM      7  C   UNL     1     141.244 135.588 133.039  1.00  0.00     0.008 C 
ATOM      8  C   UNL     1     139.942 135.669 132.202  1.00  0.00     0.005 C 
ATOM      9  C   UNL     1     139.041 138.215 133.345  1.00  0.00     0.016 C 
ENDROOT
BRANCH   3  10
ATOM     10  C   UNL     1     138.677 133.890 135.392  1.00  0.00    -0.032 C 
ATOM     11  C   UNL     1     137.638 132.886 134.825  1.00  0.00     0.011 C 
ATOM     12  C   UNL     1     139.656 133.069 136.268  1.00  0.00     0.011 C 
BRANCH  10  13
ATOM     13  C   UNL     1     137.972 134.910 136.328  1.00  0.00     0.007 CG0
ATOM     14  G   UNL     1     136.968 135.827 135.627  1.00  0.00     0.000 G0
ENDBRANCH  10  13
ENDBRANCH   3  10
BRANCH   1  15
ATOM     15  C   UNL     1     137.620 137.096 135.071  1.00  0.00     0.011 C 
BRANCH  15  16
ATOM     16  C   UNL     1     136.968 135.832 135.627  1.00  0.00     0.001 CG0
ATOM     17  G   UNL     1     137.964 134.902 136.323  1.00  0.00     0.000 G0
ENDBRANCH  15  16
ENDBRANCH   1  15
TORSDOF 0
ENDMDL
MODEL 4
REMARK VINA RESULT:    -3.746      2.596      4.631
REMARK INTER + INTRA:          -3.617
REMARK INTER:                  -4.622
REMARK INTRA:                   1.005
REMARK UNBOUND:                 1.005
REMARK SMILES C=C1[C@@H]2CC[C@H]3[C@@H]2C(C)(C)CCC[C@@]13C
REMARK SMILES IDX 14 1 6 2 7 3 3 4 2 5 1 6 4 7 5 8 15 9 8 10 9 11 10 12 11 13
REMARK SMILES IDX 13 15 12 16
REMARK H PARENT
REMARK Flexibility Score: 80.00
ROOT
ATOM      1  C   UNL     1     135.591 138.953 134.289  1.00  0.00    -0.008 C 
ATOM      2  C   UNL     1     136.928 138.825 133.461  1.00  0.00     0.003 C 
ATOM      3  C   UNL     1     138.011 139.451 134.370  1.00  0.00     0.006 C 
ATOM      4  C   UNL     1     137.235 140.744 134.585  1.00  0.00     0.019 C 
ATOM      5  C   UNL     1     135.898 140.229 135.040  1.00  0.00    -0.068 C 
ATOM      6  C   UNL     1     135.084 140.868 135.890  1.00  0.00     0.009 C 
ATOM      7  C   UNL     1     137.055 141.220 133.126  1.00  0.00     0.008 C 
ATOM      8  C   UNL     1     136.944 139.892 132.333  1.00  0.00     0.005 C 
ATOM      9  C   UNL     1     134.322 139.147 133.415  1.00  0.00     0.016 C 
ENDROOT
BRANCH   3  10
ATOM     10  C   UNL     1     138.553 138.672 135.628  1.00  0.00    -0.032 C 
ATOM     11  C   UNL     1     139.541 137.580 135.138  1.00  0.00     0.011 C 
ATOM     12  C   UNL     1     139.373 139.650 136.506  1.00  0.00     0.011 C 
BRANCH  10  13
ATOM     13  C   UNL     1     137.472 138.035 136.544  1.00  0.00     0.007 CG0
ATOM     14  G   UNL     1     136.533 137.059 135.833  1.00  0.00     0.000 G0
ENDBRANCH  10  13
ENDBRANCH   3  10
BRANCH   1  15
ATOM     15  C   UNL     1     135.317 137.744 135.230  1.00  0.00     0.011 C 
BRANCH  15  16
ATOM     16  C   UNL     1     136.530 137.055 135.849  1.00  0.00     0.001 CG0
ATOM     17  G   UNL     1     137.473 138.028 136.560  1.00  0.00     0.000 G0
ENDBRANCH  15  16
ENDBRANCH   1  15
TORSDOF 0
ENDMDL
MODEL 5
REMARK VINA RESULT:    -3.743      2.698      4.711
REMARK INTER + INTRA:          -3.614
REMARK INTER:                  -4.624
REMARK INTRA:                   1.010
REMARK UNBOUND:                 1.005
REMARK SMILES C=C1[C@@H]2CC[C@H]3[C@@H]2C(C)(C)CCC[C@@]13C
REMARK SMILES IDX 14 1 6 2 7 3 3 4 2 5 1 6 4 7 5 8 15 9 8 10 9 11 10 12 11 13
REMARK SMILES IDX 13 15 12 16
REMARK H PARENT
REMARK Flexibility Score: 80.00
ROOT
ATOM      1  C   UNL     1     137.003 133.793 134.419  1.00  0.00    -0.008 C 
ATOM      2  C   UNL     1     135.690 133.902 133.550  1.00  0.00     0.003 C 
ATOM      3  C   UNL     1     134.593 133.243 134.417  1.00  0.00     0.006 C 
ATOM      4  C   UNL     1     135.389 131.965 134.645  1.00  0.00     0.019 C 
ATOM      5  C   UNL     1     136.699 132.504 135.147  1.00  0.00    -0.068 C 
ATOM      6  C   UNL     1     137.499 131.873 136.017  1.00  0.00     0.009 C 
ATOM      7  C   UNL     1     135.627 131.507 133.187  1.00  0.00     0.008 C 
ATOM      8  C   UNL     1     135.734 132.845 132.412  1.00  0.00     0.005 C 
ATOM      9  C   UNL     1     138.303 133.636 133.585  1.00  0.00     0.016 C 
ENDROOT
BRANCH   3  10
ATOM     10  C   UNL     1     133.994 133.997 135.664  1.00  0.00    -0.032 C 
ATOM     11  C   UNL     1     132.998 135.073 135.152  1.00  0.00     0.011 C 
ATOM     12  C   UNL     1     133.167 132.993 136.506  1.00  0.00     0.011 C 
BRANCH  10  13
ATOM     13  C   UNL     1     135.030 134.648 136.620  1.00  0.00     0.007 CG0
ATOM     14  G   UNL     1     135.963 135.660 135.952  1.00  0.00     0.000 G0
ENDBRANCH  10  13
ENDBRANCH   3  10
BRANCH   1  15
ATOM     15  C   UNL     1     137.220 134.998 135.380  1.00  0.00     0.011 C 
BRANCH  15  16
ATOM     16  C   UNL     1     135.972 135.657 135.963  1.00  0.00     0.001 CG0
ATOM     17  G   UNL     1     135.016 134.657 136.614  1.00  0.00     0.000 G0
ENDBRANCH  15  16
ENDBRANCH   1  15
TORSDOF 0
ENDMDL
MODEL 6
REMARK VINA RESULT:    -3.702      1.779      3.542
REMARK INTER + INTRA:          -3.563
REMARK INTER:                  -4.579
REMARK INTRA:                   1.016
REMARK UNBOUND:                 1.005
REMARK SMILES C=C1[C@@H]2CC[C@H]3[C@@H]2C(C)(C)CCC[C@@]13C
REMARK SMILES IDX 14 1 6 2 7 3 3 4 2 5 1 6 4 7 5 8 15 9 8 10 9 11 10 12 11 13
REMARK SMILES IDX 13 15 12 16
REMARK H PARENT
REMARK Flexibility Score: 80.00
ROOT
ATOM      1  C   UNL     1     133.693 134.072 135.047  1.00  0.00    -0.008 C 
ATOM      2  C   UNL     1     132.261 134.708 135.236  1.00  0.00     0.003 C 
ATOM      3  C   UNL     1     132.507 136.234 135.224  1.00  0.00     0.006 C 
ATOM      4  C   UNL     1     133.588 136.177 136.294  1.00  0.00     0.019 C 
ATOM      5  C   UNL     1     134.517 135.133 135.740  1.00  0.00    -0.068 C 
ATOM      6  C   UNL     1     135.842 135.112 135.933  1.00  0.00     0.009 C 
ATOM      7  C   UNL     1     132.813 135.511 137.454  1.00  0.00     0.008 C 
ATOM      8  C   UNL     1     131.824 134.569 136.720  1.00  0.00     0.005 C 
ATOM      9  C   UNL     1     133.879 132.707 135.765  1.00  0.00     0.016 C 
ENDROOT
BRANCH   3  10
ATOM     10  C   UNL     1     132.814 136.987 133.873  1.00  0.00    -0.032 C 
ATOM     11  C   UNL     1     131.484 137.143 133.088  1.00  0.00     0.011 C 
ATOM     12  C   UNL     1     133.307 138.419 134.200  1.00  0.00     0.011 C 
BRANCH  10  13
ATOM     13  C   UNL     1     133.890 136.331 132.965  1.00  0.00     0.007 CG0
ATOM     14  G   UNL     1     133.579 134.891 132.550  1.00  0.00     0.000 G0
ENDBRANCH  10  13
ENDBRANCH   3  10
BRANCH   1  15
ATOM     15  C   UNL     1     134.095 133.864 133.558  1.00  0.00     0.011 C 
BRANCH  15  16
ATOM     16  C   UNL     1     133.592 134.895 132.551  1.00  0.00     0.001 CG0
ATOM     17  G   UNL     1     133.894 136.335 132.968  1.00  0.00     0.000 G0
ENDBRANCH  15  16
ENDBRANCH   1  15
TORSDOF 0
ENDMDL
MODEL 7
REMARK VINA RESULT:    -3.680      2.347      4.389
REMARK INTER + INTRA:          -3.536
REMARK INTER:                  -4.540
REMARK INTRA:                   1.004
REMARK UNBOUND:                 1.005
REMARK SMILES C=C1[C@@H]2CC[C@H]3[C@@H]2C(C)(C)CCC[C@@]13C
REMARK SMILES IDX 14 1 6 2 7 3 3 4 2 5 1 6 4 7 5 8 15 9 8 10 9 11 10 12 11 13
REMARK SMILES IDX 13 15 12 16
REMARK H PARENT
REMARK Flexibility Score: 80.00
ROOT
ATOM      1  C   UNL     1     134.087 138.820 134.699  1.00  0.00    -0.008 C 
ATOM      2  C   UNL     1     134.647 140.282 134.891  1.00  0.00     0.003 C 
ATOM      3  C   UNL     1     136.184 140.120 134.851  1.00  0.00     0.006 C 
ATOM      4  C   UNL     1     136.204 139.028 135.913  1.00  0.00     0.019 C 
ATOM      5  C   UNL     1     135.203 138.049 135.366  1.00  0.00    -0.068 C 
ATOM      6  C   UNL     1     135.258 136.723 135.547  1.00  0.00     0.009 C 
ATOM      7  C   UNL     1     135.515 139.756 137.090  1.00  0.00     0.008 C 
ATOM      8  C   UNL     1     134.509 140.698 136.381  1.00  0.00     0.005 C 
ATOM      9  C   UNL     1     132.747 138.553 135.436  1.00  0.00     0.016 C 
ENDROOT
BRANCH   3  10
ATOM     10  C   UNL     1     136.930 139.866 133.486  1.00  0.00    -0.032 C 
ATOM     11  C   UNL     1     137.009 141.212 132.716  1.00  0.00     0.011 C 
ATOM     12  C   UNL     1     138.389 139.441 133.786  1.00  0.00     0.011 C 
BRANCH  10  13
ATOM     13  C   UNL     1     136.314 138.770 132.575  1.00  0.00     0.007 CG0
ATOM     14  G   UNL     1     134.852 139.010 132.192  1.00  0.00     0.000 G0
ENDBRANCH  10  13
ENDBRANCH   3  10
BRANCH   1  15
ATOM     15  C   UNL     1     133.877 138.419 133.209  1.00  0.00     0.011 C 
BRANCH  15  16
ATOM     16  C   UNL     1     134.856 138.995 132.189  1.00  0.00     0.001 CG0
ATOM     17  G   UNL     1     136.320 138.779 132.577  1.00  0.00     0.000 G0
ENDBRANCH  15  16
ENDBRANCH   1  15
TORSDOF 0
ENDMDL
MODEL 8
REMARK VINA RESULT:    -3.585      3.483      5.832
REMARK INTER + INTRA:          -3.418
REMARK INTER:                  -4.434
REMARK INTRA:                   1.016
REMARK UNBOUND:                 1.005
REMARK SMILES C=C1[C@@H]2CC[C@H]3[C@@H]2C(C)(C)CCC[C@@]13C
REMARK SMILES IDX 14 1 6 2 7 3 3 4 2 5 1 6 4 7 5 8 15 9 8 10 9 11 10 12 11 13
REMARK SMILES IDX 13 15 12 16
REMARK H PARENT
REMARK Flexibility Score: 80.00
ROOT
ATOM      1  C   UNL     1     136.311 133.970 135.459  1.00  0.00    -0.008 C 
ATOM      2  C   UNL     1     137.309 134.093 136.674  1.00  0.00     0.003 C 
ATOM      3  C   UNL     1     138.714 134.057 136.031  1.00  0.00     0.006 C 
ATOM      4  C   UNL     1     138.441 132.780 135.249  1.00  0.00     0.019 C 
ATOM      5  C   UNL     1     137.159 133.120 134.541  1.00  0.00    -0.068 C 
ATOM      6  C   UNL     1     136.804 132.647 133.339  1.00  0.00     0.009 C 
ATOM      7  C   UNL     1     138.071 131.811 136.395  1.00  0.00     0.008 C 
ATOM      8  C   UNL     1     137.378 132.737 137.428  1.00  0.00     0.005 C 
ATOM      9  C   UNL     1     134.990 133.226 135.797  1.00  0.00     0.016 C 
ENDROOT
BRANCH   3  10
ATOM     10  C   UNL     1     139.278 135.313 135.262  1.00  0.00    -0.032 C 
ATOM     11  C   UNL     1     139.732 136.364 136.311  1.00  0.00     0.011 C 
ATOM     12  C   UNL     1     140.547 134.891 134.480  1.00  0.00     0.011 C 
BRANCH  10  13
ATOM     13  C   UNL     1     138.310 135.969 134.241  1.00  0.00     0.007 CG0
ATOM     14  G   UNL     1     136.981 136.437 134.836  1.00  0.00     0.000 G0
ENDBRANCH  10  13
ENDBRANCH   3  10
BRANCH   1  15
ATOM     15  C   UNL     1     135.916 135.338 134.829  1.00  0.00     0.011 C 
BRANCH  15  16
ATOM     16  C   UNL     1     136.979 136.433 134.822  1.00  0.00     0.001 CG0
ATOM     17  G   UNL     1     138.311 135.971 134.227  1.00  0.00     0.000 G0
ENDBRANCH  15  16
ENDBRANCH   1  15
TORSDOF 0
ENDMDL
MODEL 9
REMARK VINA RESULT:    -3.465      3.198      5.233
REMARK INTER + INTRA:          -3.271
REMARK INTER:                  -4.299
REMARK INTRA:                   1.028
REMARK UNBOUND:                 1.005
REMARK SMILES C=C1[C@@H]2CC[C@H]3[C@@H]2C(C)(C)CCC[C@@]13C
REMARK SMILES IDX 14 1 6 2 7 3 3 4 2 5 1 6 4 7 5 8 15 9 8 10 9 11 10 12 11 13
REMARK SMILES IDX 13 15 12 16
REMARK H PARENT
REMARK Flexibility Score: 80.00
ROOT
ATOM      1  C   UNL     1     135.160 133.334 135.671  1.00  0.00    -0.008 C 
ATOM      2  C   UNL     1     136.064 132.187 135.074  1.00  0.00     0.003 C 
ATOM      3  C   UNL     1     137.162 132.930 134.279  1.00  0.00     0.006 C 
ATOM      4  C   UNL     1     136.170 133.766 133.482  1.00  0.00     0.019 C 
ATOM      5  C   UNL     1     135.323 134.360 134.572  1.00  0.00    -0.068 C 
ATOM      6  C   UNL     1     134.731 135.560 134.509  1.00  0.00     0.009 C 
ATOM      7  C   UNL     1     135.324 132.657 132.816  1.00  0.00     0.008 C 
ATOM      8  C   UNL     1     135.335 131.524 133.874  1.00  0.00     0.005 C 
ATOM      9  C   UNL     1     133.663 132.949 135.817  1.00  0.00     0.016 C 
ENDROOT
BRANCH   3  10
ATOM     10  C   UNL     1     138.343 133.659 135.027  1.00  0.00    -0.032 C 
ATOM     11  C   UNL     1     139.345 132.582 135.522  1.00  0.00     0.011 C 
ATOM     12  C   UNL     1     139.108 134.544 134.011  1.00  0.00     0.011 C 
BRANCH  10  13
ATOM     13  C   UNL     1     137.926 134.578 136.209  1.00  0.00     0.007 CG0
ATOM     14  G   UNL     1     137.146 133.871 137.319  1.00  0.00     0.000 G0
ENDBRANCH  10  13
ENDBRANCH   3  10
BRANCH   1  15
ATOM     15  C   UNL     1     135.636 133.850 137.060  1.00  0.00     0.011 C 
BRANCH  15  16
ATOM     16  C   UNL     1     137.141 133.870 137.317  1.00  0.00     0.001 CG0
ATOM     17  G   UNL     1     137.928 134.576 136.211  1.00  0.00     0.000 G0
ENDBRANCH  15  16
ENDBRANCH   1  15
TORSDOF 0
ENDMDL
