MODEL 1
REMARK VINA RESULT:    -3.654      0.000      0.000
REMARK INTER + INTRA:          -5.225
REMARK INTER:                  -4.936
REMARK INTRA:                  -0.289
REMARK UNBOUND:                -0.289
REMARK SMILES CCCCCCCC(=O)[O-]
REMARK SMILES IDX 5 1 6 2 7 3 8 4 9 5 10 6 4 7 3 8 2 9 1 10
REMARK H PARENT
REMARK Flexibility Score: inf
ROOT
ATOM      1  C   UNL     1       4.744  -3.064   0.935  1.00  0.00     0.000 C 
ENDROOT
BRANCH   1   2
ATOM      2  C   UNL     1       5.236  -1.724   0.367  1.00  0.00     0.006 C 
BRANCH   2   3
ATOM      3  C   UNL     1       5.173  -1.673  -1.164  1.00  0.00     0.053 C 
BRANCH   3   4
ATOM      4  C   UNL     1       5.681  -0.358  -1.664  1.00  0.00     0.041 C 
ATOM      5  O   UNL     1       5.069   0.252  -2.579  1.00  0.00    -0.550 OA
ATOM      6  O   UNL     1       6.805   0.219  -1.085  1.00  0.00    -0.550 OA
ENDBRANCH   3   4
ENDBRANCH   2   3
ENDBRANCH   1   2
BRANCH   1   7
ATOM      7  C   UNL     1       4.051  -3.938  -0.121  1.00  0.00     0.000 C 
BRANCH   7   8
ATOM      8  C   UNL     1       2.773  -4.571   0.440  1.00  0.00    -0.000 C 
BRANCH   8   9
ATOM      9  C   UNL     1       2.465  -4.040   1.845  1.00  0.00    -0.003 C 
ATOM     10  C   UNL     1       1.582  -5.012   2.621  1.00  0.00     0.004 C 
ENDBRANCH   8   9
ENDBRANCH   7   8
ENDBRANCH   1   7
TORSDOF 6
ENDMDL
MODEL 2
REMARK VINA RESULT:    -3.585      1.087      1.341
REMARK INTER + INTRA:          -5.131
REMARK INTER:                  -4.809
REMARK INTRA:                  -0.322
REMARK UNBOUND:                -0.289
REMARK SMILES CCCCCCCC(=O)[O-]
REMARK SMILES IDX 5 1 6 2 7 3 8 4 9 5 10 6 4 7 3 8 2 9 1 10
REMARK H PARENT
REMARK Flexibility Score: inf
ROOT
ATOM      1  C   UNL     1       4.141  -3.612   1.131  1.00  0.00     0.000 C 
ENDROOT
BRANCH   1   2
ATOM      2  C   UNL     1       5.391  -2.902   0.588  1.00  0.00     0.006 C 
BRANCH   2   3
ATOM      3  C   UNL     1       5.109  -1.458   0.158  1.00  0.00     0.053 C 
BRANCH   3   4
ATOM      4  C   UNL     1       5.378  -1.287  -1.304  1.00  0.00     0.041 C 
ATOM      5  O   UNL     1       5.689  -2.280  -2.012  1.00  0.00    -0.550 OA
ATOM      6  O   UNL     1       5.234  -0.038  -1.896  1.00  0.00    -0.550 OA
ENDBRANCH   3   4
ENDBRANCH   2   3
ENDBRANCH   1   2
BRANCH   1   7
ATOM      7  C   UNL     1       3.345  -4.333   0.033  1.00  0.00     0.000 C 
BRANCH   7   8
ATOM      8  C   UNL     1       1.959  -4.747   0.540  1.00  0.00    -0.000 C 
BRANCH   8   9
ATOM      9  C   UNL     1       1.808  -4.451   2.037  1.00  0.00    -0.003 C 
ATOM     10  C   UNL     1       1.044  -5.564   2.745  1.00  0.00     0.004 C 
ENDBRANCH   8   9
ENDBRANCH   7   8
ENDBRANCH   1   7
TORSDOF 6
ENDMDL
MODEL 3
REMARK VINA RESULT:    -3.380      1.387      2.014
REMARK INTER + INTRA:          -4.855
REMARK INTER:                  -4.684
REMARK INTRA:                  -0.171
REMARK UNBOUND:                -0.289
REMARK SMILES CCCCCCCC(=O)[O-]
REMARK SMILES IDX 5 1 6 2 7 3 8 4 9 5 10 6 4 7 3 8 2 9 1 10
REMARK H PARENT
REMARK Flexibility Score: inf
ROOT
ATOM      1  C   UNL     1       3.610  -3.758   0.946  1.00  0.00     0.000 C 
ENDROOT
BRANCH   1   2
ATOM      2  C   UNL     1       5.039  -3.206   0.821  1.00  0.00     0.006 C 
BRANCH   2   3
ATOM      3  C   UNL     1       5.068  -1.731   0.405  1.00  0.00     0.053 C 
BRANCH   3   4
ATOM      4  C   UNL     1       5.275  -1.609  -1.071  1.00  0.00     0.041 C 
ATOM      5  O   UNL     1       5.105  -0.502  -1.647  1.00  0.00    -0.550 OA
ATOM      6  O   UNL     1       5.707  -2.706  -1.806  1.00  0.00    -0.550 OA
ENDBRANCH   3   4
ENDBRANCH   2   3
ENDBRANCH   1   2
BRANCH   1   7
ATOM      7  C   UNL     1       3.396  -4.562   2.237  1.00  0.00     0.000 C 
BRANCH   7   8
ATOM      8  C   UNL     1       1.923  -4.540   2.661  1.00  0.00    -0.000 C 
BRANCH   8   9
ATOM      9  C   UNL     1       1.112  -5.589   1.891  1.00  0.00    -0.003 C 
ATOM     10  C   UNL     1       0.509  -6.623   2.836  1.00  0.00     0.004 C 
ENDBRANCH   8   9
ENDBRANCH   7   8
ENDBRANCH   1   7
TORSDOF 6
ENDMDL
MODEL 4
REMARK VINA RESULT:    -3.372      3.537      5.610
REMARK INTER + INTRA:          -4.844
REMARK INTER:                  -4.595
REMARK INTRA:                  -0.249
REMARK UNBOUND:                -0.289
REMARK SMILES CCCCCCCC(=O)[O-]
REMARK SMILES IDX 5 1 6 2 7 3 8 4 9 5 10 6 4 7 3 8 2 9 1 10
REMARK H PARENT
REMARK Flexibility Score: inf
ROOT
ATOM      1  C   UNL     1       4.844  -2.613  -0.107  1.00  0.00     0.000 C 
ENDROOT
BRANCH   1   2
ATOM      2  C   UNL     1       4.263  -3.683   0.830  1.00  0.00     0.006 C 
BRANCH   2   3
ATOM      3  C   UNL     1       3.084  -4.438   0.204  1.00  0.00     0.053 C 
BRANCH   3   4
ATOM      4  C   UNL     1       2.045  -4.734   1.239  1.00  0.00     0.041 C 
ATOM      5  O   UNL     1       1.211  -5.659   1.053  1.00  0.00    -0.550 OA
ATOM      6  O   UNL     1       2.029  -4.023   2.433  1.00  0.00    -0.550 OA
ENDBRANCH   3   4
ENDBRANCH   2   3
ENDBRANCH   1   2
BRANCH   1   7
ATOM      7  C   UNL     1       5.566  -3.216  -1.321  1.00  0.00     0.000 C 
BRANCH   7   8
ATOM      8  C   UNL     1       6.150  -2.118  -2.216  1.00  0.00    -0.000 C 
BRANCH   8   9
ATOM      9  C   UNL     1       5.417  -0.788  -2.007  1.00  0.00    -0.003 C 
ATOM     10  C   UNL     1       6.375   0.394  -2.120  1.00  0.00     0.004 C 
ENDBRANCH   8   9
ENDBRANCH   7   8
ENDBRANCH   1   7
TORSDOF 6
ENDMDL
MODEL 5
REMARK VINA RESULT:    -3.279      1.261      1.644
REMARK INTER + INTRA:          -4.719
REMARK INTER:                  -4.405
REMARK INTRA:                  -0.313
REMARK UNBOUND:                -0.289
REMARK SMILES CCCCCCCC(=O)[O-]
REMARK SMILES IDX 5 1 6 2 7 3 8 4 9 5 10 6 4 7 3 8 2 9 1 10
REMARK H PARENT
REMARK Flexibility Score: inf
ROOT
ATOM      1  C   UNL     1       5.357  -3.332  -0.709  1.00  0.00     0.000 C 
ENDROOT
BRANCH   1   2
ATOM      2  C   UNL     1       5.624  -2.218  -1.733  1.00  0.00     0.006 C 
BRANCH   2   3
ATOM      3  C   UNL     1       5.411  -0.816  -1.149  1.00  0.00     0.053 C 
BRANCH   3   4
ATOM      4  C   UNL     1       6.123   0.207  -1.975  1.00  0.00     0.041 C 
ATOM      5  O   UNL     1       5.476   0.961  -2.748  1.00  0.00    -0.550 OA
ATOM      6  O   UNL     1       7.498   0.366  -1.853  1.00  0.00    -0.550 OA
ENDBRANCH   3   4
ENDBRANCH   2   3
ENDBRANCH   1   2
BRANCH   1   7
ATOM      7  C   UNL     1       4.761  -2.801   0.604  1.00  0.00     0.000 C 
BRANCH   7   8
ATOM      8  C   UNL     1       3.742  -3.788   1.184  1.00  0.00    -0.000 C 
BRANCH   8   9
ATOM      9  C   UNL     1       3.316  -4.822   0.135  1.00  0.00    -0.003 C 
ATOM     10  C   UNL     1       1.801  -4.832  -0.045  1.00  0.00     0.004 C 
ENDBRANCH   8   9
ENDBRANCH   7   8
ENDBRANCH   1   7
TORSDOF 6
ENDMDL
MODEL 6
REMARK VINA RESULT:    -3.206      1.667      2.835
REMARK INTER + INTRA:          -4.620
REMARK INTER:                  -4.128
REMARK INTRA:                  -0.492
REMARK UNBOUND:                -0.289
REMARK SMILES CCCCCCCC(=O)[O-]
REMARK SMILES IDX 5 1 6 2 7 3 8 4 9 5 10 6 4 7 3 8 2 9 1 10
REMARK H PARENT
REMARK Flexibility Score: inf
ROOT
ATOM      1  C   UNL     1       2.654  -4.649   0.390  1.00  0.00     0.000 C 
ENDROOT
BRANCH   1   2
ATOM      2  C   UNL     1       3.982  -4.010  -0.046  1.00  0.00     0.006 C 
BRANCH   2   3
ATOM      3  C   UNL     1       4.588  -3.110   1.037  1.00  0.00     0.053 C 
BRANCH   3   4
ATOM      4  C   UNL     1       5.234  -1.911   0.419  1.00  0.00     0.041 C 
ATOM      5  O   UNL     1       6.034  -1.205   1.088  1.00  0.00    -0.550 OA
ATOM      6  O   UNL     1       4.994  -1.600  -0.914  1.00  0.00    -0.550 OA
ENDBRANCH   3   4
ENDBRANCH   2   3
ENDBRANCH   1   2
BRANCH   1   7
ATOM      7  C   UNL     1       2.177  -4.147   1.761  1.00  0.00     0.000 C 
BRANCH   7   8
ATOM      8  C   UNL     1       2.068  -5.303   2.762  1.00  0.00    -0.000 C 
BRANCH   8   9
ATOM      9  C   UNL     1       3.216  -5.264   3.777  1.00  0.00    -0.003 C 
ATOM     10  C   UNL     1       4.350  -6.197   3.365  1.00  0.00     0.004 C 
ENDBRANCH   8   9
ENDBRANCH   7   8
ENDBRANCH   1   7
TORSDOF 6
ENDMDL
MODEL 7
REMARK VINA RESULT:    -3.206      8.211      9.393
REMARK INTER + INTRA:          -4.619
REMARK INTER:                  -4.395
REMARK INTRA:                  -0.225
REMARK UNBOUND:                -0.289
REMARK SMILES CCCCCCCC(=O)[O-]
REMARK SMILES IDX 5 1 6 2 7 3 8 4 9 5 10 6 4 7 3 8 2 9 1 10
REMARK H PARENT
REMARK Flexibility Score: inf
ROOT
ATOM      1  C   UNL     1      -4.893  -3.171  -2.927  1.00  0.00     0.000 C 
ENDROOT
BRANCH   1   2
ATOM      2  C   UNL     1      -4.267  -2.301  -1.825  1.00  0.00     0.006 C 
BRANCH   2   3
ATOM      3  C   UNL     1      -4.740  -0.844  -1.884  1.00  0.00     0.053 C 
BRANCH   3   4
ATOM      4  C   UNL     1      -4.853  -0.276  -0.505  1.00  0.00     0.041 C 
ATOM      5  O   UNL     1      -4.298  -0.853   0.467  1.00  0.00    -0.550 OA
ATOM      6  O   UNL     1      -5.530   0.920  -0.298  1.00  0.00    -0.550 OA
ENDBRANCH   3   4
ENDBRANCH   2   3
ENDBRANCH   1   2
BRANCH   1   7
ATOM      7  C   UNL     1      -3.856  -3.687  -3.936  1.00  0.00     0.000 C 
BRANCH   7   8
ATOM      8  C   UNL     1      -2.453  -3.713  -3.318  1.00  0.00    -0.000 C 
BRANCH   8   9
ATOM      9  C   UNL     1      -1.497  -4.567  -4.157  1.00  0.00    -0.003 C 
ATOM     10  C   UNL     1      -1.108  -5.846  -3.422  1.00  0.00     0.004 C 
ENDBRANCH   8   9
ENDBRANCH   7   8
ENDBRANCH   1   7
TORSDOF 6
ENDMDL
MODEL 8
REMARK VINA RESULT:    -3.097      4.266      6.134
REMARK INTER + INTRA:          -4.473
REMARK INTER:                  -4.260
REMARK INTRA:                  -0.212
REMARK UNBOUND:                -0.289
REMARK SMILES CCCCCCCC(=O)[O-]
REMARK SMILES IDX 5 1 6 2 7 3 8 4 9 5 10 6 4 7 3 8 2 9 1 10
REMARK H PARENT
REMARK Flexibility Score: inf
ROOT
ATOM      1  C   UNL     1       3.968  -4.357   0.809  1.00  0.00     0.000 C 
ENDROOT
BRANCH   1   2
ATOM      2  C   UNL     1       2.439  -4.288   0.952  1.00  0.00     0.006 C 
BRANCH   2   3
ATOM      3  C   UNL     1       1.972  -4.485   2.399  1.00  0.00     0.053 C 
BRANCH   3   4
ATOM      4  C   UNL     1       1.369  -5.842   2.573  1.00  0.00     0.041 C 
ATOM      5  O   UNL     1       0.646  -6.336   1.668  1.00  0.00    -0.550 OA
ATOM      6  O   UNL     1       1.646  -6.586   3.713  1.00  0.00    -0.550 OA
ENDBRANCH   3   4
ENDBRANCH   2   3
ENDBRANCH   1   2
BRANCH   1   7
ATOM      7  C   UNL     1       4.507  -3.401  -0.265  1.00  0.00     0.000 C 
BRANCH   7   8
ATOM      8  C   UNL     1       5.018  -2.099   0.363  1.00  0.00    -0.000 C 
BRANCH   8   9
ATOM      9  C   UNL     1       5.365  -1.066  -0.714  1.00  0.00    -0.003 C 
ATOM     10  C   UNL     1       5.701  -1.741  -2.039  1.00  0.00     0.004 C 
ENDBRANCH   8   9
ENDBRANCH   7   8
ENDBRANCH   1   7
TORSDOF 6
ENDMDL
MODEL 9
REMARK VINA RESULT:    -3.091      8.756      9.924
REMARK INTER + INTRA:          -4.464
REMARK INTER:                  -4.124
REMARK INTRA:                  -0.340
REMARK UNBOUND:                -0.289
REMARK SMILES CCCCCCCC(=O)[O-]
REMARK SMILES IDX 5 1 6 2 7 3 8 4 9 5 10 6 4 7 3 8 2 9 1 10
REMARK H PARENT
REMARK Flexibility Score: inf
ROOT
ATOM      1  C   UNL     1      -5.793  -2.665  -3.248  1.00  0.00     0.000 C 
ENDROOT
BRANCH   1   2
ATOM      2  C   UNL     1      -5.616  -1.307  -2.551  1.00  0.00     0.006 C 
BRANCH   2   3
ATOM      3  C   UNL     1      -4.410  -1.282  -1.605  1.00  0.00     0.053 C 
BRANCH   3   4
ATOM      4  C   UNL     1      -4.735  -0.511  -0.365  1.00  0.00     0.041 C 
ATOM      5  O   UNL     1      -4.300  -0.895   0.753  1.00  0.00    -0.550 OA
ATOM      6  O   UNL     1      -5.477   0.661  -0.448  1.00  0.00    -0.550 OA
ENDBRANCH   3   4
ENDBRANCH   2   3
ENDBRANCH   1   2
BRANCH   1   7
ATOM      7  C   UNL     1      -4.501  -3.495  -3.267  1.00  0.00     0.000 C 
BRANCH   7   8
ATOM      8  C   UNL     1      -4.053  -3.783  -4.704  1.00  0.00    -0.000 C 
BRANCH   8   9
ATOM      9  C   UNL     1      -2.576  -4.189  -4.750  1.00  0.00    -0.003 C 
ATOM     10  C   UNL     1      -1.877  -3.882  -3.430  1.00  0.00     0.004 C 
ENDBRANCH   8   9
ENDBRANCH   7   8
ENDBRANCH   1   7
TORSDOF 6
ENDMDL
