MODEL 1
REMARK VINA RESULT:    -1.342      0.000      0.000
REMARK INTER + INTRA:          -3.294
REMARK INTER:                  -2.519
REMARK INTRA:                  -0.775
REMARK UNBOUND:                -0.775
REMARK SMILES O=C([O-])CCCCCCCCCCCCCCC(=O)[O-]
REMARK SMILES IDX 10 1 9 2 8 3 7 4 6 5 5 6 4 7 2 8 1 9 3 10 11 11 12 12 13 13
REMARK SMILES IDX 14 14 15 15 16 16 17 17 18 18 19 19 20 20
REMARK H PARENT
REMARK Flexibility Score: inf
ROOT
ATOM      1  C   UNL     1      27.318  -0.368  42.629  1.00  0.00     0.000 C 
ENDROOT
BRANCH   1   2
ATOM      2  C   UNL     1      26.103   0.465  43.081  1.00  0.00     0.000 C 
BRANCH   2   3
ATOM      3  C   UNL     1      25.363   1.204  41.950  1.00  0.00     0.000 C 
BRANCH   3   4
ATOM      4  C   UNL     1      23.832   1.274  42.109  1.00  0.00     0.000 C 
BRANCH   4   5
ATOM      5  C   UNL     1      23.153   2.275  41.150  1.00  0.00     0.000 C 
BRANCH   5   6
ATOM      6  C   UNL     1      22.012   1.633  40.342  1.00  0.00     0.006 C 
BRANCH   6   7
ATOM      7  C   UNL     1      20.911   1.060  41.244  1.00  0.00     0.053 C 
BRANCH   7   8
ATOM      8  C   UNL     1      19.618   1.800  41.084  1.00  0.00     0.041 C 
ATOM      9  O   UNL     1      19.376   2.432  40.023  1.00  0.00    -0.550 OA
ATOM     10  O   UNL     1      18.666   1.762  42.095  1.00  0.00    -0.550 OA
ENDBRANCH   7   8
ENDBRANCH   6   7
ENDBRANCH   5   6
ENDBRANCH   4   5
ENDBRANCH   3   4
ENDBRANCH   2   3
ENDBRANCH   1   2
BRANCH   1  11
ATOM     11  C   UNL     1      28.373  -0.533  43.737  1.00  0.00     0.000 C 
BRANCH  11  12
ATOM     12  C   UNL     1      29.535  -1.448  43.312  1.00  0.00     0.000 C 
BRANCH  12  13
ATOM     13  C   UNL     1      29.928  -1.253  41.836  1.00  0.00     0.000 C 
BRANCH  13  14
ATOM     14  C   UNL     1      31.390  -0.803  41.669  1.00  0.00     0.000 C 
BRANCH  14  15
ATOM     15  C   UNL     1      31.793  -0.637  40.194  1.00  0.00     0.000 C 
BRANCH  15  16
ATOM     16  C   UNL     1      32.041   0.833  39.807  1.00  0.00     0.006 C 
BRANCH  16  17
ATOM     17  C   UNL     1      30.763   1.660  39.597  1.00  0.00     0.053 C 
BRANCH  17  18
ATOM     18  C   UNL     1      29.767   0.944  38.738  1.00  0.00     0.041 C 
ATOM     19  O   UNL     1      28.657   0.589  39.216  1.00  0.00    -0.550 OA
ATOM     20  O   UNL     1      30.051   0.698  37.400  1.00  0.00    -0.550 OA
ENDBRANCH  17  18
ENDBRANCH  16  17
ENDBRANCH  15  16
ENDBRANCH  14  15
ENDBRANCH  13  14
ENDBRANCH  12  13
ENDBRANCH  11  12
ENDBRANCH   1  11
TORSDOF 15
ENDMDL
MODEL 2
REMARK VINA RESULT:    -1.207     16.396     17.815
REMARK INTER + INTRA:          -3.040
REMARK INTER:                  -3.131
REMARK INTRA:                   0.090
REMARK UNBOUND:                -0.775
REMARK SMILES O=C([O-])CCCCCCCCCCCCCCC(=O)[O-]
REMARK SMILES IDX 10 1 9 2 8 3 7 4 6 5 5 6 4 7 2 8 1 9 3 10 11 11 12 12 13 13
REMARK SMILES IDX 14 14 15 15 16 16 17 17 18 18 19 19 20 20
REMARK H PARENT
REMARK Flexibility Score: inf
ROOT
ATOM      1  C   UNL     1      31.145  16.057  47.829  1.00  0.00     0.000 C 
ENDROOT
BRANCH   1   2
ATOM      2  C   UNL     1      31.551  17.023  48.959  1.00  0.00     0.000 C 
BRANCH   2   3
ATOM      3  C   UNL     1      30.399  17.862  49.544  1.00  0.00     0.000 C 
BRANCH   3   4
ATOM      4  C   UNL     1      29.228  17.046  50.125  1.00  0.00     0.000 C 
BRANCH   4   5
ATOM      5  C   UNL     1      27.840  17.646  49.816  1.00  0.00     0.000 C 
BRANCH   5   6
ATOM      6  C   UNL     1      27.718  18.122  48.358  1.00  0.00     0.006 C 
BRANCH   6   7
ATOM      7  C   UNL     1      28.050  17.012  47.353  1.00  0.00     0.053 C 
BRANCH   7   8
ATOM      8  C   UNL     1      28.653  17.559  46.097  1.00  0.00     0.041 C 
ATOM      9  O   UNL     1      29.778  18.124  46.126  1.00  0.00    -0.550 OA
ATOM     10  O   UNL     1      27.987  17.416  44.886  1.00  0.00    -0.550 OA
ENDBRANCH   7   8
ENDBRANCH   6   7
ENDBRANCH   5   6
ENDBRANCH   4   5
ENDBRANCH   3   4
ENDBRANCH   2   3
ENDBRANCH   1   2
BRANCH   1  11
ATOM     11  C   UNL     1      30.232  14.919  48.318  1.00  0.00     0.000 C 
BRANCH  11  12
ATOM     12  C   UNL     1      30.718  13.534  47.857  1.00  0.00     0.000 C 
BRANCH  12  13
ATOM     13  C   UNL     1      30.372  12.422  48.864  1.00  0.00     0.000 C 
BRANCH  13  14
ATOM     14  C   UNL     1      29.041  12.680  49.592  1.00  0.00     0.000 C 
BRANCH  14  15
ATOM     15  C   UNL     1      27.867  12.895  48.621  1.00  0.00     0.000 C 
BRANCH  15  16
ATOM     16  C   UNL     1      26.841  13.916  49.146  1.00  0.00     0.006 C 
BRANCH  16  17
ATOM     17  C   UNL     1      25.381  13.439  49.084  1.00  0.00     0.053 C 
BRANCH  17  18
ATOM     18  C   UNL     1      24.415  14.557  49.333  1.00  0.00     0.041 C 
ATOM     19  O   UNL     1      24.767  15.752  49.148  1.00  0.00    -0.550 OA
ATOM     20  O   UNL     1      23.116  14.277  49.739  1.00  0.00    -0.550 OA
ENDBRANCH  17  18
ENDBRANCH  16  17
ENDBRANCH  15  16
ENDBRANCH  14  15
ENDBRANCH  13  14
ENDBRANCH  12  13
ENDBRANCH  11  12
ENDBRANCH   1  11
TORSDOF 15
ENDMDL
MODEL 3
REMARK VINA RESULT:    -1.005      1.120      8.797
REMARK INTER + INTRA:          -2.661
REMARK INTER:                  -1.919
REMARK INTRA:                  -0.743
REMARK UNBOUND:                -0.775
REMARK SMILES O=C([O-])CCCCCCCCCCCCCCC(=O)[O-]
REMARK SMILES IDX 10 1 9 2 8 3 7 4 6 5 5 6 4 7 2 8 1 9 3 10 11 11 12 12 13 13
REMARK SMILES IDX 14 14 15 15 16 16 17 17 18 18 19 19 20 20
REMARK H PARENT
REMARK Flexibility Score: inf
ROOT
ATOM      1  C   UNL     1      27.815  -0.194  43.723  1.00  0.00     0.000 C 
ENDROOT
BRANCH   1   2
ATOM      2  C   UNL     1      28.428  -1.601  43.854  1.00  0.00     0.000 C 
BRANCH   2   3
ATOM      3  C   UNL     1      29.966  -1.651  43.792  1.00  0.00     0.000 C 
BRANCH   3   4
ATOM      4  C   UNL     1      30.616  -0.608  42.860  1.00  0.00     0.000 C 
BRANCH   4   5
ATOM      5  C   UNL     1      30.559  -0.990  41.366  1.00  0.00     0.000 C 
BRANCH   5   6
ATOM      6  C   UNL     1      31.853  -0.627  40.618  1.00  0.00     0.006 C 
BRANCH   6   7
ATOM      7  C   UNL     1      31.576   0.050  39.270  1.00  0.00     0.053 C 
BRANCH   7   8
ATOM      8  C   UNL     1      30.724   1.272  39.424  1.00  0.00     0.041 C 
ATOM      9  O   UNL     1      31.184   2.299  39.987  1.00  0.00    -0.550 OA
ATOM     10  O   UNL     1      29.430   1.286  38.916  1.00  0.00    -0.550 OA
ENDBRANCH   7   8
ENDBRANCH   6   7
ENDBRANCH   5   6
ENDBRANCH   4   5
ENDBRANCH   3   4
ENDBRANCH   2   3
ENDBRANCH   1   2
BRANCH   1  11
ATOM     11  C   UNL     1      26.757  -0.105  42.609  1.00  0.00     0.000 C 
BRANCH  11  12
ATOM     12  C   UNL     1      25.659   0.927  42.921  1.00  0.00     0.000 C 
BRANCH  12  13
ATOM     13  C   UNL     1      24.541   0.936  41.862  1.00  0.00     0.000 C 
BRANCH  13  14
ATOM     14  C   UNL     1      23.796   2.280  41.803  1.00  0.00     0.000 C 
BRANCH  14  15
ATOM     15  C   UNL     1      22.773   2.339  40.655  1.00  0.00     0.000 C 
BRANCH  15  16
ATOM     16  C   UNL     1      21.744   1.195  40.716  1.00  0.00     0.006 C 
BRANCH  16  17
ATOM     17  C   UNL     1      20.557   1.355  39.754  1.00  0.00     0.053 C 
BRANCH  17  18
ATOM     18  C   UNL     1      19.439   2.141  40.368  1.00  0.00     0.041 C 
ATOM     19  O   UNL     1      19.202   2.047  41.602  1.00  0.00    -0.550 OA
ATOM     20  O   UNL     1      18.680   3.001  39.585  1.00  0.00    -0.550 OA
ENDBRANCH  17  18
ENDBRANCH  16  17
ENDBRANCH  15  16
ENDBRANCH  14  15
ENDBRANCH  13  14
ENDBRANCH  12  13
ENDBRANCH  11  12
ENDBRANCH   1  11
TORSDOF 15
ENDMDL
MODEL 4
REMARK VINA RESULT:    -0.688     15.960     17.138
REMARK INTER + INTRA:          -2.066
REMARK INTER:                  -2.577
REMARK INTRA:                   0.511
REMARK UNBOUND:                -0.775
REMARK SMILES O=C([O-])CCCCCCCCCCCCCCC(=O)[O-]
REMARK SMILES IDX 10 1 9 2 8 3 7 4 6 5 5 6 4 7 2 8 1 9 3 10 11 11 12 12 13 13
REMARK SMILES IDX 14 14 15 15 16 16 17 17 18 18 19 19 20 20
REMARK H PARENT
REMARK Flexibility Score: inf
ROOT
ATOM      1  C   UNL     1      31.045  16.405  47.571  1.00  0.00     0.000 C 
ENDROOT
BRANCH   1   2
ATOM      2  C   UNL     1      30.365  17.673  48.122  1.00  0.00     0.000 C 
BRANCH   2   3
ATOM      3  C   UNL     1      28.949  17.943  47.576  1.00  0.00     0.000 C 
BRANCH   3   4
ATOM      4  C   UNL     1      27.818  17.838  48.617  1.00  0.00     0.000 C 
BRANCH   4   5
ATOM      5  C   UNL     1      26.415  18.125  48.041  1.00  0.00     0.000 C 
BRANCH   5   6
ATOM      6  C   UNL     1      25.421  16.985  48.321  1.00  0.00     0.006 C 
BRANCH   6   7
ATOM      7  C   UNL     1      25.022  16.912  49.801  1.00  0.00     0.053 C 
BRANCH   7   8
ATOM      8  C   UNL     1      23.598  16.481  49.974  1.00  0.00     0.041 C 
ATOM      9  O   UNL     1      23.308  15.258  50.036  1.00  0.00    -0.550 OA
ATOM     10  O   UNL     1      22.594  17.434  50.100  1.00  0.00    -0.550 OA
ENDBRANCH   7   8
ENDBRANCH   6   7
ENDBRANCH   5   6
ENDBRANCH   4   5
ENDBRANCH   3   4
ENDBRANCH   2   3
ENDBRANCH   1   2
BRANCH   1  11
ATOM     11  C   UNL     1      30.366  15.109  48.048  1.00  0.00     0.000 C 
BRANCH  11  12
ATOM     12  C   UNL     1      31.380  13.993  48.356  1.00  0.00     0.000 C 
BRANCH  12  13
ATOM     13  C   UNL     1      30.761  12.845  49.174  1.00  0.00     0.000 C 
BRANCH  13  14
ATOM     14  C   UNL     1      29.611  13.319  50.080  1.00  0.00     0.000 C 
BRANCH  14  15
ATOM     15  C   UNL     1      28.554  14.136  49.316  1.00  0.00     0.000 C 
BRANCH  15  16
ATOM     16  C   UNL     1      27.114  13.704  49.648  1.00  0.00     0.006 C 
BRANCH  16  17
ATOM     17  C   UNL     1      26.757  12.280  49.193  1.00  0.00     0.053 C 
BRANCH  17  18
ATOM     18  C   UNL     1      25.279  12.036  49.224  1.00  0.00     0.041 C 
ATOM     19  O   UNL     1      24.832  10.884  49.471  1.00  0.00    -0.550 OA
ATOM     20  O   UNL     1      24.395  13.087  49.013  1.00  0.00    -0.550 OA
ENDBRANCH  17  18
ENDBRANCH  16  17
ENDBRANCH  15  16
ENDBRANCH  14  15
ENDBRANCH  13  14
ENDBRANCH  12  13
ENDBRANCH  11  12
ENDBRANCH   1  11
TORSDOF 15
ENDMDL
MODEL 5
REMARK VINA RESULT:    -0.516      7.312     11.649
REMARK INTER + INTRA:          -1.744
REMARK INTER:                  -1.101
REMARK INTRA:                  -0.643
REMARK UNBOUND:                -0.775
REMARK SMILES O=C([O-])CCCCCCCCCCCCCCC(=O)[O-]
REMARK SMILES IDX 10 1 9 2 8 3 7 4 6 5 5 6 4 7 2 8 1 9 3 10 11 11 12 12 13 13
REMARK SMILES IDX 14 14 15 15 16 16 17 17 18 18 19 19 20 20
REMARK H PARENT
REMARK Flexibility Score: inf
ROOT
ATOM      1  C   UNL     1      18.595  -0.772  43.052  1.00  0.00     0.000 C 
ENDROOT
BRANCH   1   2
ATOM      2  C   UNL     1      20.057  -0.772  42.567  1.00  0.00     0.000 C 
BRANCH   2   3
ATOM      3  C   UNL     1      20.238  -0.926  41.044  1.00  0.00     0.000 C 
BRANCH   3   4
ATOM      4  C   UNL     1      21.457  -0.190  40.454  1.00  0.00     0.000 C 
BRANCH   4   5
ATOM      5  C   UNL     1      21.620   1.254  40.972  1.00  0.00     0.000 C 
BRANCH   5   6
ATOM      6  C   UNL     1      20.275   1.991  41.091  1.00  0.00     0.006 C 
BRANCH   6   7
ATOM      7  C   UNL     1      19.715   2.405  39.724  1.00  0.00     0.053 C 
BRANCH   7   8
ATOM      8  C   UNL     1      18.228   2.572  39.758  1.00  0.00     0.041 C 
ATOM      9  O   UNL     1      17.541   1.965  40.621  1.00  0.00    -0.550 OA
ATOM     10  O   UNL     1      17.602   3.424  38.856  1.00  0.00    -0.550 OA
ENDBRANCH   7   8
ENDBRANCH   6   7
ENDBRANCH   5   6
ENDBRANCH   4   5
ENDBRANCH   3   4
ENDBRANCH   2   3
ENDBRANCH   1   2
BRANCH   1  11
ATOM     11  C   UNL     1      17.893  -2.123  42.832  1.00  0.00     0.000 C 
BRANCH  11  12
ATOM     12  C   UNL     1      16.422  -2.102  43.281  1.00  0.00     0.000 C 
BRANCH  12  13
ATOM     13  C   UNL     1      15.442  -2.125  42.094  1.00  0.00     0.000 C 
BRANCH  13  14
ATOM     14  C   UNL     1      15.148  -0.718  41.545  1.00  0.00     0.000 C 
BRANCH  14  15
ATOM     15  C   UNL     1      13.847  -0.663  40.725  1.00  0.00     0.000 C 
BRANCH  15  16
ATOM     16  C   UNL     1      13.414  -2.046  40.204  1.00  0.00     0.006 C 
BRANCH  16  17
ATOM     17  C   UNL     1      12.754  -2.024  38.816  1.00  0.00     0.053 C 
BRANCH  17  18
ATOM     18  C   UNL     1      13.758  -1.842  37.720  1.00  0.00     0.041 C 
ATOM     19  O   UNL     1      14.983  -1.734  37.994  1.00  0.00    -0.550 OA
ATOM     20  O   UNL     1      13.345  -1.824  36.393  1.00  0.00    -0.550 OA
ENDBRANCH  17  18
ENDBRANCH  16  17
ENDBRANCH  15  16
ENDBRANCH  14  15
ENDBRANCH  13  14
ENDBRANCH  12  13
ENDBRANCH  11  12
ENDBRANCH   1  11
TORSDOF 15
ENDMDL
MODEL 6
REMARK VINA RESULT:    -0.141      2.435      3.965
REMARK INTER + INTRA:          -1.039
REMARK INTER:                   0.175
REMARK INTRA:                  -1.214
REMARK UNBOUND:                -0.775
REMARK SMILES O=C([O-])CCCCCCCCCCCCCCC(=O)[O-]
REMARK SMILES IDX 10 1 9 2 8 3 7 4 6 5 5 6 4 7 2 8 1 9 3 10 11 11 12 12 13 13
REMARK SMILES IDX 14 14 15 15 16 16 17 17 18 18 19 19 20 20
REMARK H PARENT
REMARK Flexibility Score: inf
ROOT
ATOM      1  C   UNL     1      28.372  -1.133  39.559  1.00  0.00     0.000 C 
ENDROOT
BRANCH   1   2
ATOM      2  C   UNL     1      27.555  -1.321  40.852  1.00  0.00     0.000 C 
BRANCH   2   3
ATOM      3  C   UNL     1      27.450  -0.069  41.744  1.00  0.00     0.000 C 
BRANCH   3   4
ATOM      4  C   UNL     1      26.134   0.059  42.537  1.00  0.00     0.000 C 
BRANCH   4   5
ATOM      5  C   UNL     1      25.258   1.250  42.097  1.00  0.00     0.000 C 
BRANCH   5   6
ATOM      6  C   UNL     1      23.762   0.895  42.059  1.00  0.00     0.006 C 
BRANCH   6   7
ATOM      7  C   UNL     1      22.960   1.850  41.163  1.00  0.00     0.053 C 
BRANCH   7   8
ATOM      8  C   UNL     1      21.649   1.257  40.749  1.00  0.00     0.041 C 
ATOM      9  O   UNL     1      20.594   1.941  40.817  1.00  0.00    -0.550 OA
ATOM     10  O   UNL     1      21.596  -0.042  40.257  1.00  0.00    -0.550 OA
ENDBRANCH   7   8
ENDBRANCH   6   7
ENDBRANCH   5   6
ENDBRANCH   4   5
ENDBRANCH   3   4
ENDBRANCH   2   3
ENDBRANCH   1   2
BRANCH   1  11
ATOM     11  C   UNL     1      28.758   0.335  39.306  1.00  0.00     0.000 C 
BRANCH  11  12
ATOM     12  C   UNL     1      29.976   0.470  38.375  1.00  0.00     0.000 C 
BRANCH  12  13
ATOM     13  C   UNL     1      31.237   0.945  39.120  1.00  0.00     0.000 C 
BRANCH  13  14
ATOM     14  C   UNL     1      31.122   0.773  40.645  1.00  0.00     0.000 C 
BRANCH  14  15
ATOM     15  C   UNL     1      31.657  -0.586  41.129  1.00  0.00     0.000 C 
BRANCH  15  16
ATOM     16  C   UNL     1      30.767  -1.225  42.211  1.00  0.00     0.006 C 
BRANCH  16  17
ATOM     17  C   UNL     1      30.353  -0.267  43.340  1.00  0.00     0.053 C 
BRANCH  17  18
ATOM     18  C   UNL     1      29.889  -1.005  44.558  1.00  0.00     0.041 C 
ATOM     19  O   UNL     1      28.826  -1.679  44.525  1.00  0.00    -0.550 OA
ATOM     20  O   UNL     1      30.648  -0.975  45.722  1.00  0.00    -0.550 OA
ENDBRANCH  17  18
ENDBRANCH  16  17
ENDBRANCH  15  16
ENDBRANCH  14  15
ENDBRANCH  13  14
ENDBRANCH  12  13
ENDBRANCH  11  12
ENDBRANCH   1  11
TORSDOF 15
ENDMDL
MODEL 7
REMARK VINA RESULT:     0.086      2.170      3.805
REMARK INTER + INTRA:          -0.613
REMARK INTER:                   0.251
REMARK INTRA:                  -0.864
REMARK UNBOUND:                -0.775
REMARK SMILES O=C([O-])CCCCCCCCCCCCCCC(=O)[O-]
REMARK SMILES IDX 10 1 9 2 8 3 7 4 6 5 5 6 4 7 2 8 1 9 3 10 11 11 12 12 13 13
REMARK SMILES IDX 14 14 15 15 16 16 17 17 18 18 19 19 20 20
REMARK H PARENT
REMARK Flexibility Score: inf
ROOT
ATOM      1  C   UNL     1      27.902   2.458  38.475  1.00  0.00     0.000 C 
ENDROOT
BRANCH   1   2
ATOM      2  C   UNL     1      26.429   2.493  38.926  1.00  0.00     0.000 C 
BRANCH   2   3
ATOM      3  C   UNL     1      25.733   3.859  38.775  1.00  0.00     0.000 C 
BRANCH   3   4
ATOM      4  C   UNL     1      24.276   3.908  39.276  1.00  0.00     0.000 C 
BRANCH   4   5
ATOM      5  C   UNL     1      23.930   2.796  40.289  1.00  0.00     0.000 C 
BRANCH   5   6
ATOM      6  C   UNL     1      22.429   2.752  40.622  1.00  0.00     0.006 C 
BRANCH   6   7
ATOM      7  C   UNL     1      21.812   1.374  40.346  1.00  0.00     0.053 C 
BRANCH   7   8
ATOM      8  C   UNL     1      20.595   1.130  41.184  1.00  0.00     0.041 C 
ATOM      9  O   UNL     1      20.556   0.151  41.974  1.00  0.00    -0.550 OA
ATOM     10  O   UNL     1      19.517   2.004  41.116  1.00  0.00    -0.550 OA
ENDBRANCH   7   8
ENDBRANCH   6   7
ENDBRANCH   5   6
ENDBRANCH   4   5
ENDBRANCH   3   4
ENDBRANCH   2   3
ENDBRANCH   1   2
BRANCH   1  11
ATOM     11  C   UNL     1      28.605   1.137  38.833  1.00  0.00     0.000 C 
BRANCH  11  12
ATOM     12  C   UNL     1      29.575   0.671  37.734  1.00  0.00     0.000 C 
BRANCH  12  13
ATOM     13  C   UNL     1      31.049   0.783  38.164  1.00  0.00     0.000 C 
BRANCH  13  14
ATOM     14  C   UNL     1      31.205   1.086  39.664  1.00  0.00     0.000 C 
BRANCH  14  15
ATOM     15  C   UNL     1      31.748  -0.116  40.457  1.00  0.00     0.000 C 
BRANCH  15  16
ATOM     16  C   UNL     1      30.638  -1.090  40.894  1.00  0.00     0.006 C 
BRANCH  16  17
ATOM     17  C   UNL     1      30.352  -1.092  42.404  1.00  0.00     0.053 C 
BRANCH  17  18
ATOM     18  C   UNL     1      28.883  -1.093  42.696  1.00  0.00     0.041 C 
ATOM     19  O   UNL     1      28.049  -1.057  41.753  1.00  0.00    -0.550 OA
ATOM     20  O   UNL     1      28.435  -1.168  44.009  1.00  0.00    -0.550 OA
ENDBRANCH  17  18
ENDBRANCH  16  17
ENDBRANCH  15  16
ENDBRANCH  14  15
ENDBRANCH  13  14
ENDBRANCH  12  13
ENDBRANCH  11  12
ENDBRANCH   1  11
TORSDOF 15
ENDMDL
MODEL 8
REMARK VINA RESULT:     0.216      2.732      9.000
REMARK INTER + INTRA:          -0.369
REMARK INTER:                   0.365
REMARK INTRA:                  -0.734
REMARK UNBOUND:                -0.775
REMARK SMILES O=C([O-])CCCCCCCCCCCCCCC(=O)[O-]
REMARK SMILES IDX 10 1 9 2 8 3 7 4 6 5 5 6 4 7 2 8 1 9 3 10 11 11 12 12 13 13
REMARK SMILES IDX 14 14 15 15 16 16 17 17 18 18 19 19 20 20
REMARK H PARENT
REMARK Flexibility Score: inf
ROOT
ATOM      1  C   UNL     1      27.913   2.522  38.726  1.00  0.00     0.000 C 
ENDROOT
BRANCH   1   2
ATOM      2  C   UNL     1      28.536   1.117  38.619  1.00  0.00     0.000 C 
BRANCH   2   3
ATOM      3  C   UNL     1      29.945   0.981  39.228  1.00  0.00     0.000 C 
BRANCH   3   4
ATOM      4  C   UNL     1      30.100  -0.145  40.269  1.00  0.00     0.000 C 
BRANCH   4   5
ATOM      5  C   UNL     1      28.760  -0.772  40.709  1.00  0.00     0.000 C 
BRANCH   5   6
ATOM      6  C   UNL     1      28.902  -1.629  41.978  1.00  0.00     0.006 C 
BRANCH   6   7
ATOM      7  C   UNL     1      30.071  -1.171  42.862  1.00  0.00     0.053 C 
BRANCH   7   8
ATOM      8  C   UNL     1      29.758  -1.316  44.319  1.00  0.00     0.041 C 
ATOM      9  O   UNL     1      28.663  -1.817  44.686  1.00  0.00    -0.550 OA
ATOM     10  O   UNL     1      30.692  -0.928  45.273  1.00  0.00    -0.550 OA
ENDBRANCH   7   8
ENDBRANCH   6   7
ENDBRANCH   5   6
ENDBRANCH   4   5
ENDBRANCH   3   4
ENDBRANCH   2   3
ENDBRANCH   1   2
BRANCH   1  11
ATOM     11  C   UNL     1      26.378   2.488  38.828  1.00  0.00     0.000 C 
BRANCH  11  12
ATOM     12  C   UNL     1      25.757   3.895  38.834  1.00  0.00     0.000 C 
BRANCH  12  13
ATOM     13  C   UNL     1      24.275   3.884  39.251  1.00  0.00     0.000 C 
BRANCH  13  14
ATOM     14  C   UNL     1      23.975   2.833  40.334  1.00  0.00     0.000 C 
BRANCH  14  15
ATOM     15  C   UNL     1      22.489   2.798  40.729  1.00  0.00     0.000 C 
BRANCH  15  16
ATOM     16  C   UNL     1      21.887   1.382  40.656  1.00  0.00     0.006 C 
BRANCH  16  17
ATOM     17  C   UNL     1      20.609   1.278  39.810  1.00  0.00     0.053 C 
BRANCH  17  18
ATOM     18  C   UNL     1      19.473   2.045  40.413  1.00  0.00     0.041 C 
ATOM     19  O   UNL     1      18.676   2.683  39.675  1.00  0.00    -0.550 OA
ATOM     20  O   UNL     1      19.274   2.028  41.788  1.00  0.00    -0.550 OA
ENDBRANCH  17  18
ENDBRANCH  16  17
ENDBRANCH  15  16
ENDBRANCH  14  15
ENDBRANCH  13  14
ENDBRANCH  12  13
ENDBRANCH  11  12
ENDBRANCH   1  11
TORSDOF 15
ENDMDL
MODEL 9
REMARK VINA RESULT:     0.281      2.199      8.627
REMARK INTER + INTRA:          -0.248
REMARK INTER:                   0.545
REMARK INTRA:                  -0.793
REMARK UNBOUND:                -0.775
REMARK SMILES O=C([O-])CCCCCCCCCCCCCCC(=O)[O-]
REMARK SMILES IDX 10 1 9 2 8 3 7 4 6 5 5 6 4 7 2 8 1 9 3 10 11 11 12 12 13 13
REMARK SMILES IDX 14 14 15 15 16 16 17 17 18 18 19 19 20 20
REMARK H PARENT
REMARK Flexibility Score: inf
ROOT
ATOM      1  C   UNL     1      28.456   0.974  38.905  1.00  0.00     0.000 C 
ENDROOT
BRANCH   1   2
ATOM      2  C   UNL     1      29.483   0.492  37.862  1.00  0.00     0.000 C 
BRANCH   2   3
ATOM      3  C   UNL     1      30.941   0.904  38.145  1.00  0.00     0.000 C 
BRANCH   3   4
ATOM      4  C   UNL     1      31.276   1.141  39.630  1.00  0.00     0.000 C 
BRANCH   4   5
ATOM      5  C   UNL     1      31.797  -0.116  40.357  1.00  0.00     0.000 C 
BRANCH   5   6
ATOM      6  C   UNL     1      30.658  -0.994  40.903  1.00  0.00     0.006 C 
BRANCH   6   7
ATOM      7  C   UNL     1      30.583  -0.963  42.435  1.00  0.00     0.053 C 
BRANCH   7   8
ATOM      8  C   UNL     1      29.182  -0.758  42.921  1.00  0.00     0.041 C 
ATOM      9  O   UNL     1      28.949  -0.629  44.152  1.00  0.00    -0.550 OA
ATOM     10  O   UNL     1      28.135  -0.676  42.011  1.00  0.00    -0.550 OA
ENDBRANCH   7   8
ENDBRANCH   6   7
ENDBRANCH   5   6
ENDBRANCH   4   5
ENDBRANCH   3   4
ENDBRANCH   2   3
ENDBRANCH   1   2
BRANCH   1  11
ATOM     11  C   UNL     1      27.910   2.380  38.599  1.00  0.00     0.000 C 
BRANCH  11  12
ATOM     12  C   UNL     1      26.374   2.438  38.645  1.00  0.00     0.000 C 
BRANCH  12  13
ATOM     13  C   UNL     1      25.846   3.854  38.937  1.00  0.00     0.000 C 
BRANCH  13  14
ATOM     14  C   UNL     1      24.332   3.875  39.214  1.00  0.00     0.000 C 
BRANCH  14  15
ATOM     15  C   UNL     1      23.922   2.895  40.327  1.00  0.00     0.000 C 
BRANCH  15  16
ATOM     16  C   UNL     1      22.395   2.727  40.438  1.00  0.00     0.006 C 
BRANCH  16  17
ATOM     17  C   UNL     1      21.912   1.268  40.412  1.00  0.00     0.053 C 
BRANCH  17  18
ATOM     18  C   UNL     1      20.667   1.075  41.222  1.00  0.00     0.041 C 
ATOM     19  O   UNL     1      19.733   1.917  41.158  1.00  0.00    -0.550 OA
ATOM     20  O   UNL     1      20.525  -0.052  42.022  1.00  0.00    -0.550 OA
ENDBRANCH  17  18
ENDBRANCH  16  17
ENDBRANCH  15  16
ENDBRANCH  14  15
ENDBRANCH  13  14
ENDBRANCH  12  13
ENDBRANCH  11  12
ENDBRANCH   1  11
TORSDOF 15
ENDMDL
