MODEL 1
REMARK VINA RESULT:    -3.266      0.000      0.000
REMARK INTER + INTRA:          -3.857
REMARK INTER:                  -3.838
REMARK INTRA:                  -0.018
REMARK UNBOUND:                -0.018
REMARK SMILES CCCCC(=O)[O-]
REMARK SMILES IDX 4 1 5 2 6 3 7 4 3 5 2 6 1 7
REMARK H PARENT
REMARK Flexibility Score: inf
ROOT
ATOM      1  C   UNL     1       7.013  -2.916  -5.268  1.00  0.00     0.053 C 
ENDROOT
BRANCH   1   2
ATOM      2  C   UNL     1       6.708  -4.380  -5.233  1.00  0.00     0.041 C 
ATOM      3  O   UNL     1       6.087  -4.922  -6.185  1.00  0.00    -0.550 OA
ATOM      4  O   UNL     1       7.154  -5.158  -4.172  1.00  0.00    -0.550 OA
ENDBRANCH   1   2
BRANCH   1   5
ATOM      5  C   UNL     1       5.844  -2.142  -5.891  1.00  0.00     0.006 C 
BRANCH   5   6
ATOM      6  C   UNL     1       5.892  -0.641  -5.568  1.00  0.00    -0.003 C 
ATOM      7  C   UNL     1       4.501  -0.022  -5.426  1.00  0.00     0.004 C 
ENDBRANCH   5   6
ENDBRANCH   1   5
TORSDOF 3
ENDMDL
MODEL 2
REMARK VINA RESULT:    -3.265      3.325      4.451
REMARK INTER + INTRA:          -3.856
REMARK INTER:                  -3.840
REMARK INTRA:                  -0.016
REMARK UNBOUND:                -0.018
REMARK SMILES CCCCC(=O)[O-]
REMARK SMILES IDX 4 1 5 2 6 3 7 4 3 5 2 6 1 7
REMARK H PARENT
REMARK Flexibility Score: inf
ROOT
ATOM      1  C   UNL     1       5.263  -1.002  -5.655  1.00  0.00     0.053 C 
ENDROOT
BRANCH   1   2
ATOM      2  C   UNL     1       5.846   0.333  -5.316  1.00  0.00     0.041 C 
ATOM      3  O   UNL     1       6.736   0.841  -6.048  1.00  0.00    -0.550 OA
ATOM      4  O   UNL     1       5.373   1.040  -4.217  1.00  0.00    -0.550 OA
ENDBRANCH   1   2
BRANCH   1   5
ATOM      5  C   UNL     1       6.357  -2.078  -5.660  1.00  0.00     0.006 C 
BRANCH   5   6
ATOM      6  C   UNL     1       5.783  -3.503  -5.643  1.00  0.00    -0.003 C 
ATOM      7  C   UNL     1       6.684  -4.494  -4.905  1.00  0.00     0.004 C 
ENDBRANCH   5   6
ENDBRANCH   1   5
TORSDOF 3
ENDMDL
MODEL 3
REMARK VINA RESULT:    -3.237      0.885      1.456
REMARK INTER + INTRA:          -3.823
REMARK INTER:                  -3.807
REMARK INTRA:                  -0.016
REMARK UNBOUND:                -0.018
REMARK SMILES CCCCC(=O)[O-]
REMARK SMILES IDX 4 1 5 2 6 3 7 4 3 5 2 6 1 7
REMARK H PARENT
REMARK Flexibility Score: inf
ROOT
ATOM      1  C   UNL     1       5.767  -3.736  -5.588  1.00  0.00     0.053 C 
ENDROOT
BRANCH   1   2
ATOM      2  C   UNL     1       6.755  -4.814  -5.276  1.00  0.00     0.041 C 
ATOM      3  O   UNL     1       7.181  -4.964  -4.100  1.00  0.00    -0.550 OA
ATOM      4  O   UNL     1       7.170  -5.687  -6.275  1.00  0.00    -0.550 OA
ENDBRANCH   1   2
BRANCH   1   5
ATOM      5  C   UNL     1       6.460  -2.367  -5.619  1.00  0.00     0.006 C 
BRANCH   5   6
ATOM      6  C   UNL     1       5.578  -1.275  -6.243  1.00  0.00    -0.003 C 
ATOM      7  C   UNL     1       5.252  -0.148  -5.262  1.00  0.00     0.004 C 
ENDBRANCH   5   6
ENDBRANCH   1   5
TORSDOF 3
ENDMDL
MODEL 4
REMARK VINA RESULT:    -3.202      1.206      1.879
REMARK INTER + INTRA:          -3.782
REMARK INTER:                  -3.752
REMARK INTRA:                  -0.030
REMARK UNBOUND:                -0.018
REMARK SMILES CCCCC(=O)[O-]
REMARK SMILES IDX 4 1 5 2 6 3 7 4 3 5 2 6 1 7
REMARK H PARENT
REMARK Flexibility Score: inf
ROOT
ATOM      1  C   UNL     1       5.852  -1.898  -6.384  1.00  0.00     0.053 C 
ENDROOT
BRANCH   1   2
ATOM      2  C   UNL     1       6.236  -3.072  -5.540  1.00  0.00     0.041 C 
ATOM      3  O   UNL     1       7.383  -3.132  -5.022  1.00  0.00    -0.550 OA
ATOM      4  O   UNL     1       5.312  -4.077  -5.285  1.00  0.00    -0.550 OA
ENDBRANCH   1   2
BRANCH   1   5
ATOM      5  C   UNL     1       5.909  -0.605  -5.560  1.00  0.00     0.006 C 
BRANCH   5   6
ATOM      6  C   UNL     1       4.519   0.006  -5.325  1.00  0.00    -0.003 C 
ATOM      7  C   UNL     1       4.106   0.978  -6.430  1.00  0.00     0.004 C 
ENDBRANCH   5   6
ENDBRANCH   1   5
TORSDOF 3
ENDMDL
MODEL 5
REMARK VINA RESULT:    -2.990      1.942      2.665
REMARK INTER + INTRA:          -3.532
REMARK INTER:                  -3.473
REMARK INTRA:                  -0.059
REMARK UNBOUND:                -0.018
REMARK SMILES CCCCC(=O)[O-]
REMARK SMILES IDX 4 1 5 2 6 3 7 4 3 5 2 6 1 7
REMARK H PARENT
REMARK Flexibility Score: inf
ROOT
ATOM      1  C   UNL     1       6.044  -0.352  -5.433  1.00  0.00     0.053 C 
ENDROOT
BRANCH   1   2
ATOM      2  C   UNL     1       6.339  -1.740  -5.906  1.00  0.00     0.041 C 
ATOM      3  O   UNL     1       5.793  -2.185  -6.950  1.00  0.00    -0.550 OA
ATOM      4  O   UNL     1       7.256  -2.528  -5.221  1.00  0.00    -0.550 OA
ENDBRANCH   1   2
BRANCH   1   5
ATOM      5  C   UNL     1       4.528  -0.129  -5.342  1.00  0.00     0.006 C 
BRANCH   5   6
ATOM      6  C   UNL     1       4.011   0.848  -6.408  1.00  0.00    -0.003 C 
ATOM      7  C   UNL     1       4.739   2.192  -6.382  1.00  0.00     0.004 C 
ENDBRANCH   5   6
ENDBRANCH   1   5
TORSDOF 3
ENDMDL
MODEL 6
REMARK VINA RESULT:    -2.956      4.031      5.138
REMARK INTER + INTRA:          -3.493
REMARK INTER:                  -3.423
REMARK INTRA:                  -0.070
REMARK UNBOUND:                -0.018
REMARK SMILES CCCCC(=O)[O-]
REMARK SMILES IDX 4 1 5 2 6 3 7 4 3 5 2 6 1 7
REMARK H PARENT
REMARK Flexibility Score: inf
ROOT
ATOM      1  C   UNL     1       5.380   0.762  -4.892  1.00  0.00     0.053 C 
ENDROOT
BRANCH   1   2
ATOM      2  C   UNL     1       5.452   1.751  -6.012  1.00  0.00     0.041 C 
ATOM      3  O   UNL     1       4.417   2.366  -6.383  1.00  0.00    -0.550 OA
ATOM      4  O   UNL     1       6.672   2.033  -6.613  1.00  0.00    -0.550 OA
ENDBRANCH   1   2
BRANCH   1   5
ATOM      5  C   UNL     1       4.727  -0.542  -5.372  1.00  0.00     0.006 C 
BRANCH   5   6
ATOM      6  C   UNL     1       5.633  -1.339  -6.322  1.00  0.00    -0.003 C 
ATOM      7  C   UNL     1       5.931  -2.749  -5.809  1.00  0.00     0.004 C 
ENDBRANCH   5   6
ENDBRANCH   1   5
TORSDOF 3
ENDMDL
MODEL 7
REMARK VINA RESULT:    -2.902     11.356     12.289
REMARK INTER + INTRA:          -3.429
REMARK INTER:                  -3.397
REMARK INTRA:                  -0.031
REMARK UNBOUND:                -0.018
REMARK SMILES CCCCC(=O)[O-]
REMARK SMILES IDX 4 1 5 2 6 3 7 4 3 5 2 6 1 7
REMARK H PARENT
REMARK Flexibility Score: inf
ROOT
ATOM      1  C   UNL     1      -0.020  -9.533   2.823  1.00  0.00     0.053 C 
ENDROOT
BRANCH   1   2
ATOM      2  C   UNL     1      -1.082  -8.491   2.664  1.00  0.00     0.041 C 
ATOM      3  O   UNL     1      -0.870  -7.473   1.953  1.00  0.00    -0.550 OA
ATOM      4  O   UNL     1      -2.324  -8.667   3.260  1.00  0.00    -0.550 OA
ENDBRANCH   1   2
BRANCH   1   5
ATOM      5  C   UNL     1       1.337  -8.990   2.356  1.00  0.00     0.006 C 
BRANCH   5   6
ATOM      6  C   UNL     1       2.517  -9.629   3.104  1.00  0.00    -0.003 C 
ATOM      7  C   UNL     1       2.877  -8.881   4.388  1.00  0.00     0.004 C 
ENDBRANCH   5   6
ENDBRANCH   1   5
TORSDOF 3
ENDMDL
MODEL 8
REMARK VINA RESULT:    -2.853     11.494     12.379
REMARK INTER + INTRA:          -3.371
REMARK INTER:                  -3.350
REMARK INTRA:                  -0.021
REMARK UNBOUND:                -0.018
REMARK SMILES CCCCC(=O)[O-]
REMARK SMILES IDX 4 1 5 2 6 3 7 4 3 5 2 6 1 7
REMARK H PARENT
REMARK Flexibility Score: inf
ROOT
ATOM      1  C   UNL     1       5.177   9.343  -1.445  1.00  0.00     0.053 C 
ENDROOT
BRANCH   1   2
ATOM      2  C   UNL     1       5.155   8.561  -0.170  1.00  0.00     0.041 C 
ATOM      3  O   UNL     1       4.281   8.799   0.705  1.00  0.00    -0.550 OA
ATOM      4  O   UNL     1       6.070   7.535   0.032  1.00  0.00    -0.550 OA
ENDBRANCH   1   2
BRANCH   1   5
ATOM      5  C   UNL     1       5.914   8.561  -2.540  1.00  0.00     0.006 C 
BRANCH   5   6
ATOM      6  C   UNL     1       5.547   9.037  -3.954  1.00  0.00    -0.003 C 
ATOM      7  C   UNL     1       4.470   8.170  -4.608  1.00  0.00     0.004 C 
ENDBRANCH   5   6
ENDBRANCH   1   5
TORSDOF 3
ENDMDL
MODEL 9
REMARK VINA RESULT:    -2.778      3.575      4.352
REMARK INTER + INTRA:          -3.283
REMARK INTER:                  -3.189
REMARK INTRA:                  -0.094
REMARK UNBOUND:                -0.018
REMARK SMILES CCCCC(=O)[O-]
REMARK SMILES IDX 4 1 5 2 6 3 7 4 3 5 2 6 1 7
REMARK H PARENT
REMARK Flexibility Score: inf
ROOT
ATOM      1  C   UNL     1       5.132  -0.753  -5.687  1.00  0.00     0.053 C 
ENDROOT
BRANCH   1   2
ATOM      2  C   UNL     1       5.773   0.536  -5.280  1.00  0.00     0.041 C 
ATOM      3  O   UNL     1       6.614   1.093  -6.034  1.00  0.00    -0.550 OA
ATOM      4  O   UNL     1       5.405   1.149  -4.089  1.00  0.00    -0.550 OA
ENDBRANCH   1   2
BRANCH   1   5
ATOM      5  C   UNL     1       6.176  -1.877  -5.738  1.00  0.00     0.006 C 
BRANCH   5   6
ATOM      6  C   UNL     1       6.074  -2.718  -7.019  1.00  0.00    -0.003 C 
ATOM      7  C   UNL     1       5.797  -1.872  -8.262  1.00  0.00     0.004 C 
ENDBRANCH   5   6
ENDBRANCH   1   5
TORSDOF 3
ENDMDL
