MODEL 1
REMARK VINA RESULT:    -3.051      0.000      0.000
REMARK INTER + INTRA:          -5.799
REMARK INTER:                  -4.656
REMARK INTRA:                  -1.143
REMARK UNBOUND:                -1.143
REMARK SMILES CCCCCCCCCCC(=O)[O-]
REMARK SMILES IDX 7 1 8 2 9 3 10 4 11 5 12 6 13 7 6 8 5 9 4 10 3 11 2 12 1 13
REMARK H PARENT
REMARK Flexibility Score: inf
ROOT
ATOM      1  C   UNL     1      10.417   8.100  31.527  1.00  0.00     0.000 C 
ENDROOT
BRANCH   1   2
ATOM      2  C   UNL     1       8.886   8.230  31.628  1.00  0.00     0.000 C 
BRANCH   2   3
ATOM      3  C   UNL     1       8.087   7.190  30.819  1.00  0.00     0.006 C 
BRANCH   3   4
ATOM      4  C   UNL     1       8.280   5.737  31.281  1.00  0.00     0.053 C 
BRANCH   4   5
ATOM      5  C   UNL     1       8.978   4.907  30.248  1.00  0.00     0.041 C 
ATOM      6  O   UNL     1       9.075   3.661  30.396  1.00  0.00    -0.550 OA
ATOM      7  O   UNL     1       9.492   5.507  29.105  1.00  0.00    -0.550 OA
ENDBRANCH   4   5
ENDBRANCH   3   4
ENDBRANCH   2   3
ENDBRANCH   1   2
BRANCH   1   8
ATOM      8  C   UNL     1      11.127   8.311  32.873  1.00  0.00     0.000 C 
BRANCH   8   9
ATOM      9  C   UNL     1      10.494   7.446  33.970  1.00  0.00    -0.000 C 
BRANCH   9  10
ATOM     10  C   UNL     1      10.939   5.984  33.844  1.00  0.00    -0.000 C 
BRANCH  10  11
ATOM     11  C   UNL     1      12.471   5.874  33.847  1.00  0.00    -0.000 C 
BRANCH  11  12
ATOM     12  C   UNL     1      12.990   4.824  32.854  1.00  0.00    -0.003 C 
ATOM     13  C   UNL     1      12.528   5.087  31.421  1.00  0.00     0.004 C 
ENDBRANCH  11  12
ENDBRANCH  10  11
ENDBRANCH   9  10
ENDBRANCH   8   9
ENDBRANCH   1   8
TORSDOF 9
ENDMDL
MODEL 2
REMARK VINA RESULT:    -2.945      1.506      2.362
REMARK INTER + INTRA:          -5.638
REMARK INTER:                  -4.545
REMARK INTRA:                  -1.093
REMARK UNBOUND:                -1.143
REMARK SMILES CCCCCCCCCCC(=O)[O-]
REMARK SMILES IDX 7 1 8 2 9 3 10 4 11 5 12 6 13 7 6 8 5 9 4 10 3 11 2 12 1 13
REMARK H PARENT
REMARK Flexibility Score: inf
ROOT
ATOM      1  C   UNL     1       8.611   7.909  31.203  1.00  0.00     0.000 C 
ENDROOT
BRANCH   1   2
ATOM      2  C   UNL     1       7.917   6.569  30.893  1.00  0.00     0.000 C 
BRANCH   2   3
ATOM      3  C   UNL     1       8.573   5.331  31.536  1.00  0.00     0.006 C 
BRANCH   3   4
ATOM      4  C   UNL     1       9.279   4.395  30.543  1.00  0.00     0.053 C 
BRANCH   4   5
ATOM      5  C   UNL     1       9.143   2.955  30.934  1.00  0.00     0.041 C 
ATOM      6  O   UNL     1       8.876   2.085  30.064  1.00  0.00    -0.550 OA
ATOM      7  O   UNL     1       9.345   2.571  32.254  1.00  0.00    -0.550 OA
ENDBRANCH   4   5
ENDBRANCH   3   4
ENDBRANCH   2   3
ENDBRANCH   1   2
BRANCH   1   8
ATOM      8  C   UNL     1      10.143   7.803  31.210  1.00  0.00     0.000 C 
BRANCH   8   9
ATOM      9  C   UNL     1      10.735   8.485  32.449  1.00  0.00    -0.000 C 
BRANCH   9  10
ATOM     10  C   UNL     1      10.846   7.500  33.620  1.00  0.00    -0.000 C 
BRANCH  10  11
ATOM     11  C   UNL     1      11.819   6.360  33.288  1.00  0.00    -0.000 C 
BRANCH  11  12
ATOM     12  C   UNL     1      11.432   5.036  33.964  1.00  0.00    -0.003 C 
ATOM     13  C   UNL     1      10.218   5.176  34.883  1.00  0.00     0.004 C 
ENDBRANCH  11  12
ENDBRANCH  10  11
ENDBRANCH   9  10
ENDBRANCH   8   9
ENDBRANCH   1   8
TORSDOF 9
ENDMDL
MODEL 3
REMARK VINA RESULT:    -2.942     10.142     11.329
REMARK INTER + INTRA:          -5.634
REMARK INTER:                  -5.006
REMARK INTRA:                  -0.628
REMARK UNBOUND:                -1.143
REMARK SMILES CCCCCCCCCCC(=O)[O-]
REMARK SMILES IDX 7 1 8 2 9 3 10 4 11 5 12 6 13 7 6 8 5 9 4 10 3 11 2 12 1 13
REMARK H PARENT
REMARK Flexibility Score: inf
ROOT
ATOM      1  C   UNL     1      19.695   8.970  38.525  1.00  0.00     0.000 C 
ENDROOT
BRANCH   1   2
ATOM      2  C   UNL     1      20.857   9.421  37.620  1.00  0.00     0.000 C 
BRANCH   2   3
ATOM      3  C   UNL     1      20.466   9.732  36.162  1.00  0.00     0.006 C 
BRANCH   3   4
ATOM      4  C   UNL     1      19.774   8.575  35.425  1.00  0.00     0.053 C 
BRANCH   4   5
ATOM      5  C   UNL     1      20.760   7.593  34.871  1.00  0.00     0.041 C 
ATOM      6  O   UNL     1      21.017   6.532  35.497  1.00  0.00    -0.550 OA
ATOM      7  O   UNL     1      21.368   7.835  33.646  1.00  0.00    -0.550 OA
ENDBRANCH   4   5
ENDBRANCH   3   4
ENDBRANCH   2   3
ENDBRANCH   1   2
BRANCH   1   8
ATOM      8  C   UNL     1      18.515   9.953  38.519  1.00  0.00     0.000 C 
BRANCH   8   9
ATOM      9  C   UNL     1      17.208   9.241  38.151  1.00  0.00    -0.000 C 
BRANCH   9  10
ATOM     10  C   UNL     1      16.002   9.933  38.799  1.00  0.00    -0.000 C 
BRANCH  10  11
ATOM     11  C   UNL     1      16.222  10.119  40.308  1.00  0.00    -0.000 C 
BRANCH  11  12
ATOM     12  C   UNL     1      15.977   8.829  41.104  1.00  0.00    -0.003 C 
ATOM     13  C   UNL     1      14.519   8.374  41.060  1.00  0.00     0.004 C 
ENDBRANCH  11  12
ENDBRANCH  10  11
ENDBRANCH   9  10
ENDBRANCH   8   9
ENDBRANCH   1   8
TORSDOF 9
ENDMDL
MODEL 4
REMARK VINA RESULT:    -2.911      2.553      4.483
REMARK INTER + INTRA:          -5.585
REMARK INTER:                  -4.441
REMARK INTRA:                  -1.144
REMARK UNBOUND:                -1.143
REMARK SMILES CCCCCCCCCCC(=O)[O-]
REMARK SMILES IDX 7 1 8 2 9 3 10 4 11 5 12 6 13 7 6 8 5 9 4 10 3 11 2 12 1 13
REMARK H PARENT
REMARK Flexibility Score: inf
ROOT
ATOM      1  C   UNL     1       9.753   8.258  32.372  1.00  0.00     0.000 C 
ENDROOT
BRANCH   1   2
ATOM      2  C   UNL     1      10.773   7.683  33.372  1.00  0.00     0.000 C 
BRANCH   2   3
ATOM      3  C   UNL     1      11.657   6.546  32.823  1.00  0.00     0.006 C 
BRANCH   3   4
ATOM      4  C   UNL     1      12.231   5.608  33.897  1.00  0.00     0.053 C 
BRANCH   4   5
ATOM      5  C   UNL     1      13.577   5.074  33.514  1.00  0.00     0.041 C 
ATOM      6  O   UNL     1      14.405   4.748  34.405  1.00  0.00    -0.550 OA
ATOM      7  O   UNL     1      13.903   4.906  32.175  1.00  0.00    -0.550 OA
ENDBRANCH   4   5
ENDBRANCH   3   4
ENDBRANCH   2   3
ENDBRANCH   1   2
BRANCH   1   8
ATOM      8  C   UNL     1      10.066   7.883  30.916  1.00  0.00     0.000 C 
BRANCH   8   9
ATOM      9  C   UNL     1       8.779   7.768  30.089  1.00  0.00    -0.000 C 
BRANCH   9  10
ATOM     10  C   UNL     1       8.099   6.412  30.316  1.00  0.00    -0.000 C 
BRANCH  10  11
ATOM     11  C   UNL     1       9.035   5.257  29.935  1.00  0.00    -0.000 C 
BRANCH  11  12
ATOM     12  C   UNL     1       9.192   4.226  31.063  1.00  0.00    -0.003 C 
ATOM     13  C   UNL     1       8.491   4.652  32.353  1.00  0.00     0.004 C 
ENDBRANCH  11  12
ENDBRANCH  10  11
ENDBRANCH   9  10
ENDBRANCH   8   9
ENDBRANCH   1   8
TORSDOF 9
ENDMDL
MODEL 5
REMARK VINA RESULT:    -2.887      1.511      2.457
REMARK INTER + INTRA:          -5.549
REMARK INTER:                  -4.305
REMARK INTRA:                  -1.244
REMARK UNBOUND:                -1.143
REMARK SMILES CCCCCCCCCCC(=O)[O-]
REMARK SMILES IDX 7 1 8 2 9 3 10 4 11 5 12 6 13 7 6 8 5 9 4 10 3 11 2 12 1 13
REMARK H PARENT
REMARK Flexibility Score: inf
ROOT
ATOM      1  C   UNL     1       8.554   7.401  30.793  1.00  0.00     0.000 C 
ENDROOT
BRANCH   1   2
ATOM      2  C   UNL     1       8.404   5.917  31.179  1.00  0.00     0.000 C 
BRANCH   2   3
ATOM      3  C   UNL     1       8.890   4.914  30.114  1.00  0.00     0.006 C 
BRANCH   3   4
ATOM      4  C   UNL     1      10.305   4.365  30.353  1.00  0.00     0.053 C 
BRANCH   4   5
ATOM      5  C   UNL     1      11.290   4.899  29.359  1.00  0.00     0.041 C 
ATOM      6  O   UNL     1      11.736   4.154  28.447  1.00  0.00    -0.550 OA
ATOM      7  O   UNL     1      11.688   6.228  29.420  1.00  0.00    -0.550 OA
ENDBRANCH   4   5
ENDBRANCH   3   4
ENDBRANCH   2   3
ENDBRANCH   1   2
BRANCH   1   8
ATOM      8  C   UNL     1       9.041   8.276  31.957  1.00  0.00     0.000 C 
BRANCH   8   9
ATOM      9  C   UNL     1      10.573   8.298  32.024  1.00  0.00    -0.000 C 
BRANCH   9  10
ATOM     10  C   UNL     1      11.075   7.703  33.346  1.00  0.00    -0.000 C 
BRANCH  10  11
ATOM     11  C   UNL     1      11.865   6.409  33.101  1.00  0.00    -0.000 C 
BRANCH  11  12
ATOM     12  C   UNL     1      11.604   5.345  34.177  1.00  0.00    -0.003 C 
ATOM     13  C   UNL     1      10.121   5.004  34.324  1.00  0.00     0.004 C 
ENDBRANCH  11  12
ENDBRANCH  10  11
ENDBRANCH   9  10
ENDBRANCH   8   9
ENDBRANCH   1   8
TORSDOF 9
ENDMDL
MODEL 6
REMARK VINA RESULT:    -2.883      1.805      3.453
REMARK INTER + INTRA:          -5.542
REMARK INTER:                  -4.355
REMARK INTRA:                  -1.187
REMARK UNBOUND:                -1.143
REMARK SMILES CCCCCCCCCCC(=O)[O-]
REMARK SMILES IDX 7 1 8 2 9 3 10 4 11 5 12 6 13 7 6 8 5 9 4 10 3 11 2 12 1 13
REMARK H PARENT
REMARK Flexibility Score: inf
ROOT
ATOM      1  C   UNL     1      11.892   6.197  33.671  1.00  0.00     0.000 C 
ENDROOT
BRANCH   1   2
ATOM      2  C   UNL     1      10.785   7.265  33.747  1.00  0.00     0.000 C 
BRANCH   2   3
ATOM      3  C   UNL     1      10.734   8.239  32.553  1.00  0.00     0.006 C 
BRANCH   3   4
ATOM      4  C   UNL     1       9.396   8.254  31.797  1.00  0.00     0.053 C 
BRANCH   4   5
ATOM      5  C   UNL     1       9.561   7.875  30.358  1.00  0.00     0.041 C 
ATOM      6  O   UNL     1      10.712   7.759  29.861  1.00  0.00    -0.550 OA
ATOM      7  O   UNL     1       8.443   7.617  29.574  1.00  0.00    -0.550 OA
ENDBRANCH   4   5
ENDBRANCH   3   4
ENDBRANCH   2   3
ENDBRANCH   1   2
BRANCH   1   8
ATOM      8  C   UNL     1      11.580   4.951  34.513  1.00  0.00     0.000 C 
BRANCH   8   9
ATOM      9  C   UNL     1      10.071   4.809  34.748  1.00  0.00    -0.000 C 
BRANCH   9  10
ATOM     10  C   UNL     1       9.536   3.515  34.125  1.00  0.00    -0.000 C 
BRANCH  10  11
ATOM     11  C   UNL     1       8.297   3.792  33.261  1.00  0.00    -0.000 C 
BRANCH  11  12
ATOM     12  C   UNL     1       8.586   4.769  32.111  1.00  0.00    -0.003 C 
ATOM     13  C   UNL     1       9.543   4.190  31.070  1.00  0.00     0.004 C 
ENDBRANCH  11  12
ENDBRANCH  10  11
ENDBRANCH   9  10
ENDBRANCH   8   9
ENDBRANCH   1   8
TORSDOF 9
ENDMDL
MODEL 7
REMARK VINA RESULT:    -2.877      2.478      4.382
REMARK INTER + INTRA:          -5.534
REMARK INTER:                  -4.412
REMARK INTRA:                  -1.122
REMARK UNBOUND:                -1.143
REMARK SMILES CCCCCCCCCCC(=O)[O-]
REMARK SMILES IDX 7 1 8 2 9 3 10 4 11 5 12 6 13 7 6 8 5 9 4 10 3 11 2 12 1 13
REMARK H PARENT
REMARK Flexibility Score: inf
ROOT
ATOM      1  C   UNL     1      10.803   7.446  33.660  1.00  0.00     0.000 C 
ENDROOT
BRANCH   1   2
ATOM      2  C   UNL     1      11.824   6.310  33.462  1.00  0.00     0.000 C 
BRANCH   2   3
ATOM      3  C   UNL     1      11.237   4.886  33.522  1.00  0.00     0.006 C 
BRANCH   3   4
ATOM      4  C   UNL     1       9.710   4.832  33.685  1.00  0.00     0.053 C 
BRANCH   4   5
ATOM      5  C   UNL     1       9.307   4.269  35.013  1.00  0.00     0.041 C 
ATOM      6  O   UNL     1       9.263   5.012  36.029  1.00  0.00    -0.550 OA
ATOM      7  O   UNL     1       8.949   2.931  35.122  1.00  0.00    -0.550 OA
ENDBRANCH   4   5
ENDBRANCH   3   4
ENDBRANCH   2   3
ENDBRANCH   1   2
BRANCH   1   8
ATOM      8  C   UNL     1      10.841   8.489  32.533  1.00  0.00     0.000 C 
BRANCH   8   9
ATOM      9  C   UNL     1      10.161   7.954  31.267  1.00  0.00    -0.000 C 
BRANCH   9  10
ATOM     10  C   UNL     1       8.635   8.063  31.373  1.00  0.00    -0.000 C 
BRANCH  10  11
ATOM     11  C   UNL     1       7.959   6.757  30.930  1.00  0.00    -0.000 C 
BRANCH  11  12
ATOM     12  C   UNL     1       8.677   6.093  29.745  1.00  0.00    -0.003 C 
ATOM     13  C   UNL     1       9.021   4.627  30.009  1.00  0.00     0.004 C 
ENDBRANCH  11  12
ENDBRANCH  10  11
ENDBRANCH   9  10
ENDBRANCH   8   9
ENDBRANCH   1   8
TORSDOF 9
ENDMDL
MODEL 8
REMARK VINA RESULT:    -2.857      1.721      2.892
REMARK INTER + INTRA:          -5.503
REMARK INTER:                  -4.253
REMARK INTRA:                  -1.251
REMARK UNBOUND:                -1.143
REMARK SMILES CCCCCCCCCCC(=O)[O-]
REMARK SMILES IDX 7 1 8 2 9 3 10 4 11 5 12 6 13 7 6 8 5 9 4 10 3 11 2 12 1 13
REMARK H PARENT
REMARK Flexibility Score: inf
ROOT
ATOM      1  C   UNL     1       9.228   7.079  29.858  1.00  0.00     0.000 C 
ENDROOT
BRANCH   1   2
ATOM      2  C   UNL     1       8.567   5.705  29.642  1.00  0.00     0.000 C 
BRANCH   2   3
ATOM      3  C   UNL     1       8.999   4.609  30.637  1.00  0.00     0.006 C 
BRANCH   3   4
ATOM      4  C   UNL     1       8.487   4.812  32.072  1.00  0.00     0.053 C 
BRANCH   4   5
ATOM      5  C   UNL     1       8.776   3.629  32.944  1.00  0.00     0.041 C 
ATOM      6  O   UNL     1       7.875   3.153  33.684  1.00  0.00    -0.550 OA
ATOM      7  O   UNL     1      10.029   3.031  32.913  1.00  0.00    -0.550 OA
ENDBRANCH   4   5
ENDBRANCH   3   4
ENDBRANCH   2   3
ENDBRANCH   1   2
BRANCH   1   8
ATOM      8  C   UNL     1       8.324   8.067  30.611  1.00  0.00     0.000 C 
BRANCH   8   9
ATOM      9  C   UNL     1       8.986   8.535  31.913  1.00  0.00    -0.000 C 
BRANCH   9  10
ATOM     10  C   UNL     1      10.451   8.087  31.977  1.00  0.00    -0.000 C 
BRANCH  10  11
ATOM     11  C   UNL     1      10.865   7.769  33.422  1.00  0.00    -0.000 C 
BRANCH  11  12
ATOM     12  C   UNL     1      11.599   6.424  33.543  1.00  0.00    -0.003 C 
ATOM     13  C   UNL     1      12.066   5.882  32.193  1.00  0.00     0.004 C 
ENDBRANCH  11  12
ENDBRANCH  10  11
ENDBRANCH   9  10
ENDBRANCH   8   9
ENDBRANCH   1   8
TORSDOF 9
ENDMDL
