MODEL 1
REMARK VINA RESULT:    -4.343      0.000      0.000
REMARK INTER + INTRA:          -7.840
REMARK INTER:                  -7.390
REMARK INTRA:                  -0.450
REMARK UNBOUND:                -0.450
REMARK SMILES CCCCCCCCCCCCCC(=O)[O-]
REMARK SMILES IDX 8 1 9 2 10 3 11 4 12 5 13 6 14 7 15 8 16 9 7 10 6 11 5 12
REMARK SMILES IDX 4 13 3 14 2 15 1 16
REMARK H PARENT
REMARK Flexibility Score: inf
ROOT
ATOM      1  C   UNL     1      37.337  30.636  28.262  1.00  0.00     0.000 C 
ENDROOT
BRANCH   1   2
ATOM      2  C   UNL     1      37.612  32.148  28.245  1.00  0.00     0.000 C 
BRANCH   2   3
ATOM      3  C   UNL     1      38.911  32.522  28.978  1.00  0.00     0.000 C 
BRANCH   3   4
ATOM      4  C   UNL     1      39.754  31.294  29.363  1.00  0.00     0.000 C 
BRANCH   4   5
ATOM      5  C   UNL     1      41.134  31.652  29.955  1.00  0.00     0.006 C 
BRANCH   5   6
ATOM      6  C   UNL     1      41.539  33.100  29.646  1.00  0.00     0.053 C 
BRANCH   6   7
ATOM      7  C   UNL     1      42.977  33.164  29.238  1.00  0.00     0.041 C 
ATOM      8  O   UNL     1      43.652  32.107  29.127  1.00  0.00    -0.550 OA
ATOM      9  O   UNL     1      43.560  34.387  28.934  1.00  0.00    -0.550 OA
ENDBRANCH   6   7
ENDBRANCH   5   6
ENDBRANCH   4   5
ENDBRANCH   3   4
ENDBRANCH   2   3
ENDBRANCH   1   2
BRANCH   1  10
ATOM     10  C   UNL     1      36.489  30.204  29.467  1.00  0.00     0.000 C 
BRANCH  10  11
ATOM     11  C   UNL     1      35.901  28.802  29.250  1.00  0.00    -0.000 C 
BRANCH  11  12
ATOM     12  C   UNL     1      34.477  28.841  28.674  1.00  0.00    -0.000 C 
BRANCH  12  13
ATOM     13  C   UNL     1      33.723  27.512  28.866  1.00  0.00    -0.000 C 
BRANCH  13  14
ATOM     14  C   UNL     1      32.197  27.689  28.843  1.00  0.00    -0.000 C 
BRANCH  14  15
ATOM     15  C   UNL     1      31.508  26.727  27.864  1.00  0.00    -0.003 C 
ATOM     16  C   UNL     1      32.483  26.241  26.795  1.00  0.00     0.004 C 
ENDBRANCH  14  15
ENDBRANCH  13  14
ENDBRANCH  12  13
ENDBRANCH  11  12
ENDBRANCH  10  11
ENDBRANCH   1  10
TORSDOF 12
ENDMDL
MODEL 2
REMARK VINA RESULT:    -4.066     13.407     14.373
REMARK INTER + INTRA:          -7.369
REMARK INTER:                  -6.678
REMARK INTRA:                  -0.691
REMARK UNBOUND:                -0.450
REMARK SMILES CCCCCCCCCCCCCC(=O)[O-]
REMARK SMILES IDX 8 1 9 2 10 3 11 4 12 5 13 6 14 7 15 8 16 9 7 10 6 11 5 12
REMARK SMILES IDX 4 13 3 14 2 15 1 16
REMARK H PARENT
REMARK Flexibility Score: inf
ROOT
ATOM      1  C   UNL     1      43.022  23.719  16.998  1.00  0.00     0.000 C 
ENDROOT
BRANCH   1   2
ATOM      2  C   UNL     1      42.809  25.137  17.553  1.00  0.00     0.000 C 
BRANCH   2   3
ATOM      3  C   UNL     1      41.538  25.803  17.002  1.00  0.00     0.000 C 
BRANCH   3   4
ATOM      4  C   UNL     1      41.588  27.339  17.078  1.00  0.00     0.000 C 
BRANCH   4   5
ATOM      5  C   UNL     1      41.313  27.896  18.491  1.00  0.00     0.006 C 
BRANCH   5   6
ATOM      6  C   UNL     1      40.351  27.007  19.290  1.00  0.00     0.053 C 
BRANCH   6   7
ATOM      7  C   UNL     1      40.867  26.793  20.677  1.00  0.00     0.041 C 
ATOM      8  O   UNL     1      41.925  27.362  21.055  1.00  0.00    -0.550 OA
ATOM      9  O   UNL     1      40.154  26.004  21.571  1.00  0.00    -0.550 OA
ENDBRANCH   6   7
ENDBRANCH   5   6
ENDBRANCH   4   5
ENDBRANCH   3   4
ENDBRANCH   2   3
ENDBRANCH   1   2
BRANCH   1  10
ATOM     10  C   UNL     1      44.507  23.332  16.923  1.00  0.00     0.000 C 
BRANCH  10  11
ATOM     11  C   UNL     1      44.736  21.923  17.486  1.00  0.00    -0.000 C 
BRANCH  11  12
ATOM     12  C   UNL     1      43.697  20.909  16.983  1.00  0.00    -0.000 C 
BRANCH  12  13
ATOM     13  C   UNL     1      42.955  20.201  18.132  1.00  0.00    -0.000 C 
BRANCH  13  14
ATOM     14  C   UNL     1      41.691  19.469  17.657  1.00  0.00    -0.000 C 
BRANCH  14  15
ATOM     15  C   UNL     1      41.552  19.467  16.127  1.00  0.00    -0.003 C 
ATOM     16  C   UNL     1      40.918  18.167  15.636  1.00  0.00     0.004 C 
ENDBRANCH  14  15
ENDBRANCH  13  14
ENDBRANCH  12  13
ENDBRANCH  11  12
ENDBRANCH  10  11
ENDBRANCH   1  10
TORSDOF 12
ENDMDL
MODEL 3
REMARK VINA RESULT:    -4.055     12.296     14.727
REMARK INTER + INTRA:          -7.350
REMARK INTER:                  -6.752
REMARK INTRA:                  -0.599
REMARK UNBOUND:                -0.450
REMARK SMILES CCCCCCCCCCCCCC(=O)[O-]
REMARK SMILES IDX 8 1 9 2 10 3 11 4 12 5 13 6 14 7 15 8 16 9 7 10 6 11 5 12
REMARK SMILES IDX 4 13 3 14 2 15 1 16
REMARK H PARENT
REMARK Flexibility Score: inf
ROOT
ATOM      1  C   UNL     1      41.755  29.321  17.010  1.00  0.00     0.000 C 
ENDROOT
BRANCH   1   2
ATOM      2  C   UNL     1      41.866  27.789  16.999  1.00  0.00     0.000 C 
BRANCH   2   3
ATOM      3  C   UNL     1      40.493  27.096  17.003  1.00  0.00     0.000 C 
BRANCH   3   4
ATOM      4  C   UNL     1      40.040  26.677  18.412  1.00  0.00     0.000 C 
BRANCH   4   5
ATOM      5  C   UNL     1      41.194  26.599  19.434  1.00  0.00     0.006 C 
BRANCH   5   6
ATOM      6  C   UNL     1      41.022  27.604  20.581  1.00  0.00     0.053 C 
BRANCH   6   7
ATOM      7  C   UNL     1      40.582  26.903  21.828  1.00  0.00     0.041 C 
ATOM      8  O   UNL     1      40.709  27.464  22.948  1.00  0.00    -0.550 OA
ATOM      9  O   UNL     1      39.987  25.651  21.749  1.00  0.00    -0.550 OA
ENDBRANCH   6   7
ENDBRANCH   5   6
ENDBRANCH   4   5
ENDBRANCH   3   4
ENDBRANCH   2   3
ENDBRANCH   1   2
BRANCH   1  10
ATOM     10  C   UNL     1      42.552  29.980  15.873  1.00  0.00     0.000 C 
BRANCH  10  11
ATOM     11  C   UNL     1      42.886  31.439  16.211  1.00  0.00    -0.000 C 
BRANCH  11  12
ATOM     12  C   UNL     1      44.210  31.903  15.584  1.00  0.00    -0.000 C 
BRANCH  12  13
ATOM     13  C   UNL     1      45.432  31.178  16.176  1.00  0.00    -0.000 C 
BRANCH  13  14
ATOM     14  C   UNL     1      46.329  30.554  15.096  1.00  0.00    -0.000 C 
BRANCH  14  15
ATOM     15  C   UNL     1      47.684  30.089  15.652  1.00  0.00    -0.003 C 
ATOM     16  C   UNL     1      48.814  30.404  14.676  1.00  0.00     0.004 C 
ENDBRANCH  14  15
ENDBRANCH  13  14
ENDBRANCH  12  13
ENDBRANCH  11  12
ENDBRANCH  10  11
ENDBRANCH   1  10
TORSDOF 12
ENDMDL
MODEL 4
REMARK VINA RESULT:    -3.997     11.603     12.864
REMARK INTER + INTRA:          -7.251
REMARK INTER:                  -6.769
REMARK INTRA:                  -0.482
REMARK UNBOUND:                -0.450
REMARK SMILES CCCCCCCCCCCCCC(=O)[O-]
REMARK SMILES IDX 8 1 9 2 10 3 11 4 12 5 13 6 14 7 15 8 16 9 7 10 6 11 5 12
REMARK SMILES IDX 4 13 3 14 2 15 1 16
REMARK H PARENT
REMARK Flexibility Score: inf
ROOT
ATOM      1  C   UNL     1      38.024  26.244  16.191  1.00  0.00     0.000 C 
ENDROOT
BRANCH   1   2
ATOM      2  C   UNL     1      39.162  26.295  17.222  1.00  0.00     0.000 C 
BRANCH   2   3
ATOM      3  C   UNL     1      40.506  26.712  16.601  1.00  0.00     0.000 C 
BRANCH   3   4
ATOM      4  C   UNL     1      41.715  26.281  17.448  1.00  0.00     0.000 C 
BRANCH   4   5
ATOM      5  C   UNL     1      41.405  26.172  18.956  1.00  0.00     0.006 C 
BRANCH   5   6
ATOM      6  C   UNL     1      41.392  27.542  19.646  1.00  0.00     0.053 C 
BRANCH   6   7
ATOM      7  C   UNL     1      40.588  27.485  20.906  1.00  0.00     0.041 C 
ATOM      8  O   UNL     1      39.849  28.451  21.231  1.00  0.00    -0.550 OA
ATOM      9  O   UNL     1      40.616  26.344  21.698  1.00  0.00    -0.550 OA
ENDBRANCH   6   7
ENDBRANCH   5   6
ENDBRANCH   4   5
ENDBRANCH   3   4
ENDBRANCH   2   3
ENDBRANCH   1   2
BRANCH   1  10
ATOM     10  C   UNL     1      36.805  25.457  16.697  1.00  0.00     0.000 C 
BRANCH  10  11
ATOM     11  C   UNL     1      35.556  25.787  15.867  1.00  0.00    -0.000 C 
BRANCH  11  12
ATOM     12  C   UNL     1      35.051  27.219  16.102  1.00  0.00    -0.000 C 
BRANCH  12  13
ATOM     13  C   UNL     1      35.040  28.063  14.815  1.00  0.00    -0.000 C 
BRANCH  13  14
ATOM     14  C   UNL     1      34.939  29.570  15.097  1.00  0.00    -0.000 C 
BRANCH  14  15
ATOM     15  C   UNL     1      35.061  30.416  13.821  1.00  0.00    -0.003 C 
ATOM     16  C   UNL     1      33.851  31.333  13.654  1.00  0.00     0.004 C 
ENDBRANCH  14  15
ENDBRANCH  13  14
ENDBRANCH  12  13
ENDBRANCH  11  12
ENDBRANCH  10  11
ENDBRANCH   1  10
TORSDOF 12
ENDMDL
MODEL 5
REMARK VINA RESULT:    -3.904      1.514      2.666
REMARK INTER + INTRA:          -7.093
REMARK INTER:                  -6.430
REMARK INTRA:                  -0.663
REMARK UNBOUND:                -0.450
REMARK SMILES CCCCCCCCCCCCCC(=O)[O-]
REMARK SMILES IDX 8 1 9 2 10 3 11 4 12 5 13 6 14 7 15 8 16 9 7 10 6 11 5 12
REMARK SMILES IDX 4 13 3 14 2 15 1 16
REMARK H PARENT
REMARK Flexibility Score: inf
ROOT
ATOM      1  C   UNL     1      38.556  32.618  28.493  1.00  0.00     0.000 C 
ENDROOT
BRANCH   1   2
ATOM      2  C   UNL     1      39.619  32.719  29.599  1.00  0.00     0.000 C 
BRANCH   2   3
ATOM      3  C   UNL     1      40.586  31.524  29.602  1.00  0.00     0.000 C 
BRANCH   3   4
ATOM      4  C   UNL     1      42.062  31.951  29.691  1.00  0.00     0.000 C 
BRANCH   4   5
ATOM      5  C   UNL     1      42.254  33.460  29.950  1.00  0.00     0.006 C 
BRANCH   5   6
ATOM      6  C   UNL     1      43.731  33.872  29.914  1.00  0.00     0.053 C 
BRANCH   6   7
ATOM      7  C   UNL     1      43.891  35.185  29.216  1.00  0.00     0.041 C 
ATOM      8  O   UNL     1      43.999  36.248  29.881  1.00  0.00    -0.550 OA
ATOM      9  O   UNL     1      43.970  35.231  27.830  1.00  0.00    -0.550 OA
ENDBRANCH   6   7
ENDBRANCH   5   6
ENDBRANCH   4   5
ENDBRANCH   3   4
ENDBRANCH   2   3
ENDBRANCH   1   2
BRANCH   1  10
ATOM     10  C   UNL     1      37.999  31.194  28.339  1.00  0.00     0.000 C 
BRANCH  10  11
ATOM     11  C   UNL     1      37.084  30.833  29.517  1.00  0.00    -0.000 C 
BRANCH  11  12
ATOM     12  C   UNL     1      37.275  29.383  29.991  1.00  0.00    -0.000 C 
BRANCH  12  13
ATOM     13  C   UNL     1      36.192  28.434  29.446  1.00  0.00    -0.000 C 
BRANCH  13  14
ATOM     14  C   UNL     1      35.030  29.186  28.778  1.00  0.00    -0.000 C 
BRANCH  14  15
ATOM     15  C   UNL     1      33.667  28.821  29.386  1.00  0.00    -0.003 C 
ATOM     16  C   UNL     1      33.407  27.320  29.287  1.00  0.00     0.004 C 
ENDBRANCH  14  15
ENDBRANCH  13  14
ENDBRANCH  12  13
ENDBRANCH  11  12
ENDBRANCH  10  11
ENDBRANCH   1  10
TORSDOF 12
ENDMDL
MODEL 6
REMARK VINA RESULT:    -3.717     13.031     15.632
REMARK INTER + INTRA:          -6.775
REMARK INTER:                  -6.202
REMARK INTRA:                  -0.573
REMARK UNBOUND:                -0.450
REMARK SMILES CCCCCCCCCCCCCC(=O)[O-]
REMARK SMILES IDX 8 1 9 2 10 3 11 4 12 5 13 6 14 7 15 8 16 9 7 10 6 11 5 12
REMARK SMILES IDX 4 13 3 14 2 15 1 16
REMARK H PARENT
REMARK Flexibility Score: inf
ROOT
ATOM      1  C   UNL     1      41.342  26.987  16.602  1.00  0.00     0.000 C 
ENDROOT
BRANCH   1   2
ATOM      2  C   UNL     1      40.337  25.953  17.134  1.00  0.00     0.000 C 
BRANCH   2   3
ATOM      3  C   UNL     1      38.935  26.547  17.350  1.00  0.00     0.000 C 
BRANCH   3   4
ATOM      4  C   UNL     1      37.966  26.222  16.200  1.00  0.00     0.000 C 
BRANCH   4   5
ATOM      5  C   UNL     1      36.577  25.749  16.679  1.00  0.00     0.006 C 
BRANCH   5   6
ATOM      6  C   UNL     1      35.473  26.065  15.660  1.00  0.00     0.053 C 
BRANCH   6   7
ATOM      7  C   UNL     1      34.959  27.455  15.861  1.00  0.00     0.041 C 
ATOM      8  O   UNL     1      35.091  28.317  14.952  1.00  0.00    -0.550 OA
ATOM      9  O   UNL     1      34.291  27.788  17.032  1.00  0.00    -0.550 OA
ENDBRANCH   6   7
ENDBRANCH   5   6
ENDBRANCH   4   5
ENDBRANCH   3   4
ENDBRANCH   2   3
ENDBRANCH   1   2
BRANCH   1  10
ATOM     10  C   UNL     1      41.766  28.004  17.672  1.00  0.00     0.000 C 
BRANCH  10  11
ATOM     11  C   UNL     1      41.558  29.442  17.176  1.00  0.00    -0.000 C 
BRANCH  11  12
ATOM     12  C   UNL     1      42.613  29.869  16.143  1.00  0.00    -0.000 C 
BRANCH  12  13
ATOM     13  C   UNL     1      42.691  31.397  15.973  1.00  0.00    -0.000 C 
BRANCH  13  14
ATOM     14  C   UNL     1      44.060  31.865  15.455  1.00  0.00    -0.000 C 
BRANCH  14  15
ATOM     15  C   UNL     1      45.215  31.438  16.374  1.00  0.00    -0.003 C 
ATOM     16  C   UNL     1      46.318  30.742  15.581  1.00  0.00     0.004 C 
ENDBRANCH  14  15
ENDBRANCH  13  14
ENDBRANCH  12  13
ENDBRANCH  11  12
ENDBRANCH  10  11
ENDBRANCH   1  10
TORSDOF 12
ENDMDL
MODEL 7
REMARK VINA RESULT:    -3.695     12.424     13.126
REMARK INTER + INTRA:          -6.738
REMARK INTER:                  -6.158
REMARK INTRA:                  -0.580
REMARK UNBOUND:                -0.450
REMARK SMILES CCCCCCCCCCCCCC(=O)[O-]
REMARK SMILES IDX 8 1 9 2 10 3 11 4 12 5 13 6 14 7 15 8 16 9 7 10 6 11 5 12
REMARK SMILES IDX 4 13 3 14 2 15 1 16
REMARK H PARENT
REMARK Flexibility Score: inf
ROOT
ATOM      1  C   UNL     1      41.163  27.022  16.514  1.00  0.00     0.000 C 
ENDROOT
BRANCH   1   2
ATOM      2  C   UNL     1      41.820  27.946  17.551  1.00  0.00     0.000 C 
BRANCH   2   3
ATOM      3  C   UNL     1      41.619  29.436  17.229  1.00  0.00     0.000 C 
BRANCH   3   4
ATOM      4  C   UNL     1      42.545  29.934  16.105  1.00  0.00     0.000 C 
BRANCH   4   5
ATOM      5  C   UNL     1      42.848  31.445  16.179  1.00  0.00     0.006 C 
BRANCH   5   6
ATOM      6  C   UNL     1      44.079  31.832  15.349  1.00  0.00     0.053 C 
BRANCH   6   7
ATOM      7  C   UNL     1      45.335  31.516  16.097  1.00  0.00     0.041 C 
ATOM      8  O   UNL     1      45.497  31.941  17.270  1.00  0.00    -0.550 OA
ATOM      9  O   UNL     1      46.307  30.711  15.517  1.00  0.00    -0.550 OA
ENDBRANCH   6   7
ENDBRANCH   5   6
ENDBRANCH   4   5
ENDBRANCH   3   4
ENDBRANCH   2   3
ENDBRANCH   1   2
BRANCH   1  10
ATOM     10  C   UNL     1      40.260  25.959  17.158  1.00  0.00     0.000 C 
BRANCH  10  11
ATOM     11  C   UNL     1      38.842  26.504  17.380  1.00  0.00    -0.000 C 
BRANCH  11  12
ATOM     12  C   UNL     1      37.946  26.342  16.142  1.00  0.00    -0.000 C 
BRANCH  12  13
ATOM     13  C   UNL     1      36.713  25.461  16.414  1.00  0.00    -0.000 C 
BRANCH  13  14
ATOM     14  C   UNL     1      35.450  25.978  15.707  1.00  0.00    -0.000 C 
BRANCH  14  15
ATOM     15  C   UNL     1      35.070  27.400  16.148  1.00  0.00    -0.003 C 
ATOM     16  C   UNL     1      35.058  28.357  14.958  1.00  0.00     0.004 C 
ENDBRANCH  14  15
ENDBRANCH  13  14
ENDBRANCH  12  13
ENDBRANCH  11  12
ENDBRANCH  10  11
ENDBRANCH   1  10
TORSDOF 12
ENDMDL
MODEL 8
REMARK VINA RESULT:    -3.460     13.635     14.643
REMARK INTER + INTRA:          -6.337
REMARK INTER:                  -5.856
REMARK INTRA:                  -0.482
REMARK UNBOUND:                -0.450
REMARK SMILES CCCCCCCCCCCCCC(=O)[O-]
REMARK SMILES IDX 8 1 9 2 10 3 11 4 12 5 13 6 14 7 15 8 16 9 7 10 6 11 5 12
REMARK SMILES IDX 4 13 3 14 2 15 1 16
REMARK H PARENT
REMARK Flexibility Score: inf
ROOT
ATOM      1  C   UNL     1      41.729  26.764  17.562  1.00  0.00     0.000 C 
ENDROOT
BRANCH   1   2
ATOM      2  C   UNL     1      42.041  25.376  16.980  1.00  0.00     0.000 C 
BRANCH   2   3
ATOM      3  C   UNL     1      43.244  24.704  17.663  1.00  0.00     0.000 C 
BRANCH   3   4
ATOM      4  C   UNL     1      43.890  23.611  16.795  1.00  0.00     0.000 C 
BRANCH   4   5
ATOM      5  C   UNL     1      44.422  22.411  17.608  1.00  0.00     0.006 C 
BRANCH   5   6
ATOM      6  C   UNL     1      44.221  21.078  16.875  1.00  0.00     0.053 C 
BRANCH   6   7
ATOM      7  C   UNL     1      43.123  20.290  17.515  1.00  0.00     0.041 C 
ATOM      8  O   UNL     1      43.144  20.063  18.753  1.00  0.00    -0.550 OA
ATOM      9  O   UNL     1      42.051  19.846  16.752  1.00  0.00    -0.550 OA
ENDBRANCH   6   7
ENDBRANCH   5   6
ENDBRANCH   4   5
ENDBRANCH   3   4
ENDBRANCH   2   3
ENDBRANCH   1   2
BRANCH   1  10
ATOM     10  C   UNL     1      40.380  27.317  17.077  1.00  0.00     0.000 C 
BRANCH  10  11
ATOM     11  C   UNL     1      39.251  26.307  17.326  1.00  0.00    -0.000 C 
BRANCH  11  12
ATOM     12  C   UNL     1      38.200  26.307  16.205  1.00  0.00    -0.000 C 
BRANCH  12  13
ATOM     13  C   UNL     1      36.900  25.589  16.612  1.00  0.00    -0.000 C 
BRANCH  13  14
ATOM     14  C   UNL     1      35.719  25.940  15.695  1.00  0.00    -0.000 C 
BRANCH  14  15
ATOM     15  C   UNL     1      35.017  27.242  16.111  1.00  0.00    -0.003 C 
ATOM     16  C   UNL     1      35.064  28.273  14.986  1.00  0.00     0.004 C 
ENDBRANCH  14  15
ENDBRANCH  13  14
ENDBRANCH  12  13
ENDBRANCH  11  12
ENDBRANCH  10  11
ENDBRANCH   1  10
TORSDOF 12
ENDMDL
MODEL 9
REMARK VINA RESULT:    -3.444     12.325     13.213
REMARK INTER + INTRA:          -6.310
REMARK INTER:                  -5.654
REMARK INTRA:                  -0.655
REMARK UNBOUND:                -0.450
REMARK SMILES CCCCCCCCCCCCCC(=O)[O-]
REMARK SMILES IDX 8 1 9 2 10 3 11 4 12 5 13 6 14 7 15 8 16 9 7 10 6 11 5 12
REMARK SMILES IDX 4 13 3 14 2 15 1 16
REMARK H PARENT
REMARK Flexibility Score: inf
ROOT
ATOM      1  C   UNL     1      41.789  28.787  16.970  1.00  0.00     0.000 C 
ENDROOT
BRANCH   1   2
ATOM      2  C   UNL     1      42.482  29.669  15.919  1.00  0.00     0.000 C 
BRANCH   2   3
ATOM      3  C   UNL     1      42.544  31.148  16.335  1.00  0.00     0.000 C 
BRANCH   3   4
ATOM      4  C   UNL     1      43.717  31.902  15.686  1.00  0.00     0.000 C 
BRANCH   4   5
ATOM      5  C   UNL     1      45.099  31.478  16.228  1.00  0.00     0.006 C 
BRANCH   5   6
ATOM      6  C   UNL     1      46.009  30.919  15.126  1.00  0.00     0.053 C 
BRANCH   6   7
ATOM      7  C   UNL     1      47.270  30.373  15.716  1.00  0.00     0.041 C 
ATOM      8  O   UNL     1      47.388  30.258  16.964  1.00  0.00    -0.550 OA
ATOM      9  O   UNL     1      48.298  29.944  14.886  1.00  0.00    -0.550 OA
ENDBRANCH   6   7
ENDBRANCH   5   6
ENDBRANCH   4   5
ENDBRANCH   3   4
ENDBRANCH   2   3
ENDBRANCH   1   2
BRANCH   1  10
ATOM     10  C   UNL     1      41.341  27.432  16.401  1.00  0.00     0.000 C 
BRANCH  10  11
ATOM     11  C   UNL     1      40.676  26.574  17.487  1.00  0.00    -0.000 C 
BRANCH  11  12
ATOM     12  C   UNL     1      41.692  25.972  18.470  1.00  0.00    -0.000 C 
BRANCH  12  13
ATOM     13  C   UNL     1      41.305  26.209  19.941  1.00  0.00    -0.000 C 
BRANCH  13  14
ATOM     14  C   UNL     1      41.256  27.700  20.307  1.00  0.00    -0.000 C 
BRANCH  14  15
ATOM     15  C   UNL     1      40.205  28.008  21.384  1.00  0.00    -0.003 C 
ATOM     16  C   UNL     1      40.580  27.364  22.716  1.00  0.00     0.004 C 
ENDBRANCH  14  15
ENDBRANCH  13  14
ENDBRANCH  12  13
ENDBRANCH  11  12
ENDBRANCH  10  11
ENDBRANCH   1  10
TORSDOF 12
ENDMDL
