MODEL 1
REMARK VINA RESULT:    -3.613      0.000      0.000
REMARK INTER + INTRA:          -3.917
REMARK INTER:                  -3.824
REMARK INTRA:                  -0.093
REMARK UNBOUND:                -0.093
REMARK SMILES C=C(C)[C@@H]1CC=C(C)C(=O)C1
REMARK SMILES IDX 8 1 7 2 6 3 5 4 4 5 11 6 9 7 10 8 2 9 1 10 3 11
REMARK H PARENT
REMARK Flexibility Score: inf
ROOT
ATOM      1  C   UNL     1     185.413 201.289 212.533  1.00  0.00     0.048 C 
ATOM      2  C   UNL     1     186.843 201.726 212.691  1.00  0.00    -0.012 C 
ATOM      3  C   UNL     1     187.419 201.702 213.906  1.00  0.00    -0.019 C 
ATOM      4  C   UNL     1     188.853 202.111 214.118  1.00  0.00     0.036 C 
ATOM      5  C   UNL     1     189.263 203.223 213.133  1.00  0.00     0.025 C 
ATOM      6  C   UNL     1     188.992 202.779 211.683  1.00  0.00     0.089 C 
ATOM      7  C   UNL     1     187.574 202.299 211.534  1.00  0.00     0.158 C 
ATOM      8  O   UNL     1     187.023 202.357 210.402  1.00  0.00    -0.295 OA
ENDROOT
BRANCH   5   9
ATOM      9  C   UNL     1     190.714 203.641 213.330  1.00  0.00    -0.077 C 
ATOM     10  C   UNL     1     191.712 202.742 213.291  1.00  0.00     0.008 C 
ATOM     11  C   UNL     1     191.057 205.088 213.575  1.00  0.00     0.039 C 
ENDBRANCH   5   9
TORSDOF 1
ENDMDL
MODEL 2
REMARK VINA RESULT:    -3.581      1.575      4.847
REMARK INTER + INTRA:          -3.884
REMARK INTER:                  -3.791
REMARK INTRA:                  -0.093
REMARK UNBOUND:                -0.093
REMARK SMILES C=C(C)[C@@H]1CC=C(C)C(=O)C1
REMARK SMILES IDX 8 1 7 2 6 3 5 4 4 5 11 6 9 7 10 8 2 9 1 10 3 11
REMARK H PARENT
REMARK Flexibility Score: inf
ROOT
ATOM      1  C   UNL     1     189.829 202.317 213.752  1.00  0.00     0.048 C 
ATOM      2  C   UNL     1     188.478 202.150 213.113  1.00  0.00    -0.012 C 
ATOM      3  C   UNL     1     187.456 201.652 213.831  1.00  0.00    -0.019 C 
ATOM      4  C   UNL     1     186.079 201.481 213.247  1.00  0.00     0.036 C 
ATOM      5  C   UNL     1     186.152 201.146 211.745  1.00  0.00     0.025 C 
ATOM      6  C   UNL     1     186.973 202.215 210.999  1.00  0.00     0.089 C 
ATOM      7  C   UNL     1     188.307 202.414 211.663  1.00  0.00     0.158 C 
ATOM      8  O   UNL     1     189.275 202.846 210.979  1.00  0.00    -0.295 OA
ENDROOT
BRANCH   5   9
ATOM      9  C   UNL     1     184.765 200.979 211.138  1.00  0.00    -0.077 C 
ATOM     10  C   UNL     1     183.876 201.987 211.137  1.00  0.00     0.008 C 
ATOM     11  C   UNL     1     184.363 199.663 210.523  1.00  0.00     0.039 C 
ENDBRANCH   5   9
TORSDOF 1
ENDMDL
MODEL 3
REMARK VINA RESULT:    -3.451      1.284      4.432
REMARK INTER + INTRA:          -3.745
REMARK INTER:                  -3.652
REMARK INTRA:                  -0.093
REMARK UNBOUND:                -0.093
REMARK SMILES C=C(C)[C@@H]1CC=C(C)C(=O)C1
REMARK SMILES IDX 8 1 7 2 6 3 5 4 4 5 11 6 9 7 10 8 2 9 1 10 3 11
REMARK H PARENT
REMARK Flexibility Score: inf
ROOT
ATOM      1  C   UNL     1     191.295 203.045 213.402  1.00  0.00     0.048 C 
ATOM      2  C   UNL     1     189.849 202.774 213.094  1.00  0.00    -0.012 C 
ATOM      3  C   UNL     1     189.059 202.215 214.027  1.00  0.00    -0.019 C 
ATOM      4  C   UNL     1     187.600 201.939 213.778  1.00  0.00     0.036 C 
ATOM      5  C   UNL     1     187.347 201.591 212.299  1.00  0.00     0.025 C 
ATOM      6  C   UNL     1     187.894 202.706 211.386  1.00  0.00     0.089 C 
ATOM      7  C   UNL     1     189.328 203.008 211.724  1.00  0.00     0.158 C 
ATOM      8  O   UNL     1     190.077 203.499 210.836  1.00  0.00    -0.295 OA
ENDROOT
BRANCH   5   9
ATOM      9  C   UNL     1     185.873 201.318 212.029  1.00  0.00    -0.077 C 
ATOM     10  C   UNL     1     184.968 202.312 212.021  1.00  0.00     0.008 C 
ATOM     11  C   UNL     1     185.400 199.912 211.765  1.00  0.00     0.039 C 
ENDBRANCH   5   9
TORSDOF 1
ENDMDL
MODEL 4
REMARK VINA RESULT:    -3.436      1.932      3.060
REMARK INTER + INTRA:          -3.730
REMARK INTER:                  -3.637
REMARK INTRA:                  -0.093
REMARK UNBOUND:                -0.093
REMARK SMILES C=C(C)[C@@H]1CC=C(C)C(=O)C1
REMARK SMILES IDX 8 1 7 2 6 3 5 4 4 5 11 6 9 7 10 8 2 9 1 10 3 11
REMARK H PARENT
REMARK Flexibility Score: inf
ROOT
ATOM      1  C   UNL     1     183.891 199.745 210.316  1.00  0.00     0.048 C 
ATOM      2  C   UNL     1     185.033 200.312 211.114  1.00  0.00    -0.012 C 
ATOM      3  C   UNL     1     184.880 201.478 211.765  1.00  0.00    -0.019 C 
ATOM      4  C   UNL     1     185.983 202.082 212.592  1.00  0.00     0.036 C 
ATOM      5  C   UNL     1     187.366 201.749 212.000  1.00  0.00     0.025 C 
ATOM      6  C   UNL     1     187.525 200.225 211.838  1.00  0.00     0.089 C 
ATOM      7  C   UNL     1     186.361 199.650 211.079  1.00  0.00     0.158 C 
ATOM      8  O   UNL     1     186.517 198.575 210.438  1.00  0.00    -0.295 OA
ENDROOT
BRANCH   5   9
ATOM      9  C   UNL     1     188.493 202.345 212.832  1.00  0.00    -0.077 C 
ATOM     10  C   UNL     1     188.657 202.017 214.125  1.00  0.00     0.008 C 
ATOM     11  C   UNL     1     189.455 203.326 212.210  1.00  0.00     0.039 C 
ENDBRANCH   5   9
TORSDOF 1
ENDMDL
MODEL 5
REMARK VINA RESULT:    -3.410      2.010      4.848
REMARK INTER + INTRA:          -3.702
REMARK INTER:                  -3.606
REMARK INTRA:                  -0.096
REMARK UNBOUND:                -0.093
REMARK SMILES C=C(C)[C@@H]1CC=C(C)C(=O)C1
REMARK SMILES IDX 8 1 7 2 6 3 5 4 4 5 11 6 9 7 10 8 2 9 1 10 3 11
REMARK H PARENT
REMARK Flexibility Score: inf
ROOT
ATOM      1  C   UNL     1     190.435 204.496 211.214  1.00  0.00     0.048 C 
ATOM      2  C   UNL     1     189.283 203.535 211.317  1.00  0.00    -0.012 C 
ATOM      3  C   UNL     1     188.435 203.394 210.283  1.00  0.00    -0.019 C 
ATOM      4  C   UNL     1     187.276 202.434 210.325  1.00  0.00     0.036 C 
ATOM      5  C   UNL     1     186.717 202.303 211.755  1.00  0.00     0.025 C 
ATOM      6  C   UNL     1     187.839 201.906 212.733  1.00  0.00     0.089 C 
ATOM      7  C   UNL     1     189.010 202.840 212.600  1.00  0.00     0.158 C 
ATOM      8  O   UNL     1     189.784 203.000 213.583  1.00  0.00    -0.295 OA
ENDROOT
BRANCH   5   9
ATOM      9  C   UNL     1     185.550 201.327 211.816  1.00  0.00    -0.077 C 
ATOM     10  C   UNL     1     185.688 200.104 212.357  1.00  0.00     0.008 C 
ATOM     11  C   UNL     1     184.204 201.722 211.262  1.00  0.00     0.039 C 
ENDBRANCH   5   9
TORSDOF 1
ENDMDL
MODEL 6
REMARK VINA RESULT:    -3.375      1.360      2.021
REMARK INTER + INTRA:          -3.665
REMARK INTER:                  -3.575
REMARK INTRA:                  -0.090
REMARK UNBOUND:                -0.093
REMARK SMILES C=C(C)[C@@H]1CC=C(C)C(=O)C1
REMARK SMILES IDX 8 1 7 2 6 3 5 4 4 5 11 6 9 7 10 8 2 9 1 10 3 11
REMARK H PARENT
REMARK Flexibility Score: inf
ROOT
ATOM      1  C   UNL     1     185.644 201.035 211.401  1.00  0.00     0.048 C 
ATOM      2  C   UNL     1     186.848 201.782 211.905  1.00  0.00    -0.012 C 
ATOM      3  C   UNL     1     187.613 202.477 211.044  1.00  0.00    -0.019 C 
ATOM      4  C   UNL     1     188.819 203.256 211.497  1.00  0.00     0.036 C 
ATOM      5  C   UNL     1     189.501 202.573 212.699  1.00  0.00     0.025 C 
ATOM      6  C   UNL     1     188.486 202.356 213.837  1.00  0.00     0.089 C 
ATOM      7  C   UNL     1     187.261 201.648 213.324  1.00  0.00     0.158 C 
ATOM      8  O   UNL     1     186.566 200.967 214.125  1.00  0.00    -0.295 OA
ENDROOT
BRANCH   5   9
ATOM      9  C   UNL     1     190.717 203.356 213.174  1.00  0.00    -0.077 C 
ATOM     10  C   UNL     1     191.895 202.748 213.402  1.00  0.00     0.008 C 
ATOM     11  C   UNL     1     190.619 204.843 213.402  1.00  0.00     0.039 C 
ENDBRANCH   5   9
TORSDOF 1
ENDMDL
MODEL 7
REMARK VINA RESULT:    -3.342      3.801      6.306
REMARK INTER + INTRA:          -3.631
REMARK INTER:                  -3.536
REMARK INTRA:                  -0.095
REMARK UNBOUND:                -0.093
REMARK SMILES C=C(C)[C@@H]1CC=C(C)C(=O)C1
REMARK SMILES IDX 8 1 7 2 6 3 5 4 4 5 11 6 9 7 10 8 2 9 1 10 3 11
REMARK H PARENT
REMARK Flexibility Score: inf
ROOT
ATOM      1  C   UNL     1     185.865 202.045 213.902  1.00  0.00     0.048 C 
ATOM      2  C   UNL     1     185.583 201.322 212.614  1.00  0.00    -0.012 C 
ATOM      3  C   UNL     1     184.556 201.710 211.839  1.00  0.00    -0.019 C 
ATOM      4  C   UNL     1     184.240 201.033 210.532  1.00  0.00     0.036 C 
ATOM      5  C   UNL     1     184.592 199.534 210.586  1.00  0.00     0.025 C 
ATOM      6  C   UNL     1     186.064 199.345 211.000  1.00  0.00     0.089 C 
ATOM      7  C   UNL     1     186.358 200.105 212.264  1.00  0.00     0.158 C 
ATOM      8  O   UNL     1     187.299 199.717 213.009  1.00  0.00    -0.295 OA
ENDROOT
BRANCH   5   9
ATOM      9  C   UNL     1     184.287 198.836 209.267  1.00  0.00    -0.077 C 
ATOM     10  C   UNL     1     184.374 199.488 208.095  1.00  0.00     0.008 C 
ATOM     11  C   UNL     1     183.875 197.386 209.256  1.00  0.00     0.039 C 
ENDBRANCH   5   9
TORSDOF 1
ENDMDL
MODEL 8
REMARK VINA RESULT:    -3.220      4.048      5.224
REMARK INTER + INTRA:          -3.501
REMARK INTER:                  -3.403
REMARK INTRA:                  -0.098
REMARK UNBOUND:                -0.093
REMARK SMILES C=C(C)[C@@H]1CC=C(C)C(=O)C1
REMARK SMILES IDX 8 1 7 2 6 3 5 4 4 5 11 6 9 7 10 8 2 9 1 10 3 11
REMARK H PARENT
REMARK Flexibility Score: inf
ROOT
ATOM      1  C   UNL     1     188.900 196.900 211.056  1.00  0.00     0.048 C 
ATOM      2  C   UNL     1     187.939 197.955 211.529  1.00  0.00    -0.012 C 
ATOM      3  C   UNL     1     187.118 198.555 210.650  1.00  0.00    -0.019 C 
ATOM      4  C   UNL     1     186.125 199.605 211.072  1.00  0.00     0.036 C 
ATOM      5  C   UNL     1     186.662 200.431 212.256  1.00  0.00     0.025 C 
ATOM      6  C   UNL     1     187.059 199.503 213.420  1.00  0.00     0.089 C 
ATOM      7  C   UNL     1     187.986 198.420 212.938  1.00  0.00     0.158 C 
ATOM      8  O   UNL     1     188.781 197.883 213.756  1.00  0.00    -0.295 OA
ENDROOT
BRANCH   5   9
ATOM      9  C   UNL     1     185.664 201.492 212.701  1.00  0.00    -0.077 C 
ATOM     10  C   UNL     1     185.638 201.940 213.968  1.00  0.00     0.008 C 
ATOM     11  C   UNL     1     184.675 202.060 211.716  1.00  0.00     0.039 C 
ENDBRANCH   5   9
TORSDOF 1
ENDMDL
MODEL 9
REMARK VINA RESULT:    -3.213      2.498      4.259
REMARK INTER + INTRA:          -3.494
REMARK INTER:                  -3.398
REMARK INTRA:                  -0.096
REMARK UNBOUND:                -0.093
REMARK SMILES C=C(C)[C@@H]1CC=C(C)C(=O)C1
REMARK SMILES IDX 8 1 7 2 6 3 5 4 4 5 11 6 9 7 10 8 2 9 1 10 3 11
REMARK H PARENT
REMARK Flexibility Score: inf
ROOT
ATOM      1  C   UNL     1     186.746 200.221 207.693  1.00  0.00     0.048 C 
ATOM      2  C   UNL     1     186.651 200.740 209.101  1.00  0.00    -0.012 C 
ATOM      3  C   UNL     1     187.600 201.567 209.575  1.00  0.00    -0.019 C 
ATOM      4  C   UNL     1     187.544 202.129 210.971  1.00  0.00     0.036 C 
ATOM      5  C   UNL     1     186.887 201.132 211.944  1.00  0.00     0.025 C 
ATOM      6  C   UNL     1     185.496 200.718 211.427  1.00  0.00     0.089 C 
ATOM      7  C   UNL     1     185.583 200.241 210.004  1.00  0.00     0.158 C 
ATOM      8  O   UNL     1     184.713 199.437 209.572  1.00  0.00    -0.295 OA
ENDROOT
BRANCH   5   9
ATOM      9  C   UNL     1     186.816 201.692 213.359  1.00  0.00    -0.077 C 
ATOM     10  C   UNL     1     185.636 201.944 213.952  1.00  0.00     0.008 C 
ATOM     11  C   UNL     1     188.083 201.976 214.125  1.00  0.00     0.039 C 
ENDBRANCH   5   9
TORSDOF 1
ENDMDL
