MODEL 1
REMARK VINA RESULT:     5.814      0.000      0.000
REMARK INTER + INTRA:           8.702
REMARK INTER:                   9.552
REMARK INTRA:                  -0.850
REMARK UNBOUND:                -0.850
REMARK SMILES C[C@@H]1O[C@H](OC[C@@H]2O[C@@H](Oc3c(-c4ccc(O)c(O)c4)oc4cc(O)cc(O)c4c3=O)[C@H](O)[C@H](O)[C@H]2O)[C@H](O)[C@@H](O)[C@H]1O
REMARK SMILES IDX 7 1 36 2 34 3 32 4 9 5 8 6 6 7 5 8 4 9 1 10 2 11 42 12 3 13
REMARK SMILES IDX 40 14 38 15 43 16 41 18 39 20 37 22 35 24 10 26 11 27 12 28
REMARK SMILES IDX 30 29 21 30 29 31 31 32 22 33 27 34 23 35 26 36 24 37 13 38
REMARK SMILES IDX 20 39 14 40 18 41 15 42 16 43 19 44 17 46 28 48 25 50 33 52
REMARK H PARENT 43 17 41 19 39 21 37 23 35 25 19 45 17 47 28 49 25 51 33 53
REMARK Flexibility Score: inf
ROOT
ATOM      1  C   UNL     1       3.472  13.133  13.171  1.00  0.00     0.180 C 
ATOM      2  C   UNL     1       3.888  14.526  12.662  1.00  0.00     0.177 C 
ATOM      3  C   UNL     1       3.053  15.669  13.312  1.00  0.00     0.180 C 
ATOM      4  C   UNL     1       1.549  15.302  13.225  1.00  0.00     0.214 C 
ATOM      5  C   UNL     1       1.328  13.891  13.826  1.00  0.00     0.339 C 
ATOM      6  O   UNL     1       2.068  12.927  13.069  1.00  0.00    -0.332 OA
ENDROOT
BRANCH   1   7
ATOM      7  C   UNL     1       4.168  12.019  12.325  1.00  0.00     0.198 C 
BRANCH   7   8
ATOM      8  O   UNL     1       3.226  11.061  11.876  1.00  0.00    -0.347 OA
BRANCH   8   9
ATOM      9  C   UNL     1       3.785   9.770  11.876  1.00  0.00     0.281 C 
ATOM     10  C   UNL     1       7.208   8.837  12.769  1.00  0.00     0.041 C 
ATOM     11  C   UNL     1       5.809   8.619  12.203  1.00  0.00     0.150 C 
ATOM     12  C   UNL     1       5.074   7.478  12.971  1.00  0.00     0.174 C 
ATOM     13  O   UNL     1       5.127   9.866  12.303  1.00  0.00    -0.344 OA
ATOM     14  C   UNL     1       3.906   8.055  13.769  1.00  0.00     0.179 C 
ATOM     15  C   UNL     1       2.968   8.836  12.816  1.00  0.00     0.202 C 
BRANCH  12  16
ATOM     16  O   UNL     1       4.581   6.519  12.066  1.00  0.00    -0.388 OA
ATOM     17  H   UNL     1       4.655   5.643  12.520  1.00  0.00     0.211 HD
ENDBRANCH  12  16
BRANCH  14  18
ATOM     18  O   UNL     1       3.211   7.026  14.418  1.00  0.00    -0.387 OA
ATOM     19  H   UNL     1       3.820   6.707  15.154  1.00  0.00     0.211 HD
ENDBRANCH  14  18
BRANCH  15  20
ATOM     20  O   UNL     1       1.985   9.535  13.535  1.00  0.00    -0.385 OA
ATOM     21  H   UNL     1       1.326   8.878  13.888  1.00  0.00     0.211 HD
ENDBRANCH  15  20
ENDBRANCH   8   9
ENDBRANCH   7   8
ENDBRANCH   1   7
BRANCH   2  22
ATOM     22  O   UNL     1       5.259  14.727  12.907  1.00  0.00    -0.387 OA
ATOM     23  H   UNL     1       5.751  13.880  12.684  1.00  0.00     0.211 HD
ENDBRANCH   2  22
BRANCH   3  24
ATOM     24  O   UNL     1       3.343  16.866  12.587  1.00  0.00    -0.387 OA
ATOM     25  H   UNL     1       3.165  17.638  13.192  1.00  0.00     0.211 HD
ENDBRANCH   3  24
BRANCH   5  26
ATOM     26  O   UNL     1       1.707  13.917  15.220  1.00  0.00    -0.454 OA
BRANCH  26  27
ATOM     27  C   UNL     1       0.840  13.903  16.336  1.00  0.00     0.214 A 
ATOM     28  C   UNL     1       0.452  15.136  16.892  1.00  0.00     0.180 A 
ATOM     29  C   UNL     1       0.597  12.746  17.073  1.00  0.00     0.239 A 
ATOM     30  O   UNL     1      -0.232  15.196  18.038  1.00  0.00    -0.452 OA
ATOM     31  C   UNL     1       0.085  12.874  18.385  1.00  0.00     0.111 A 
ATOM     32  O   UNL     1       0.849  11.603  16.578  1.00  0.00    -0.285 OA
ATOM     33  C   UNL     1      -0.424  14.112  18.791  1.00  0.00     0.146 A 
ATOM     34  C   UNL     1       0.135  11.840  19.339  1.00  0.00     0.134 A 
ATOM     35  C   UNL     1      -1.012  14.296  20.054  1.00  0.00     0.094 A 
ATOM     36  C   UNL     1      -0.359  12.029  20.641  1.00  0.00     0.093 A 
ATOM     37  C   UNL     1      -0.860  13.293  21.015  1.00  0.00     0.123 A 
BRANCH  28  38
ATOM     38  C   UNL     1       0.799  16.396  16.245  1.00  0.00     0.025 A 
ATOM     39  C   UNL     1       1.718  17.282  16.864  1.00  0.00     0.062 A 
ATOM     40  C   UNL     1       0.065  16.806  15.119  1.00  0.00     0.016 A 
ATOM     41  C   UNL     1       2.050  18.485  16.199  1.00  0.00     0.158 A 
ATOM     42  C   UNL     1       0.340  18.027  14.526  1.00  0.00     0.051 A 
ATOM     43  C   UNL     1       1.415  18.801  14.972  1.00  0.00     0.157 A 
BRANCH  41  44
ATOM     44  O   UNL     1       2.794  19.462  16.851  1.00  0.00    -0.504 OA
ATOM     45  H   UNL     1       3.789  19.318  17.093  1.00  0.00     0.293 HD
ENDBRANCH  41  44
BRANCH  43  46
ATOM     46  O   UNL     1       1.835  19.890  14.204  1.00  0.00    -0.504 OA
ATOM     47  H   UNL     1       1.268  20.731  14.085  1.00  0.00     0.293 HD
ENDBRANCH  43  46
ENDBRANCH  28  38
BRANCH  34  48
ATOM     48  O   UNL     1       0.825  10.675  19.056  1.00  0.00    -0.507 OA
ATOM     49  H   UNL     1       0.538  10.044  18.300  1.00  0.00     0.293 HD
ENDBRANCH  34  48
BRANCH  37  50
ATOM     50  O   UNL     1      -1.123  13.573  22.359  1.00  0.00    -0.508 OA
ATOM     51  H   UNL     1      -2.053  13.829  22.666  1.00  0.00     0.293 HD
ENDBRANCH  37  50
ENDBRANCH  26  27
ENDBRANCH   5  26
BRANCH   4  52
ATOM     52  O   UNL     1       1.131  15.410  11.875  1.00  0.00    -0.384 OA
ATOM     53  H   UNL     1       0.137  15.412  11.848  1.00  0.00     0.211 HD
ENDBRANCH   4  52
TORSDOF 16
ENDMDL
