MODEL 1
REMARK VINA RESULT:    -5.253      0.000      0.000
REMARK INTER + INTRA:          -5.253
REMARK INTER:                  -5.253
REMARK INTRA:                   0.000
REMARK UNBOUND:                 0.000
REMARK SMILES CC1=CC(=O)[C@@H]2C[C@H]1C2(C)C
REMARK SMILES IDX 1 1 2 2 3 3 4 4 5 5 6 6 7 7 8 8 9 9 10 10 11 11
REMARK H PARENT
REMARK Flexibility Score: inf
ROOT
ATOM      1  C   UNL     1      -1.569  26.642  27.876  1.00  0.00     0.040 C 
ATOM      2  C   UNL     1      -2.416  27.369  28.871  1.00  0.00    -0.066 C 
ATOM      3  C   UNL     1      -1.866  27.993  29.950  1.00  0.00     0.047 C 
ATOM      4  C   UNL     1      -2.817  28.713  30.857  1.00  0.00     0.159 C 
ATOM      5  O   UNL     1      -2.427  29.359  31.863  1.00  0.00    -0.295 OA
ATOM      6  C   UNL     1      -4.293  28.609  30.472  1.00  0.00     0.067 C 
ATOM      7  C   UNL     1      -4.494  27.112  30.148  1.00  0.00     0.021 C 
ATOM      8  C   UNL     1      -3.953  27.434  28.737  1.00  0.00     0.022 C 
ATOM      9  C   UNL     1      -4.430  28.900  28.950  1.00  0.00    -0.019 C 
ATOM     10  C   UNL     1      -3.577  30.047  28.338  1.00  0.00     0.012 C 
ATOM     11  C   UNL     1      -5.904  29.109  28.520  1.00  0.00     0.012 C 
ENDROOT
TORSDOF 0
ENDMDL
MODEL 2
REMARK VINA RESULT:    -4.704      1.712      3.154
REMARK INTER + INTRA:          -4.704
REMARK INTER:                  -4.704
REMARK INTRA:                   0.000
REMARK UNBOUND:                 0.000
REMARK SMILES CC1=CC(=O)[C@@H]2C[C@H]1C2(C)C
REMARK SMILES IDX 1 1 2 2 3 3 4 4 5 5 6 6 7 7 8 8 9 9 10 10 11 11
REMARK H PARENT
REMARK Flexibility Score: inf
ROOT
ATOM      1  C   UNL     1      -2.416  29.653  31.839  1.00  0.00     0.040 C 
ATOM      2  C   UNL     1      -3.198  28.948  30.778  1.00  0.00    -0.066 C 
ATOM      3  C   UNL     1      -4.361  29.464  30.291  1.00  0.00     0.047 C 
ATOM      4  C   UNL     1      -5.035  28.678  29.208  1.00  0.00     0.159 C 
ATOM      5  O   UNL     1      -6.092  29.071  28.651  1.00  0.00    -0.295 OA
ATOM      6  C   UNL     1      -4.345  27.368  28.825  1.00  0.00     0.067 C 
ATOM      7  C   UNL     1      -4.006  26.710  30.181  1.00  0.00     0.021 C 
ATOM      8  C   UNL     1      -2.738  27.594  30.194  1.00  0.00     0.022 C 
ATOM      9  C   UNL     1      -2.826  27.644  28.641  1.00  0.00    -0.019 C 
ATOM     10  C   UNL     1      -2.394  28.953  27.922  1.00  0.00     0.012 C 
ATOM     11  C   UNL     1      -2.088  26.456  27.970  1.00  0.00     0.012 C 
ENDROOT
TORSDOF 0
ENDMDL
MODEL 3
REMARK VINA RESULT:    -4.343      0.968      3.074
REMARK INTER + INTRA:          -4.343
REMARK INTER:                  -4.343
REMARK INTRA:                   0.000
REMARK UNBOUND:                 0.000
REMARK SMILES CC1=CC(=O)[C@@H]2C[C@H]1C2(C)C
REMARK SMILES IDX 1 1 2 2 3 3 4 4 5 5 6 6 7 7 8 8 9 9 10 10 11 11
REMARK H PARENT
REMARK Flexibility Score: inf
ROOT
ATOM      1  C   UNL     1      -5.263  29.875  27.858  1.00  0.00     0.040 C 
ATOM      2  C   UNL     1      -4.161  29.221  28.628  1.00  0.00    -0.066 C 
ATOM      3  C   UNL     1      -3.990  29.452  29.959  1.00  0.00     0.047 C 
ATOM      4  C   UNL     1      -2.869  28.713  30.623  1.00  0.00     0.159 C 
ATOM      5  O   UNL     1      -2.635  28.812  31.855  1.00  0.00    -0.295 OA
ATOM      6  C   UNL     1      -2.030  27.829  29.699  1.00  0.00     0.067 C 
ATOM      7  C   UNL     1      -1.765  28.718  28.464  1.00  0.00     0.021 C 
ATOM      8  C   UNL     1      -3.153  28.267  27.950  1.00  0.00     0.022 C 
ATOM      9  C   UNL     1      -2.992  26.983  28.816  1.00  0.00    -0.019 C 
ATOM     10  C   UNL     1      -4.264  26.380  29.477  1.00  0.00     0.012 C 
ATOM     11  C   UNL     1      -2.254  25.850  28.059  1.00  0.00     0.012 C 
ENDROOT
TORSDOF 0
ENDMDL
MODEL 4
REMARK VINA RESULT:    -4.095      1.728      3.463
REMARK INTER + INTRA:          -4.095
REMARK INTER:                  -4.095
REMARK INTRA:                   0.000
REMARK UNBOUND:                 0.000
REMARK SMILES CC1=CC(=O)[C@@H]2C[C@H]1C2(C)C
REMARK SMILES IDX 1 1 2 2 3 3 4 4 5 5 6 6 7 7 8 8 9 9 10 10 11 11
REMARK H PARENT
REMARK Flexibility Score: inf
ROOT
ATOM      1  C   UNL     1      -4.661  30.594  28.249  1.00  0.00     0.040 C 
ATOM      2  C   UNL     1      -4.234  29.339  28.941  1.00  0.00    -0.066 C 
ATOM      3  C   UNL     1      -5.061  28.260  29.027  1.00  0.00     0.047 C 
ATOM      4  C   UNL     1      -4.506  27.052  29.719  1.00  0.00     0.159 C 
ATOM      5  O   UNL     1      -5.156  25.981  29.827  1.00  0.00    -0.295 OA
ATOM      6  C   UNL     1      -3.092  27.212  30.280  1.00  0.00     0.067 C 
ATOM      7  C   UNL     1      -3.121  28.583  30.992  1.00  0.00     0.021 C 
ATOM      8  C   UNL     1      -2.847  29.210  29.606  1.00  0.00     0.022 C 
ATOM      9  C   UNL     1      -2.195  27.860  29.187  1.00  0.00    -0.019 C 
ATOM     10  C   UNL     1      -2.366  27.388  27.715  1.00  0.00     0.012 C 
ATOM     11  C   UNL     1      -0.689  27.795  29.545  1.00  0.00     0.012 C 
ENDROOT
TORSDOF 0
ENDMDL
MODEL 5
REMARK VINA RESULT:    -3.537      2.029      3.069
REMARK INTER + INTRA:          -3.537
REMARK INTER:                  -3.537
REMARK INTRA:                   0.000
REMARK UNBOUND:                 0.000
REMARK SMILES CC1=CC(=O)[C@@H]2C[C@H]1C2(C)C
REMARK SMILES IDX 1 1 2 2 3 3 4 4 5 5 6 6 7 7 8 8 9 9 10 10 11 11
REMARK H PARENT
REMARK Flexibility Score: inf
ROOT
ATOM      1  C   UNL     1      -0.841  25.685  27.435  1.00  0.00     0.040 C 
ATOM      2  C   UNL     1      -1.669  26.795  28.000  1.00  0.00    -0.066 C 
ATOM      3  C   UNL     1      -2.422  27.598  27.198  1.00  0.00     0.047 C 
ATOM      4  C   UNL     1      -3.231  28.654  27.887  1.00  0.00     0.159 C 
ATOM      5  O   UNL     1      -3.996  29.431  27.260  1.00  0.00    -0.295 OA
ATOM      6  C   UNL     1      -3.062  28.721  29.406  1.00  0.00     0.067 C 
ATOM      7  C   UNL     1      -1.535  28.633  29.620  1.00  0.00     0.021 C 
ATOM      8  C   UNL     1      -1.696  27.099  29.514  1.00  0.00     0.022 C 
ATOM      9  C   UNL     1      -3.170  27.279  29.979  1.00  0.00    -0.019 C 
ATOM     10  C   UNL     1      -4.249  26.328  29.388  1.00  0.00     0.012 C 
ATOM     11  C   UNL     1      -3.308  27.268  31.523  1.00  0.00     0.012 C 
ENDROOT
TORSDOF 0
ENDMDL
MODEL 6
REMARK VINA RESULT:    -3.266     20.235     21.181
REMARK INTER + INTRA:          -3.266
REMARK INTER:                  -3.266
REMARK INTRA:                   0.000
REMARK UNBOUND:                 0.000
REMARK SMILES CC1=CC(=O)[C@@H]2C[C@H]1C2(C)C
REMARK SMILES IDX 1 1 2 2 3 3 4 4 5 5 6 6 7 7 8 8 9 9 10 10 11 11
REMARK H PARENT
REMARK Flexibility Score: inf
ROOT
ATOM      1  C   UNL     1      11.277  39.092  37.522  1.00  0.00     0.040 C 
ATOM      2  C   UNL     1      11.762  38.561  38.833  1.00  0.00    -0.066 C 
ATOM      3  C   UNL     1      12.821  39.123  39.478  1.00  0.00     0.047 C 
ATOM      4  C   UNL     1      13.191  38.520  40.799  1.00  0.00     0.159 C 
ATOM      5  O   UNL     1      14.125  38.975  41.508  1.00  0.00    -0.295 OA
ATOM      6  C   UNL     1      12.352  37.315  41.225  1.00  0.00     0.067 C 
ATOM      7  C   UNL     1      12.274  36.440  39.954  1.00  0.00     0.021 C 
ATOM      8  C   UNL     1      11.099  37.342  39.511  1.00  0.00     0.022 C 
ATOM      9  C   UNL     1      10.850  37.658  41.014  1.00  0.00    -0.019 C 
ATOM     10  C   UNL     1      10.357  39.083  41.393  1.00  0.00     0.012 C 
ATOM     11  C   UNL     1       9.909  36.625  41.686  1.00  0.00     0.012 C 
ENDROOT
TORSDOF 0
ENDMDL
