MODEL 1
REMARK VINA RESULT:     5.732      0.000      0.000
REMARK INTER + INTRA:           5.899
REMARK INTER:                   5.899
REMARK INTRA:                   0.000
REMARK UNBOUND:                 0.000
REMARK SMILES Nc1ncnc2nc[nH]c12
REMARK SMILES IDX 8 1 7 2 6 3 5 4 4 5 3 6 2 7 10 8 9 9 1 11
REMARK H PARENT 9 10 1 12 1 13
REMARK Flexibility Score: inf
ROOT
ATOM      1  C   UNL     1     -21.129  -3.488 -11.552  1.00  0.00     0.199 A 
ATOM      2  N   UNL     1     -21.132  -2.582 -10.536  1.00  0.00    -0.217 NA
ATOM      3  C   UNL     1     -20.003  -1.892 -10.767  1.00  0.00     0.182 A 
ATOM      4  N   UNL     1     -19.524  -0.857 -10.035  1.00  0.00    -0.215 NA
ATOM      5  C   UNL     1     -18.350  -0.277 -10.428  1.00  0.00     0.226 A 
ATOM      6  N   UNL     1     -17.683  -0.737 -11.536  1.00  0.00    -0.217 NA
ATOM      7  C   UNL     1     -18.164  -1.780 -12.276  1.00  0.00     0.152 A 
ATOM      8  C   UNL     1     -19.360  -2.360 -11.861  1.00  0.00     0.127 A 
ATOM      9  N   UNL     1     -20.058  -3.378 -12.379  1.00  0.00    -0.340 N 
ATOM     10  H   UNL     1     -19.843  -3.958 -13.219  1.00  0.00     0.168 HD
ENDROOT
BRANCH   7  11
ATOM     11  N   UNL     1     -17.452  -2.242 -13.424  1.00  0.00    -0.382 N 
ATOM     12  H   UNL     1     -16.999  -1.576 -14.088  1.00  0.00     0.158 HD
ATOM     13  H   UNL     1     -17.374  -3.265 -13.614  1.00  0.00     0.158 HD
ENDBRANCH   7  11
TORSDOF 1
ENDMDL
MODEL 2
REMARK VINA RESULT:     5.815      0.711      2.431
REMARK INTER + INTRA:           5.984
REMARK INTER:                   5.984
REMARK INTRA:                   0.000
REMARK UNBOUND:                 0.000
REMARK SMILES Nc1ncnc2nc[nH]c12
REMARK SMILES IDX 8 1 7 2 6 3 5 4 4 5 3 6 2 7 10 8 9 9 1 11
REMARK H PARENT 9 10 1 12 1 13
REMARK Flexibility Score: inf
ROOT
ATOM      1  C   UNL     1     -21.377  -3.353 -11.463  1.00  0.00     0.199 A 
ATOM      2  N   UNL     1     -20.453  -3.757 -12.376  1.00  0.00    -0.217 NA
ATOM      3  C   UNL     1     -19.457  -2.877 -12.182  1.00  0.00     0.182 A 
ATOM      4  N   UNL     1     -18.277  -2.832 -12.847  1.00  0.00    -0.215 NA
ATOM      5  C   UNL     1     -17.382  -1.856 -12.508  1.00  0.00     0.226 A 
ATOM      6  N   UNL     1     -17.680  -0.951 -11.520  1.00  0.00    -0.217 NA
ATOM      7  C   UNL     1     -18.869  -0.993 -10.849  1.00  0.00     0.152 A 
ATOM      8  C   UNL     1     -19.770  -1.994 -11.207  1.00  0.00     0.127 A 
ATOM      9  N   UNL     1     -20.989  -2.276 -10.732  1.00  0.00    -0.340 N 
ATOM     10  H   UNL     1     -21.526  -1.793  -9.980  1.00  0.00     0.168 HD
ENDROOT
BRANCH   7  11
ATOM     11  N   UNL     1     -19.157  -0.040  -9.826  1.00  0.00    -0.382 N 
ATOM     12  H   UNL     1     -18.443   0.653  -9.511  1.00  0.00     0.158 HD
ATOM     13  H   UNL     1     -20.098  -0.026  -9.375  1.00  0.00     0.158 HD
ENDBRANCH   7  11
TORSDOF 1
ENDMDL
MODEL 3
REMARK VINA RESULT:     6.020      8.321      9.950
REMARK INTER + INTRA:           6.196
REMARK INTER:                   6.196
REMARK INTRA:                   0.000
REMARK UNBOUND:                 0.000
REMARK SMILES Nc1ncnc2nc[nH]c12
REMARK SMILES IDX 8 1 7 2 6 3 5 4 4 5 3 6 2 7 10 8 9 9 1 11
REMARK H PARENT 9 10 1 12 1 13
REMARK Flexibility Score: inf
ROOT
ATOM      1  C   UNL     1     -22.230  -3.313 -19.051  1.00  0.00     0.199 A 
ATOM      2  N   UNL     1     -22.969  -2.660 -19.988  1.00  0.00    -0.217 NA
ATOM      3  C   UNL     1     -24.222  -3.027 -19.669  1.00  0.00     0.182 A 
ATOM      4  N   UNL     1     -25.360  -2.650 -20.300  1.00  0.00    -0.215 NA
ATOM      5  C   UNL     1     -26.549  -3.130 -19.828  1.00  0.00     0.226 A 
ATOM      6  N   UNL     1     -26.579  -3.971 -18.743  1.00  0.00    -0.217 NA
ATOM      7  C   UNL     1     -25.433  -4.353 -18.106  1.00  0.00     0.152 A 
ATOM      8  C   UNL     1     -24.230  -3.855 -18.600  1.00  0.00     0.127 A 
ATOM      9  N   UNL     1     -22.972  -4.053 -18.188  1.00  0.00    -0.340 N 
ATOM     10  H   UNL     1     -22.628  -4.634 -17.393  1.00  0.00     0.168 HD
ENDROOT
BRANCH   7  11
ATOM     11  N   UNL     1     -25.488  -5.230 -16.980  1.00  0.00    -0.382 N 
ATOM     12  H   UNL     1     -26.173  -6.016 -16.936  1.00  0.00     0.158 HD
ATOM     13  H   UNL     1     -24.835  -5.091 -16.178  1.00  0.00     0.158 HD
ENDBRANCH   7  11
TORSDOF 1
ENDMDL
MODEL 4
REMARK VINA RESULT:     6.435      8.980     10.344
REMARK INTER + INTRA:           6.623
REMARK INTER:                   6.623
REMARK INTRA:                   0.000
REMARK UNBOUND:                 0.000
REMARK SMILES Nc1ncnc2nc[nH]c12
REMARK SMILES IDX 8 1 7 2 6 3 5 4 4 5 3 6 2 7 10 8 9 9 1 11
REMARK H PARENT 9 10 1 12 1 13
REMARK Flexibility Score: inf
ROOT
ATOM      1  C   UNL     1     -23.098  -2.663 -19.949  1.00  0.00     0.199 A 
ATOM      2  N   UNL     1     -23.007  -3.633 -18.999  1.00  0.00    -0.217 NA
ATOM      3  C   UNL     1     -24.297  -3.920 -18.760  1.00  0.00     0.182 A 
ATOM      4  N   UNL     1     -24.772  -4.835 -17.881  1.00  0.00    -0.215 NA
ATOM      5  C   UNL     1     -26.127  -4.987 -17.776  1.00  0.00     0.226 A 
ATOM      6  N   UNL     1     -26.974  -4.228 -18.545  1.00  0.00    -0.217 NA
ATOM      7  C   UNL     1     -26.497  -3.305 -19.432  1.00  0.00     0.152 A 
ATOM      8  C   UNL     1     -25.115  -3.163 -19.526  1.00  0.00     0.127 A 
ATOM      9  N   UNL     1     -24.375  -2.353 -20.293  1.00  0.00    -0.340 N 
ATOM     10  H   UNL     1     -24.690  -1.647 -20.993  1.00  0.00     0.168 HD
ENDROOT
BRANCH   7  11
ATOM     11  N   UNL     1     -27.398  -2.527 -20.221  1.00  0.00    -0.382 N 
ATOM     12  H   UNL     1     -28.295  -2.926 -20.575  1.00  0.00     0.158 HD
ATOM     13  H   UNL     1     -27.166  -1.537 -20.455  1.00  0.00     0.158 HD
ENDBRANCH   7  11
TORSDOF 1
ENDMDL
MODEL 5
REMARK VINA RESULT:     6.610      8.843      9.906
REMARK INTER + INTRA:           6.803
REMARK INTER:                   6.803
REMARK INTRA:                   0.000
REMARK UNBOUND:                 0.000
REMARK SMILES Nc1ncnc2nc[nH]c12
REMARK SMILES IDX 8 1 7 2 6 3 5 4 4 5 3 6 2 7 10 8 9 9 1 11
REMARK H PARENT 9 10 1 12 1 13
REMARK Flexibility Score: inf
ROOT
ATOM      1  C   UNL     1     -27.159  -3.750 -18.908  1.00  0.00     0.199 A 
ATOM      2  N   UNL     1     -26.286  -3.719 -17.865  1.00  0.00    -0.217 NA
ATOM      3  C   UNL     1     -25.116  -3.482 -18.481  1.00  0.00     0.182 A 
ATOM      4  N   UNL     1     -23.903  -3.357 -17.890  1.00  0.00    -0.215 NA
ATOM      5  C   UNL     1     -22.819  -3.115 -18.687  1.00  0.00     0.226 A 
ATOM      6  N   UNL     1     -22.965  -3.005 -20.047  1.00  0.00    -0.217 NA
ATOM      7  C   UNL     1     -24.187  -3.131 -20.645  1.00  0.00     0.152 A 
ATOM      8  C   UNL     1     -25.281  -3.377 -19.818  1.00  0.00     0.127 A 
ATOM      9  N   UNL     1     -26.576  -3.544 -20.116  1.00  0.00    -0.340 N 
ATOM     10  H   UNL     1     -27.040  -3.523 -21.050  1.00  0.00     0.168 HD
ENDROOT
BRANCH   7  11
ATOM     11  N   UNL     1     -24.316  -3.013 -22.062  1.00  0.00    -0.382 N 
ATOM     12  H   UNL     1     -24.448  -3.852 -22.668  1.00  0.00     0.158 HD
ATOM     13  H   UNL     1     -24.278  -2.072 -22.513  1.00  0.00     0.158 HD
ENDBRANCH   7  11
TORSDOF 1
ENDMDL
MODEL 6
REMARK VINA RESULT:     6.945      0.938      2.990
REMARK INTER + INTRA:           7.148
REMARK INTER:                   7.148
REMARK INTRA:                   0.000
REMARK UNBOUND:                 0.000
REMARK SMILES Nc1ncnc2nc[nH]c12
REMARK SMILES IDX 8 1 7 2 6 3 5 4 4 5 3 6 2 7 10 8 9 9 1 11
REMARK H PARENT 9 10 1 12 1 13
REMARK Flexibility Score: inf
ROOT
ATOM      1  C   UNL     1     -17.505  -1.085 -12.627  1.00  0.00     0.199 A 
ATOM      2  N   UNL     1     -17.555  -0.576 -11.366  1.00  0.00    -0.217 NA
ATOM      3  C   UNL     1     -18.635  -1.189 -10.854  1.00  0.00     0.182 A 
ATOM      4  N   UNL     1     -19.136  -1.034  -9.605  1.00  0.00    -0.215 NA
ATOM      5  C   UNL     1     -20.251  -1.748  -9.264  1.00  0.00     0.226 A 
ATOM      6  N   UNL     1     -20.839  -2.596 -10.168  1.00  0.00    -0.217 NA
ATOM      7  C   UNL     1     -20.336  -2.754 -11.429  1.00  0.00     0.152 A 
ATOM      8  C   UNL     1     -19.200  -2.019 -11.760  1.00  0.00     0.127 A 
ATOM      9  N   UNL     1     -18.498  -1.971 -12.899  1.00  0.00    -0.340 N 
ATOM     10  H   UNL     1     -18.662  -2.486 -13.791  1.00  0.00     0.168 HD
ENDROOT
BRANCH   7  11
ATOM     11  N   UNL     1     -20.964  -3.642 -12.353  1.00  0.00    -0.382 N 
ATOM     12  H   UNL     1     -21.863  -3.393 -12.822  1.00  0.00     0.158 HD
ATOM     13  H   UNL     1     -20.526  -4.563 -12.574  1.00  0.00     0.158 HD
ENDBRANCH   7  11
TORSDOF 1
ENDMDL
MODEL 7
REMARK VINA RESULT:     6.952      1.121      3.831
REMARK INTER + INTRA:           7.155
REMARK INTER:                   7.155
REMARK INTRA:                   0.000
REMARK UNBOUND:                 0.000
REMARK SMILES Nc1ncnc2nc[nH]c12
REMARK SMILES IDX 8 1 7 2 6 3 5 4 4 5 3 6 2 7 10 8 9 9 1 11
REMARK H PARENT 9 10 1 12 1 13
REMARK Flexibility Score: inf
ROOT
ATOM      1  C   UNL     1     -17.672   0.378 -10.671  1.00  0.00     0.199 A 
ATOM      2  N   UNL     1     -17.371  -0.334 -11.791  1.00  0.00    -0.217 NA
ATOM      3  C   UNL     1     -18.278  -1.325 -11.750  1.00  0.00     0.182 A 
ATOM      4  N   UNL     1     -18.418  -2.330 -12.648  1.00  0.00    -0.215 NA
ATOM      5  C   UNL     1     -19.405  -3.252 -12.435  1.00  0.00     0.226 A 
ATOM      6  N   UNL     1     -20.226  -3.154 -11.339  1.00  0.00    -0.217 NA
ATOM      7  C   UNL     1     -20.086  -2.142 -10.433  1.00  0.00     0.152 A 
ATOM      8  C   UNL     1     -19.076  -1.211 -10.664  1.00  0.00     0.127 A 
ATOM      9  N   UNL     1     -18.709  -0.133  -9.960  1.00  0.00    -0.340 N 
ATOM     10  H   UNL     1     -19.116   0.239  -9.074  1.00  0.00     0.168 HD
ENDROOT
BRANCH   7  11
ATOM     11  N   UNL     1     -20.951  -2.060  -9.300  1.00  0.00    -0.382 N 
ATOM     12  H   UNL     1     -21.987  -2.140  -9.400  1.00  0.00     0.158 HD
ATOM     13  H   UNL     1     -20.551  -1.918  -8.346  1.00  0.00     0.158 HD
ENDBRANCH   7  11
TORSDOF 1
ENDMDL
MODEL 8
REMARK VINA RESULT:     7.108     12.036     13.429
REMARK INTER + INTRA:           7.316
REMARK INTER:                   7.316
REMARK INTRA:                   0.000
REMARK UNBOUND:                 0.000
REMARK SMILES Nc1ncnc2nc[nH]c12
REMARK SMILES IDX 8 1 7 2 6 3 5 4 4 5 3 6 2 7 10 8 9 9 1 11
REMARK H PARENT 9 10 1 12 1 13
REMARK Flexibility Score: inf
ROOT
ATOM      1  C   UNL     1     -26.953  -3.155 -19.560  1.00  0.00     0.199 A 
ATOM      2  N   UNL     1     -28.044  -3.945 -19.363  1.00  0.00    -0.217 NA
ATOM      3  C   UNL     1     -29.045  -3.160 -19.795  1.00  0.00     0.182 A 
ATOM      4  N   UNL     1     -30.363  -3.472 -19.819  1.00  0.00    -0.215 NA
ATOM      5  C   UNL     1     -31.239  -2.537 -20.297  1.00  0.00     0.226 A 
ATOM      6  N   UNL     1     -30.785  -1.319 -20.739  1.00  0.00    -0.217 NA
ATOM      7  C   UNL     1     -29.456  -1.003 -20.716  1.00  0.00     0.152 A 
ATOM      8  C   UNL     1     -28.577  -1.967 -20.226  1.00  0.00     0.127 A 
ATOM      9  N   UNL     1     -27.246  -1.939 -20.086  1.00  0.00    -0.340 N 
ATOM     10  H   UNL     1     -26.580  -1.171 -20.321  1.00  0.00     0.168 HD
ENDROOT
BRANCH   7  11
ATOM     11  N   UNL     1     -29.007   0.270 -21.181  1.00  0.00    -0.382 N 
ATOM     12  H   UNL     1     -29.450   0.736 -22.002  1.00  0.00     0.158 HD
ATOM     13  H   UNL     1     -28.219   0.755 -20.697  1.00  0.00     0.158 HD
ENDBRANCH   7  11
TORSDOF 1
ENDMDL
MODEL 9
REMARK VINA RESULT:     7.191      8.503      9.747
REMARK INTER + INTRA:           7.402
REMARK INTER:                   7.402
REMARK INTRA:                   0.000
REMARK UNBOUND:                 0.000
REMARK SMILES Nc1ncnc2nc[nH]c12
REMARK SMILES IDX 8 1 7 2 6 3 5 4 4 5 3 6 2 7 10 8 9 9 1 11
REMARK H PARENT 9 10 1 12 1 13
REMARK Flexibility Score: inf
ROOT
ATOM      1  C   UNL     1     -26.373  -4.096 -17.657  1.00  0.00     0.199 A 
ATOM      2  N   UNL     1     -26.729  -3.958 -18.963  1.00  0.00    -0.217 NA
ATOM      3  C   UNL     1     -25.568  -3.602 -19.538  1.00  0.00     0.182 A 
ATOM      4  N   UNL     1     -25.365  -3.337 -20.851  1.00  0.00    -0.215 NA
ATOM      5  C   UNL     1     -24.106  -2.987 -21.252  1.00  0.00     0.226 A 
ATOM      6  N   UNL     1     -23.082  -2.909 -20.341  1.00  0.00    -0.217 NA
ATOM      7  C   UNL     1     -23.285  -3.175 -19.016  1.00  0.00     0.152 A 
ATOM      8  C   UNL     1     -24.574  -3.530 -18.625  1.00  0.00     0.127 A 
ATOM      9  N   UNL     1     -25.061  -3.840 -17.418  1.00  0.00    -0.340 N 
ATOM     10  H   UNL     1     -24.563  -3.881 -16.502  1.00  0.00     0.168 HD
ENDROOT
BRANCH   7  11
ATOM     11  N   UNL     1     -22.205  -3.087 -18.086  1.00  0.00    -0.382 N 
ATOM     12  H   UNL     1     -21.234  -3.362 -18.353  1.00  0.00     0.158 HD
ATOM     13  H   UNL     1     -22.377  -2.740 -17.117  1.00  0.00     0.158 HD
ENDBRANCH   7  11
TORSDOF 1
ENDMDL
