MODEL 1
REMARK VINA RESULT:    -6.207      0.000      0.000
REMARK INTER + INTRA:          -6.826
REMARK INTER:                  -6.570
REMARK INTRA:                  -0.255
REMARK UNBOUND:                -0.255
REMARK SMILES CC1=CC[C@H]2[C@H]3[C@@H]1[C@]2(C)CC[C@H]3C(C)C
REMARK SMILES IDX 1 1 2 2 3 3 4 4 5 5 6 6 7 7 8 8 10 9 11 10 12 11 9 12 13 13
REMARK SMILES IDX 14 14 15 15
REMARK H PARENT
REMARK Flexibility Score: inf
ROOT
ATOM      1  C   UNL     1     -44.308 -46.148  27.635  1.00  0.00     0.039 C 
ATOM      2  C   UNL     1     -43.189 -47.104  27.344  1.00  0.00    -0.073 C 
ATOM      3  C   UNL     1     -42.945 -47.574  26.092  1.00  0.00    -0.027 C 
ATOM      4  C   UNL     1     -41.779 -48.547  25.884  1.00  0.00     0.031 C 
ATOM      5  C   UNL     1     -41.022 -48.787  27.230  1.00  0.00     0.003 C 
ATOM      6  C   UNL     1     -40.799 -47.402  27.893  1.00  0.00     0.004 C 
ATOM      7  C   UNL     1     -42.232 -47.547  28.453  1.00  0.00     0.024 C 
ATOM      8  C   UNL     1     -42.006 -49.075  28.393  1.00  0.00    -0.022 C 
ATOM      9  C   UNL     1     -41.230 -49.526  29.668  1.00  0.00     0.008 C 
ATOM     10  C   UNL     1     -39.837 -48.851  29.788  1.00  0.00     0.005 C 
ATOM     11  C   UNL     1     -39.777 -47.469  29.071  1.00  0.00    -0.005 C 
ATOM     12  C   UNL     1     -43.225 -49.991  28.136  1.00  0.00     0.012 C 
ENDROOT
BRANCH  11  13
ATOM     13  C   UNL     1     -38.323 -47.074  28.670  1.00  0.00    -0.014 C 
ATOM     14  C   UNL     1     -37.363 -48.268  28.790  1.00  0.00     0.007 C 
ATOM     15  C   UNL     1     -37.765 -45.875  29.457  1.00  0.00     0.007 C 
ENDBRANCH  11  13
TORSDOF 1
ENDMDL
MODEL 2
REMARK VINA RESULT:    -6.031      2.935      5.533
REMARK INTER + INTRA:          -6.638
REMARK INTER:                  -6.345
REMARK INTRA:                  -0.294
REMARK UNBOUND:                -0.255
REMARK SMILES CC1=CC[C@H]2[C@H]3[C@@H]1[C@]2(C)CC[C@H]3C(C)C
REMARK SMILES IDX 1 1 2 2 3 3 4 4 5 5 6 6 7 7 8 8 10 9 11 10 12 11 9 12 13 13
REMARK SMILES IDX 14 14 15 15
REMARK H PARENT
REMARK Flexibility Score: inf
ROOT
ATOM      1  C   UNL     1     -44.358 -50.221  26.007  1.00  0.00     0.039 C 
ATOM      2  C   UNL     1     -44.198 -49.555  27.341  1.00  0.00    -0.073 C 
ATOM      3  C   UNL     1     -44.456 -48.233  27.526  1.00  0.00    -0.027 C 
ATOM      4  C   UNL     1     -44.268 -47.633  28.923  1.00  0.00     0.031 C 
ATOM      5  C   UNL     1     -43.832 -48.740  29.939  1.00  0.00     0.003 C 
ATOM      6  C   UNL     1     -44.754 -49.968  29.713  1.00  0.00     0.004 C 
ATOM      7  C   UNL     1     -43.786 -50.363  28.574  1.00  0.00     0.024 C 
ATOM      8  C   UNL     1     -42.689 -49.618  29.367  1.00  0.00    -0.022 C 
ATOM      9  C   UNL     1     -42.123 -50.565  30.469  1.00  0.00     0.008 C 
ATOM     10  C   UNL     1     -43.210 -51.015  31.482  1.00  0.00     0.005 C 
ATOM     11  C   UNL     1     -44.642 -51.011  30.868  1.00  0.00    -0.005 C 
ATOM     12  C   UNL     1     -41.542 -48.940  28.581  1.00  0.00     0.012 C 
ENDROOT
BRANCH  11  13
ATOM     13  C   UNL     1     -45.751 -50.872  31.956  1.00  0.00    -0.014 C 
ATOM     14  C   UNL     1     -46.249 -52.246  32.430  1.00  0.00     0.007 C 
ATOM     15  C   UNL     1     -46.946 -50.007  31.518  1.00  0.00     0.007 C 
ENDBRANCH  11  13
TORSDOF 1
ENDMDL
MODEL 3
REMARK VINA RESULT:    -6.029     10.409     12.571
REMARK INTER + INTRA:          -6.637
REMARK INTER:                  -6.360
REMARK INTRA:                  -0.277
REMARK UNBOUND:                -0.255
REMARK SMILES CC1=CC[C@H]2[C@H]3[C@@H]1[C@]2(C)CC[C@H]3C(C)C
REMARK SMILES IDX 1 1 2 2 3 3 4 4 5 5 6 6 7 7 8 8 10 9 11 10 12 11 9 12 13 13
REMARK SMILES IDX 14 14 15 15
REMARK H PARENT
REMARK Flexibility Score: inf
ROOT
ATOM      1  C   UNL     1     -49.994 -50.093  23.938  1.00  0.00     0.039 C 
ATOM      2  C   UNL     1     -50.067 -49.318  22.657  1.00  0.00    -0.073 C 
ATOM      3  C   UNL     1     -49.687 -48.015  22.576  1.00  0.00    -0.027 C 
ATOM      4  C   UNL     1     -49.794 -47.298  21.226  1.00  0.00     0.031 C 
ATOM      5  C   UNL     1     -50.307 -48.281  20.124  1.00  0.00     0.003 C 
ATOM      6  C   UNL     1     -49.504 -49.602  20.268  1.00  0.00     0.004 C 
ATOM      7  C   UNL     1     -50.525 -49.991  21.361  1.00  0.00     0.024 C 
ATOM      8  C   UNL     1     -51.536 -49.091  20.613  1.00  0.00    -0.022 C 
ATOM      9  C   UNL     1     -52.163 -49.898  19.435  1.00  0.00     0.008 C 
ATOM     10  C   UNL     1     -51.102 -50.369  18.404  1.00  0.00     0.005 C 
ATOM     11  C   UNL     1     -49.687 -50.541  19.035  1.00  0.00    -0.005 C 
ATOM     12  C   UNL     1     -52.631 -48.372  21.434  1.00  0.00     0.012 C 
ENDROOT
BRANCH  11  13
ATOM     13  C   UNL     1     -48.549 -50.423  17.975  1.00  0.00    -0.014 C 
ATOM     14  C   UNL     1     -48.007 -51.805  17.577  1.00  0.00     0.007 C 
ATOM     15  C   UNL     1     -47.388 -49.512  18.410  1.00  0.00     0.007 C 
ENDBRANCH  11  13
TORSDOF 1
ENDMDL
MODEL 4
REMARK VINA RESULT:    -5.947     10.943     14.244
REMARK INTER + INTRA:          -6.550
REMARK INTER:                  -6.298
REMARK INTRA:                  -0.252
REMARK UNBOUND:                -0.255
REMARK SMILES CC1=CC[C@H]2[C@H]3[C@@H]1[C@]2(C)CC[C@H]3C(C)C
REMARK SMILES IDX 1 1 2 2 3 3 4 4 5 5 6 6 7 7 8 8 10 9 11 10 12 11 9 12 13 13
REMARK SMILES IDX 14 14 15 15
REMARK H PARENT
REMARK Flexibility Score: inf
ROOT
ATOM      1  C   UNL     1     -49.889 -45.875  22.556  1.00  0.00     0.039 C 
ATOM      2  C   UNL     1     -50.935 -46.919  22.813  1.00  0.00    -0.073 C 
ATOM      3  C   UNL     1     -51.152 -47.437  24.051  1.00  0.00    -0.027 C 
ATOM      4  C   UNL     1     -52.242 -48.500  24.226  1.00  0.00     0.031 C 
ATOM      5  C   UNL     1     -52.969 -48.764  22.867  1.00  0.00     0.003 C 
ATOM      6  C   UNL     1     -53.292 -47.384  22.235  1.00  0.00     0.004 C 
ATOM      7  C   UNL     1     -51.847 -47.407  21.685  1.00  0.00     0.024 C 
ATOM      8  C   UNL     1     -51.958 -48.948  21.707  1.00  0.00    -0.022 C 
ATOM      9  C   UNL     1     -52.688 -49.425  20.414  1.00  0.00     0.008 C 
ATOM     10  C   UNL     1     -54.126 -48.855  20.298  1.00  0.00     0.005 C 
ATOM     11  C   UNL     1     -54.296 -47.498  21.046  1.00  0.00    -0.005 C 
ATOM     12  C   UNL     1     -50.674 -49.776  21.954  1.00  0.00     0.012 C 
ENDROOT
BRANCH  11  13
ATOM     13  C   UNL     1     -55.779 -47.224  21.443  1.00  0.00    -0.014 C 
ATOM     14  C   UNL     1     -56.659 -48.466  21.223  1.00  0.00     0.007 C 
ATOM     15  C   UNL     1     -56.400 -46.012  20.728  1.00  0.00     0.007 C 
ENDBRANCH  11  13
TORSDOF 1
ENDMDL
MODEL 5
REMARK VINA RESULT:    -5.896      3.924      6.296
REMARK INTER + INTRA:          -6.496
REMARK INTER:                  -6.260
REMARK INTRA:                  -0.236
REMARK UNBOUND:                -0.255
REMARK SMILES CC1=CC[C@H]2[C@H]3[C@@H]1[C@]2(C)CC[C@H]3C(C)C
REMARK SMILES IDX 1 1 2 2 3 3 4 4 5 5 6 6 7 7 8 8 10 9 11 10 12 11 9 12 13 13
REMARK SMILES IDX 14 14 15 15
REMARK H PARENT
REMARK Flexibility Score: inf
ROOT
ATOM      1  C   UNL     1     -46.877 -49.381  33.688  1.00  0.00     0.039 C 
ATOM      2  C   UNL     1     -46.238 -50.321  32.710  1.00  0.00    -0.073 C 
ATOM      3  C   UNL     1     -46.680 -51.594  32.534  1.00  0.00    -0.027 C 
ATOM      4  C   UNL     1     -45.970 -52.488  31.512  1.00  0.00     0.031 C 
ATOM      5  C   UNL     1     -44.831 -51.694  30.792  1.00  0.00     0.003 C 
ATOM      6  C   UNL     1     -45.412 -50.315  30.382  1.00  0.00     0.004 C 
ATOM      7  C   UNL     1     -45.082 -49.856  31.821  1.00  0.00     0.024 C 
ATOM      8  C   UNL     1     -43.954 -50.913  31.804  1.00  0.00    -0.022 C 
ATOM      9  C   UNL     1     -42.702 -50.311  31.094  1.00  0.00     0.008 C 
ATOM     10  C   UNL     1     -42.988 -49.909  29.623  1.00  0.00     0.005 C 
ATOM     11  C   UNL     1     -44.487 -49.559  29.377  1.00  0.00    -0.005 C 
ATOM     12  C   UNL     1     -43.560 -51.591  33.137  1.00  0.00     0.012 C 
ENDROOT
BRANCH  11  13
ATOM     13  C   UNL     1     -44.898 -49.738  27.883  1.00  0.00    -0.014 C 
ATOM     14  C   UNL     1     -43.694 -50.132  27.012  1.00  0.00     0.007 C 
ATOM     15  C   UNL     1     -45.597 -48.507  27.279  1.00  0.00     0.007 C 
ENDBRANCH  11  13
TORSDOF 1
ENDMDL
MODEL 6
REMARK VINA RESULT:    -5.836      1.194      2.844
REMARK INTER + INTRA:          -6.432
REMARK INTER:                  -6.240
REMARK INTRA:                  -0.192
REMARK UNBOUND:                -0.255
REMARK SMILES CC1=CC[C@H]2[C@H]3[C@@H]1[C@]2(C)CC[C@H]3C(C)C
REMARK SMILES IDX 1 1 2 2 3 3 4 4 5 5 6 6 7 7 8 8 10 9 11 10 12 11 9 12 13 13
REMARK SMILES IDX 14 14 15 15
REMARK H PARENT
REMARK Flexibility Score: inf
ROOT
ATOM      1  C   UNL     1     -43.656 -49.798  24.676  1.00  0.00     0.039 C 
ATOM      2  C   UNL     1     -43.416 -49.383  26.097  1.00  0.00    -0.073 C 
ATOM      3  C   UNL     1     -44.040 -49.987  27.143  1.00  0.00    -0.027 C 
ATOM      4  C   UNL     1     -43.736 -49.501  28.564  1.00  0.00     0.031 C 
ATOM      5  C   UNL     1     -42.663 -48.363  28.534  1.00  0.00     0.003 C 
ATOM      6  C   UNL     1     -41.525 -48.821  27.584  1.00  0.00     0.004 C 
ATOM      7  C   UNL     1     -42.403 -48.285  26.431  1.00  0.00     0.024 C 
ATOM      8  C   UNL     1     -42.996 -47.296  27.460  1.00  0.00    -0.022 C 
ATOM      9  C   UNL     1     -42.044 -46.068  27.594  1.00  0.00     0.008 C 
ATOM     10  C   UNL     1     -40.627 -46.465  28.089  1.00  0.00     0.005 C 
ATOM     11  C   UNL     1     -40.250 -47.931  27.718  1.00  0.00    -0.005 C 
ATOM     12  C   UNL     1     -44.463 -46.840  27.283  1.00  0.00     0.012 C 
ENDROOT
BRANCH  11  13
ATOM     13  C   UNL     1     -39.163 -48.520  28.668  1.00  0.00    -0.014 C 
ATOM     14  C   UNL     1     -39.618 -48.478  30.136  1.00  0.00     0.007 C 
ATOM     15  C   UNL     1     -37.786 -47.849  28.529  1.00  0.00     0.007 C 
ENDBRANCH  11  13
TORSDOF 1
ENDMDL
MODEL 7
REMARK VINA RESULT:    -5.668      9.790     12.846
REMARK INTER + INTRA:          -6.255
REMARK INTER:                  -5.971
REMARK INTRA:                  -0.284
REMARK UNBOUND:                -0.255
REMARK SMILES CC1=CC[C@H]2[C@H]3[C@@H]1[C@]2(C)CC[C@H]3C(C)C
REMARK SMILES IDX 1 1 2 2 3 3 4 4 5 5 6 6 7 7 8 8 10 9 11 10 12 11 9 12 13 13
REMARK SMILES IDX 14 14 15 15
REMARK H PARENT
REMARK Flexibility Score: inf
ROOT
ATOM      1  C   UNL     1     -49.997 -50.361  25.181  1.00  0.00     0.039 C 
ATOM      2  C   UNL     1     -50.212 -49.211  24.242  1.00  0.00    -0.073 C 
ATOM      3  C   UNL     1     -49.251 -48.794  23.376  1.00  0.00    -0.027 C 
ATOM      4  C   UNL     1     -49.555 -47.612  22.450  1.00  0.00     0.031 C 
ATOM      5  C   UNL     1     -51.022 -47.114  22.664  1.00  0.00     0.003 C 
ATOM      6  C   UNL     1     -51.939 -48.366  22.691  1.00  0.00     0.004 C 
ATOM      7  C   UNL     1     -51.561 -48.491  24.184  1.00  0.00     0.024 C 
ATOM      8  C   UNL     1     -51.356 -46.959  24.170  1.00  0.00    -0.022 C 
ATOM      9  C   UNL     1     -52.737 -46.258  24.355  1.00  0.00     0.008 C 
ATOM     10  C   UNL     1     -53.738 -46.607  23.221  1.00  0.00     0.005 C 
ATOM     11  C   UNL     1     -53.450 -47.993  22.572  1.00  0.00    -0.005 C 
ATOM     12  C   UNL     1     -50.296 -46.348  25.116  1.00  0.00     0.012 C 
ENDROOT
BRANCH  11  13
ATOM     13  C   UNL     1     -54.013 -48.095  21.121  1.00  0.00    -0.014 C 
ATOM     14  C   UNL     1     -55.511 -48.441  21.123  1.00  0.00     0.007 C 
ATOM     15  C   UNL     1     -53.250 -49.086  20.225  1.00  0.00     0.007 C 
ENDBRANCH  11  13
TORSDOF 1
ENDMDL
MODEL 8
REMARK VINA RESULT:    -5.623      1.668      3.416
REMARK INTER + INTRA:          -6.207
REMARK INTER:                  -5.945
REMARK INTRA:                  -0.262
REMARK UNBOUND:                -0.255
REMARK SMILES CC1=CC[C@H]2[C@H]3[C@@H]1[C@]2(C)CC[C@H]3C(C)C
REMARK SMILES IDX 1 1 2 2 3 3 4 4 5 5 6 6 7 7 8 8 10 9 11 10 12 11 9 12 13 13
REMARK SMILES IDX 14 14 15 15
REMARK H PARENT
REMARK Flexibility Score: inf
ROOT
ATOM      1  C   UNL     1     -44.573 -51.544  30.378  1.00  0.00     0.039 C 
ATOM      2  C   UNL     1     -44.233 -50.191  29.827  1.00  0.00    -0.073 C 
ATOM      3  C   UNL     1     -44.827 -49.055  30.280  1.00  0.00    -0.027 C 
ATOM      4  C   UNL     1     -44.419 -47.713  29.662  1.00  0.00     0.031 C 
ATOM      5  C   UNL     1     -43.295 -47.922  28.596  1.00  0.00     0.003 C 
ATOM      6  C   UNL     1     -42.236 -48.872  29.216  1.00  0.00     0.004 C 
ATOM      7  C   UNL     1     -43.149 -50.032  28.759  1.00  0.00     0.024 C 
ATOM      8  C   UNL     1     -43.633 -49.089  27.633  1.00  0.00    -0.022 C 
ATOM      9  C   UNL     1     -42.615 -49.138  26.453  1.00  0.00     0.008 C 
ATOM     10  C   UNL     1     -41.194 -48.675  26.873  1.00  0.00     0.005 C 
ATOM     11  C   UNL     1     -40.913 -48.902  28.389  1.00  0.00    -0.005 C 
ATOM     12  C   UNL     1     -45.084 -49.241  27.118  1.00  0.00     0.012 C 
ENDROOT
BRANCH  11  13
ATOM     13  C   UNL     1     -39.805 -47.948  28.933  1.00  0.00    -0.014 C 
ATOM     14  C   UNL     1     -39.952 -46.530  28.359  1.00  0.00     0.007 C 
ATOM     15  C   UNL     1     -38.373 -48.460  28.697  1.00  0.00     0.007 C 
ENDBRANCH  11  13
TORSDOF 1
ENDMDL
MODEL 9
REMARK VINA RESULT:    -5.575      1.537      3.525
REMARK INTER + INTRA:          -6.156
REMARK INTER:                  -5.842
REMARK INTRA:                  -0.314
REMARK UNBOUND:                -0.255
REMARK SMILES CC1=CC[C@H]2[C@H]3[C@@H]1[C@]2(C)CC[C@H]3C(C)C
REMARK SMILES IDX 1 1 2 2 3 3 4 4 5 5 6 6 7 7 8 8 10 9 11 10 12 11 9 12 13 13
REMARK SMILES IDX 14 14 15 15
REMARK H PARENT
REMARK Flexibility Score: inf
ROOT
ATOM      1  C   UNL     1     -43.606 -49.289  24.464  1.00  0.00     0.039 C 
ATOM      2  C   UNL     1     -43.389 -48.573  25.765  1.00  0.00    -0.073 C 
ATOM      3  C   UNL     1     -44.329 -47.753  26.306  1.00  0.00    -0.027 C 
ATOM      4  C   UNL     1     -44.025 -47.062  27.639  1.00  0.00     0.031 C 
ATOM      5  C   UNL     1     -42.622 -47.498  28.173  1.00  0.00     0.003 C 
ATOM      6  C   UNL     1     -42.529 -49.041  28.033  1.00  0.00     0.004 C 
ATOM      7  C   UNL     1     -42.105 -48.786  26.569  1.00  0.00     0.024 C 
ATOM      8  C   UNL     1     -41.544 -47.432  27.061  1.00  0.00    -0.022 C 
ATOM      9  C   UNL     1     -40.122 -47.656  27.661  1.00  0.00     0.008 C 
ATOM     10  C   UNL     1     -40.135 -48.626  28.873  1.00  0.00     0.005 C 
ATOM     11  C   UNL     1     -41.321 -49.635  28.823  1.00  0.00    -0.005 C 
ATOM     12  C   UNL     1     -41.547 -46.234  26.082  1.00  0.00     0.012 C 
ENDROOT
BRANCH  11  13
ATOM     13  C   UNL     1     -41.696 -50.178  30.236  1.00  0.00    -0.014 C 
ATOM     14  C   UNL     1     -43.188 -49.967  30.542  1.00  0.00     0.007 C 
ATOM     15  C   UNL     1     -40.843 -49.591  31.374  1.00  0.00     0.007 C 
ENDBRANCH  11  13
TORSDOF 1
ENDMDL
