MODEL 1
REMARK VINA RESULT:    -5.560      0.000      0.000
REMARK INTER + INTRA:         -11.877
REMARK INTER:                 -10.111
REMARK INTRA:                  -1.766
REMARK UNBOUND:                -1.766
REMARK SMILES CCCCCCCCCCCCCC[C@H](C)C(=O)[O-]
REMARK SMILES IDX 9 1 10 2 11 3 12 4 13 5 14 6 15 7 16 8 17 9 18 10 19 11 8 12
REMARK SMILES IDX 7 13 6 14 5 15 4 16 3 17 2 18 1 19
REMARK H PARENT
REMARK Flexibility Score: inf
ROOT
ATOM      1  C   UNL     1       8.741 -24.869  21.839  1.00  0.00     0.000 C 
ENDROOT
BRANCH   1   2
ATOM      2  C   UNL     1      10.185 -25.370  21.980  1.00  0.00     0.000 C 
BRANCH   2   3
ATOM      3  C   UNL     1      11.108 -24.833  20.874  1.00  0.00     0.000 C 
BRANCH   3   4
ATOM      4  C   UNL     1      12.039 -23.714  21.374  1.00  0.00     0.000 C 
BRANCH   4   5
ATOM      5  C   UNL     1      12.772 -23.000  20.227  1.00  0.00     0.001 C 
BRANCH   5   6
ATOM      6  C   UNL     1      14.298 -23.221  20.278  1.00  0.00     0.009 C 
BRANCH   6   7
ATOM      7  C   UNL     1      14.757 -24.232  21.352  1.00  0.00     0.032 C 
ATOM      8  C   UNL     1      15.822 -23.651  22.293  1.00  0.00     0.014 C 
BRANCH   7   9
ATOM      9  C   UNL     1      15.208 -25.531  20.736  1.00  0.00     0.044 C 
ATOM     10  O   UNL     1      15.642 -26.456  21.473  1.00  0.00    -0.550 OA
ATOM     11  O   UNL     1      15.104 -25.744  19.366  1.00  0.00    -0.550 OA
ENDBRANCH   7   9
ENDBRANCH   6   7
ENDBRANCH   5   6
ENDBRANCH   4   5
ENDBRANCH   3   4
ENDBRANCH   2   3
ENDBRANCH   1   2
BRANCH   1  12
ATOM     12  C   UNL     1       8.312 -24.075  23.083  1.00  0.00     0.000 C 
BRANCH  12  13
ATOM     13  C   UNL     1       9.480 -23.795  24.046  1.00  0.00    -0.000 C 
BRANCH  13  14
ATOM     14  C   UNL     1       9.456 -24.613  25.353  1.00  0.00    -0.000 C 
BRANCH  14  15
ATOM     15  C   UNL     1      10.089 -23.912  26.571  1.00  0.00    -0.000 C 
BRANCH  15  16
ATOM     16  C   UNL     1      11.139 -22.836  26.233  1.00  0.00    -0.000 C 
BRANCH  16  17
ATOM     17  C   UNL     1      12.600 -23.321  26.263  1.00  0.00    -0.000 C 
BRANCH  17  18
ATOM     18  C   UNL     1      13.414 -22.835  25.056  1.00  0.00    -0.003 C 
ATOM     19  C   UNL     1      12.641 -21.791  24.256  1.00  0.00     0.004 C 
ENDBRANCH  17  18
ENDBRANCH  16  17
ENDBRANCH  15  16
ENDBRANCH  14  15
ENDBRANCH  13  14
ENDBRANCH  12  13
ENDBRANCH   1  12
TORSDOF 14
ENDMDL
MODEL 2
REMARK VINA RESULT:    -5.535      2.843      5.655
REMARK INTER + INTRA:         -11.831
REMARK INTER:                  -9.915
REMARK INTRA:                  -1.916
REMARK UNBOUND:                -1.766
REMARK SMILES CCCCCCCCCCCCCC[C@H](C)C(=O)[O-]
REMARK SMILES IDX 9 1 10 2 11 3 12 4 13 5 14 6 15 7 16 8 17 9 18 10 19 11 8 12
REMARK SMILES IDX 7 13 6 14 5 15 4 16 3 17 2 18 1 19
REMARK H PARENT
REMARK Flexibility Score: inf
ROOT
ATOM      1  C   UNL     1      11.870 -23.969  22.091  1.00  0.00     0.000 C 
ENDROOT
BRANCH   1   2
ATOM      2  C   UNL     1      10.959 -24.831  21.205  1.00  0.00     0.000 C 
BRANCH   2   3
ATOM      3  C   UNL     1       9.815 -25.486  21.995  1.00  0.00     0.000 C 
BRANCH   3   4
ATOM      4  C   UNL     1       8.562 -24.595  22.068  1.00  0.00     0.000 C 
BRANCH   4   5
ATOM      5  C   UNL     1       8.392 -23.927  23.442  1.00  0.00     0.001 C 
BRANCH   5   6
ATOM      6  C   UNL     1       9.365 -24.493  24.496  1.00  0.00     0.009 C 
BRANCH   6   7
ATOM      7  C   UNL     1       9.812 -23.467  25.561  1.00  0.00     0.032 C 
ATOM      8  C   UNL     1      10.524 -22.252  24.949  1.00  0.00     0.014 C 
BRANCH   7   9
ATOM      9  C   UNL     1      10.643 -24.113  26.640  1.00  0.00     0.044 C 
ATOM     10  O   UNL     1      10.380 -25.285  27.016  1.00  0.00    -0.550 OA
ATOM     11  O   UNL     1      11.733 -23.449  27.194  1.00  0.00    -0.550 OA
ENDBRANCH   7   9
ENDBRANCH   6   7
ENDBRANCH   5   6
ENDBRANCH   4   5
ENDBRANCH   3   4
ENDBRANCH   2   3
ENDBRANCH   1   2
BRANCH   1  12
ATOM     12  C   UNL     1      12.240 -22.656  21.384  1.00  0.00     0.000 C 
BRANCH  12  13
ATOM     13  C   UNL     1      12.969 -22.881  20.048  1.00  0.00    -0.000 C 
BRANCH  13  14
ATOM     14  C   UNL     1      14.491 -23.103  20.166  1.00  0.00    -0.000 C 
BRANCH  14  15
ATOM     15  C   UNL     1      14.908 -24.483  20.708  1.00  0.00    -0.000 C 
BRANCH  15  16
ATOM     16  C   UNL     1      15.492 -24.475  22.134  1.00  0.00    -0.000 C 
BRANCH  16  17
ATOM     17  C   UNL     1      15.744 -23.076  22.725  1.00  0.00    -0.000 C 
BRANCH  17  18
ATOM     18  C   UNL     1      14.849 -22.770  23.934  1.00  0.00    -0.003 C 
ATOM     19  C   UNL     1      14.358 -21.325  23.902  1.00  0.00     0.004 C 
ENDBRANCH  17  18
ENDBRANCH  16  17
ENDBRANCH  15  16
ENDBRANCH  14  15
ENDBRANCH  13  14
ENDBRANCH  12  13
ENDBRANCH   1  12
TORSDOF 14
ENDMDL
MODEL 3
REMARK VINA RESULT:    -5.452      3.097      6.640
REMARK INTER + INTRA:         -11.680
REMARK INTER:                  -9.738
REMARK INTRA:                  -1.941
REMARK UNBOUND:                -1.766
REMARK SMILES CCCCCCCCCCCCCC[C@H](C)C(=O)[O-]
REMARK SMILES IDX 9 1 10 2 11 3 12 4 13 5 14 6 15 7 16 8 17 9 18 10 19 11 8 12
REMARK SMILES IDX 7 13 6 14 5 15 4 16 3 17 2 18 1 19
REMARK H PARENT
REMARK Flexibility Score: inf
ROOT
ATOM      1  C   UNL     1      15.920 -23.134  22.656  1.00  0.00     0.000 C 
ENDROOT
BRANCH   1   2
ATOM      2  C   UNL     1      15.252 -22.686  23.964  1.00  0.00     0.000 C 
BRANCH   2   3
ATOM      3  C   UNL     1      14.300 -21.496  23.764  1.00  0.00     0.000 C 
BRANCH   3   4
ATOM      4  C   UNL     1      12.832 -21.861  24.049  1.00  0.00     0.000 C 
BRANCH   4   5
ATOM      5  C   UNL     1      12.686 -23.217  24.757  1.00  0.00     0.001 C 
BRANCH   5   6
ATOM      6  C   UNL     1      12.470 -23.067  26.276  1.00  0.00     0.009 C 
BRANCH   6   7
ATOM      7  C   UNL     1      10.989 -23.129  26.715  1.00  0.00     0.032 C 
ATOM      8  C   UNL     1      10.266 -24.372  26.177  1.00  0.00     0.014 C 
BRANCH   7   9
ATOM      9  C   UNL     1      10.253 -21.862  26.365  1.00  0.00     0.044 C 
ATOM     10  O   UNL     1       9.512 -21.829  25.347  1.00  0.00    -0.550 OA
ATOM     11  O   UNL     1      10.339 -20.738  27.181  1.00  0.00    -0.550 OA
ENDBRANCH   7   9
ENDBRANCH   6   7
ENDBRANCH   5   6
ENDBRANCH   4   5
ENDBRANCH   3   4
ENDBRANCH   2   3
ENDBRANCH   1   2
BRANCH   1  12
ATOM     12  C   UNL     1      15.427 -24.528  22.239  1.00  0.00     0.000 C 
BRANCH  12  13
ATOM     13  C   UNL     1      14.799 -24.545  20.834  1.00  0.00    -0.000 C 
BRANCH  13  14
ATOM     14  C   UNL     1      14.296 -23.178  20.328  1.00  0.00    -0.000 C 
BRANCH  14  15
ATOM     15  C   UNL     1      12.765 -23.009  20.319  1.00  0.00    -0.000 C 
BRANCH  15  16
ATOM     16  C   UNL     1      11.965 -24.298  20.591  1.00  0.00    -0.000 C 
BRANCH  16  17
ATOM     17  C   UNL     1      11.129 -24.284  21.884  1.00  0.00    -0.000 C 
BRANCH  17  18
ATOM     18  C   UNL     1      10.123 -25.442  21.956  1.00  0.00    -0.003 C 
ATOM     19  C   UNL     1       8.732 -24.938  22.329  1.00  0.00     0.004 C 
ENDBRANCH  17  18
ENDBRANCH  16  17
ENDBRANCH  15  16
ENDBRANCH  14  15
ENDBRANCH  13  14
ENDBRANCH  12  13
ENDBRANCH   1  12
TORSDOF 14
ENDMDL
MODEL 4
REMARK VINA RESULT:    -5.387      3.027      6.117
REMARK INTER + INTRA:         -11.561
REMARK INTER:                  -9.709
REMARK INTRA:                  -1.853
REMARK UNBOUND:                -1.766
REMARK SMILES CCCCCCCCCCCCCC[C@H](C)C(=O)[O-]
REMARK SMILES IDX 9 1 10 2 11 3 12 4 13 5 14 6 15 7 16 8 17 9 18 10 19 11 8 12
REMARK SMILES IDX 7 13 6 14 5 15 4 16 3 17 2 18 1 19
REMARK H PARENT
REMARK Flexibility Score: inf
ROOT
ATOM      1  C   UNL     1      14.602 -22.629  21.055  1.00  0.00     0.000 C 
ENDROOT
BRANCH   1   2
ATOM      2  C   UNL     1      15.114 -23.512  22.203  1.00  0.00     0.000 C 
BRANCH   2   3
ATOM      3  C   UNL     1      14.753 -22.949  23.587  1.00  0.00     0.000 C 
BRANCH   3   4
ATOM      4  C   UNL     1      13.816 -21.730  23.503  1.00  0.00     0.000 C 
BRANCH   4   5
ATOM      5  C   UNL     1      12.624 -21.834  24.468  1.00  0.00     0.001 C 
BRANCH   5   6
ATOM      6  C   UNL     1      12.634 -23.147  25.277  1.00  0.00     0.009 C 
BRANCH   6   7
ATOM      7  C   UNL     1      11.606 -23.190  26.429  1.00  0.00     0.032 C 
ATOM      8  C   UNL     1      11.127 -24.615  26.741  1.00  0.00     0.014 C 
BRANCH   7   9
ATOM      9  C   UNL     1      10.449 -22.258  26.177  1.00  0.00     0.044 C 
ATOM     10  O   UNL     1       9.528 -22.601  25.390  1.00  0.00    -0.550 OA
ATOM     11  O   UNL     1      10.357 -21.039  26.842  1.00  0.00    -0.550 OA
ENDBRANCH   7   9
ENDBRANCH   6   7
ENDBRANCH   5   6
ENDBRANCH   4   5
ENDBRANCH   3   4
ENDBRANCH   2   3
ENDBRANCH   1   2
BRANCH   1  12
ATOM     12  C   UNL     1      13.616 -23.403  20.167  1.00  0.00     0.000 C 
BRANCH  12  13
ATOM     13  C   UNL     1      13.647 -24.921  20.420  1.00  0.00    -0.000 C 
BRANCH  13  14
ATOM     14  C   UNL     1      12.280 -25.553  20.752  1.00  0.00    -0.000 C 
BRANCH  14  15
ATOM     15  C   UNL     1      11.142 -24.548  21.014  1.00  0.00    -0.000 C 
BRANCH  15  16
ATOM     16  C   UNL     1      10.725 -24.406  22.491  1.00  0.00    -0.000 C 
BRANCH  16  17
ATOM     17  C   UNL     1       9.367 -25.037  22.846  1.00  0.00    -0.000 C 
BRANCH  17  18
ATOM     18  C   UNL     1       8.246 -24.622  21.883  1.00  0.00    -0.003 C 
ATOM     19  C   UNL     1       7.180 -23.800  22.603  1.00  0.00     0.004 C 
ENDBRANCH  17  18
ENDBRANCH  16  17
ENDBRANCH  15  16
ENDBRANCH  14  15
ENDBRANCH  13  14
ENDBRANCH  12  13
ENDBRANCH   1  12
TORSDOF 14
ENDMDL
MODEL 5
REMARK VINA RESULT:    -5.243      1.162      3.947
REMARK INTER + INTRA:         -11.299
REMARK INTER:                 -10.169
REMARK INTRA:                  -1.131
REMARK UNBOUND:                -1.766
REMARK SMILES CCCCCCCCCCCCCC[C@H](C)C(=O)[O-]
REMARK SMILES IDX 9 1 10 2 11 3 12 4 13 5 14 6 15 7 16 8 17 9 18 10 19 11 8 12
REMARK SMILES IDX 7 13 6 14 5 15 4 16 3 17 2 18 1 19
REMARK H PARENT
REMARK Flexibility Score: inf
ROOT
ATOM      1  C   UNL     1      12.734 -23.243  25.043  1.00  0.00     0.000 C 
ENDROOT
BRANCH   1   2
ATOM      2  C   UNL     1      12.725 -21.901  24.295  1.00  0.00     0.000 C 
BRANCH   2   3
ATOM      3  C   UNL     1      14.076 -21.583  23.636  1.00  0.00     0.000 C 
BRANCH   3   4
ATOM      4  C   UNL     1      15.075 -22.748  23.746  1.00  0.00     0.000 C 
BRANCH   4   5
ATOM      5  C   UNL     1      15.216 -23.533  22.431  1.00  0.00     0.001 C 
BRANCH   5   6
ATOM      6  C   UNL     1      14.993 -22.645  21.190  1.00  0.00     0.009 C 
BRANCH   6   7
ATOM      7  C   UNL     1      14.114 -23.293  20.097  1.00  0.00     0.032 C 
ATOM      8  C   UNL     1      12.707 -22.679  20.031  1.00  0.00     0.014 C 
BRANCH   7   9
ATOM      9  C   UNL     1      14.061 -24.791  20.242  1.00  0.00     0.044 C 
ATOM     10  O   UNL     1      13.049 -25.335  20.760  1.00  0.00    -0.550 OA
ATOM     11  O   UNL     1      15.094 -25.591  19.765  1.00  0.00    -0.550 OA
ENDBRANCH   7   9
ENDBRANCH   6   7
ENDBRANCH   5   6
ENDBRANCH   4   5
ENDBRANCH   3   4
ENDBRANCH   2   3
ENDBRANCH   1   2
BRANCH   1  12
ATOM     12  C   UNL     1      12.250 -23.066  26.490  1.00  0.00     0.000 C 
BRANCH  12  13
ATOM     13  C   UNL     1      10.766 -22.667  26.581  1.00  0.00    -0.000 C 
BRANCH  13  14
ATOM     14  C   UNL     1       9.775 -23.848  26.609  1.00  0.00    -0.000 C 
BRANCH  14  15
ATOM     15  C   UNL     1       9.798 -24.749  25.359  1.00  0.00    -0.000 C 
BRANCH  15  16
ATOM     16  C   UNL     1       9.194 -24.119  24.089  1.00  0.00    -0.000 C 
BRANCH  16  17
ATOM     17  C   UNL     1       9.147 -25.047  22.862  1.00  0.00    -0.000 C 
BRANCH  17  18
ATOM     18  C   UNL     1       8.084 -24.627  21.837  1.00  0.00    -0.003 C 
ATOM     19  C   UNL     1       7.070 -23.670  22.458  1.00  0.00     0.004 C 
ENDBRANCH  17  18
ENDBRANCH  16  17
ENDBRANCH  15  16
ENDBRANCH  14  15
ENDBRANCH  13  14
ENDBRANCH  12  13
ENDBRANCH   1  12
TORSDOF 14
ENDMDL
MODEL 6
REMARK VINA RESULT:    -5.232      2.852      6.196
REMARK INTER + INTRA:         -11.280
REMARK INTER:                  -9.563
REMARK INTRA:                  -1.717
REMARK UNBOUND:                -1.766
REMARK SMILES CCCCCCCCCCCCCC[C@H](C)C(=O)[O-]
REMARK SMILES IDX 9 1 10 2 11 3 12 4 13 5 14 6 15 7 16 8 17 9 18 10 19 11 8 12
REMARK SMILES IDX 7 13 6 14 5 15 4 16 3 17 2 18 1 19
REMARK H PARENT
REMARK Flexibility Score: inf
ROOT
ATOM      1  C   UNL     1      12.538 -23.191  26.103  1.00  0.00     0.000 C 
ENDROOT
BRANCH   1   2
ATOM      2  C   UNL     1      11.530 -22.033  26.127  1.00  0.00     0.000 C 
BRANCH   2   3
ATOM      3  C   UNL     1      10.073 -22.518  26.062  1.00  0.00     0.000 C 
BRANCH   3   4
ATOM      4  C   UNL     1       9.920 -23.989  26.487  1.00  0.00     0.000 C 
BRANCH   4   5
ATOM      5  C   UNL     1       9.571 -24.912  25.309  1.00  0.00     0.001 C 
BRANCH   5   6
ATOM      6  C   UNL     1       9.582 -24.169  23.957  1.00  0.00     0.009 C 
BRANCH   6   7
ATOM      7  C   UNL     1       9.096 -25.020  22.762  1.00  0.00     0.032 C 
ATOM      8  C   UNL     1      10.230 -25.372  21.788  1.00  0.00     0.014 C 
BRANCH   7   9
ATOM      9  C   UNL     1       7.935 -24.372  22.054  1.00  0.00     0.044 C 
ATOM     10  O   UNL     1       7.788 -24.535  20.814  1.00  0.00    -0.550 OA
ATOM     11  O   UNL     1       6.991 -23.634  22.760  1.00  0.00    -0.550 OA
ENDBRANCH   7   9
ENDBRANCH   6   7
ENDBRANCH   5   6
ENDBRANCH   4   5
ENDBRANCH   3   4
ENDBRANCH   2   3
ENDBRANCH   1   2
BRANCH   1  12
ATOM     12  C   UNL     1      13.047 -23.445  24.676  1.00  0.00     0.000 C 
BRANCH  12  13
ATOM     13  C   UNL     1      14.009 -22.351  24.180  1.00  0.00    -0.000 C 
BRANCH  13  14
ATOM     14  C   UNL     1      13.796 -21.911  22.718  1.00  0.00    -0.000 C 
BRANCH  14  15
ATOM     15  C   UNL     1      12.783 -22.757  21.923  1.00  0.00    -0.000 C 
BRANCH  15  16
ATOM     16  C   UNL     1      13.059 -22.853  20.410  1.00  0.00    -0.000 C 
BRANCH  16  17
ATOM     17  C   UNL     1      14.461 -23.370  20.036  1.00  0.00    -0.000 C 
BRANCH  17  18
ATOM     18  C   UNL     1      14.749 -24.770  20.597  1.00  0.00    -0.003 C 
ATOM     19  C   UNL     1      13.704 -25.776  20.125  1.00  0.00     0.004 C 
ENDBRANCH  17  18
ENDBRANCH  16  17
ENDBRANCH  15  16
ENDBRANCH  14  15
ENDBRANCH  13  14
ENDBRANCH  12  13
ENDBRANCH   1  12
TORSDOF 14
ENDMDL
MODEL 7
REMARK VINA RESULT:    -5.226      1.008      2.677
REMARK INTER + INTRA:         -11.269
REMARK INTER:                  -9.390
REMARK INTRA:                  -1.879
REMARK UNBOUND:                -1.766
REMARK SMILES CCCCCCCCCCCCCC[C@H](C)C(=O)[O-]
REMARK SMILES IDX 9 1 10 2 11 3 12 4 13 5 14 6 15 7 16 8 17 9 18 10 19 11 8 12
REMARK SMILES IDX 7 13 6 14 5 15 4 16 3 17 2 18 1 19
REMARK H PARENT
REMARK Flexibility Score: inf
ROOT
ATOM      1  C   UNL     1       9.442 -24.047  24.154  1.00  0.00     0.000 C 
ENDROOT
BRANCH   1   2
ATOM      2  C   UNL     1       8.305 -24.112  23.125  1.00  0.00     0.000 C 
BRANCH   2   3
ATOM      3  C   UNL     1       8.722 -24.820  21.826  1.00  0.00     0.000 C 
BRANCH   3   4
ATOM      4  C   UNL     1      10.160 -25.367  21.888  1.00  0.00     0.000 C 
BRANCH   4   5
ATOM      5  C   UNL     1      11.129 -24.582  20.989  1.00  0.00     0.001 C 
BRANCH   5   6
ATOM      6  C   UNL     1      12.416 -25.374  20.681  1.00  0.00     0.009 C 
BRANCH   6   7
ATOM      7  C   UNL     1      13.715 -24.544  20.800  1.00  0.00     0.032 C 
ATOM      8  C   UNL     1      13.597 -23.166  20.133  1.00  0.00     0.014 C 
BRANCH   7   9
ATOM      9  C   UNL     1      14.910 -25.307  20.291  1.00  0.00     0.044 C 
ATOM     10  O   UNL     1      15.341 -25.093  19.128  1.00  0.00    -0.550 OA
ATOM     11  O   UNL     1      15.580 -26.212  21.109  1.00  0.00    -0.550 OA
ENDBRANCH   7   9
ENDBRANCH   6   7
ENDBRANCH   5   6
ENDBRANCH   4   5
ENDBRANCH   3   4
ENDBRANCH   2   3
ENDBRANCH   1   2
BRANCH   1  12
ATOM     12  C   UNL     1       9.394 -22.729  24.942  1.00  0.00     0.000 C 
BRANCH  12  13
ATOM     13  C   UNL     1      10.689 -22.452  25.725  1.00  0.00    -0.000 C 
BRANCH  13  14
ATOM     14  C   UNL     1      11.717 -23.601  25.712  1.00  0.00    -0.000 C 
BRANCH  14  15
ATOM     15  C   UNL     1      12.911 -23.396  24.759  1.00  0.00    -0.000 C 
BRANCH  15  16
ATOM     16  C   UNL     1      12.849 -22.119  23.900  1.00  0.00    -0.000 C 
BRANCH  16  17
ATOM     17  C   UNL     1      14.218 -21.544  23.490  1.00  0.00    -0.000 C 
BRANCH  17  18
ATOM     18  C   UNL     1      15.394 -22.283  24.143  1.00  0.00    -0.003 C 
ATOM     19  C   UNL     1      16.215 -23.038  23.102  1.00  0.00     0.004 C 
ENDBRANCH  17  18
ENDBRANCH  16  17
ENDBRANCH  15  16
ENDBRANCH  14  15
ENDBRANCH  13  14
ENDBRANCH  12  13
ENDBRANCH   1  12
TORSDOF 14
ENDMDL
MODEL 8
REMARK VINA RESULT:    -5.217      1.240      3.619
REMARK INTER + INTRA:         -11.252
REMARK INTER:                  -9.519
REMARK INTRA:                  -1.734
REMARK UNBOUND:                -1.766
REMARK SMILES CCCCCCCCCCCCCC[C@H](C)C(=O)[O-]
REMARK SMILES IDX 9 1 10 2 11 3 12 4 13 5 14 6 15 7 16 8 17 9 18 10 19 11 8 12
REMARK SMILES IDX 7 13 6 14 5 15 4 16 3 17 2 18 1 19
REMARK H PARENT
REMARK Flexibility Score: inf
ROOT
ATOM      1  C   UNL     1      13.087 -23.328  24.849  1.00  0.00     0.000 C 
ENDROOT
BRANCH   1   2
ATOM      2  C   UNL     1      13.410 -22.035  24.086  1.00  0.00     0.000 C 
BRANCH   2   3
ATOM      3  C   UNL     1      13.194 -22.174  22.570  1.00  0.00     0.000 C 
BRANCH   3   4
ATOM      4  C   UNL     1      12.198 -23.293  22.216  1.00  0.00     0.000 C 
BRANCH   4   5
ATOM      5  C   UNL     1      12.331 -23.763  20.759  1.00  0.00     0.001 C 
BRANCH   5   6
ATOM      6  C   UNL     1      13.178 -25.045  20.629  1.00  0.00     0.009 C 
BRANCH   6   7
ATOM      7  C   UNL     1      14.683 -24.788  20.391  1.00  0.00     0.032 C 
ATOM      8  C   UNL     1      15.244 -25.611  19.222  1.00  0.00     0.014 C 
BRANCH   7   9
ATOM      9  C   UNL     1      15.487 -24.989  21.649  1.00  0.00     0.044 C 
ATOM     10  O   UNL     1      15.724 -26.155  22.061  1.00  0.00    -0.550 OA
ATOM     11  O   UNL     1      16.018 -23.902  22.337  1.00  0.00    -0.550 OA
ENDBRANCH   7   9
ENDBRANCH   6   7
ENDBRANCH   5   6
ENDBRANCH   4   5
ENDBRANCH   3   4
ENDBRANCH   2   3
ENDBRANCH   1   2
BRANCH   1  12
ATOM     12  C   UNL     1      12.485 -23.015  26.227  1.00  0.00     0.000 C 
BRANCH  12  13
ATOM     13  C   UNL     1      11.640 -24.172  26.788  1.00  0.00    -0.000 C 
BRANCH  13  14
ATOM     14  C   UNL     1      10.132 -24.088  26.479  1.00  0.00    -0.000 C 
BRANCH  14  15
ATOM     15  C   UNL     1       9.734 -22.998  25.465  1.00  0.00    -0.000 C 
BRANCH  15  16
ATOM     16  C   UNL     1       9.022 -23.513  24.200  1.00  0.00    -0.000 C 
BRANCH  16  17
ATOM     17  C   UNL     1       9.534 -24.866  23.671  1.00  0.00    -0.000 C 
BRANCH  17  18
ATOM     18  C   UNL     1       8.936 -25.238  22.307  1.00  0.00    -0.003 C 
ATOM     19  C   UNL     1       7.718 -24.375  21.987  1.00  0.00     0.004 C 
ENDBRANCH  17  18
ENDBRANCH  16  17
ENDBRANCH  15  16
ENDBRANCH  14  15
ENDBRANCH  13  14
ENDBRANCH  12  13
ENDBRANCH   1  12
TORSDOF 14
ENDMDL
MODEL 9
REMARK VINA RESULT:    -5.188      1.568      2.699
REMARK INTER + INTRA:         -11.200
REMARK INTER:                  -9.774
REMARK INTRA:                  -1.426
REMARK UNBOUND:                -1.766
REMARK SMILES CCCCCCCCCCCCCC[C@H](C)C(=O)[O-]
REMARK SMILES IDX 9 1 10 2 11 3 12 4 13 5 14 6 15 7 16 8 17 9 18 10 19 11 8 12
REMARK SMILES IDX 7 13 6 14 5 15 4 16 3 17 2 18 1 19
REMARK H PARENT
REMARK Flexibility Score: inf
ROOT
ATOM      1  C   UNL     1       9.780 -25.342  21.930  1.00  0.00     0.000 C 
ENDROOT
BRANCH   1   2
ATOM      2  C   UNL     1      10.918 -24.567  21.250  1.00  0.00     0.000 C 
BRANCH   2   3
ATOM      3  C   UNL     1      11.728 -23.716  22.240  1.00  0.00     0.000 C 
BRANCH   3   4
ATOM      4  C   UNL     1      12.601 -22.662  21.536  1.00  0.00     0.000 C 
BRANCH   4   5
ATOM      5  C   UNL     1      13.068 -23.116  20.144  1.00  0.00     0.001 C 
BRANCH   5   6
ATOM      6  C   UNL     1      14.591 -23.355  20.084  1.00  0.00     0.009 C 
BRANCH   6   7
ATOM      7  C   UNL     1      15.015 -24.813  20.369  1.00  0.00     0.032 C 
ATOM      8  C   UNL     1      13.906 -25.825  20.048  1.00  0.00     0.014 C 
BRANCH   7   9
ATOM      9  C   UNL     1      15.528 -24.978  21.776  1.00  0.00     0.044 C 
ATOM     10  O   UNL     1      16.008 -26.083  22.142  1.00  0.00    -0.550 OA
ATOM     11  O   UNL     1      15.526 -23.908  22.666  1.00  0.00    -0.550 OA
ENDBRANCH   7   9
ENDBRANCH   6   7
ENDBRANCH   5   6
ENDBRANCH   4   5
ENDBRANCH   3   4
ENDBRANCH   2   3
ENDBRANCH   1   2
BRANCH   1  12
ATOM     12  C   UNL     1       9.608 -24.894  23.390  1.00  0.00     0.000 C 
BRANCH  12  13
ATOM     13  C   UNL     1       8.591 -23.751  23.550  1.00  0.00    -0.000 C 
BRANCH  13  14
ATOM     14  C   UNL     1       8.970 -22.684  24.597  1.00  0.00    -0.000 C 
BRANCH  14  15
ATOM     15  C   UNL     1      10.302 -22.935  25.331  1.00  0.00    -0.000 C 
BRANCH  15  16
ATOM     16  C   UNL     1      10.168 -23.580  26.724  1.00  0.00    -0.000 C 
BRANCH  16  17
ATOM     17  C   UNL     1      10.530 -25.075  26.785  1.00  0.00    -0.000 C 
BRANCH  17  18
ATOM     18  C   UNL     1       9.297 -25.984  26.890  1.00  0.00    -0.003 C 
ATOM     19  C   UNL     1       9.703 -27.441  27.086  1.00  0.00     0.004 C 
ENDBRANCH  17  18
ENDBRANCH  16  17
ENDBRANCH  15  16
ENDBRANCH  14  15
ENDBRANCH  13  14
ENDBRANCH  12  13
ENDBRANCH   1  12
TORSDOF 14
ENDMDL
