MODEL 1
REMARK VINA RESULT:    -4.061      0.000      0.000
REMARK INTER + INTRA:          -5.395
REMARK INTER:                  -5.011
REMARK INTRA:                  -0.384
REMARK UNBOUND:                -0.384
REMARK SMILES CCCCC=CC(C)=O
REMARK SMILES IDX 4 1 3 2 2 3 1 4 5 5 6 6 7 7 9 8 8 9
REMARK H PARENT
REMARK Flexibility Score: inf
ROOT
ATOM      1  C   UNL     1     -12.016   6.220  25.596  1.00  0.00     0.027 C 
ENDROOT
BRANCH   1   2
ATOM      2  C   UNL     1     -10.801   5.627  26.328  1.00  0.00     0.004 C 
BRANCH   2   3
ATOM      3  C   UNL     1      -9.994   4.666  25.444  1.00  0.00    -0.003 C 
ATOM      4  C   UNL     1      -9.587   3.388  26.177  1.00  0.00     0.004 C 
ENDBRANCH   2   3
ENDBRANCH   1   2
BRANCH   1   5
ATOM      5  C   UNL     1     -13.097   6.618  26.565  1.00  0.00    -0.023 C 
ATOM      6  C   UNL     1     -14.067   5.817  27.035  1.00  0.00     0.042 C 
BRANCH   6   7
ATOM      7  C   UNL     1     -14.294   4.398  26.672  1.00  0.00     0.152 C 
ATOM      8  O   UNL     1     -15.136   4.064  25.797  1.00  0.00    -0.295 OA
ATOM      9  C   UNL     1     -13.547   3.330  27.403  1.00  0.00     0.093 C 
ENDBRANCH   6   7
ENDBRANCH   1   5
TORSDOF 4
ENDMDL
MODEL 2
REMARK VINA RESULT:    -4.023      1.256      1.480
REMARK INTER + INTRA:          -5.348
REMARK INTER:                  -4.962
REMARK INTRA:                  -0.386
REMARK UNBOUND:                -0.384
REMARK SMILES CCCCC=CC(C)=O
REMARK SMILES IDX 4 1 3 2 2 3 1 4 5 5 6 6 7 7 9 8 8 9
REMARK H PARENT
REMARK Flexibility Score: inf
ROOT
ATOM      1  C   UNL     1     -12.538   6.856  26.099  1.00  0.00     0.027 C 
ENDROOT
BRANCH   1   2
ATOM      2  C   UNL     1     -11.303   6.338  25.344  1.00  0.00     0.004 C 
BRANCH   2   3
ATOM      3  C   UNL     1     -10.589   5.204  26.093  1.00  0.00    -0.003 C 
ATOM      4  C   UNL     1      -9.645   4.405  25.195  1.00  0.00     0.004 C 
ENDBRANCH   2   3
ENDBRANCH   1   2
BRANCH   1   5
ATOM      5  C   UNL     1     -13.802   6.229  25.573  1.00  0.00    -0.023 C 
ATOM      6  C   UNL     1     -14.446   5.181  26.112  1.00  0.00     0.042 C 
BRANCH   6   7
ATOM      7  C   UNL     1     -14.030   4.409  27.306  1.00  0.00     0.152 C 
ATOM      8  O   UNL     1     -13.344   3.356  27.209  1.00  0.00    -0.295 OA
ATOM      9  C   UNL     1     -14.484   4.855  28.658  1.00  0.00     0.093 C 
ENDBRANCH   6   7
ENDBRANCH   1   5
TORSDOF 4
ENDMDL
MODEL 3
REMARK VINA RESULT:    -4.017      1.291      1.462
REMARK INTER + INTRA:          -5.341
REMARK INTER:                  -4.929
REMARK INTRA:                  -0.411
REMARK UNBOUND:                -0.384
REMARK SMILES CCCCC=CC(C)=O
REMARK SMILES IDX 4 1 3 2 2 3 1 4 5 5 6 6 7 7 9 8 8 9
REMARK H PARENT
REMARK Flexibility Score: inf
ROOT
ATOM      1  C   UNL     1     -12.577   6.960  26.088  1.00  0.00     0.027 C 
ENDROOT
BRANCH   1   2
ATOM      2  C   UNL     1     -11.280   6.478  25.418  1.00  0.00     0.004 C 
BRANCH   2   3
ATOM      3  C   UNL     1     -10.668   5.262  26.129  1.00  0.00    -0.003 C 
ATOM      4  C   UNL     1      -9.644   4.526  25.266  1.00  0.00     0.004 C 
ENDBRANCH   2   3
ENDBRANCH   1   2
BRANCH   1   5
ATOM      5  C   UNL     1     -13.780   6.256  25.519  1.00  0.00    -0.023 C 
ATOM      6  C   UNL     1     -14.457   5.254  26.105  1.00  0.00     0.042 C 
BRANCH   6   7
ATOM      7  C   UNL     1     -14.142   4.617  27.404  1.00  0.00     0.152 C 
ATOM      8  O   UNL     1     -14.313   5.221  28.497  1.00  0.00    -0.295 OA
ATOM      9  C   UNL     1     -13.551   3.245  27.420  1.00  0.00     0.093 C 
ENDBRANCH   6   7
ENDBRANCH   1   5
TORSDOF 4
ENDMDL
MODEL 4
REMARK VINA RESULT:    -3.924      2.478      3.194
REMARK INTER + INTRA:          -5.226
REMARK INTER:                  -4.997
REMARK INTRA:                  -0.230
REMARK UNBOUND:                -0.384
REMARK SMILES CCCCC=CC(C)=O
REMARK SMILES IDX 4 1 3 2 2 3 1 4 5 5 6 6 7 7 9 8 8 9
REMARK H PARENT
REMARK Flexibility Score: inf
ROOT
ATOM      1  C   UNL     1     -12.724   6.925  25.162  1.00  0.00     0.027 C 
ENDROOT
BRANCH   1   2
ATOM      2  C   UNL     1     -11.248   6.515  25.289  1.00  0.00     0.004 C 
BRANCH   2   3
ATOM      3  C   UNL     1     -11.058   5.265  26.161  1.00  0.00    -0.003 C 
ATOM      4  C   UNL     1      -9.807   4.469  25.790  1.00  0.00     0.004 C 
ENDBRANCH   2   3
ENDBRANCH   1   2
BRANCH   1   5
ATOM      5  C   UNL     1     -13.540   6.387  26.307  1.00  0.00    -0.023 C 
ATOM      6  C   UNL     1     -14.580   7.004  26.892  1.00  0.00     0.042 C 
BRANCH   6   7
ATOM      7  C   UNL     1     -15.112   8.345  26.558  1.00  0.00     0.152 C 
ATOM      8  O   UNL     1     -14.461   9.396  26.800  1.00  0.00    -0.295 OA
ATOM      9  C   UNL     1     -16.482   8.462  25.972  1.00  0.00     0.093 C 
ENDBRANCH   6   7
ENDBRANCH   1   5
TORSDOF 4
ENDMDL
MODEL 5
REMARK VINA RESULT:    -3.882      2.357      4.530
REMARK INTER + INTRA:          -5.174
REMARK INTER:                  -5.073
REMARK INTRA:                  -0.101
REMARK UNBOUND:                -0.384
REMARK SMILES CCCCC=CC(C)=O
REMARK SMILES IDX 4 1 3 2 2 3 1 4 5 5 6 6 7 7 9 8 8 9
REMARK H PARENT
REMARK Flexibility Score: inf
ROOT
ATOM      1  C   UNL     1     -10.858   5.213  26.320  1.00  0.00     0.027 C 
ENDROOT
BRANCH   1   2
ATOM      2  C   UNL     1     -11.563   6.397  25.639  1.00  0.00     0.004 C 
BRANCH   2   3
ATOM      3  C   UNL     1     -13.093   6.305  25.734  1.00  0.00    -0.003 C 
ATOM      4  C   UNL     1     -13.749   7.651  26.039  1.00  0.00     0.004 C 
ENDBRANCH   2   3
ENDBRANCH   1   2
BRANCH   1   5
ATOM      5  C   UNL     1      -9.852   4.575  25.400  1.00  0.00    -0.023 C 
ATOM      6  C   UNL     1      -9.231   3.401  25.605  1.00  0.00     0.042 C 
BRANCH   6   7
ATOM      7  C   UNL     1      -9.381   2.516  26.783  1.00  0.00     0.152 C 
ATOM      8  O   UNL     1     -10.484   1.980  27.073  1.00  0.00    -0.295 OA
ATOM      9  C   UNL     1      -8.211   2.299  27.687  1.00  0.00     0.093 C 
ENDBRANCH   6   7
ENDBRANCH   1   5
TORSDOF 4
ENDMDL
MODEL 6
REMARK VINA RESULT:    -3.763      3.049      3.984
REMARK INTER + INTRA:          -5.027
REMARK INTER:                  -4.858
REMARK INTRA:                  -0.169
REMARK UNBOUND:                -0.384
REMARK SMILES CCCCC=CC(C)=O
REMARK SMILES IDX 4 1 3 2 2 3 1 4 5 5 6 6 7 7 9 8 8 9
REMARK H PARENT
REMARK Flexibility Score: inf
ROOT
ATOM      1  C   UNL     1     -13.213   7.294  26.253  1.00  0.00     0.027 C 
ENDROOT
BRANCH   1   2
ATOM      2  C   UNL     1     -12.466   5.951  26.276  1.00  0.00     0.004 C 
BRANCH   2   3
ATOM      3  C   UNL     1     -11.092   6.030  25.595  1.00  0.00    -0.003 C 
ATOM      4  C   UNL     1     -10.210   4.820  25.900  1.00  0.00     0.004 C 
ENDBRANCH   2   3
ENDBRANCH   1   2
BRANCH   1   5
ATOM      5  C   UNL     1     -14.695   7.092  26.086  1.00  0.00    -0.023 C 
ATOM      6  C   UNL     1     -15.644   8.026  26.265  1.00  0.00     0.042 C 
BRANCH   6   7
ATOM      7  C   UNL     1     -15.431   9.428  26.695  1.00  0.00     0.152 C 
ATOM      8  O   UNL     1     -15.536   9.774  27.902  1.00  0.00    -0.295 OA
ATOM      9  C   UNL     1     -15.143  10.472  25.665  1.00  0.00     0.093 C 
ENDBRANCH   6   7
ENDBRANCH   1   5
TORSDOF 4
ENDMDL
MODEL 7
REMARK VINA RESULT:    -3.721      2.121      2.838
REMARK INTER + INTRA:          -4.975
REMARK INTER:                  -4.786
REMARK INTRA:                  -0.189
REMARK UNBOUND:                -0.384
REMARK SMILES CCCCC=CC(C)=O
REMARK SMILES IDX 4 1 3 2 2 3 1 4 5 5 6 6 7 7 9 8 8 9
REMARK H PARENT
REMARK Flexibility Score: inf
ROOT
ATOM      1  C   UNL     1     -13.500   6.071  25.615  1.00  0.00     0.027 C 
ENDROOT
BRANCH   1   2
ATOM      2  C   UNL     1     -12.357   5.449  26.433  1.00  0.00     0.004 C 
BRANCH   2   3
ATOM      3  C   UNL     1     -10.974   5.751  25.836  1.00  0.00    -0.003 C 
ATOM      4  C   UNL     1     -10.013   4.568  25.941  1.00  0.00     0.004 C 
ENDBRANCH   2   3
ENDBRANCH   1   2
BRANCH   1   5
ATOM      5  C   UNL     1     -13.644   7.541  25.909  1.00  0.00    -0.023 C 
ATOM      6  C   UNL     1     -14.643   8.110  26.604  1.00  0.00     0.042 C 
BRANCH   6   7
ATOM      7  C   UNL     1     -15.817   7.421  27.188  1.00  0.00     0.152 C 
ATOM      8  O   UNL     1     -15.695   6.572  28.111  1.00  0.00    -0.295 OA
ATOM      9  C   UNL     1     -17.177   7.696  26.632  1.00  0.00     0.093 C 
ENDBRANCH   6   7
ENDBRANCH   1   5
TORSDOF 4
ENDMDL
MODEL 8
REMARK VINA RESULT:    -3.590      1.792      3.790
REMARK INTER + INTRA:          -4.813
REMARK INTER:                  -4.445
REMARK INTRA:                  -0.368
REMARK UNBOUND:                -0.384
REMARK SMILES CCCCC=CC(C)=O
REMARK SMILES IDX 4 1 3 2 2 3 1 4 5 5 6 6 7 7 9 8 8 9
REMARK H PARENT
REMARK Flexibility Score: inf
ROOT
ATOM      1  C   UNL     1     -14.444   4.981  26.061  1.00  0.00     0.027 C 
ENDROOT
BRANCH   1   2
ATOM      2  C   UNL     1     -14.839   3.591  26.587  1.00  0.00     0.004 C 
BRANCH   2   3
ATOM      3  C   UNL     1     -14.459   3.391  28.061  1.00  0.00    -0.003 C 
ATOM      4  C   UNL     1     -13.604   2.144  28.287  1.00  0.00     0.004 C 
ENDBRANCH   2   3
ENDBRANCH   1   2
BRANCH   1   5
ATOM      5  C   UNL     1     -13.713   5.774  27.110  1.00  0.00    -0.023 C 
ATOM      6  C   UNL     1     -12.473   6.278  26.995  1.00  0.00     0.042 C 
BRANCH   6   7
ATOM      7  C   UNL     1     -11.563   6.129  25.836  1.00  0.00     0.152 C 
ATOM      8  O   UNL     1     -11.668   6.857  24.814  1.00  0.00    -0.295 OA
ATOM      9  C   UNL     1     -10.532   5.047  25.852  1.00  0.00     0.093 C 
ENDBRANCH   6   7
ENDBRANCH   1   5
TORSDOF 4
ENDMDL
MODEL 9
REMARK VINA RESULT:    -3.568      1.990      2.918
REMARK INTER + INTRA:          -4.786
REMARK INTER:                  -4.448
REMARK INTRA:                  -0.338
REMARK UNBOUND:                -0.384
REMARK SMILES CCCCC=CC(C)=O
REMARK SMILES IDX 4 1 3 2 2 3 1 4 5 5 6 6 7 7 9 8 8 9
REMARK H PARENT
REMARK Flexibility Score: inf
ROOT
ATOM      1  C   UNL     1     -13.060   5.852  26.935  1.00  0.00     0.027 C 
ENDROOT
BRANCH   1   2
ATOM      2  C   UNL     1     -12.639   6.693  25.719  1.00  0.00     0.004 C 
BRANCH   2   3
ATOM      3  C   UNL     1     -11.173   6.462  25.324  1.00  0.00    -0.003 C 
ATOM      4  C   UNL     1     -10.595   5.179  25.919  1.00  0.00     0.004 C 
ENDBRANCH   2   3
ENDBRANCH   1   2
BRANCH   1   5
ATOM      5  C   UNL     1     -14.265   5.006  26.623  1.00  0.00    -0.023 C 
ATOM      6  C   UNL     1     -15.548   5.371  26.787  1.00  0.00     0.042 C 
BRANCH   6   7
ATOM      7  C   UNL     1     -16.036   6.656  27.337  1.00  0.00     0.152 C 
ATOM      8  O   UNL     1     -16.331   6.787  28.555  1.00  0.00    -0.295 OA
ATOM      9  C   UNL     1     -16.241   7.815  26.415  1.00  0.00     0.093 C 
ENDBRANCH   6   7
ENDBRANCH   1   5
TORSDOF 4
ENDMDL
