MODEL 1
REMARK VINA RESULT:    -3.642      0.000      0.000
REMARK INTER + INTRA:          -4.905
REMARK INTER:                  -5.132
REMARK INTRA:                   0.227
REMARK UNBOUND:                 0.227
REMARK SMILES CC1=CCC(=C(C)C)C(=O)CC(C)=CCC1
REMARK SMILES IDX 12 1 14 2 13 3 15 4 16 5 2 6 1 7 3 8 11 10 9 11 10 12 5 13
REMARK SMILES IDX 6 14 7 15 8 16 4 17
REMARK H PARENT
REMARK Flexibility Score: 60.00
ROOT
ATOM      1  C   UNL     1      11.151  33.238 -14.471  1.00  0.00    -0.070 C 
ATOM      2  C   UNL     1      10.783  34.519 -14.235  1.00  0.00    -0.027 C 
ATOM      3  C   UNL     1      12.121  32.975 -15.594  1.00  0.00     0.039 C 
ENDROOT
BRANCH   2   4
ATOM      4  C   UNL     1       9.778  34.959 -13.195  1.00  0.00     0.032 C 
BRANCH   4   5
ATOM      5  C   UNL     1      10.407  35.029 -11.795  1.00  0.00     0.034 C 
BRANCH   5   6
ATOM      6  C   UNL     1       9.591  34.316 -10.726  1.00  0.00    -0.077 C 
ATOM      7  C   UNL     1       8.211  34.828 -10.401  1.00  0.00     0.039 C 
ATOM      8  C   UNL     1      10.047  33.248 -10.030  1.00  0.00    -0.023 CG0
ATOM      9  G   UNL     1      11.368  32.552 -10.260  1.00  0.00     0.000 G0
ENDBRANCH   5   6
ENDBRANCH   4   5
ENDBRANCH   2   4
BRANCH   1  10
ATOM     10  C   UNL     1      10.636  32.068 -13.657  1.00  0.00     0.111 C 
BRANCH  10  11
ATOM     11  C   UNL     1      11.662  31.609 -12.658  1.00  0.00     0.163 C 
ATOM     12  O   UNL     1      12.846  31.409 -13.038  1.00  0.00    -0.294 OA
BRANCH  11  13
ATOM     13  C   UNL     1      11.301  31.364 -11.239  1.00  0.00    -0.002 C 
ATOM     14  C   UNL     1      10.908  30.124 -10.836  1.00  0.00    -0.069 C 
ATOM     15  C   UNL     1      10.586  29.841  -9.386  1.00  0.00     0.039 C 
ATOM     16  C   UNL     1      10.740  28.995 -11.828  1.00  0.00     0.039 C 
BRANCH  13  17
ATOM     17  C   UNL     1      11.373  32.516 -10.243  1.00  0.00     0.066 CG0
ATOM     18  G   UNL     1      10.057  33.232 -10.044  1.00  0.00     0.000 G0
ENDBRANCH  13  17
ENDBRANCH  11  13
ENDBRANCH  10  11
ENDBRANCH   1  10
TORSDOF 0
ENDMDL
MODEL 2
REMARK VINA RESULT:    -3.633      1.922      3.821
REMARK INTER + INTRA:          -4.892
REMARK INTER:                  -5.203
REMARK INTRA:                   0.310
REMARK UNBOUND:                 0.227
REMARK SMILES CC1=CCC(=C(C)C)C(=O)CC(C)=CCC1
REMARK SMILES IDX 12 1 14 2 13 3 15 4 16 5 2 6 1 7 3 8 11 10 9 11 10 12 5 13
REMARK SMILES IDX 6 14 7 15 8 16 4 17
REMARK H PARENT
REMARK Flexibility Score: 60.00
ROOT
ATOM      1  C   UNL     1      10.924  30.914 -14.130  1.00  0.00    -0.070 C 
ATOM      2  C   UNL     1      10.288  29.744 -13.884  1.00  0.00    -0.027 C 
ATOM      3  C   UNL     1      12.262  30.860 -14.822  1.00  0.00     0.039 C 
ENDROOT
BRANCH   2   4
ATOM      4  C   UNL     1       8.974  29.606 -13.148  1.00  0.00     0.032 C 
BRANCH   4   5
ATOM      5  C   UNL     1       9.180  29.564 -11.627  1.00  0.00     0.034 C 
BRANCH   5   6
ATOM      6  C   UNL     1       8.109  30.315 -10.848  1.00  0.00    -0.077 C 
ATOM      7  C   UNL     1       6.726  29.723 -10.756  1.00  0.00     0.039 C 
ATOM      8  C   UNL     1       8.326  31.506 -10.243  1.00  0.00    -0.023 CG0
ATOM      9  G   UNL     1       9.656  32.220 -10.166  1.00  0.00     0.000 G0
ENDBRANCH   5   6
ENDBRANCH   4   5
ENDBRANCH   2   4
BRANCH   1  10
ATOM     10  C   UNL     1      10.350  32.263 -13.745  1.00  0.00     0.111 C 
BRANCH  10  11
ATOM     11  C   UNL     1      10.876  32.714 -12.411  1.00  0.00     0.163 C 
ATOM     12  O   UNL     1      12.117  32.687 -12.195  1.00  0.00    -0.294 OA
BRANCH  11  13
ATOM     13  C   UNL     1       9.960  33.167 -11.333  1.00  0.00    -0.002 C 
ATOM     14  C   UNL     1       9.384  34.399 -11.395  1.00  0.00    -0.069 C 
ATOM     15  C   UNL     1       8.408  34.857 -10.335  1.00  0.00     0.039 C 
ATOM     16  C   UNL     1       9.728  35.369 -12.504  1.00  0.00     0.039 C 
BRANCH  13  17
ATOM     17  C   UNL     1       9.677  32.236 -10.159  1.00  0.00     0.066 CG0
ATOM     18  G   UNL     1       8.341  31.537 -10.246  1.00  0.00     0.000 G0
ENDBRANCH  13  17
ENDBRANCH  11  13
ENDBRANCH  10  11
ENDBRANCH   1  10
TORSDOF 0
ENDMDL
MODEL 3
REMARK VINA RESULT:    -3.529      2.205      5.327
REMARK INTER + INTRA:          -4.746
REMARK INTER:                  -5.254
REMARK INTRA:                   0.507
REMARK UNBOUND:                 0.227
REMARK SMILES CC1=CCC(=C(C)C)C(=O)CC(C)=CCC1
REMARK SMILES IDX 12 1 14 2 13 3 15 4 16 5 2 6 1 7 3 8 11 10 9 11 10 12 5 13
REMARK SMILES IDX 6 14 7 15 8 16 4 17
REMARK H PARENT
REMARK Flexibility Score: 60.00
ROOT
ATOM      1  C   UNL     1       9.425  34.237 -10.813  1.00  0.00    -0.070 C 
ATOM      2  C   UNL     1       9.412  32.967 -10.345  1.00  0.00    -0.027 C 
ATOM      3  C   UNL     1       8.223  35.105 -10.542  1.00  0.00     0.039 C 
ENDROOT
BRANCH   2   4
ATOM      4  C   UNL     1      10.500  31.943 -10.575  1.00  0.00     0.032 C 
BRANCH   4   5
ATOM      5  C   UNL     1      10.352  31.258 -11.941  1.00  0.00     0.034 C 
BRANCH   5   6
ATOM      6  C   UNL     1      11.621  31.294 -12.781  1.00  0.00    -0.077 C 
ATOM      7  C   UNL     1      12.777  30.408 -12.391  1.00  0.00     0.039 C 
ATOM      8  C   UNL     1      11.779  32.098 -13.858  1.00  0.00    -0.023 CG0
ATOM      9  G   UNL     1      10.716  33.000 -14.441  1.00  0.00     0.000 G0
ENDBRANCH   5   6
ENDBRANCH   4   5
ENDBRANCH   2   4
BRANCH   1  10
ATOM     10  C   UNL     1      10.590  34.819 -11.590  1.00  0.00     0.111 C 
BRANCH  10  11
ATOM     11  C   UNL     1      10.202  35.106 -13.014  1.00  0.00     0.163 C 
ATOM     12  O   UNL     1       9.226  35.868 -13.246  1.00  0.00    -0.294 OA
BRANCH  11  13
ATOM     13  C   UNL     1      10.930  34.489 -14.151  1.00  0.00    -0.002 C 
ATOM     14  C   UNL     1      11.760  35.242 -14.924  1.00  0.00    -0.069 C 
ATOM     15  C   UNL     1      12.550  34.621 -16.054  1.00  0.00     0.039 C 
ATOM     16  C   UNL     1      11.894  36.733 -14.707  1.00  0.00     0.039 C 
BRANCH  13  17
ATOM     17  C   UNL     1      10.732  33.005 -14.443  1.00  0.00     0.066 CG0
ATOM     18  G   UNL     1      11.804  32.121 -13.850  1.00  0.00     0.000 G0
ENDBRANCH  13  17
ENDBRANCH  11  13
ENDBRANCH  10  11
ENDBRANCH   1  10
TORSDOF 0
ENDMDL
MODEL 4
REMARK VINA RESULT:    -3.378      1.813      2.262
REMARK INTER + INTRA:          -4.533
REMARK INTER:                  -4.849
REMARK INTRA:                   0.316
REMARK UNBOUND:                 0.227
REMARK SMILES CC1=CCC(=C(C)C)C(=O)CC(C)=CCC1
REMARK SMILES IDX 12 1 14 2 13 3 15 4 16 5 2 6 1 7 3 8 11 10 9 11 10 12 5 13
REMARK SMILES IDX 6 14 7 15 8 16 4 17
REMARK H PARENT
REMARK Flexibility Score: 60.00
ROOT
ATOM      1  C   UNL     1      11.185  31.086 -14.036  1.00  0.00    -0.070 C 
ATOM      2  C   UNL     1      11.521  32.340 -14.419  1.00  0.00    -0.027 C 
ATOM      3  C   UNL     1      12.119  29.960 -14.400  1.00  0.00     0.039 C 
ENDROOT
BRANCH   2   4
ATOM      4  C   UNL     1      10.677  33.574 -14.195  1.00  0.00     0.032 C 
BRANCH   4   5
ATOM      5  C   UNL     1      11.012  34.254 -12.859  1.00  0.00     0.034 C 
BRANCH   5   6
ATOM      6  C   UNL     1       9.782  34.639 -12.048  1.00  0.00    -0.077 C 
ATOM      7  C   UNL     1       8.941  35.802 -12.510  1.00  0.00     0.039 C 
ATOM      8  C   UNL     1       9.408  34.003 -10.914  1.00  0.00    -0.023 CG0
ATOM      9  G   UNL     1      10.080  32.780 -10.334  1.00  0.00     0.000 G0
ENDBRANCH   5   6
ENDBRANCH   4   5
ENDBRANCH   2   4
BRANCH   1  10
ATOM     10  C   UNL     1       9.921  30.769 -13.262  1.00  0.00     0.111 C 
BRANCH  10  11
ATOM     11  C   UNL     1      10.205  30.642 -11.791  1.00  0.00     0.163 C 
ATOM     12  O   UNL     1      11.064  29.810 -11.397  1.00  0.00    -0.294 OA
BRANCH  11  13
ATOM     13  C   UNL     1       9.473  31.461 -10.791  1.00  0.00    -0.002 C 
ATOM     14  C   UNL     1       8.275  31.038 -10.303  1.00  0.00    -0.069 C 
ATOM     15  C   UNL     1       7.540  31.830  -9.246  1.00  0.00     0.039 C 
ATOM     16  C   UNL     1       7.616  29.781 -10.827  1.00  0.00     0.039 C 
BRANCH  13  17
ATOM     17  C   UNL     1      10.080  32.779 -10.322  1.00  0.00     0.066 CG0
ATOM     18  G   UNL     1       9.422  33.999 -10.924  1.00  0.00     0.000 G0
ENDBRANCH  13  17
ENDBRANCH  11  13
ENDBRANCH  10  11
ENDBRANCH   1  10
TORSDOF 0
ENDMDL
MODEL 5
REMARK VINA RESULT:    -3.372      2.507      4.544
REMARK INTER + INTRA:          -4.525
REMARK INTER:                  -5.144
REMARK INTRA:                   0.619
REMARK UNBOUND:                 0.227
REMARK SMILES CC1=CCC(=C(C)C)C(=O)CC(C)=CCC1
REMARK SMILES IDX 12 1 14 2 13 3 15 4 16 5 2 6 1 7 3 8 11 10 9 11 10 12 5 13
REMARK SMILES IDX 6 14 7 15 8 16 4 17
REMARK H PARENT
REMARK Flexibility Score: 60.00
ROOT
ATOM      1  C   UNL     1      10.765  37.019 -14.071  1.00  0.00    -0.070 C 
ATOM      2  C   UNL     1      11.484  36.474 -15.081  1.00  0.00    -0.027 C 
ATOM      3  C   UNL     1       9.930  38.237 -14.372  1.00  0.00     0.039 C 
ENDROOT
BRANCH   2   4
ATOM      4  C   UNL     1      12.419  35.294 -14.946  1.00  0.00     0.032 C 
BRANCH   4   5
ATOM      5  C   UNL     1      11.917  34.081 -15.744  1.00  0.00     0.034 C 
BRANCH   5   6
ATOM      6  C   UNL     1      11.906  32.788 -14.941  1.00  0.00    -0.077 C 
ATOM      7  C   UNL     1      13.060  31.829 -15.089  1.00  0.00     0.039 C 
ATOM      8  C   UNL     1      10.899  32.439 -14.106  1.00  0.00    -0.023 CG0
ATOM      9  G   UNL     1       9.699  33.295 -13.776  1.00  0.00     0.000 G0
ENDBRANCH   5   6
ENDBRANCH   4   5
ENDBRANCH   2   4
BRANCH   1  10
ATOM     10  C   UNL     1      10.762  36.457 -12.663  1.00  0.00     0.111 C 
BRANCH  10  11
ATOM     11  C   UNL     1       9.597  35.530 -12.452  1.00  0.00     0.163 C 
ATOM     12  O   UNL     1       8.453  36.015 -12.244  1.00  0.00    -0.294 OA
BRANCH  11  13
ATOM     13  C   UNL     1       9.773  34.056 -12.457  1.00  0.00    -0.002 C 
ATOM     14  C   UNL     1      10.018  33.390 -11.295  1.00  0.00    -0.069 C 
ATOM     15  C   UNL     1      10.148  31.884 -11.271  1.00  0.00     0.039 C 
ATOM     16  C   UNL     1      10.207  34.135  -9.992  1.00  0.00     0.039 C 
BRANCH  13  17
ATOM     17  C   UNL     1       9.680  33.301 -13.778  1.00  0.00     0.066 CG0
ATOM     18  G   UNL     1      10.902  32.469 -14.091  1.00  0.00     0.000 G0
ENDBRANCH  13  17
ENDBRANCH  11  13
ENDBRANCH  10  11
ENDBRANCH   1  10
TORSDOF 0
ENDMDL
MODEL 6
REMARK VINA RESULT:    -3.293      1.701      4.012
REMARK INTER + INTRA:          -4.414
REMARK INTER:                  -4.907
REMARK INTRA:                   0.494
REMARK UNBOUND:                 0.227
REMARK SMILES CC1=CCC(=C(C)C)C(=O)CC(C)=CCC1
REMARK SMILES IDX 12 1 14 2 13 3 15 4 16 5 2 6 1 7 3 8 11 10 9 11 10 12 5 13
REMARK SMILES IDX 6 14 7 15 8 16 4 17
REMARK H PARENT
REMARK Flexibility Score: 60.00
ROOT
ATOM      1  C   UNL     1      10.864  30.951 -12.998  1.00  0.00    -0.070 C 
ATOM      2  C   UNL     1      10.779  30.610 -11.690  1.00  0.00    -0.027 C 
ATOM      3  C   UNL     1      10.091  30.128 -13.996  1.00  0.00     0.039 C 
ENDROOT
BRANCH   2   4
ATOM      4  C   UNL     1      11.530  31.283 -10.565  1.00  0.00     0.032 C 
BRANCH   4   5
ATOM      5  C   UNL     1      10.573  31.880  -9.522  1.00  0.00     0.034 C 
BRANCH   5   6
ATOM      6  C   UNL     1       9.402  32.636 -10.135  1.00  0.00    -0.077 C 
ATOM      7  C   UNL     1       8.003  32.124  -9.900  1.00  0.00     0.039 C 
ATOM      8  C   UNL     1       9.548  33.741 -10.902  1.00  0.00    -0.023 CG0
ATOM      9  G   UNL     1      10.855  34.440 -11.191  1.00  0.00     0.000 G0
ENDBRANCH   5   6
ENDBRANCH   4   5
ENDBRANCH   2   4
BRANCH   1  10
ATOM     10  C   UNL     1      11.695  32.118 -13.494  1.00  0.00     0.111 C 
BRANCH  10  11
ATOM     11  C   UNL     1      10.880  33.381 -13.543  1.00  0.00     0.163 C 
ATOM     12  O   UNL     1       9.923  33.466 -14.357  1.00  0.00    -0.294 OA
BRANCH  11  13
ATOM     13  C   UNL     1      11.198  34.538 -12.669  1.00  0.00    -0.002 C 
ATOM     14  C   UNL     1      11.794  35.646 -13.188  1.00  0.00    -0.069 C 
ATOM     15  C   UNL     1      12.079  36.855 -12.325  1.00  0.00     0.039 C 
ATOM     16  C   UNL     1      12.229  35.696 -14.636  1.00  0.00     0.039 C 
BRANCH  13  17
ATOM     17  C   UNL     1      10.853  34.466 -11.185  1.00  0.00     0.066 CG0
ATOM     18  G   UNL     1       9.562  33.736 -10.896  1.00  0.00     0.000 G0
ENDBRANCH  13  17
ENDBRANCH  11  13
ENDBRANCH  10  11
ENDBRANCH   1  10
TORSDOF 0
ENDMDL
MODEL 7
REMARK VINA RESULT:    -3.252      2.178      3.507
REMARK INTER + INTRA:          -4.355
REMARK INTER:                  -4.994
REMARK INTRA:                   0.639
REMARK UNBOUND:                 0.227
REMARK SMILES CC1=CCC(=C(C)C)C(=O)CC(C)=CCC1
REMARK SMILES IDX 12 1 14 2 13 3 15 4 16 5 2 6 1 7 3 8 11 10 9 11 10 12 5 13
REMARK SMILES IDX 6 14 7 15 8 16 4 17
REMARK H PARENT
REMARK Flexibility Score: 60.00
ROOT
ATOM      1  C   UNL     1      12.508  33.608 -15.381  1.00  0.00    -0.070 C 
ATOM      2  C   UNL     1      12.770  34.813 -15.941  1.00  0.00    -0.027 C 
ATOM      3  C   UNL     1      12.337  32.423 -16.297  1.00  0.00     0.039 C 
ENDROOT
BRANCH   2   4
ATOM      4  C   UNL     1      12.909  36.113 -15.183  1.00  0.00     0.032 C 
BRANCH   4   5
ATOM      5  C   UNL     1      11.540  36.738 -14.875  1.00  0.00     0.034 C 
BRANCH   5   6
ATOM      6  C   UNL     1      11.315  37.012 -13.395  1.00  0.00    -0.077 C 
ATOM      7  C   UNL     1      12.047  38.162 -12.749  1.00  0.00     0.039 C 
ATOM      8  C   UNL     1      10.503  36.264 -12.613  1.00  0.00    -0.023 CG0
ATOM      9  G   UNL     1       9.638  35.121 -13.091  1.00  0.00     0.000 G0
ENDBRANCH   5   6
ENDBRANCH   4   5
ENDBRANCH   2   4
BRANCH   1  10
ATOM     10  C   UNL     1      12.383  33.403 -13.884  1.00  0.00     0.111 C 
BRANCH  10  11
ATOM     11  C   UNL     1      11.002  32.940 -13.514  1.00  0.00     0.163 C 
ATOM     12  O   UNL     1      10.565  31.858 -13.990  1.00  0.00    -0.294 OA
BRANCH  11  13
ATOM     13  C   UNL     1      10.132  33.745 -12.620  1.00  0.00    -0.002 C 
ATOM     14  C   UNL     1       9.773  33.265 -11.397  1.00  0.00    -0.069 C 
ATOM     15  C   UNL     1       8.932  34.091 -10.451  1.00  0.00     0.039 C 
ATOM     16  C   UNL     1      10.170  31.874 -10.956  1.00  0.00     0.039 C 
BRANCH  13  17
ATOM     17  C   UNL     1       9.645  35.112 -13.090  1.00  0.00     0.066 CG0
ATOM     18  G   UNL     1      10.512  36.259 -12.626  1.00  0.00     0.000 G0
ENDBRANCH  13  17
ENDBRANCH  11  13
ENDBRANCH  10  11
ENDBRANCH   1  10
TORSDOF 0
ENDMDL
MODEL 8
REMARK VINA RESULT:    -3.239      1.517      4.085
REMARK INTER + INTRA:          -4.337
REMARK INTER:                  -4.877
REMARK INTRA:                   0.540
REMARK UNBOUND:                 0.227
REMARK SMILES CC1=CCC(=C(C)C)C(=O)CC(C)=CCC1
REMARK SMILES IDX 12 1 14 2 13 3 15 4 16 5 2 6 1 7 3 8 11 10 9 11 10 12 5 13
REMARK SMILES IDX 6 14 7 15 8 16 4 17
REMARK H PARENT
REMARK Flexibility Score: 60.00
ROOT
ATOM      1  C   UNL     1      11.583  30.486 -12.590  1.00  0.00    -0.070 C 
ATOM      2  C   UNL     1      10.488  29.765 -12.252  1.00  0.00    -0.027 C 
ATOM      3  C   UNL     1      12.938  29.921 -12.248  1.00  0.00     0.039 C 
ENDROOT
BRANCH   2   4
ATOM      4  C   UNL     1       9.057  30.204 -12.461  1.00  0.00     0.032 C 
BRANCH   4   5
ATOM      5  C   UNL     1       8.347  30.472 -11.126  1.00  0.00     0.034 C 
BRANCH   5   6
ATOM      6  C   UNL     1       9.225  31.175 -10.100  1.00  0.00    -0.077 C 
ATOM      7  C   UNL     1       9.772  30.379  -8.943  1.00  0.00     0.039 C 
ATOM      8  C   UNL     1       9.530  32.492 -10.159  1.00  0.00    -0.023 CG0
ATOM      9  G   UNL     1       9.136  33.434 -11.272  1.00  0.00     0.000 G0
ENDBRANCH   5   6
ENDBRANCH   4   5
ENDBRANCH   2   4
BRANCH   1  10
ATOM     10  C   UNL     1      11.503  31.826 -13.294  1.00  0.00     0.111 C 
BRANCH  10  11
ATOM     11  C   UNL     1      11.448  32.956 -12.304  1.00  0.00     0.163 C 
ATOM     12  O   UNL     1      12.422  33.144 -11.528  1.00  0.00    -0.294 OA
BRANCH  11  13
ATOM     13  C   UNL     1      10.258  33.839 -12.206  1.00  0.00    -0.002 C 
ATOM     14  C   UNL     1      10.183  34.975 -12.952  1.00  0.00    -0.069 C 
ATOM     15  C   UNL     1       8.958  35.859 -12.905  1.00  0.00     0.039 C 
ATOM     16  C   UNL     1      11.337  35.416 -13.824  1.00  0.00     0.039 C 
BRANCH  13  17
ATOM     17  C   UNL     1       9.126  33.457 -11.258  1.00  0.00     0.066 CG0
ATOM     18  G   UNL     1       9.543  32.500 -10.166  1.00  0.00     0.000 G0
ENDBRANCH  13  17
ENDBRANCH  11  13
ENDBRANCH  10  11
ENDBRANCH   1  10
TORSDOF 0
ENDMDL
MODEL 9
REMARK VINA RESULT:    -3.072      2.339      4.161
REMARK INTER + INTRA:          -4.102
REMARK INTER:                  -4.748
REMARK INTRA:                   0.646
REMARK UNBOUND:                 0.227
REMARK SMILES CC1=CCC(=C(C)C)C(=O)CC(C)=CCC1
REMARK SMILES IDX 12 1 14 2 13 3 15 4 16 5 2 6 1 7 3 8 11 10 9 11 10 12 5 13
REMARK SMILES IDX 6 14 7 15 8 16 4 17
REMARK H PARENT
REMARK Flexibility Score: 60.00
ROOT
ATOM      1  C   UNL     1       8.863  31.702  -9.740  1.00  0.00    -0.070 C 
ATOM      2  C   UNL     1       8.930  32.905 -10.357  1.00  0.00    -0.027 C 
ATOM      3  C   UNL     1       7.502  31.093  -9.520  1.00  0.00     0.039 C 
ENDROOT
BRANCH   2   4
ATOM      4  C   UNL     1      10.200  33.687 -10.603  1.00  0.00     0.032 C 
BRANCH   4   5
ATOM      5  C   UNL     1      11.187  32.902 -11.480  1.00  0.00     0.034 C 
BRANCH   5   6
ATOM      6  C   UNL     1      10.573  32.385 -12.773  1.00  0.00    -0.077 C 
ATOM      7  C   UNL     1      10.040  33.379 -13.773  1.00  0.00     0.039 C 
ATOM      8  C   UNL     1      10.462  31.069 -13.071  1.00  0.00    -0.023 CG0
ATOM      9  G   UNL     1      10.997  29.933 -12.232  1.00  0.00     0.000 G0
ENDBRANCH   5   6
ENDBRANCH   4   5
ENDBRANCH   2   4
BRANCH   1  10
ATOM     10  C   UNL     1      10.089  30.946  -9.268  1.00  0.00     0.111 C 
BRANCH  10  11
ATOM     11  C   UNL     1      10.111  29.548  -9.821  1.00  0.00     0.163 C 
ATOM     12  O   UNL     1      10.252  28.575  -9.034  1.00  0.00    -0.294 OA
BRANCH  11  13
ATOM     13  C   UNL     1       9.995  29.294 -11.280  1.00  0.00    -0.002 C 
ATOM     14  C   UNL     1       8.996  28.504 -11.761  1.00  0.00    -0.069 C 
ATOM     15  C   UNL     1       8.831  28.275 -13.246  1.00  0.00     0.039 C 
ATOM     16  C   UNL     1       8.040  27.795 -10.828  1.00  0.00     0.039 C 
BRANCH  13  17
ATOM     17  C   UNL     1      11.010  29.925 -12.227  1.00  0.00     0.066 CG0
ATOM     18  G   UNL     1      10.448  31.059 -13.052  1.00  0.00     0.000 G0
ENDBRANCH  13  17
ENDBRANCH  11  13
ENDBRANCH  10  11
ENDBRANCH   1  10
TORSDOF 0
ENDMDL
