MODEL 1
REMARK VINA RESULT:    14.559      0.000      0.000
REMARK INTER + INTRA:          28.188
REMARK INTER:                  20.517
REMARK INTRA:                   7.671
REMARK UNBOUND:                 7.671
REMARK SMILES C=C(CC[C@@H](C(=O)[O-])[C@@H]1[C@@H](O)C[C@]2(C)C3=C(CC[C@]12C)[C@]1(C)CC[C@@H](O)C(C)(C)[C@@H]1CC3)C(C)C
REMARK SMILES IDX 4 1 5 2 6 3 7 4 8 5 9 6 10 7 19 8 12 9 13 10 18 11 20 12
REMARK SMILES IDX 14 13 15 14 17 15 16 16 32 17 21 18 31 19 30 20 23 21 22 22
REMARK SMILES IDX 27 23 24 24 25 25 28 26 29 27 11 28 26 30 3 32 2 33 1 34
REMARK SMILES IDX 33 35 34 36 35 37
REMARK H PARENT 11 29 26 31
REMARK Flexibility Score: inf
ROOT
ATOM      1  C   UNL     1      27.789  29.542  28.646  1.00  0.00     0.014 C 
ENDROOT
BRANCH   1   2
ATOM      2  C   UNL     1      27.361  28.424  29.632  1.00  0.00     0.042 C 
BRANCH   2   3
ATOM      3  C   UNL     1      26.279  28.954  30.554  1.00  0.00     0.045 C 
ATOM      4  O   UNL     1      25.719  30.060  30.334  1.00  0.00    -0.550 OA
ATOM      5  O   UNL     1      25.970  28.269  31.725  1.00  0.00    -0.550 OA
ENDBRANCH   2   3
BRANCH   2   6
ATOM      6  C   UNL     1      27.009  27.103  28.852  1.00  0.00     0.033 C 
ATOM      7  C   UNL     1      26.917  27.243  27.328  1.00  0.00     0.119 C 
ATOM      8  C   UNL     1      25.784  26.238  29.321  1.00  0.00    -0.017 C 
ATOM      9  C   UNL     1      26.129  26.035  26.829  1.00  0.00     0.043 C 
ATOM     10  C   UNL     1      25.440  25.340  28.043  1.00  0.00    -0.003 C 
ATOM     11  C   UNL     1      24.541  27.059  29.766  1.00  0.00     0.012 C 
ATOM     12  C   UNL     1      26.201  25.420  30.583  1.00  0.00     0.013 C 
ATOM     13  C   UNL     1      26.055  23.914  28.159  1.00  0.00     0.017 C 
ATOM     14  C   UNL     1      23.915  25.276  27.717  1.00  0.00    -0.064 C 
ATOM     15  C   UNL     1      23.734  27.579  28.589  1.00  0.00     0.032 C 
ATOM     16  C   UNL     1      23.156  26.414  27.803  1.00  0.00    -0.064 C 
ATOM     17  C   UNL     1      23.367  24.035  27.047  1.00  0.00     0.032 C 
ATOM     18  C   UNL     1      21.741  26.562  27.173  1.00  0.00    -0.008 C 
ATOM     19  C   UNL     1      21.856  24.035  26.911  1.00  0.00     0.009 C 
ATOM     20  C   UNL     1      21.383  25.344  26.229  1.00  0.00     0.007 C 
ATOM     21  C   UNL     1      20.700  26.654  28.329  1.00  0.00     0.014 C 
ATOM     22  C   UNL     1      21.757  27.887  26.350  1.00  0.00     0.016 C 
ATOM     23  C   UNL     1      19.862  25.266  25.761  1.00  0.00    -0.006 C 
ATOM     24  C   UNL     1      19.240  26.628  27.858  1.00  0.00     0.033 C 
ATOM     25  C   UNL     1      18.918  25.397  26.996  1.00  0.00     0.120 C 
ATOM     26  C   UNL     1      19.586  23.903  25.063  1.00  0.00     0.014 C 
ATOM     27  C   UNL     1      19.537  26.353  24.687  1.00  0.00     0.014 C 
BRANCH   7  28
ATOM     28  O   UNL     1      28.202  27.262  26.756  1.00  0.00    -0.393 OA
ATOM     29  H   UNL     1      28.818  26.863  27.424  1.00  0.00     0.210 HD
ENDBRANCH   7  28
BRANCH  25  30
ATOM     30  O   UNL     1      17.574  25.479  26.590  1.00  0.00    -0.393 OA
ATOM     31  H   UNL     1      17.327  24.590  26.225  1.00  0.00     0.210 HD
ENDBRANCH  25  30
ENDBRANCH   2   6
ENDBRANCH   1   2
BRANCH   1  32
ATOM     32  C   UNL     1      28.699  29.026  27.513  1.00  0.00     0.031 C 
BRANCH  32  33
ATOM     33  C   UNL     1      28.826  29.944  26.297  1.00  0.00    -0.075 C 
ATOM     34  C   UNL     1      29.091  31.261  26.406  1.00  0.00     0.008 C 
BRANCH  33  35
ATOM     35  C   UNL     1      28.702  29.345  24.901  1.00  0.00     0.008 C 
ATOM     36  C   UNL     1      29.125  27.872  24.915  1.00  0.00     0.012 C 
ATOM     37  C   UNL     1      27.290  29.501  24.317  1.00  0.00     0.012 C 
ENDBRANCH  33  35
ENDBRANCH  32  33
ENDBRANCH   1  32
TORSDOF 8
ENDMDL
