MODEL 1
REMARK VINA RESULT:    -3.768      0.000      0.000
REMARK INTER + INTRA:          -6.244
REMARK INTER:                  -5.089
REMARK INTRA:                  -1.154
REMARK UNBOUND:                -1.154
REMARK SMILES CC(=O)CCC=C(C)CCC=C(C)C
REMARK SMILES IDX 7 1 6 2 8 3 9 4 10 5 11 6 13 7 12 8 14 9 5 10 4 11 2 12 3 13
REMARK SMILES IDX 1 14
REMARK H PARENT
REMARK Flexibility Score: inf
ROOT
ATOM      1  C   UNL     1     187.254 201.323 213.979  1.00  0.00    -0.077 C 
ATOM      2  C   UNL     1     188.190 202.300 214.027  1.00  0.00    -0.028 C 
ATOM      3  C   UNL     1     187.632 199.863 213.903  1.00  0.00     0.039 C 
ENDROOT
BRANCH   1   4
ATOM      4  C   UNL     1     185.787 201.707 213.993  1.00  0.00     0.034 C 
BRANCH   4   5
ATOM      5  C   UNL     1     185.340 202.339 212.666  1.00  0.00     0.032 C 
BRANCH   5   6
ATOM      6  C   UNL     1     185.294 201.328 211.542  1.00  0.00    -0.028 C 
ATOM      7  C   UNL     1     186.027 200.282 209.441  1.00  0.00     0.039 C 
ATOM      8  C   UNL     1     186.160 201.338 210.507  1.00  0.00    -0.080 C 
ATOM      9  C   UNL     1     187.251 202.377 210.400  1.00  0.00     0.039 C 
ENDBRANCH   5   6
ENDBRANCH   4   5
ENDBRANCH   1   4
BRANCH   2  10
ATOM     10  C   UNL     1     189.678 202.061 213.977  1.00  0.00     0.035 C 
BRANCH  10  11
ATOM     11  C   UNL     1     190.277 202.652 212.693  1.00  0.00     0.079 C 
BRANCH  11  12
ATOM     12  C   UNL     1     190.257 204.163 212.631  1.00  0.00     0.130 C 
ATOM     13  O   UNL     1     189.647 204.698 211.717  1.00  0.00    -0.300 OA
ATOM     14  C   UNL     1     190.955 205.035 213.638  1.00  0.00     0.087 C 
ENDBRANCH  11  12
ENDBRANCH  10  11
ENDBRANCH   2  10
TORSDOF 6
ENDMDL
MODEL 2
REMARK VINA RESULT:    -3.444      2.285      5.155
REMARK INTER + INTRA:          -5.806
REMARK INTER:                  -4.753
REMARK INTRA:                  -1.053
REMARK UNBOUND:                -1.154
REMARK SMILES CC(=O)CCC=C(C)CCC=C(C)C
REMARK SMILES IDX 7 1 6 2 8 3 9 4 10 5 11 6 13 7 12 8 14 9 5 10 4 11 2 12 3 13
REMARK SMILES IDX 1 14
REMARK H PARENT
REMARK Flexibility Score: inf
ROOT
ATOM      1  C   UNL     1     185.602 201.323 212.605  1.00  0.00    -0.077 C 
ATOM      2  C   UNL     1     185.536 200.045 212.162  1.00  0.00    -0.028 C 
ATOM      3  C   UNL     1     185.011 202.469 211.819  1.00  0.00     0.039 C 
ENDROOT
BRANCH   1   4
ATOM      4  C   UNL     1     186.297 201.610 213.922  1.00  0.00     0.034 C 
BRANCH   4   5
ATOM      5  C   UNL     1     187.753 201.120 213.929  1.00  0.00     0.032 C 
BRANCH   5   6
ATOM      6  C   UNL     1     188.734 202.255 214.124  1.00  0.00    -0.028 C 
ATOM      7  C   UNL     1     190.325 203.986 213.405  1.00  0.00     0.039 C 
ATOM      8  C   UNL     1     189.367 202.864 213.100  1.00  0.00    -0.080 C 
ATOM      9  C   UNL     1     189.136 202.446 211.666  1.00  0.00     0.039 C 
ENDBRANCH   5   6
ENDBRANCH   4   5
ENDBRANCH   1   4
BRANCH   2  10
ATOM     10  C   UNL     1     184.914 199.625 210.854  1.00  0.00     0.035 C 
BRANCH  10  11
ATOM     11  C   UNL     1     185.982 199.066 209.903  1.00  0.00     0.079 C 
BRANCH  11  12
ATOM     12  C   UNL     1     186.326 199.975 208.744  1.00  0.00     0.130 C 
ATOM     13  O   UNL     1     185.929 199.671 207.629  1.00  0.00    -0.300 OA
ATOM     14  C   UNL     1     187.137 201.232 208.902  1.00  0.00     0.087 C 
ENDBRANCH  11  12
ENDBRANCH  10  11
ENDBRANCH   2  10
TORSDOF 6
ENDMDL
MODEL 3
REMARK VINA RESULT:    -3.416      1.626      2.215
REMARK INTER + INTRA:          -5.769
REMARK INTER:                  -4.298
REMARK INTRA:                  -1.471
REMARK UNBOUND:                -1.154
REMARK SMILES CC(=O)CCC=C(C)CCC=C(C)C
REMARK SMILES IDX 7 1 6 2 8 3 9 4 10 5 11 6 13 7 12 8 14 9 5 10 4 11 2 12 3 13
REMARK SMILES IDX 1 14
REMARK H PARENT
REMARK Flexibility Score: inf
ROOT
ATOM      1  C   UNL     1     187.154 201.323 214.054  1.00  0.00    -0.077 C 
ATOM      2  C   UNL     1     188.139 202.247 213.959  1.00  0.00    -0.028 C 
ATOM      3  C   UNL     1     187.455 199.845 214.124  1.00  0.00     0.039 C 
ENDROOT
BRANCH   1   4
ATOM      4  C   UNL     1     185.710 201.786 214.081  1.00  0.00     0.034 C 
BRANCH   4   5
ATOM      5  C   UNL     1     185.262 202.367 212.731  1.00  0.00     0.032 C 
BRANCH   5   6
ATOM      6  C   UNL     1     185.210 201.313 211.648  1.00  0.00    -0.028 C 
ATOM      7  C   UNL     1     185.867 200.241 209.535  1.00  0.00     0.039 C 
ATOM      8  C   UNL     1     185.999 201.343 210.553  1.00  0.00    -0.080 C 
ATOM      9  C   UNL     1     187.003 202.450 210.333  1.00  0.00     0.039 C 
ENDBRANCH   5   6
ENDBRANCH   4   5
ENDBRANCH   1   4
BRANCH   2  10
ATOM     10  C   UNL     1     189.610 201.924 213.880  1.00  0.00     0.035 C 
BRANCH  10  11
ATOM     11  C   UNL     1     190.131 202.124 212.449  1.00  0.00     0.079 C 
BRANCH  11  12
ATOM     12  C   UNL     1     190.533 200.848 211.745  1.00  0.00     0.130 C 
ATOM     13  O   UNL     1     191.716 200.542 211.726  1.00  0.00    -0.300 OA
ATOM     14  C   UNL     1     189.544 199.941 211.064  1.00  0.00     0.087 C 
ENDBRANCH  11  12
ENDBRANCH  10  11
ENDBRANCH   2  10
TORSDOF 6
ENDMDL
MODEL 4
REMARK VINA RESULT:    -3.412      1.590      4.922
REMARK INTER + INTRA:          -5.763
REMARK INTER:                  -4.703
REMARK INTRA:                  -1.060
REMARK UNBOUND:                -1.154
REMARK SMILES CC(=O)CCC=C(C)CCC=C(C)C
REMARK SMILES IDX 7 1 6 2 8 3 9 4 10 5 11 6 13 7 12 8 14 9 5 10 4 11 2 12 3 13
REMARK SMILES IDX 1 14
REMARK H PARENT
REMARK Flexibility Score: inf
ROOT
ATOM      1  C   UNL     1     188.021 200.515 213.760  1.00  0.00    -0.077 C 
ATOM      2  C   UNL     1     187.235 201.608 213.910  1.00  0.00    -0.028 C 
ATOM      3  C   UNL     1     187.453 199.180 213.341  1.00  0.00     0.039 C 
ENDROOT
BRANCH   1   4
ATOM      4  C   UNL     1     189.508 200.635 214.029  1.00  0.00     0.034 C 
BRANCH   4   5
ATOM      5  C   UNL     1     190.232 201.438 212.937  1.00  0.00     0.032 C 
BRANCH   5   6
ATOM      6  C   UNL     1     190.627 202.817 213.413  1.00  0.00    -0.028 C 
ATOM      7  C   UNL     1     190.648 205.276 213.381  1.00  0.00     0.039 C 
ATOM      8  C   UNL     1     190.194 203.952 212.825  1.00  0.00    -0.080 C 
ATOM      9  C   UNL     1     189.270 203.919 211.629  1.00  0.00     0.039 C 
ENDBRANCH   5   6
ENDBRANCH   4   5
ENDBRANCH   1   4
BRANCH   2  10
ATOM     10  C   UNL     1     185.740 201.619 213.718  1.00  0.00     0.035 C 
BRANCH  10  11
ATOM     11  C   UNL     1     185.369 202.324 212.405  1.00  0.00     0.079 C 
BRANCH  11  12
ATOM     12  C   UNL     1     185.522 201.466 211.169  1.00  0.00     0.130 C 
ATOM     13  O   UNL     1     186.455 201.696 210.414  1.00  0.00    -0.300 OA
ATOM     14  C   UNL     1     184.576 200.348 210.825  1.00  0.00     0.087 C 
ENDBRANCH  11  12
ENDBRANCH  10  11
ENDBRANCH   2  10
TORSDOF 6
ENDMDL
MODEL 5
REMARK VINA RESULT:    -3.386      1.506      2.199
REMARK INTER + INTRA:          -5.728
REMARK INTER:                  -4.690
REMARK INTRA:                  -1.037
REMARK UNBOUND:                -1.154
REMARK SMILES CC(=O)CCC=C(C)CCC=C(C)C
REMARK SMILES IDX 7 1 6 2 8 3 9 4 10 5 11 6 13 7 12 8 14 9 5 10 4 11 2 12 3 13
REMARK SMILES IDX 1 14
REMARK H PARENT
REMARK Flexibility Score: inf
ROOT
ATOM      1  C   UNL     1     188.576 201.676 212.646  1.00  0.00    -0.077 C 
ATOM      2  C   UNL     1     188.189 202.813 212.021  1.00  0.00    -0.028 C 
ATOM      3  C   UNL     1     189.716 200.832 212.126  1.00  0.00     0.039 C 
ENDROOT
BRANCH   1   4
ATOM      4  C   UNL     1     187.840 201.234 213.896  1.00  0.00     0.034 C 
BRANCH   4   5
ATOM      5  C   UNL     1     186.314 201.309 213.727  1.00  0.00     0.032 C 
BRANCH   5   6
ATOM      6  C   UNL     1     185.809 200.337 212.685  1.00  0.00    -0.028 C 
ATOM      7  C   UNL     1     184.585 199.659 210.663  1.00  0.00     0.039 C 
ATOM      8  C   UNL     1     185.032 200.710 211.646  1.00  0.00    -0.080 C 
ATOM      9  C   UNL     1     184.607 202.147 211.452  1.00  0.00     0.039 C 
ENDBRANCH   5   6
ENDBRANCH   4   5
ENDBRANCH   1   4
BRANCH   2  10
ATOM     10  C   UNL     1     188.804 203.343 210.751  1.00  0.00     0.035 C 
BRANCH  10  11
ATOM     11  C   UNL     1     189.492 204.692 211.005  1.00  0.00     0.079 C 
BRANCH  11  12
ATOM     12  C   UNL     1     190.675 204.624 211.944  1.00  0.00     0.130 C 
ATOM     13  O   UNL     1     191.706 204.106 211.543  1.00  0.00    -0.300 OA
ATOM     14  C   UNL     1     190.638 205.161 213.349  1.00  0.00     0.087 C 
ENDBRANCH  11  12
ENDBRANCH  10  11
ENDBRANCH   2  10
TORSDOF 6
ENDMDL
MODEL 6
REMARK VINA RESULT:    -3.336      1.047      1.232
REMARK INTER + INTRA:          -5.661
REMARK INTER:                  -4.724
REMARK INTRA:                  -0.936
REMARK UNBOUND:                -1.154
REMARK SMILES CC(=O)CCC=C(C)CCC=C(C)C
REMARK SMILES IDX 7 1 6 2 8 3 9 4 10 5 11 6 13 7 12 8 14 9 5 10 4 11 2 12 3 13
REMARK SMILES IDX 1 14
REMARK H PARENT
REMARK Flexibility Score: inf
ROOT
ATOM      1  C   UNL     1     187.132 201.415 213.527  1.00  0.00    -0.077 C 
ATOM      2  C   UNL     1     188.062 202.204 212.938  1.00  0.00    -0.028 C 
ATOM      3  C   UNL     1     187.491 200.075 214.125  1.00  0.00     0.039 C 
ENDROOT
BRANCH   1   4
ATOM      4  C   UNL     1     185.692 201.885 213.578  1.00  0.00     0.034 C 
BRANCH   4   5
ATOM      5  C   UNL     1     185.137 202.207 212.182  1.00  0.00     0.032 C 
BRANCH   5   6
ATOM      6  C   UNL     1     184.713 200.961 211.438  1.00  0.00    -0.028 C 
ATOM      7  C   UNL     1     184.862 199.238 209.689  1.00  0.00     0.039 C 
ATOM      8  C   UNL     1     185.369 200.491 210.356  1.00  0.00    -0.080 C 
ATOM      9  C   UNL     1     186.590 201.191 209.806  1.00  0.00     0.039 C 
ENDBRANCH   5   6
ENDBRANCH   4   5
ENDBRANCH   1   4
BRANCH   2  10
ATOM     10  C   UNL     1     189.517 201.840 212.781  1.00  0.00     0.035 C 
BRANCH  10  11
ATOM     11  C   UNL     1     190.410 202.857 213.507  1.00  0.00     0.079 C 
BRANCH  11  12
ATOM     12  C   UNL     1     190.413 204.238 212.891  1.00  0.00     0.130 C 
ATOM     13  O   UNL     1     190.477 205.205 213.635  1.00  0.00    -0.300 OA
ATOM     14  C   UNL     1     190.339 204.474 211.407  1.00  0.00     0.087 C 
ENDBRANCH  11  12
ENDBRANCH  10  11
ENDBRANCH   2  10
TORSDOF 6
ENDMDL
MODEL 7
REMARK VINA RESULT:    -3.324      2.837      4.751
REMARK INTER + INTRA:          -5.644
REMARK INTER:                  -4.224
REMARK INTRA:                  -1.420
REMARK UNBOUND:                -1.154
REMARK SMILES CC(=O)CCC=C(C)CCC=C(C)C
REMARK SMILES IDX 7 1 6 2 8 3 9 4 10 5 11 6 13 7 12 8 14 9 5 10 4 11 2 12 3 13
REMARK SMILES IDX 1 14
REMARK H PARENT
REMARK Flexibility Score: inf
ROOT
ATOM      1  C   UNL     1     185.802 201.994 212.097  1.00  0.00    -0.077 C 
ATOM      2  C   UNL     1     186.916 202.313 211.396  1.00  0.00    -0.028 C 
ATOM      3  C   UNL     1     184.496 201.672 211.410  1.00  0.00     0.039 C 
ENDROOT
BRANCH   1   4
ATOM      4  C   UNL     1     185.867 201.968 213.611  1.00  0.00     0.034 C 
BRANCH   4   5
ATOM      5  C   UNL     1     187.198 201.397 214.125  1.00  0.00     0.032 C 
BRANCH   5   6
ATOM      6  C   UNL     1     187.268 199.894 213.974  1.00  0.00    -0.028 C 
ATOM      7  C   UNL     1     188.233 197.762 213.219  1.00  0.00     0.039 C 
ATOM      8  C   UNL     1     188.259 199.266 213.308  1.00  0.00    -0.080 C 
ATOM      9  C   UNL     1     189.383 200.035 212.655  1.00  0.00     0.039 C 
ENDBRANCH   5   6
ENDBRANCH   4   5
ENDBRANCH   1   4
BRANCH   2  10
ATOM     10  C   UNL     1     186.979 202.417 209.893  1.00  0.00     0.035 C 
BRANCH  10  11
ATOM     11  C   UNL     1     187.683 201.190 209.295  1.00  0.00     0.079 C 
BRANCH  11  12
ATOM     12  C   UNL     1     186.763 200.028 208.991  1.00  0.00     0.130 C 
ATOM     13  O   UNL     1     186.181 200.014 207.917  1.00  0.00    -0.300 OA
ATOM     14  C   UNL     1     186.531 198.894 209.952  1.00  0.00     0.087 C 
ENDBRANCH  11  12
ENDBRANCH  10  11
ENDBRANCH   2  10
TORSDOF 6
ENDMDL
MODEL 8
REMARK VINA RESULT:    -3.319      2.521      3.658
REMARK INTER + INTRA:          -5.638
REMARK INTER:                  -4.227
REMARK INTRA:                  -1.411
REMARK UNBOUND:                -1.154
REMARK SMILES CC(=O)CCC=C(C)CCC=C(C)C
REMARK SMILES IDX 7 1 6 2 8 3 9 4 10 5 11 6 13 7 12 8 14 9 5 10 4 11 2 12 3 13
REMARK SMILES IDX 1 14
REMARK H PARENT
REMARK Flexibility Score: inf
ROOT
ATOM      1  C   UNL     1     187.106 201.202 213.795  1.00  0.00    -0.077 C 
ATOM      2  C   UNL     1     187.151 199.872 214.045  1.00  0.00    -0.028 C 
ATOM      3  C   UNL     1     188.358 202.005 213.534  1.00  0.00     0.039 C 
ENDROOT
BRANCH   1   4
ATOM      4  C   UNL     1     185.762 201.904 213.786  1.00  0.00     0.034 C 
BRANCH   4   5
ATOM      5  C   UNL     1     185.354 202.359 212.376  1.00  0.00     0.032 C 
BRANCH   5   6
ATOM      6  C   UNL     1     184.894 201.203 211.517  1.00  0.00    -0.028 C 
ATOM      7  C   UNL     1     185.037 199.599 209.659  1.00  0.00     0.039 C 
ATOM      8  C   UNL     1     185.586 200.760 210.446  1.00  0.00    -0.080 C 
ATOM      9  C   UNL     1     186.888 201.401 210.027  1.00  0.00     0.039 C 
ENDBRANCH   5   6
ENDBRANCH   4   5
ENDBRANCH   1   4
BRANCH   2  10
ATOM     10  C   UNL     1     188.419 199.060 214.125  1.00  0.00     0.035 C 
BRANCH  10  11
ATOM     11  C   UNL     1     188.359 197.867 213.160  1.00  0.00     0.079 C 
BRANCH  11  12
ATOM     12  C   UNL     1     188.528 198.232 211.702  1.00  0.00     0.130 C 
ATOM     13  O   UNL     1     187.773 197.725 210.886  1.00  0.00    -0.300 OA
ATOM     14  C   UNL     1     189.584 199.185 211.213  1.00  0.00     0.087 C 
ENDBRANCH  11  12
ENDBRANCH  10  11
ENDBRANCH   2  10
TORSDOF 6
ENDMDL
MODEL 9
REMARK VINA RESULT:    -3.298      3.090      4.526
REMARK INTER + INTRA:          -5.608
REMARK INTER:                  -4.676
REMARK INTRA:                  -0.932
REMARK UNBOUND:                -1.154
REMARK SMILES CC(=O)CCC=C(C)CCC=C(C)C
REMARK SMILES IDX 7 1 6 2 8 3 9 4 10 5 11 6 13 7 12 8 14 9 5 10 4 11 2 12 3 13
REMARK SMILES IDX 1 14
REMARK H PARENT
REMARK Flexibility Score: inf
ROOT
ATOM      1  C   UNL     1     187.072 201.164 213.869  1.00  0.00    -0.077 C 
ATOM      2  C   UNL     1     187.085 199.812 213.789  1.00  0.00    -0.028 C 
ATOM      3  C   UNL     1     188.332 201.957 214.125  1.00  0.00     0.039 C 
ENDROOT
BRANCH   1   4
ATOM      4  C   UNL     1     185.756 201.899 213.707  1.00  0.00     0.034 C 
BRANCH   4   5
ATOM      5  C   UNL     1     185.495 202.306 212.249  1.00  0.00     0.032 C 
BRANCH   5   6
ATOM      6  C   UNL     1     184.626 201.302 211.525  1.00  0.00    -0.028 C 
ATOM      7  C   UNL     1     184.147 199.503 209.918  1.00  0.00     0.039 C 
ATOM      8  C   UNL     1     185.100 200.467 210.576  1.00  0.00    -0.080 C 
ATOM      9  C   UNL     1     186.554 200.482 210.164  1.00  0.00     0.039 C 
ENDBRANCH   5   6
ENDBRANCH   4   5
ENDBRANCH   1   4
BRANCH   2  10
ATOM     10  C   UNL     1     188.313 198.956 213.973  1.00  0.00     0.035 C 
BRANCH  10  11
ATOM     11  C   UNL     1     188.526 198.048 212.753  1.00  0.00     0.079 C 
BRANCH  11  12
ATOM     12  C   UNL     1     188.818 196.603 213.092  1.00  0.00     0.130 C 
ATOM     13  O   UNL     1     187.994 195.983 213.747  1.00  0.00    -0.300 OA
ATOM     14  C   UNL     1     190.077 195.899 212.664  1.00  0.00     0.087 C 
ENDBRANCH  11  12
ENDBRANCH  10  11
ENDBRANCH   2  10
TORSDOF 6
ENDMDL
