MODEL 1
REMARK VINA RESULT:    -3.115      0.000      0.000
REMARK INTER + INTRA:          -4.777
REMARK INTER:                  -4.571
REMARK INTRA:                  -0.206
REMARK UNBOUND:                -0.206
REMARK SMILES O=C([O-])CCCCCCCC(=O)[O-]
REMARK SMILES IDX 7 1 6 2 5 3 4 4 2 5 1 6 3 7 8 8 9 9 10 10 11 11 12 12 13 13
REMARK H PARENT
REMARK Flexibility Score: inf
ROOT
ATOM      1  C   UNL     1      -4.690  -1.664   3.284  1.00  0.00     0.000 C 
ENDROOT
BRANCH   1   2
ATOM      2  C   UNL     1      -5.395  -1.830   1.928  1.00  0.00     0.000 C 
BRANCH   2   3
ATOM      3  C   UNL     1      -4.991  -3.125   1.202  1.00  0.00     0.006 C 
BRANCH   3   4
ATOM      4  C   UNL     1      -5.188  -3.023  -0.316  1.00  0.00     0.053 C 
BRANCH   4   5
ATOM      5  C   UNL     1      -4.954  -1.631  -0.816  1.00  0.00     0.041 C 
ATOM      6  O   UNL     1      -5.929  -0.886  -1.096  1.00  0.00    -0.550 OA
ATOM      7  O   UNL     1      -3.659  -1.142  -0.936  1.00  0.00    -0.550 OA
ENDBRANCH   4   5
ENDBRANCH   3   4
ENDBRANCH   2   3
ENDBRANCH   1   2
BRANCH   1   8
ATOM      8  C   UNL     1      -4.214  -0.222   3.528  1.00  0.00     0.000 C 
BRANCH   8   9
ATOM      9  C   UNL     1      -2.915   0.113   2.770  1.00  0.00     0.006 C 
BRANCH   9  10
ATOM     10  C   UNL     1      -1.662   0.179   3.658  1.00  0.00     0.053 C 
BRANCH  10  11
ATOM     11  C   UNL     1      -0.401   0.208   2.849  1.00  0.00     0.041 C 
ATOM     12  O   UNL     1      -0.387   0.761   1.718  1.00  0.00    -0.550 OA
ATOM     13  O   UNL     1       0.765  -0.346   3.359  1.00  0.00    -0.550 OA
ENDBRANCH  10  11
ENDBRANCH   9  10
ENDBRANCH   8   9
ENDBRANCH   1   8
TORSDOF 8
ENDMDL
MODEL 2
REMARK VINA RESULT:    -2.998      0.129      5.263
REMARK INTER + INTRA:          -4.606
REMARK INTER:                  -4.467
REMARK INTRA:                  -0.139
REMARK UNBOUND:                -0.206
REMARK SMILES O=C([O-])CCCCCCCC(=O)[O-]
REMARK SMILES IDX 7 1 6 2 5 3 4 4 2 5 1 6 3 7 8 8 9 9 10 10 11 11 12 12 13 13
REMARK H PARENT
REMARK Flexibility Score: inf
ROOT
ATOM      1  C   UNL     1      -4.645  -1.687   3.251  1.00  0.00     0.000 C 
ENDROOT
BRANCH   1   2
ATOM      2  C   UNL     1      -4.233  -0.254   3.622  1.00  0.00     0.000 C 
BRANCH   2   3
ATOM      3  C   UNL     1      -3.000   0.232   2.839  1.00  0.00     0.006 C 
BRANCH   3   4
ATOM      4  C   UNL     1      -1.724   0.200   3.690  1.00  0.00     0.053 C 
BRANCH   4   5
ATOM      5  C   UNL     1      -0.489   0.201   2.841  1.00  0.00     0.041 C 
ATOM      6  O   UNL     1      -0.458   0.863   1.771  1.00  0.00    -0.550 OA
ATOM      7  O   UNL     1       0.639  -0.499   3.251  1.00  0.00    -0.550 OA
ENDBRANCH   4   5
ENDBRANCH   3   4
ENDBRANCH   2   3
ENDBRANCH   1   2
BRANCH   1   8
ATOM      8  C   UNL     1      -5.313  -1.768   1.867  1.00  0.00     0.000 C 
BRANCH   8   9
ATOM      9  C   UNL     1      -5.084  -3.125   1.174  1.00  0.00     0.006 C 
BRANCH   9  10
ATOM     10  C   UNL     1      -5.174  -3.076  -0.360  1.00  0.00     0.053 C 
BRANCH  10  11
ATOM     11  C   UNL     1      -4.929  -1.698  -0.894  1.00  0.00     0.041 C 
ATOM     12  O   UNL     1      -5.895  -0.920  -1.106  1.00  0.00    -0.550 OA
ATOM     13  O   UNL     1      -3.630  -1.262  -1.125  1.00  0.00    -0.550 OA
ENDBRANCH  10  11
ENDBRANCH   9  10
ENDBRANCH   8   9
ENDBRANCH   1   8
TORSDOF 8
ENDMDL
