MODEL 1
REMARK VINA RESULT:    -2.963      0.000      0.000
REMARK INTER + INTRA:          -3.366
REMARK INTER:                  -3.136
REMARK INTRA:                  -0.230
REMARK UNBOUND:                -0.230
REMARK SMILES CC1=CC[C@@H]2[C@H]3[C@H](C(C)C)CC[C@]2(C)[C@@H]13
REMARK SMILES IDX 1 1 2 2 3 3 4 4 5 5 6 6 15 7 13 8 12 9 11 10 7 11 14 12 8 13
REMARK SMILES IDX 9 14 10 15
REMARK H PARENT
REMARK Flexibility Score: inf
ROOT
ATOM      1  C   UNL     1       1.801  11.995  15.187  1.00  0.00     0.039 C 
ATOM      2  C   UNL     1       1.744  11.502  13.772  1.00  0.00    -0.073 C 
ATOM      3  C   UNL     1       0.559  11.373  13.119  1.00  0.00    -0.027 C 
ATOM      4  C   UNL     1       0.565  10.880  11.668  1.00  0.00     0.031 C 
ATOM      5  C   UNL     1       2.026  10.569  11.204  1.00  0.00     0.003 C 
ATOM      6  C   UNL     1       2.703   9.743  12.323  1.00  0.00     0.004 C 
ATOM      7  C   UNL     1       3.008  11.100  13.008  1.00  0.00     0.024 C 
ATOM      8  C   UNL     1       2.998  11.711  11.584  1.00  0.00    -0.022 C 
ATOM      9  C   UNL     1       4.367  11.470  10.875  1.00  0.00     0.008 C 
ATOM     10  C   UNL     1       5.030  10.132  11.298  1.00  0.00     0.005 C 
ATOM     11  C   UNL     1       3.990   9.065  11.757  1.00  0.00    -0.005 C 
ATOM     12  C   UNL     1       2.532  13.175  11.403  1.00  0.00     0.012 C 
ENDROOT
BRANCH  11  13
ATOM     13  C   UNL     1       4.616   8.002  12.713  1.00  0.00    -0.014 C 
ATOM     14  C   UNL     1       4.225   6.553  12.374  1.00  0.00     0.007 C 
ATOM     15  C   UNL     1       6.147   8.130  12.766  1.00  0.00     0.007 C 
ENDBRANCH  11  13
TORSDOF 1
ENDMDL
MODEL 2
REMARK VINA RESULT:    -1.988      1.466      3.012
REMARK INTER + INTRA:          -2.333
REMARK INTER:                  -2.095
REMARK INTRA:                  -0.239
REMARK UNBOUND:                -0.230
REMARK SMILES CC1=CC[C@@H]2[C@H]3[C@H](C(C)C)CC[C@]2(C)[C@@H]13
REMARK SMILES IDX 1 1 2 2 3 3 4 4 5 5 6 6 15 7 13 8 12 9 11 10 7 11 14 12 8 13
REMARK SMILES IDX 9 14 10 15
REMARK H PARENT
REMARK Flexibility Score: inf
ROOT
ATOM      1  C   UNL     1       4.530  14.742  10.973  1.00  0.00     0.039 C 
ATOM      2  C   UNL     1       3.796  13.786  11.864  1.00  0.00    -0.073 C 
ATOM      3  C   UNL     1       3.573  14.074  13.173  1.00  0.00    -0.027 C 
ATOM      4  C   UNL     1       2.801  13.066  14.032  1.00  0.00     0.031 C 
ATOM      5  C   UNL     1       2.427  11.805  13.185  1.00  0.00     0.003 C 
ATOM      6  C   UNL     1       3.692  11.375  12.405  1.00  0.00     0.004 C 
ATOM      7  C   UNL     1       3.285  12.438  11.351  1.00  0.00     0.024 C 
ATOM      8  C   UNL     1       1.826  12.198  11.814  1.00  0.00    -0.022 C 
ATOM      9  C   UNL     1       1.237  10.924  11.133  1.00  0.00     0.008 C 
ATOM     10  C   UNL     1       2.312   9.835  10.877  1.00  0.00     0.005 C 
ATOM     11  C   UNL     1       3.503   9.918  11.879  1.00  0.00    -0.005 C 
ATOM     12  C   UNL     1       0.822  13.373  11.753  1.00  0.00     0.012 C 
ENDROOT
BRANCH  11  13
ATOM     13  C   UNL     1       4.806   9.282  11.301  1.00  0.00    -0.014 C 
ATOM     14  C   UNL     1       6.035   9.446  12.212  1.00  0.00     0.007 C 
ATOM     15  C   UNL     1       4.602   7.797  10.962  1.00  0.00     0.007 C 
ENDBRANCH  11  13
TORSDOF 1
ENDMDL
MODEL 3
REMARK VINA RESULT:    -1.685      2.710      5.812
REMARK INTER + INTRA:          -2.013
REMARK INTER:                  -1.797
REMARK INTRA:                  -0.216
REMARK UNBOUND:                -0.230
REMARK SMILES CC1=CC[C@@H]2[C@H]3[C@H](C(C)C)CC[C@]2(C)[C@@H]13
REMARK SMILES IDX 1 1 2 2 3 3 4 4 5 5 6 6 15 7 13 8 12 9 11 10 7 11 14 12 8 13
REMARK SMILES IDX 9 14 10 15
REMARK H PARENT
REMARK Flexibility Score: inf
ROOT
ATOM      1  C   UNL     1       3.250  12.969  15.115  1.00  0.00     0.039 C 
ATOM      2  C   UNL     1       3.298  12.951  13.617  1.00  0.00    -0.073 C 
ATOM      3  C   UNL     1       3.893  11.932  12.944  1.00  0.00    -0.027 C 
ATOM      4  C   UNL     1       3.896  11.960  11.412  1.00  0.00     0.031 C 
ATOM      5  C   UNL     1       3.199  13.260  10.890  1.00  0.00     0.003 C 
ATOM      6  C   UNL     1       3.761  14.449  11.704  1.00  0.00     0.004 C 
ATOM      7  C   UNL     1       2.704  14.087  12.780  1.00  0.00     0.024 C 
ATOM      8  C   UNL     1       1.857  13.515  11.615  1.00  0.00    -0.022 C 
ATOM      9  C   UNL     1       1.092  14.660  10.881  1.00  0.00     0.008 C 
ATOM     10  C   UNL     1       1.882  15.996  10.875  1.00  0.00     0.005 C 
ATOM     11  C   UNL     1       3.424  15.783  10.969  1.00  0.00    -0.005 C 
ATOM     12  C   UNL     1       0.921  12.315  11.892  1.00  0.00     0.012 C 
ENDROOT
BRANCH  11  13
ATOM     13  C   UNL     1       4.157  17.030  11.555  1.00  0.00    -0.014 C 
ATOM     14  C   UNL     1       5.579  17.232  11.001  1.00  0.00     0.007 C 
ATOM     15  C   UNL     1       3.332  18.311  11.354  1.00  0.00     0.007 C 
ENDBRANCH  11  13
TORSDOF 1
ENDMDL
