MODEL 1
REMARK VINA RESULT:    -5.147      0.000      0.000
REMARK INTER + INTRA:         -12.921
REMARK INTER:                  -9.961
REMARK INTRA:                  -2.960
REMARK UNBOUND:                -2.960
REMARK SMILES CCCCCCCCCCCCCCCCCC(=O)[O-]
REMARK SMILES IDX 10 1 11 2 12 3 13 4 14 5 15 6 16 7 17 8 18 9 19 10 20 11
REMARK SMILES IDX 9 12 8 13 7 14 6 15 5 16 4 17 3 18 2 19 1 20
REMARK H PARENT
REMARK Flexibility Score: inf
ROOT
ATOM      1  C   UNL     1     121.304 176.298 126.143  1.00  0.00     0.000 C 
ENDROOT
BRANCH   1   2
ATOM      2  C   UNL     1     120.518 176.155 124.828  1.00  0.00     0.000 C 
BRANCH   2   3
ATOM      3  C   UNL     1     120.868 177.247 123.804  1.00  0.00     0.000 C 
BRANCH   3   4
ATOM      4  C   UNL     1     119.648 178.091 123.399  1.00  0.00     0.000 C 
BRANCH   4   5
ATOM      5  C   UNL     1     118.518 178.033 124.442  1.00  0.00     0.000 C 
BRANCH   5   6
ATOM      6  C   UNL     1     118.591 179.183 125.458  1.00  0.00     0.000 C 
BRANCH   6   7
ATOM      7  C   UNL     1     117.750 178.916 126.716  1.00  0.00     0.006 C 
BRANCH   7   8
ATOM      8  C   UNL     1     116.380 179.592 126.611  1.00  0.00     0.053 C 
BRANCH   8   9
ATOM      9  C   UNL     1     115.335 178.599 126.206  1.00  0.00     0.041 C 
ATOM     10  O   UNL     1     114.869 177.789 127.050  1.00  0.00    -0.550 OA
ATOM     11  O   UNL     1     114.915 178.532 124.883  1.00  0.00    -0.550 OA
ENDBRANCH   8   9
ENDBRANCH   7   8
ENDBRANCH   6   7
ENDBRANCH   5   6
ENDBRANCH   4   5
ENDBRANCH   3   4
ENDBRANCH   2   3
ENDBRANCH   1   2
BRANCH   1  12
ATOM     12  C   UNL     1     122.098 177.617 126.248  1.00  0.00     0.000 C 
BRANCH  12  13
ATOM     13  C   UNL     1     121.537 178.546 127.340  1.00  0.00    -0.000 C 
BRANCH  13  14
ATOM     14  C   UNL     1     121.572 177.907 128.738  1.00  0.00    -0.000 C 
BRANCH  14  15
ATOM     15  C   UNL     1     120.175 177.776 129.363  1.00  0.00    -0.000 C 
BRANCH  15  16
ATOM     16  C   UNL     1     119.808 176.300 129.581  1.00  0.00    -0.000 C 
BRANCH  16  17
ATOM     17  C   UNL     1     118.345 176.111 130.014  1.00  0.00    -0.000 C 
BRANCH  17  18
ATOM     18  C   UNL     1     117.389 175.961 128.821  1.00  0.00    -0.000 C 
BRANCH  18  19
ATOM     19  C   UNL     1     118.061 175.203 127.670  1.00  0.00    -0.003 C 
ATOM     20  C   UNL     1     117.189 175.213 126.418  1.00  0.00     0.004 C 
ENDBRANCH  18  19
ENDBRANCH  17  18
ENDBRANCH  16  17
ENDBRANCH  15  16
ENDBRANCH  14  15
ENDBRANCH  13  14
ENDBRANCH  12  13
ENDBRANCH   1  12
TORSDOF 16
ENDMDL
MODEL 2
REMARK VINA RESULT:    -4.998      1.545      4.390
REMARK INTER + INTRA:         -12.633
REMARK INTER:                 -10.063
REMARK INTRA:                  -2.570
REMARK UNBOUND:                -2.960
REMARK SMILES CCCCCCCCCCCCCCCCCC(=O)[O-]
REMARK SMILES IDX 10 1 11 2 12 3 13 4 14 5 15 6 16 7 17 8 18 9 19 10 20 11
REMARK SMILES IDX 9 12 8 13 7 14 6 15 5 16 4 17 3 18 2 19 1 20
REMARK H PARENT
REMARK Flexibility Score: inf
ROOT
ATOM      1  C   UNL     1     121.714 176.957 126.131  1.00  0.00     0.000 C 
ENDROOT
BRANCH   1   2
ATOM      2  C   UNL     1     122.091 178.348 126.671  1.00  0.00     0.000 C 
BRANCH   2   3
ATOM      3  C   UNL     1     121.902 178.467 128.192  1.00  0.00     0.000 C 
BRANCH   3   4
ATOM      4  C   UNL     1     120.929 177.416 128.751  1.00  0.00     0.000 C 
BRANCH   4   5
ATOM      5  C   UNL     1     120.214 177.892 130.028  1.00  0.00     0.000 C 
BRANCH   5   6
ATOM      6  C   UNL     1     119.169 176.883 130.531  1.00  0.00     0.000 C 
BRANCH   6   7
ATOM      7  C   UNL     1     119.182 175.570 129.734  1.00  0.00     0.006 C 
BRANCH   7   8
ATOM      8  C   UNL     1     117.800 174.910 129.744  1.00  0.00     0.053 C 
BRANCH   8   9
ATOM      9  C   UNL     1     116.987 175.377 128.577  1.00  0.00     0.041 C 
ATOM     10  O   UNL     1     115.912 176.005 128.765  1.00  0.00    -0.550 OA
ATOM     11  O   UNL     1     117.390 175.073 127.283  1.00  0.00    -0.550 OA
ENDBRANCH   8   9
ENDBRANCH   7   8
ENDBRANCH   6   7
ENDBRANCH   5   6
ENDBRANCH   4   5
ENDBRANCH   3   4
ENDBRANCH   2   3
ENDBRANCH   1   2
BRANCH   1  12
ATOM     12  C   UNL     1     121.195 176.977 124.678  1.00  0.00     0.000 C 
BRANCH  12  13
ATOM     13  C   UNL     1     119.661 177.082 124.613  1.00  0.00    -0.000 C 
BRANCH  13  14
ATOM     14  C   UNL     1     119.177 178.493 124.239  1.00  0.00    -0.000 C 
BRANCH  14  15
ATOM     15  C   UNL     1     118.759 179.319 125.464  1.00  0.00    -0.000 C 
BRANCH  15  16
ATOM     16  C   UNL     1     118.179 178.415 126.563  1.00  0.00    -0.000 C 
BRANCH  16  17
ATOM     17  C   UNL     1     116.884 178.979 127.170  1.00  0.00    -0.000 C 
BRANCH  17  18
ATOM     18  C   UNL     1     115.730 179.036 126.158  1.00  0.00    -0.000 C 
BRANCH  18  19
ATOM     19  C   UNL     1     115.508 177.668 125.501  1.00  0.00    -0.003 C 
ATOM     20  C   UNL     1     115.285 177.807 123.998  1.00  0.00     0.004 C 
ENDBRANCH  18  19
ENDBRANCH  17  18
ENDBRANCH  16  17
ENDBRANCH  15  16
ENDBRANCH  14  15
ENDBRANCH  13  14
ENDBRANCH  12  13
ENDBRANCH   1  12
TORSDOF 16
ENDMDL
MODEL 3
REMARK VINA RESULT:    -4.951      1.440      3.346
REMARK INTER + INTRA:         -12.543
REMARK INTER:                  -9.522
REMARK INTRA:                  -3.020
REMARK UNBOUND:                -2.960
REMARK SMILES CCCCCCCCCCCCCCCCCC(=O)[O-]
REMARK SMILES IDX 10 1 11 2 12 3 13 4 14 5 15 6 16 7 17 8 18 9 19 10 20 11
REMARK SMILES IDX 9 12 8 13 7 14 6 15 5 16 4 17 3 18 2 19 1 20
REMARK H PARENT
REMARK Flexibility Score: inf
ROOT
ATOM      1  C   UNL     1     121.784 178.502 126.960  1.00  0.00     0.000 C 
ENDROOT
BRANCH   1   2
ATOM      2  C   UNL     1     121.643 178.369 128.486  1.00  0.00     0.000 C 
BRANCH   2   3
ATOM      3  C   UNL     1     120.650 177.269 128.898  1.00  0.00     0.000 C 
BRANCH   3   4
ATOM      4  C   UNL     1     119.233 177.814 129.145  1.00  0.00     0.000 C 
BRANCH   4   5
ATOM      5  C   UNL     1     118.282 177.546 127.965  1.00  0.00     0.000 C 
BRANCH   5   6
ATOM      6  C   UNL     1     117.858 178.835 127.244  1.00  0.00     0.000 C 
BRANCH   6   7
ATOM      7  C   UNL     1     117.672 178.634 125.733  1.00  0.00     0.006 C 
BRANCH   7   8
ATOM      8  C   UNL     1     116.892 177.349 125.443  1.00  0.00     0.053 C 
BRANCH   8   9
ATOM      9  C   UNL     1     115.443 177.653 125.223  1.00  0.00     0.041 C 
ATOM     10  O   UNL     1     114.660 177.750 126.205  1.00  0.00    -0.550 OA
ATOM     11  O   UNL     1     114.946 177.775 123.931  1.00  0.00    -0.550 OA
ENDBRANCH   8   9
ENDBRANCH   7   8
ENDBRANCH   6   7
ENDBRANCH   5   6
ENDBRANCH   4   5
ENDBRANCH   3   4
ENDBRANCH   2   3
ENDBRANCH   1   2
BRANCH   1  12
ATOM     12  C   UNL     1     121.913 177.149 126.230  1.00  0.00     0.000 C 
BRANCH  12  13
ATOM     13  C   UNL     1     120.825 176.964 125.157  1.00  0.00    -0.000 C 
BRANCH  13  14
ATOM     14  C   UNL     1     120.145 175.587 125.231  1.00  0.00    -0.000 C 
BRANCH  14  15
ATOM     15  C   UNL     1     121.060 174.507 125.824  1.00  0.00    -0.000 C 
BRANCH  15  16
ATOM     16  C   UNL     1     120.249 173.486 126.637  1.00  0.00    -0.000 C 
BRANCH  16  17
ATOM     17  C   UNL     1     119.020 174.113 127.316  1.00  0.00    -0.000 C 
BRANCH  17  18
ATOM     18  C   UNL     1     119.049 173.969 128.845  1.00  0.00    -0.000 C 
BRANCH  18  19
ATOM     19  C   UNL     1     117.658 174.207 129.446  1.00  0.00    -0.003 C 
ATOM     20  C   UNL     1     117.753 174.892 130.806  1.00  0.00     0.004 C 
ENDBRANCH  18  19
ENDBRANCH  17  18
ENDBRANCH  16  17
ENDBRANCH  15  16
ENDBRANCH  14  15
ENDBRANCH  13  14
ENDBRANCH  12  13
ENDBRANCH   1  12
TORSDOF 16
ENDMDL
MODEL 4
REMARK VINA RESULT:    -4.946      3.221      5.844
REMARK INTER + INTRA:         -12.532
REMARK INTER:                  -9.735
REMARK INTRA:                  -2.797
REMARK UNBOUND:                -2.960
REMARK SMILES CCCCCCCCCCCCCCCCCC(=O)[O-]
REMARK SMILES IDX 10 1 11 2 12 3 13 4 14 5 15 6 16 7 17 8 18 9 19 10 20 11
REMARK SMILES IDX 9 12 8 13 7 14 6 15 5 16 4 17 3 18 2 19 1 20
REMARK H PARENT
REMARK Flexibility Score: inf
ROOT
ATOM      1  C   UNL     1     118.121 175.669 128.433  1.00  0.00     0.000 C 
ENDROOT
BRANCH   1   2
ATOM      2  C   UNL     1     118.671 176.324 129.712  1.00  0.00     0.000 C 
BRANCH   2   3
ATOM      3  C   UNL     1     119.310 177.698 129.450  1.00  0.00     0.000 C 
BRANCH   3   4
ATOM      4  C   UNL     1     120.734 177.807 130.020  1.00  0.00     0.000 C 
BRANCH   4   5
ATOM      5  C   UNL     1     121.756 178.278 128.972  1.00  0.00     0.000 C 
BRANCH   5   6
ATOM      6  C   UNL     1     121.245 178.112 127.532  1.00  0.00     0.000 C 
BRANCH   6   7
ATOM      7  C   UNL     1     122.379 178.132 126.495  1.00  0.00     0.006 C 
BRANCH   7   8
ATOM      8  C   UNL     1     122.273 176.935 125.545  1.00  0.00     0.053 C 
BRANCH   8   9
ATOM      9  C   UNL     1     123.636 176.473 125.130  1.00  0.00     0.041 C 
ATOM     10  O   UNL     1     124.559 177.309 124.948  1.00  0.00    -0.550 OA
ATOM     11  O   UNL     1     123.870 175.124 124.893  1.00  0.00    -0.550 OA
ENDBRANCH   8   9
ENDBRANCH   7   8
ENDBRANCH   6   7
ENDBRANCH   5   6
ENDBRANCH   4   5
ENDBRANCH   3   4
ENDBRANCH   2   3
ENDBRANCH   1   2
BRANCH   1  12
ATOM     12  C   UNL     1     119.183 174.883 127.636  1.00  0.00     0.000 C 
BRANCH  12  13
ATOM     13  C   UNL     1     119.212 175.289 126.152  1.00  0.00    -0.000 C 
BRANCH  13  14
ATOM     14  C   UNL     1     118.169 176.367 125.811  1.00  0.00    -0.000 C 
BRANCH  14  15
ATOM     15  C   UNL     1     118.648 177.327 124.713  1.00  0.00    -0.000 C 
BRANCH  15  16
ATOM     16  C   UNL     1     118.474 178.790 125.149  1.00  0.00    -0.000 C 
BRANCH  16  17
ATOM     17  C   UNL     1     117.758 178.923 126.504  1.00  0.00    -0.000 C 
BRANCH  17  18
ATOM     18  C   UNL     1     116.441 179.708 126.405  1.00  0.00    -0.000 C 
BRANCH  18  19
ATOM     19  C   UNL     1     115.317 178.825 125.849  1.00  0.00    -0.003 C 
ATOM     20  C   UNL     1     114.904 177.756 126.857  1.00  0.00     0.004 C 
ENDBRANCH  18  19
ENDBRANCH  17  18
ENDBRANCH  16  17
ENDBRANCH  15  16
ENDBRANCH  14  15
ENDBRANCH  13  14
ENDBRANCH  12  13
ENDBRANCH   1  12
TORSDOF 16
ENDMDL
MODEL 5
REMARK VINA RESULT:    -4.916      4.660      6.668
REMARK INTER + INTRA:         -12.474
REMARK INTER:                 -10.749
REMARK INTRA:                  -1.725
REMARK UNBOUND:                -2.960
REMARK SMILES CCCCCCCCCCCCCCCCCC(=O)[O-]
REMARK SMILES IDX 10 1 11 2 12 3 13 4 14 5 15 6 16 7 17 8 18 9 19 10 20 11
REMARK SMILES IDX 9 12 8 13 7 14 6 15 5 16 4 17 3 18 2 19 1 20
REMARK H PARENT
REMARK Flexibility Score: inf
ROOT
ATOM      1  C   UNL     1     122.231 177.096 126.367  1.00  0.00     0.000 C 
ENDROOT
BRANCH   1   2
ATOM      2  C   UNL     1     123.132 177.102 125.120  1.00  0.00     0.000 C 
BRANCH   2   3
ATOM      3  C   UNL     1     122.438 176.514 123.880  1.00  0.00     0.000 C 
BRANCH   3   4
ATOM      4  C   UNL     1     123.276 176.675 122.601  1.00  0.00     0.000 C 
BRANCH   4   5
ATOM      5  C   UNL     1     122.412 176.697 121.328  1.00  0.00     0.000 C 
BRANCH   5   6
ATOM      6  C   UNL     1     122.991 177.612 120.237  1.00  0.00     0.000 C 
BRANCH   6   7
ATOM      7  C   UNL     1     123.917 176.863 119.267  1.00  0.00     0.006 C 
BRANCH   7   8
ATOM      8  C   UNL     1     123.132 176.327 118.066  1.00  0.00     0.053 C 
BRANCH   8   9
ATOM      9  C   UNL     1     122.988 177.386 117.017  1.00  0.00     0.041 C 
ATOM     10  O   UNL     1     123.912 178.221 116.829  1.00  0.00    -0.550 OA
ATOM     11  O   UNL     1     121.812 177.483 116.285  1.00  0.00    -0.550 OA
ENDBRANCH   8   9
ENDBRANCH   7   8
ENDBRANCH   6   7
ENDBRANCH   5   6
ENDBRANCH   4   5
ENDBRANCH   3   4
ENDBRANCH   2   3
ENDBRANCH   1   2
BRANCH   1  12
ATOM     12  C   UNL     1     122.046 178.490 127.002  1.00  0.00     0.000 C 
BRANCH  12  13
ATOM     13  C   UNL     1     121.597 178.401 128.472  1.00  0.00    -0.000 C 
BRANCH  13  14
ATOM     14  C   UNL     1     120.460 177.388 128.686  1.00  0.00    -0.000 C 
BRANCH  14  15
ATOM     15  C   UNL     1     119.070 178.034 128.606  1.00  0.00    -0.000 C 
BRANCH  15  16
ATOM     16  C   UNL     1     118.342 177.611 127.322  1.00  0.00    -0.000 C 
BRANCH  16  17
ATOM     17  C   UNL     1     117.823 178.811 126.512  1.00  0.00    -0.000 C 
BRANCH  17  18
ATOM     18  C   UNL     1     118.785 179.231 125.391  1.00  0.00    -0.000 C 
BRANCH  18  19
ATOM     19  C   UNL     1     119.148 178.035 124.502  1.00  0.00    -0.003 C 
ATOM     20  C   UNL     1     119.277 178.453 123.040  1.00  0.00     0.004 C 
ENDBRANCH  18  19
ENDBRANCH  17  18
ENDBRANCH  16  17
ENDBRANCH  15  16
ENDBRANCH  14  15
ENDBRANCH  13  14
ENDBRANCH  12  13
ENDBRANCH   1  12
TORSDOF 16
ENDMDL
MODEL 6
REMARK VINA RESULT:    -4.867      1.257      1.727
REMARK INTER + INTRA:         -12.379
REMARK INTER:                  -9.590
REMARK INTRA:                  -2.789
REMARK UNBOUND:                -2.960
REMARK SMILES CCCCCCCCCCCCCCCCCC(=O)[O-]
REMARK SMILES IDX 10 1 11 2 12 3 13 4 14 5 15 6 16 7 17 8 18 9 19 10 20 11
REMARK SMILES IDX 9 12 8 13 7 14 6 15 5 16 4 17 3 18 2 19 1 20
REMARK H PARENT
REMARK Flexibility Score: inf
ROOT
ATOM      1  C   UNL     1     121.859 177.040 126.527  1.00  0.00     0.000 C 
ENDROOT
BRANCH   1   2
ATOM      2  C   UNL     1     121.316 177.190 125.095  1.00  0.00     0.000 C 
BRANCH   2   3
ATOM      3  C   UNL     1     120.111 176.277 124.817  1.00  0.00     0.000 C 
BRANCH   3   4
ATOM      4  C   UNL     1     118.770 177.024 124.904  1.00  0.00     0.000 C 
BRANCH   4   5
ATOM      5  C   UNL     1     118.911 178.528 124.608  1.00  0.00     0.000 C 
BRANCH   5   6
ATOM      6  C   UNL     1     118.514 179.405 125.805  1.00  0.00     0.000 C 
BRANCH   6   7
ATOM      7  C   UNL     1     117.401 178.776 126.657  1.00  0.00     0.006 C 
BRANCH   7   8
ATOM      8  C   UNL     1     116.047 179.424 126.354  1.00  0.00     0.053 C 
BRANCH   8   9
ATOM      9  C   UNL     1     115.079 178.403 125.844  1.00  0.00     0.041 C 
ATOM     10  O   UNL     1     114.154 177.979 126.586  1.00  0.00    -0.550 OA
ATOM     11  O   UNL     1     115.230 177.879 124.566  1.00  0.00    -0.550 OA
ENDBRANCH   8   9
ENDBRANCH   7   8
ENDBRANCH   6   7
ENDBRANCH   5   6
ENDBRANCH   4   5
ENDBRANCH   3   4
ENDBRANCH   2   3
ENDBRANCH   1   2
BRANCH   1  12
ATOM     12  C   UNL     1     121.546 178.247 127.437  1.00  0.00     0.000 C 
BRANCH  12  13
ATOM     13  C   UNL     1     121.229 177.816 128.880  1.00  0.00    -0.000 C 
BRANCH  13  14
ATOM     14  C   UNL     1     119.732 177.922 129.216  1.00  0.00    -0.000 C 
BRANCH  14  15
ATOM     15  C   UNL     1     119.183 176.649 129.877  1.00  0.00    -0.000 C 
BRANCH  15  16
ATOM     16  C   UNL     1     119.951 175.408 129.399  1.00  0.00    -0.000 C 
BRANCH  16  17
ATOM     17  C   UNL     1     119.322 174.766 128.152  1.00  0.00    -0.000 C 
BRANCH  17  18
ATOM     18  C   UNL     1     120.220 173.691 127.521  1.00  0.00    -0.000 C 
BRANCH  18  19
ATOM     19  C   UNL     1     119.484 172.953 126.395  1.00  0.00    -0.003 C 
ATOM     20  C   UNL     1     117.975 172.972 126.617  1.00  0.00     0.004 C 
ENDBRANCH  18  19
ENDBRANCH  17  18
ENDBRANCH  16  17
ENDBRANCH  15  16
ENDBRANCH  14  15
ENDBRANCH  13  14
ENDBRANCH  12  13
ENDBRANCH   1  12
TORSDOF 16
ENDMDL
MODEL 7
REMARK VINA RESULT:    -4.862      1.316      4.471
REMARK INTER + INTRA:         -12.370
REMARK INTER:                  -9.336
REMARK INTRA:                  -3.033
REMARK UNBOUND:                -2.960
REMARK SMILES CCCCCCCCCCCCCCCCCC(=O)[O-]
REMARK SMILES IDX 10 1 11 2 12 3 13 4 14 5 15 6 16 7 17 8 18 9 19 10 20 11
REMARK SMILES IDX 9 12 8 13 7 14 6 15 5 16 4 17 3 18 2 19 1 20
REMARK H PARENT
REMARK Flexibility Score: inf
ROOT
ATOM      1  C   UNL     1     120.765 177.155 128.767  1.00  0.00     0.000 C 
ENDROOT
BRANCH   1   2
ATOM      2  C   UNL     1     120.678 177.626 130.229  1.00  0.00     0.000 C 
BRANCH   2   3
ATOM      3  C   UNL     1     119.608 176.870 131.035  1.00  0.00     0.000 C 
BRANCH   3   4
ATOM      4  C   UNL     1     119.060 175.644 130.285  1.00  0.00     0.000 C 
BRANCH   4   5
ATOM      5  C   UNL     1     117.533 175.696 130.103  1.00  0.00     0.000 C 
BRANCH   5   6
ATOM      6  C   UNL     1     117.087 175.212 128.714  1.00  0.00     0.000 C 
BRANCH   6   7
ATOM      7  C   UNL     1     116.004 176.109 128.095  1.00  0.00     0.006 C 
BRANCH   7   8
ATOM      8  C   UNL     1     116.009 175.997 126.567  1.00  0.00     0.053 C 
BRANCH   8   9
ATOM      9  C   UNL     1     115.318 177.175 125.953  1.00  0.00     0.041 C 
ATOM     10  O   UNL     1     114.510 177.860 126.632  1.00  0.00    -0.550 OA
ATOM     11  O   UNL     1     115.527 177.483 124.614  1.00  0.00    -0.550 OA
ENDBRANCH   8   9
ENDBRANCH   7   8
ENDBRANCH   6   7
ENDBRANCH   5   6
ENDBRANCH   4   5
ENDBRANCH   3   4
ENDBRANCH   2   3
ENDBRANCH   1   2
BRANCH   1  12
ATOM     12  C   UNL     1     120.333 178.229 127.746  1.00  0.00     0.000 C 
BRANCH  12  13
ATOM     13  C   UNL     1     118.811 178.233 127.520  1.00  0.00    -0.000 C 
BRANCH  13  14
ATOM     14  C   UNL     1     118.406 178.935 126.213  1.00  0.00    -0.000 C 
BRANCH  14  15
ATOM     15  C   UNL     1     119.313 178.556 125.033  1.00  0.00    -0.000 C 
BRANCH  15  16
ATOM     16  C   UNL     1     119.105 177.088 124.631  1.00  0.00    -0.000 C 
BRANCH  16  17
ATOM     17  C   UNL     1     120.414 176.397 124.215  1.00  0.00    -0.000 C 
BRANCH  17  18
ATOM     18  C   UNL     1     120.802 175.247 125.156  1.00  0.00    -0.000 C 
BRANCH  18  19
ATOM     19  C   UNL     1     119.628 174.860 126.063  1.00  0.00    -0.003 C 
ATOM     20  C   UNL     1     120.053 173.832 127.108  1.00  0.00     0.004 C 
ENDBRANCH  18  19
ENDBRANCH  17  18
ENDBRANCH  16  17
ENDBRANCH  15  16
ENDBRANCH  14  15
ENDBRANCH  13  14
ENDBRANCH  12  13
ENDBRANCH   1  12
TORSDOF 16
ENDMDL
MODEL 8
REMARK VINA RESULT:    -4.848      1.581      4.310
REMARK INTER + INTRA:         -12.343
REMARK INTER:                  -9.783
REMARK INTRA:                  -2.560
REMARK UNBOUND:                -2.960
REMARK SMILES CCCCCCCCCCCCCCCCCC(=O)[O-]
REMARK SMILES IDX 10 1 11 2 12 3 13 4 14 5 15 6 16 7 17 8 18 9 19 10 20 11
REMARK SMILES IDX 9 12 8 13 7 14 6 15 5 16 4 17 3 18 2 19 1 20
REMARK H PARENT
REMARK Flexibility Score: inf
ROOT
ATOM      1  C   UNL     1     119.715 176.545 130.901  1.00  0.00     0.000 C 
ENDROOT
BRANCH   1   2
ATOM      2  C   UNL     1     119.149 175.383 130.067  1.00  0.00     0.000 C 
BRANCH   2   3
ATOM      3  C   UNL     1     117.615 175.293 130.137  1.00  0.00     0.000 C 
BRANCH   3   4
ATOM      4  C   UNL     1     116.936 175.750 128.835  1.00  0.00     0.000 C 
BRANCH   4   5
ATOM      5  C   UNL     1     117.129 174.748 127.684  1.00  0.00     0.000 C 
BRANCH   5   6
ATOM      6  C   UNL     1     116.775 175.346 126.313  1.00  0.00     0.000 C 
BRANCH   6   7
ATOM      7  C   UNL     1     116.518 176.860 126.377  1.00  0.00     0.006 C 
BRANCH   7   8
ATOM      8  C   UNL     1     117.497 177.620 125.477  1.00  0.00     0.053 C 
BRANCH   8   9
ATOM      9  C   UNL     1     117.652 179.033 125.946  1.00  0.00     0.041 C 
ATOM     10  O   UNL     1     116.698 179.616 126.525  1.00  0.00    -0.550 OA
ATOM     11  O   UNL     1     118.832 179.723 125.696  1.00  0.00    -0.550 OA
ENDBRANCH   8   9
ENDBRANCH   7   8
ENDBRANCH   6   7
ENDBRANCH   5   6
ENDBRANCH   4   5
ENDBRANCH   3   4
ENDBRANCH   2   3
ENDBRANCH   1   2
BRANCH   1  12
ATOM     12  C   UNL     1     119.706 177.900 130.161  1.00  0.00     0.000 C 
BRANCH  12  13
ATOM     13  C   UNL     1     120.159 177.762 128.696  1.00  0.00    -0.000 C 
BRANCH  13  14
ATOM     14  C   UNL     1     121.616 178.204 128.481  1.00  0.00    -0.000 C 
BRANCH  14  15
ATOM     15  C   UNL     1     121.907 178.594 127.025  1.00  0.00    -0.000 C 
BRANCH  15  16
ATOM     16  C   UNL     1     122.228 177.353 126.179  1.00  0.00    -0.000 C 
BRANCH  16  17
ATOM     17  C   UNL     1     121.248 177.162 125.010  1.00  0.00    -0.000 C 
BRANCH  17  18
ATOM     18  C   UNL     1     120.688 175.734 124.932  1.00  0.00    -0.000 C 
BRANCH  18  19
ATOM     19  C   UNL     1     120.686 175.069 126.314  1.00  0.00    -0.003 C 
ATOM     20  C   UNL     1     120.331 173.589 126.214  1.00  0.00     0.004 C 
ENDBRANCH  18  19
ENDBRANCH  17  18
ENDBRANCH  16  17
ENDBRANCH  15  16
ENDBRANCH  14  15
ENDBRANCH  13  14
ENDBRANCH  12  13
ENDBRANCH   1  12
TORSDOF 16
ENDMDL
MODEL 9
REMARK VINA RESULT:    -4.848      1.193      3.695
REMARK INTER + INTRA:         -12.343
REMARK INTER:                  -9.710
REMARK INTRA:                  -2.633
REMARK UNBOUND:                -2.960
REMARK SMILES CCCCCCCCCCCCCCCCCC(=O)[O-]
REMARK SMILES IDX 10 1 11 2 12 3 13 4 14 5 15 6 16 7 17 8 18 9 19 10 20 11
REMARK SMILES IDX 9 12 8 13 7 14 6 15 5 16 4 17 3 18 2 19 1 20
REMARK H PARENT
REMARK Flexibility Score: inf
ROOT
ATOM      1  C   UNL     1     118.235 176.040 130.320  1.00  0.00     0.000 C 
ENDROOT
BRANCH   1   2
ATOM      2  C   UNL     1     117.156 175.215 129.597  1.00  0.00     0.000 C 
BRANCH   2   3
ATOM      3  C   UNL     1     116.403 176.027 128.530  1.00  0.00     0.000 C 
BRANCH   3   4
ATOM      4  C   UNL     1     116.776 175.610 127.098  1.00  0.00     0.000 C 
BRANCH   4   5
ATOM      5  C   UNL     1     117.581 176.693 126.358  1.00  0.00     0.000 C 
BRANCH   5   6
ATOM      6  C   UNL     1     117.567 178.043 127.092  1.00  0.00     0.000 C 
BRANCH   6   7
ATOM      7  C   UNL     1     117.323 179.229 126.145  1.00  0.00     0.006 C 
BRANCH   7   8
ATOM      8  C   UNL     1     115.883 179.737 126.264  1.00  0.00     0.053 C 
BRANCH   8   9
ATOM      9  C   UNL     1     114.920 178.703 125.768  1.00  0.00     0.041 C 
ATOM     10  O   UNL     1     114.133 178.134 126.570  1.00  0.00    -0.550 OA
ATOM     11  O   UNL     1     114.928 178.330 124.430  1.00  0.00    -0.550 OA
ENDBRANCH   8   9
ENDBRANCH   7   8
ENDBRANCH   6   7
ENDBRANCH   5   6
ENDBRANCH   4   5
ENDBRANCH   3   4
ENDBRANCH   2   3
ENDBRANCH   1   2
BRANCH   1  12
ATOM     12  C   UNL     1     119.575 176.110 129.558  1.00  0.00     0.000 C 
BRANCH  12  13
ATOM     13  C   UNL     1     120.083 177.556 129.412  1.00  0.00    -0.000 C 
BRANCH  13  14
ATOM     14  C   UNL     1     121.567 177.627 129.015  1.00  0.00    -0.000 C 
BRANCH  14  15
ATOM     15  C   UNL     1     121.840 178.684 127.935  1.00  0.00    -0.000 C 
BRANCH  15  16
ATOM     16  C   UNL     1     122.262 178.022 126.614  1.00  0.00    -0.000 C 
BRANCH  16  17
ATOM     17  C   UNL     1     121.061 177.555 125.775  1.00  0.00    -0.000 C 
BRANCH  17  18
ATOM     18  C   UNL     1     121.230 176.124 125.243  1.00  0.00    -0.000 C 
BRANCH  18  19
ATOM     19  C   UNL     1     120.904 175.092 126.330  1.00  0.00    -0.003 C 
ATOM     20  C   UNL     1     120.023 173.973 125.783  1.00  0.00     0.004 C 
ENDBRANCH  18  19
ENDBRANCH  17  18
ENDBRANCH  16  17
ENDBRANCH  15  16
ENDBRANCH  14  15
ENDBRANCH  13  14
ENDBRANCH  12  13
ENDBRANCH   1  12
TORSDOF 16
ENDMDL
