MODEL 1
REMARK VINA RESULT:    -3.941      0.000      0.000
REMARK INTER + INTRA:          -4.319
REMARK INTER:                  -4.287
REMARK INTRA:                  -0.032
REMARK UNBOUND:                -0.032
REMARK SMILES O=C([O-])c1ccc(O)cc1
REMARK SMILES IDX 4 1 5 2 10 3 6 4 9 5 7 6 2 7 1 8 3 9 8 10
REMARK H PARENT 8 11
REMARK Flexibility Score: inf
ROOT
ATOM      1  C   UNL     1      42.411  29.759  90.100  1.00  0.00    -0.003 A 
ATOM      2  C   UNL     1      41.154  29.825  89.472  1.00  0.00     0.014 A 
ATOM      3  C   UNL     1      43.490  30.469  89.542  1.00  0.00     0.014 A 
ATOM      4  C   UNL     1      40.980  30.585  88.312  1.00  0.00     0.047 A 
ATOM      5  C   UNL     1      43.313  31.227  88.381  1.00  0.00     0.047 A 
ATOM      6  C   UNL     1      42.060  31.287  87.763  1.00  0.00     0.115 A 
ENDROOT
BRANCH   1   7
ATOM      7  C   UNL     1      42.601  28.957  91.329  1.00  0.00     0.071 C 
ATOM      8  O   UNL     1      42.041  27.836  91.454  1.00  0.00    -0.545 OA
ATOM      9  O   UNL     1      43.401  29.429  92.363  1.00  0.00    -0.545 OA
ENDBRANCH   1   7
BRANCH   6  10
ATOM     10  O   UNL     1      41.900  32.048  86.607  1.00  0.00    -0.508 OA
ATOM     11  H   UNL     1      42.691  32.476  86.142  1.00  0.00     0.293 HD
ENDBRANCH   6  10
TORSDOF 2
ENDMDL
MODEL 2
REMARK VINA RESULT:    -3.924      0.042      1.533
REMARK INTER + INTRA:          -4.300
REMARK INTER:                  -4.268
REMARK INTRA:                  -0.032
REMARK UNBOUND:                -0.032
REMARK SMILES O=C([O-])c1ccc(O)cc1
REMARK SMILES IDX 4 1 5 2 10 3 6 4 9 5 7 6 2 7 1 8 3 9 8 10
REMARK H PARENT 8 11
REMARK Flexibility Score: inf
ROOT
ATOM      1  C   UNL     1      42.445  29.748  90.112  1.00  0.00    -0.003 A 
ATOM      2  C   UNL     1      43.523  30.466  89.561  1.00  0.00     0.014 A 
ATOM      3  C   UNL     1      41.194  29.797  89.470  1.00  0.00     0.014 A 
ATOM      4  C   UNL     1      43.352  31.215  88.393  1.00  0.00     0.047 A 
ATOM      5  C   UNL     1      41.026  30.548  88.303  1.00  0.00     0.047 A 
ATOM      6  C   UNL     1      42.103  31.258  87.762  1.00  0.00     0.115 A 
ENDROOT
BRANCH   1   7
ATOM      7  C   UNL     1      42.620  28.954  91.347  1.00  0.00     0.071 C 
ATOM      8  O   UNL     1      42.057  27.834  91.474  1.00  0.00    -0.545 OA
ATOM      9  O   UNL     1      43.408  29.433  92.388  1.00  0.00    -0.545 OA
ENDBRANCH   1   7
BRANCH   6  10
ATOM     10  O   UNL     1      41.920  32.001  86.597  1.00  0.00    -0.508 OA
ATOM     11  H   UNL     1      42.674  32.545  86.193  1.00  0.00     0.293 HD
ENDBRANCH   6  10
TORSDOF 2
ENDMDL
MODEL 3
REMARK VINA RESULT:    -3.679      9.922     11.674
REMARK INTER + INTRA:          -4.034
REMARK INTER:                  -3.999
REMARK INTRA:                  -0.035
REMARK UNBOUND:                -0.032
REMARK SMILES O=C([O-])c1ccc(O)cc1
REMARK SMILES IDX 4 1 5 2 10 3 6 4 9 5 7 6 2 7 1 8 3 9 8 10
REMARK H PARENT 8 11
REMARK Flexibility Score: inf
ROOT
ATOM      1  C   UNL     1      51.115  34.692  85.715  1.00  0.00    -0.003 A 
ATOM      2  C   UNL     1      51.421  35.101  87.026  1.00  0.00     0.014 A 
ATOM      3  C   UNL     1      52.162  34.302  84.860  1.00  0.00     0.014 A 
ATOM      4  C   UNL     1      52.746  35.117  87.472  1.00  0.00     0.047 A 
ATOM      5  C   UNL     1      53.486  34.320  85.309  1.00  0.00     0.047 A 
ATOM      6  C   UNL     1      53.781  34.727  86.614  1.00  0.00     0.115 A 
ENDROOT
BRANCH   1   7
ATOM      7  C   UNL     1      49.715  34.673  85.237  1.00  0.00     0.071 C 
ATOM      8  O   UNL     1      48.832  35.365  85.811  1.00  0.00    -0.545 OA
ATOM      9  O   UNL     1      49.352  33.891  84.146  1.00  0.00    -0.545 OA
ENDBRANCH   1   7
BRANCH   6  10
ATOM     10  O   UNL     1      55.106  34.739  87.047  1.00  0.00    -0.508 OA
ATOM     11  H   UNL     1      55.702  35.546  86.903  1.00  0.00     0.293 HD
ENDBRANCH   6  10
TORSDOF 2
ENDMDL
MODEL 4
REMARK VINA RESULT:    -3.666      9.929     11.699
REMARK INTER + INTRA:          -4.019
REMARK INTER:                  -3.984
REMARK INTRA:                  -0.035
REMARK UNBOUND:                -0.032
REMARK SMILES O=C([O-])c1ccc(O)cc1
REMARK SMILES IDX 4 1 5 2 10 3 6 4 9 5 7 6 2 7 1 8 3 9 8 10
REMARK H PARENT 8 11
REMARK Flexibility Score: inf
ROOT
ATOM      1  C   UNL     1      51.113  34.699  85.677  1.00  0.00    -0.003 A 
ATOM      2  C   UNL     1      52.151  34.346  84.795  1.00  0.00     0.014 A 
ATOM      3  C   UNL     1      51.433  35.046  87.003  1.00  0.00     0.014 A 
ATOM      4  C   UNL     1      53.480  34.341  85.231  1.00  0.00     0.047 A 
ATOM      5  C   UNL     1      52.762  35.039  87.435  1.00  0.00     0.047 A 
ATOM      6  C   UNL     1      53.788  34.687  86.552  1.00  0.00     0.115 A 
ENDROOT
BRANCH   1   7
ATOM      7  C   UNL     1      49.705  34.706  85.223  1.00  0.00     0.071 C 
ATOM      8  O   UNL     1      48.762  34.714  86.057  1.00  0.00    -0.545 OA
ATOM      9  O   UNL     1      49.403  34.703  83.865  1.00  0.00    -0.545 OA
ENDBRANCH   1   7
BRANCH   6  10
ATOM     10  O   UNL     1      55.108  34.686  86.998  1.00  0.00    -0.508 OA
ATOM     11  H   UNL     1      55.713  33.886  86.857  1.00  0.00     0.293 HD
ENDBRANCH   6  10
TORSDOF 2
ENDMDL
MODEL 5
REMARK VINA RESULT:    -3.651     14.082     14.827
REMARK INTER + INTRA:          -4.004
REMARK INTER:                  -3.973
REMARK INTRA:                  -0.031
REMARK UNBOUND:                -0.032
REMARK SMILES O=C([O-])c1ccc(O)cc1
REMARK SMILES IDX 4 1 5 2 10 3 6 4 9 5 7 6 2 7 1 8 3 9 8 10
REMARK H PARENT 8 11
REMARK Flexibility Score: inf
ROOT
ATOM      1  C   UNL     1      39.727  20.344  79.202  1.00  0.00    -0.003 A 
ATOM      2  C   UNL     1      39.267  19.125  79.733  1.00  0.00     0.014 A 
ATOM      3  C   UNL     1      38.934  21.496  79.351  1.00  0.00     0.014 A 
ATOM      4  C   UNL     1      38.039  19.062  80.400  1.00  0.00     0.047 A 
ATOM      5  C   UNL     1      37.707  21.429  80.017  1.00  0.00     0.047 A 
ATOM      6  C   UNL     1      37.257  20.214  80.543  1.00  0.00     0.115 A 
ENDROOT
BRANCH   1   7
ATOM      7  C   UNL     1      41.025  20.417  78.495  1.00  0.00     0.071 C 
ATOM      8  O   UNL     1      42.059  19.906  79.000  1.00  0.00    -0.545 OA
ATOM      9  O   UNL     1      41.121  21.051  77.261  1.00  0.00    -0.545 OA
ENDBRANCH   1   7
BRANCH   6  10
ATOM     10  O   UNL     1      36.032  20.164  81.206  1.00  0.00    -0.508 OA
ATOM     11  H   UNL     1      35.160  20.338  80.719  1.00  0.00     0.293 HD
ENDBRANCH   6  10
TORSDOF 2
ENDMDL
MODEL 6
REMARK VINA RESULT:    -3.603      1.970      2.870
REMARK INTER + INTRA:          -3.951
REMARK INTER:                  -3.916
REMARK INTRA:                  -0.035
REMARK UNBOUND:                -0.032
REMARK SMILES O=C([O-])c1ccc(O)cc1
REMARK SMILES IDX 4 1 5 2 10 3 6 4 9 5 7 6 2 7 1 8 3 9 8 10
REMARK H PARENT 8 11
REMARK Flexibility Score: inf
ROOT
ATOM      1  C   UNL     1      43.055  30.573  89.011  1.00  0.00    -0.003 A 
ATOM      2  C   UNL     1      42.617  31.280  87.876  1.00  0.00     0.014 A 
ATOM      3  C   UNL     1      42.105  29.917  89.815  1.00  0.00     0.014 A 
ATOM      4  C   UNL     1      41.258  31.328  87.553  1.00  0.00     0.047 A 
ATOM      5  C   UNL     1      40.746  29.969  89.490  1.00  0.00     0.047 A 
ATOM      6  C   UNL     1      40.319  30.673  88.360  1.00  0.00     0.115 A 
ENDROOT
BRANCH   1   7
ATOM      7  C   UNL     1      44.492  30.518  89.359  1.00  0.00     0.071 C 
ATOM      8  O   UNL     1      45.371  30.780  88.495  1.00  0.00    -0.545 OA
ATOM      9  O   UNL     1      44.894  30.175  90.645  1.00  0.00    -0.545 OA
ENDBRANCH   1   7
BRANCH   6  10
ATOM     10  O   UNL     1      38.962  30.714  88.048  1.00  0.00    -0.508 OA
ATOM     11  H   UNL     1      38.368  29.902  88.164  1.00  0.00     0.293 HD
ENDBRANCH   6  10
TORSDOF 2
ENDMDL
MODEL 7
REMARK VINA RESULT:    -3.594      1.991      2.711
REMARK INTER + INTRA:          -3.941
REMARK INTER:                  -3.906
REMARK INTRA:                  -0.036
REMARK UNBOUND:                -0.032
REMARK SMILES O=C([O-])c1ccc(O)cc1
REMARK SMILES IDX 4 1 5 2 10 3 6 4 9 5 7 6 2 7 1 8 3 9 8 10
REMARK H PARENT 8 11
REMARK Flexibility Score: inf
ROOT
ATOM      1  C   UNL     1      43.066  30.460  89.088  1.00  0.00    -0.003 A 
ATOM      2  C   UNL     1      42.093  29.844  89.897  1.00  0.00     0.014 A 
ATOM      3  C   UNL     1      42.653  31.164  87.941  1.00  0.00     0.014 A 
ATOM      4  C   UNL     1      40.737  29.933  89.566  1.00  0.00     0.047 A 
ATOM      5  C   UNL     1      41.297  31.249  87.613  1.00  0.00     0.047 A 
ATOM      6  C   UNL     1      40.337  30.635  88.423  1.00  0.00     0.115 A 
ENDROOT
BRANCH   1   7
ATOM      7  C   UNL     1      44.502  30.370  89.432  1.00  0.00     0.071 C 
ATOM      8  O   UNL     1      45.347  31.104  88.855  1.00  0.00    -0.545 OA
ATOM      9  O   UNL     1      44.940  29.473  90.400  1.00  0.00    -0.545 OA
ENDBRANCH   1   7
BRANCH   6  10
ATOM     10  O   UNL     1      38.989  30.730  88.083  1.00  0.00    -0.508 OA
ATOM     11  H   UNL     1      38.317  31.168  88.702  1.00  0.00     0.293 HD
ENDBRANCH   6  10
TORSDOF 2
ENDMDL
MODEL 8
REMARK VINA RESULT:    -3.527     17.157     18.000
REMARK INTER + INTRA:          -3.868
REMARK INTER:                  -3.832
REMARK INTRA:                  -0.036
REMARK UNBOUND:                -0.032
REMARK SMILES O=C([O-])c1ccc(O)cc1
REMARK SMILES IDX 4 1 5 2 10 3 6 4 9 5 7 6 2 7 1 8 3 9 8 10
REMARK H PARENT 8 11
REMARK Flexibility Score: inf
ROOT
ATOM      1  C   UNL     1      46.811  20.397  75.935  1.00  0.00    -0.003 A 
ATOM      2  C   UNL     1      46.635  19.515  74.853  1.00  0.00     0.014 A 
ATOM      3  C   UNL     1      46.574  19.930  77.241  1.00  0.00     0.014 A 
ATOM      4  C   UNL     1      46.231  18.194  75.075  1.00  0.00     0.047 A 
ATOM      5  C   UNL     1      46.170  18.610  77.458  1.00  0.00     0.047 A 
ATOM      6  C   UNL     1      45.998  17.739  76.378  1.00  0.00     0.115 A 
ENDROOT
BRANCH   1   7
ATOM      7  C   UNL     1      47.238  21.795  75.707  1.00  0.00     0.071 C 
ATOM      8  O   UNL     1      47.168  22.645  76.634  1.00  0.00    -0.545 OA
ATOM      9  O   UNL     1      47.722  22.191  74.465  1.00  0.00    -0.545 OA
ENDBRANCH   1   7
BRANCH   6  10
ATOM     10  O   UNL     1      45.595  16.426  76.611  1.00  0.00    -0.508 OA
ATOM     11  H   UNL     1      44.998  16.187  77.394  1.00  0.00     0.293 HD
ENDBRANCH   6  10
TORSDOF 2
ENDMDL
MODEL 9
REMARK VINA RESULT:    -3.526      1.404      4.178
REMARK INTER + INTRA:          -3.867
REMARK INTER:                  -3.838
REMARK INTRA:                  -0.028
REMARK UNBOUND:                -0.032
REMARK SMILES O=C([O-])c1ccc(O)cc1
REMARK SMILES IDX 4 1 5 2 10 3 6 4 9 5 7 6 2 7 1 8 3 9 8 10
REMARK H PARENT 8 11
REMARK Flexibility Score: inf
ROOT
ATOM      1  C   UNL     1      42.671  30.652  88.696  1.00  0.00    -0.003 A 
ATOM      2  C   UNL     1      42.031  29.857  89.665  1.00  0.00     0.014 A 
ATOM      3  C   UNL     1      43.900  31.258  89.015  1.00  0.00     0.014 A 
ATOM      4  C   UNL     1      42.609  29.673  90.924  1.00  0.00     0.047 A 
ATOM      5  C   UNL     1      44.474  31.073  90.275  1.00  0.00     0.047 A 
ATOM      6  C   UNL     1      43.832  30.281  91.233  1.00  0.00     0.115 A 
ENDROOT
BRANCH   1   7
ATOM      7  C   UNL     1      42.065  30.851  87.361  1.00  0.00     0.071 C 
ATOM      8  O   UNL     1      41.677  31.992  86.997  1.00  0.00    -0.545 OA
ATOM      9  O   UNL     1      41.913  29.778  86.488  1.00  0.00    -0.545 OA
ENDBRANCH   1   7
BRANCH   6  10
ATOM     10  O   UNL     1      44.418  30.105  92.485  1.00  0.00    -0.508 OA
ATOM     11  H   UNL     1      43.869  30.147  93.335  1.00  0.00     0.293 HD
ENDBRANCH   6  10
TORSDOF 2
ENDMDL
