MODEL 1
REMARK VINA RESULT:    -3.633      0.000      0.000
REMARK INTER + INTRA:          -4.240
REMARK INTER:                  -4.164
REMARK INTRA:                  -0.076
REMARK UNBOUND:                -0.076
REMARK SMILES COc1cc(C(=O)[O-])ccc1O
REMARK SMILES IDX 5 1 9 2 4 3 10 4 3 5 11 6 6 7 7 8 8 9 2 10 1 11 12 12
REMARK H PARENT 12 13
REMARK Flexibility Score: inf
ROOT
ATOM      1  C   UNL     1       3.006  15.647  20.184  1.00  0.00     0.001 A 
ATOM      2  C   UNL     1       4.124  15.338  19.393  1.00  0.00     0.014 A 
ATOM      3  C   UNL     1       3.146  15.682  21.582  1.00  0.00     0.060 A 
ATOM      4  C   UNL     1       5.358  15.069  19.988  1.00  0.00     0.051 A 
ATOM      5  C   UNL     1       4.389  15.411  22.189  1.00  0.00     0.161 A 
ATOM      6  C   UNL     1       5.496  15.103  21.378  1.00  0.00     0.157 A 
ENDROOT
BRANCH   1   7
ATOM      7  C   UNL     1       1.696  15.933  19.556  1.00  0.00     0.072 C 
ATOM      8  O   UNL     1       1.194  17.086  19.616  1.00  0.00    -0.545 OA
ATOM      9  O   UNL     1       0.999  14.930  18.890  1.00  0.00    -0.545 OA
ENDBRANCH   1   7
BRANCH   5  10
ATOM     10  O   UNL     1       4.559  15.439  23.583  1.00  0.00    -0.493 OA
ATOM     11  C   UNL     1       3.778  16.226  24.477  1.00  0.00     0.278 C 
ENDBRANCH   5  10
BRANCH   6  12
ATOM     12  O   UNL     1       6.745  14.829  21.937  1.00  0.00    -0.504 OA
ATOM     13  H   UNL     1       7.061  15.266  22.794  1.00  0.00     0.293 HD
ENDBRANCH   6  12
TORSDOF 3
ENDMDL
MODEL 2
REMARK VINA RESULT:    -3.463     23.849     25.460
REMARK INTER + INTRA:          -4.045
REMARK INTER:                  -3.965
REMARK INTRA:                  -0.080
REMARK UNBOUND:                -0.076
REMARK SMILES COc1cc(C(=O)[O-])ccc1O
REMARK SMILES IDX 5 1 9 2 4 3 10 4 3 5 11 6 6 7 7 8 8 9 2 10 1 11 12 12
REMARK H PARENT 12 13
REMARK Flexibility Score: inf
ROOT
ATOM      1  C   UNL     1      -9.075   0.720  37.596  1.00  0.00     0.001 A 
ATOM      2  C   UNL     1      -8.714   0.690  36.239  1.00  0.00     0.014 A 
ATOM      3  C   UNL     1      -9.875   1.775  38.068  1.00  0.00     0.060 A 
ATOM      4  C   UNL     1      -9.144   1.695  35.371  1.00  0.00     0.051 A 
ATOM      5  C   UNL     1     -10.313   2.793  37.196  1.00  0.00     0.161 A 
ATOM      6  C   UNL     1      -9.940   2.744  35.841  1.00  0.00     0.157 A 
ENDROOT
BRANCH   1   7
ATOM      7  C   UNL     1      -8.620  -0.344  38.519  1.00  0.00     0.072 C 
ATOM      8  O   UNL     1      -7.394  -0.497  38.767  1.00  0.00    -0.545 OA
ATOM      9  O   UNL     1      -9.539  -1.193  39.125  1.00  0.00    -0.545 OA
ENDBRANCH   1   7
BRANCH   5  10
ATOM     10  O   UNL     1     -11.113   3.859  37.638  1.00  0.00    -0.493 OA
ATOM     11  C   UNL     1     -10.925   4.556  38.865  1.00  0.00     0.278 C 
ENDBRANCH   5  10
BRANCH   6  12
ATOM     12  O   UNL     1     -10.351   3.729  34.943  1.00  0.00    -0.504 OA
ATOM     13  H   UNL     1     -11.327   3.880  34.716  1.00  0.00     0.293 HD
ENDBRANCH   6  12
TORSDOF 3
ENDMDL
MODEL 3
REMARK VINA RESULT:    -3.447      2.051      3.741
REMARK INTER + INTRA:          -4.026
REMARK INTER:                  -3.948
REMARK INTRA:                  -0.078
REMARK UNBOUND:                -0.076
REMARK SMILES COc1cc(C(=O)[O-])ccc1O
REMARK SMILES IDX 5 1 9 2 4 3 10 4 3 5 11 6 6 7 7 8 8 9 2 10 1 11 12 12
REMARK H PARENT 12 13
REMARK Flexibility Score: inf
ROOT
ATOM      1  C   UNL     1       5.118  15.522  20.789  1.00  0.00     0.001 A 
ATOM      2  C   UNL     1       5.636  14.986  21.980  1.00  0.00     0.014 A 
ATOM      3  C   UNL     1       3.908  16.237  20.830  1.00  0.00     0.060 A 
ATOM      4  C   UNL     1       4.957  15.161  23.187  1.00  0.00     0.051 A 
ATOM      5  C   UNL     1       3.218  16.415  22.046  1.00  0.00     0.161 A 
ATOM      6  C   UNL     1       3.753  15.871  23.226  1.00  0.00     0.157 A 
ENDROOT
BRANCH   1   7
ATOM      7  C   UNL     1       5.836  15.338  19.508  1.00  0.00     0.072 C 
ATOM      8  O   UNL     1       5.782  14.239  18.894  1.00  0.00    -0.545 OA
ATOM      9  O   UNL     1       6.583  16.377  18.962  1.00  0.00    -0.545 OA
ENDBRANCH   1   7
BRANCH   5  10
ATOM     10  O   UNL     1       2.007  17.125  22.117  1.00  0.00    -0.493 OA
ATOM     11  C   UNL     1       0.980  17.071  21.133  1.00  0.00     0.278 C 
ENDBRANCH   5  10
BRANCH   6  12
ATOM     12  O   UNL     1       3.104  16.024  24.451  1.00  0.00    -0.504 OA
ATOM     13  H   UNL     1       2.496  16.811  24.645  1.00  0.00     0.293 HD
ENDBRANCH   6  12
TORSDOF 3
ENDMDL
MODEL 4
REMARK VINA RESULT:    -3.382     17.213     19.439
REMARK INTER + INTRA:          -3.952
REMARK INTER:                  -3.870
REMARK INTRA:                  -0.081
REMARK UNBOUND:                -0.076
REMARK SMILES COc1cc(C(=O)[O-])ccc1O
REMARK SMILES IDX 5 1 9 2 4 3 10 4 3 5 11 6 6 7 7 8 8 9 2 10 1 11 12 12
REMARK H PARENT 12 13
REMARK Flexibility Score: inf
ROOT
ATOM      1  C   UNL     1      -8.741  15.626  37.002  1.00  0.00     0.001 A 
ATOM      2  C   UNL     1      -7.743  16.546  37.364  1.00  0.00     0.014 A 
ATOM      3  C   UNL     1      -8.625  14.938  35.781  1.00  0.00     0.060 A 
ATOM      4  C   UNL     1      -6.653  16.774  36.523  1.00  0.00     0.051 A 
ATOM      5  C   UNL     1      -7.526  15.164  34.928  1.00  0.00     0.161 A 
ATOM      6  C   UNL     1      -6.539  16.089  35.310  1.00  0.00     0.157 A 
ENDROOT
BRANCH   1   7
ATOM      7  C   UNL     1      -9.898  15.383  37.891  1.00  0.00     0.072 C 
ATOM      8  O   UNL     1      -9.822  15.627  39.125  1.00  0.00    -0.545 OA
ATOM      9  O   UNL     1     -11.089  14.880  37.378  1.00  0.00    -0.545 OA
ENDBRANCH   1   7
BRANCH   5  10
ATOM     10  O   UNL     1      -7.384  14.491  33.703  1.00  0.00    -0.493 OA
ATOM     11  C   UNL     1      -7.911  13.197  33.426  1.00  0.00     0.278 C 
ENDBRANCH   5  10
BRANCH   6  12
ATOM     12  O   UNL     1      -5.435  16.343  34.496  1.00  0.00    -0.504 OA
ATOM     13  H   UNL     1      -4.944  15.605  34.005  1.00  0.00     0.293 HD
ENDBRANCH   6  12
TORSDOF 3
ENDMDL
MODEL 5
REMARK VINA RESULT:    -3.364     23.619     24.893
REMARK INTER + INTRA:          -3.932
REMARK INTER:                  -3.833
REMARK INTRA:                  -0.099
REMARK UNBOUND:                -0.076
REMARK SMILES COc1cc(C(=O)[O-])ccc1O
REMARK SMILES IDX 5 1 9 2 4 3 10 4 3 5 11 6 6 7 7 8 8 9 2 10 1 11 12 12
REMARK H PARENT 12 13
REMARK Flexibility Score: inf
ROOT
ATOM      1  C   UNL     1      -9.988   2.228  35.541  1.00  0.00     0.001 A 
ATOM      2  C   UNL     1      -8.788   1.685  35.055  1.00  0.00     0.014 A 
ATOM      3  C   UNL     1     -10.443   1.848  36.816  1.00  0.00     0.060 A 
ATOM      4  C   UNL     1      -8.057   0.781  35.827  1.00  0.00     0.051 A 
ATOM      5  C   UNL     1      -9.709   0.935  37.600  1.00  0.00     0.161 A 
ATOM      6  C   UNL     1      -8.510   0.403  37.094  1.00  0.00     0.157 A 
ENDROOT
BRANCH   1   7
ATOM      7  C   UNL     1     -10.765   3.188  34.725  1.00  0.00     0.072 C 
ATOM      8  O   UNL     1     -11.124   2.891  33.554  1.00  0.00    -0.545 OA
ATOM      9  O   UNL     1     -11.110   4.433  35.238  1.00  0.00    -0.545 OA
ENDBRANCH   1   7
BRANCH   5  10
ATOM     10  O   UNL     1     -10.139   0.537  38.877  1.00  0.00    -0.493 OA
ATOM     11  C   UNL     1     -11.108  -0.477  39.125  1.00  0.00     0.278 C 
ENDBRANCH   5  10
BRANCH   6  12
ATOM     12  O   UNL     1      -7.753  -0.503  37.836  1.00  0.00    -0.504 OA
ATOM     13  H   UNL     1      -8.161  -1.326  38.264  1.00  0.00     0.293 HD
ENDBRANCH   6  12
TORSDOF 3
ENDMDL
MODEL 6
REMARK VINA RESULT:    -3.353      1.306      2.662
REMARK INTER + INTRA:          -3.919
REMARK INTER:                  -3.887
REMARK INTRA:                  -0.031
REMARK UNBOUND:                -0.076
REMARK SMILES COc1cc(C(=O)[O-])ccc1O
REMARK SMILES IDX 5 1 9 2 4 3 10 4 3 5 11 6 6 7 7 8 8 9 2 10 1 11 12 12
REMARK H PARENT 12 13
REMARK Flexibility Score: inf
ROOT
ATOM      1  C   UNL     1       2.973  15.735  20.759  1.00  0.00     0.001 A 
ATOM      2  C   UNL     1       3.192  15.380  22.100  1.00  0.00     0.014 A 
ATOM      3  C   UNL     1       4.079  15.925  19.912  1.00  0.00     0.060 A 
ATOM      4  C   UNL     1       4.491  15.219  22.585  1.00  0.00     0.051 A 
ATOM      5  C   UNL     1       5.393  15.764  20.396  1.00  0.00     0.161 A 
ATOM      6  C   UNL     1       5.590  15.409  21.743  1.00  0.00     0.157 A 
ENDROOT
BRANCH   1   7
ATOM      7  C   UNL     1       1.597  15.906  20.242  1.00  0.00     0.072 C 
ATOM      8  O   UNL     1       0.765  16.625  20.859  1.00  0.00    -0.545 OA
ATOM      9  O   UNL     1       1.200  15.275  19.068  1.00  0.00    -0.545 OA
ENDBRANCH   1   7
BRANCH   5  10
ATOM     10  O   UNL     1       6.517  15.947  19.574  1.00  0.00    -0.493 OA
ATOM     11  C   UNL     1       7.317  17.124  19.548  1.00  0.00     0.278 C 
ENDBRANCH   5  10
BRANCH   6  12
ATOM     12  O   UNL     1       6.873  15.239  22.263  1.00  0.00    -0.504 OA
ATOM     13  H   UNL     1       7.194  14.350  22.630  1.00  0.00     0.293 HD
ENDBRANCH   6  12
TORSDOF 3
ENDMDL
MODEL 7
REMARK VINA RESULT:    -3.336      2.068      4.698
REMARK INTER + INTRA:          -3.899
REMARK INTER:                  -3.799
REMARK INTRA:                  -0.100
REMARK UNBOUND:                -0.076
REMARK SMILES COc1cc(C(=O)[O-])ccc1O
REMARK SMILES IDX 5 1 9 2 4 3 10 4 3 5 11 6 6 7 7 8 8 9 2 10 1 11 12 12
REMARK H PARENT 12 13
REMARK Flexibility Score: inf
ROOT
ATOM      1  C   UNL     1       6.445  16.364  20.997  1.00  0.00     0.001 A 
ATOM      2  C   UNL     1       6.395  15.727  22.248  1.00  0.00     0.014 A 
ATOM      3  C   UNL     1       5.259  16.508  20.256  1.00  0.00     0.060 A 
ATOM      4  C   UNL     1       5.184  15.245  22.747  1.00  0.00     0.051 A 
ATOM      5  C   UNL     1       4.034  16.022  20.754  1.00  0.00     0.161 A 
ATOM      6  C   UNL     1       4.006  15.388  22.009  1.00  0.00     0.157 A 
ENDROOT
BRANCH   1   7
ATOM      7  C   UNL     1       7.727  16.877  20.466  1.00  0.00     0.072 C 
ATOM      8  O   UNL     1       7.860  17.124  19.237  1.00  0.00    -0.545 OA
ATOM      9  O   UNL     1       8.808  17.092  21.314  1.00  0.00    -0.545 OA
ENDBRANCH   1   7
BRANCH   5  10
ATOM     10  O   UNL     1       2.833  16.153  20.036  1.00  0.00    -0.493 OA
ATOM     11  C   UNL     1       2.388  15.244  19.034  1.00  0.00     0.278 C 
ENDBRANCH   5  10
BRANCH   6  12
ATOM     12  O   UNL     1       2.815  14.893  22.541  1.00  0.00    -0.504 OA
ATOM     13  H   UNL     1       1.930  15.372  22.422  1.00  0.00     0.293 HD
ENDBRANCH   6  12
TORSDOF 3
ENDMDL
MODEL 8
REMARK VINA RESULT:    -3.275     16.967     18.299
REMARK INTER + INTRA:          -3.829
REMARK INTER:                  -3.744
REMARK INTRA:                  -0.085
REMARK UNBOUND:                -0.076
REMARK SMILES COc1cc(C(=O)[O-])ccc1O
REMARK SMILES IDX 5 1 9 2 4 3 10 4 3 5 11 6 6 7 7 8 8 9 2 10 1 11 12 12
REMARK H PARENT 12 13
REMARK Flexibility Score: inf
ROOT
ATOM      1  C   UNL     1      -9.234  14.919  34.168  1.00  0.00     0.001 A 
ATOM      2  C   UNL     1      -7.956  14.446  34.508  1.00  0.00     0.014 A 
ATOM      3  C   UNL     1      -9.968  14.252  33.172  1.00  0.00     0.060 A 
ATOM      4  C   UNL     1      -7.423  13.328  33.864  1.00  0.00     0.051 A 
ATOM      5  C   UNL     1      -9.434  13.123  32.519  1.00  0.00     0.161 A 
ATOM      6  C   UNL     1      -8.153  12.666  32.874  1.00  0.00     0.157 A 
ENDROOT
BRANCH   1   7
ATOM      7  C   UNL     1      -9.802  16.105  34.849  1.00  0.00     0.072 C 
ATOM      8  O   UNL     1     -10.809  16.696  34.375  1.00  0.00    -0.545 OA
ATOM      9  O   UNL     1      -9.231  16.586  36.022  1.00  0.00    -0.545 OA
ENDBRANCH   1   7
BRANCH   5  10
ATOM     10  O   UNL     1     -10.145  12.436  31.520  1.00  0.00    -0.493 OA
ATOM     11  C   UNL     1     -10.922  13.063  30.504  1.00  0.00     0.278 C 
ENDBRANCH   5  10
BRANCH   6  12
ATOM     12  O   UNL     1      -7.587  11.552  32.253  1.00  0.00    -0.504 OA
ATOM     13  H   UNL     1      -7.245  10.756  32.779  1.00  0.00     0.293 HD
ENDBRANCH   6  12
TORSDOF 3
ENDMDL
MODEL 9
REMARK VINA RESULT:    -3.131     15.552     17.469
REMARK INTER + INTRA:          -3.665
REMARK INTER:                  -3.563
REMARK INTRA:                  -0.101
REMARK UNBOUND:                -0.076
REMARK SMILES COc1cc(C(=O)[O-])ccc1O
REMARK SMILES IDX 5 1 9 2 4 3 10 4 3 5 11 6 6 7 7 8 8 9 2 10 1 11 12 12
REMARK H PARENT 12 13
REMARK Flexibility Score: inf
ROOT
ATOM      1  C   UNL     1      -7.733  15.334  32.768  1.00  0.00     0.001 A 
ATOM      2  C   UNL     1      -8.290  14.056  32.938  1.00  0.00     0.014 A 
ATOM      3  C   UNL     1      -7.554  16.157  33.894  1.00  0.00     0.060 A 
ATOM      4  C   UNL     1      -8.659  13.610  34.208  1.00  0.00     0.051 A 
ATOM      5  C   UNL     1      -7.925  15.712  35.178  1.00  0.00     0.161 A 
ATOM      6  C   UNL     1      -8.481  14.429  35.327  1.00  0.00     0.157 A 
ENDROOT
BRANCH   1   7
ATOM      7  C   UNL     1      -7.341  15.810  31.423  1.00  0.00     0.072 C 
ATOM      8  O   UNL     1      -7.853  15.304  30.388  1.00  0.00    -0.545 OA
ATOM      9  O   UNL     1      -6.399  16.823  31.279  1.00  0.00    -0.545 OA
ENDBRANCH   1   7
BRANCH   5  10
ATOM     10  O   UNL     1      -7.757  16.512  36.321  1.00  0.00    -0.493 OA
ATOM     11  C   UNL     1      -6.508  16.757  36.959  1.00  0.00     0.278 C 
ENDBRANCH   5  10
BRANCH   6  12
ATOM     12  O   UNL     1      -8.862  13.949  36.579  1.00  0.00    -0.504 OA
ATOM     13  H   UNL     1      -8.818  12.965  36.817  1.00  0.00     0.293 HD
ENDBRANCH   6  12
TORSDOF 3
ENDMDL
