MODEL 1
REMARK VINA RESULT:    -4.358      0.000      0.000
REMARK INTER + INTRA:          -4.741
REMARK INTER:                  -4.741
REMARK INTRA:                   0.000
REMARK UNBOUND:                 0.000
REMARK SMILES Oc1cccc(O)c1O
REMARK SMILES IDX 4 1 5 2 6 3 8 4 2 5 3 6 7 7 1 9 9 11
REMARK H PARENT 7 8 1 10 9 12
REMARK Flexibility Score: inf
ROOT
ATOM      1  C   UNL     1      11.616  12.248  20.669  1.00  0.00     0.008 A 
ATOM      2  C   UNL     1      10.329  11.881  20.269  1.00  0.00     0.050 A 
ATOM      3  C   UNL     1       9.647  12.645  19.310  1.00  0.00     0.161 A 
ATOM      4  C   UNL     1      10.258  13.776  18.752  1.00  0.00     0.200 A 
ATOM      5  C   UNL     1      11.554  14.144  19.156  1.00  0.00     0.161 A 
ATOM      6  C   UNL     1      12.229  13.374  20.116  1.00  0.00     0.050 A 
ENDROOT
BRANCH   3   7
ATOM      7  O   UNL     1       8.362  12.283  18.908  1.00  0.00    -0.504 OA
ATOM      8  H   UNL     1       7.538  12.665  19.358  1.00  0.00     0.293 HD
ENDBRANCH   3   7
BRANCH   5   9
ATOM      9  O   UNL     1      12.167  15.268  18.604  1.00  0.00    -0.504 OA
ATOM     10  H   UNL     1      13.171  15.398  18.645  1.00  0.00     0.293 HD
ENDBRANCH   5   9
BRANCH   4  11
ATOM     11  O   UNL     1       9.566  14.524  17.799  1.00  0.00    -0.502 OA
ATOM     12  H   UNL     1       9.249  15.469  17.981  1.00  0.00     0.293 HD
ENDBRANCH   4  11
TORSDOF 3
ENDMDL
MODEL 2
REMARK VINA RESULT:    -4.335      0.169      2.802
REMARK INTER + INTRA:          -4.716
REMARK INTER:                  -4.716
REMARK INTRA:                   0.000
REMARK UNBOUND:                 0.000
REMARK SMILES Oc1cccc(O)c1O
REMARK SMILES IDX 4 1 5 2 6 3 8 4 2 5 3 6 7 7 1 9 9 11
REMARK H PARENT 7 8 1 10 9 12
REMARK Flexibility Score: inf
ROOT
ATOM      1  C   UNL     1      11.488  12.256  20.869  1.00  0.00     0.008 A 
ATOM      2  C   UNL     1      12.127  13.385  20.350  1.00  0.00     0.050 A 
ATOM      3  C   UNL     1      11.512  14.140  19.341  1.00  0.00     0.161 A 
ATOM      4  C   UNL     1      10.252  13.762  18.853  1.00  0.00     0.200 A 
ATOM      5  C   UNL     1       9.610  12.626  19.377  1.00  0.00     0.161 A 
ATOM      6  C   UNL     1      10.234  11.876  20.385  1.00  0.00     0.050 A 
ENDROOT
BRANCH   3   7
ATOM      7  O   UNL     1      12.146  15.268  18.821  1.00  0.00    -0.504 OA
ATOM      8  H   UNL     1      11.721  16.186  18.872  1.00  0.00     0.293 HD
ENDBRANCH   3   7
BRANCH   5   9
ATOM      9  O   UNL     1       8.359  12.245  18.895  1.00  0.00    -0.504 OA
ATOM     10  H   UNL     1       7.528  12.304  19.473  1.00  0.00     0.293 HD
ENDBRANCH   5   9
BRANCH   4  11
ATOM     11  O   UNL     1       9.654  14.525  17.850  1.00  0.00    -0.502 OA
ATOM     12  H   UNL     1       8.857  14.190  17.321  1.00  0.00     0.293 HD
ENDBRANCH   4  11
TORSDOF 3
ENDMDL
MODEL 3
REMARK VINA RESULT:    -4.023      1.987      2.938
REMARK INTER + INTRA:          -4.376
REMARK INTER:                  -4.376
REMARK INTRA:                   0.000
REMARK UNBOUND:                 0.000
REMARK SMILES Oc1cccc(O)c1O
REMARK SMILES IDX 4 1 5 2 6 3 8 4 2 5 3 6 7 7 1 9 9 11
REMARK H PARENT 7 8 1 10 9 12
REMARK Flexibility Score: inf
ROOT
ATOM      1  C   UNL     1      13.334  14.068  19.098  1.00  0.00     0.008 A 
ATOM      2  C   UNL     1      13.328  13.303  20.267  1.00  0.00     0.050 A 
ATOM      3  C   UNL     1      12.111  12.917  20.848  1.00  0.00     0.161 A 
ATOM      4  C   UNL     1      10.899  13.298  20.255  1.00  0.00     0.200 A 
ATOM      5  C   UNL     1      10.907  14.068  19.078  1.00  0.00     0.161 A 
ATOM      6  C   UNL     1      12.130  14.450  18.504  1.00  0.00     0.050 A 
ENDROOT
BRANCH   3   7
ATOM      7  O   UNL     1      12.100  12.153  22.015  1.00  0.00    -0.504 OA
ATOM      8  H   UNL     1      12.896  11.588  22.286  1.00  0.00     0.293 HD
ENDBRANCH   3   7
BRANCH   5   9
ATOM      9  O   UNL     1       9.706  14.450  18.483  1.00  0.00    -0.504 OA
ATOM     10  H   UNL     1       9.507  15.419  18.263  1.00  0.00     0.293 HD
ENDBRANCH   5   9
BRANCH   4  11
ATOM     11  O   UNL     1       9.698  12.905  20.846  1.00  0.00    -0.502 OA
ATOM     12  H   UNL     1       8.965  12.442  20.321  1.00  0.00     0.293 HD
ENDBRANCH   4  11
TORSDOF 3
ENDMDL
MODEL 4
REMARK VINA RESULT:    -4.013      1.985      2.872
REMARK INTER + INTRA:          -4.365
REMARK INTER:                  -4.365
REMARK INTRA:                   0.000
REMARK UNBOUND:                 0.000
REMARK SMILES Oc1cccc(O)c1O
REMARK SMILES IDX 4 1 5 2 6 3 8 4 2 5 3 6 7 7 1 9 9 11
REMARK H PARENT 7 8 1 10 9 12
REMARK Flexibility Score: inf
ROOT
ATOM      1  C   UNL     1      13.349  14.075  19.053  1.00  0.00     0.008 A 
ATOM      2  C   UNL     1      12.134  14.464  18.483  1.00  0.00     0.050 A 
ATOM      3  C   UNL     1      10.923  14.070  19.071  1.00  0.00     0.161 A 
ATOM      4  C   UNL     1      10.932  13.285  20.232  1.00  0.00     0.200 A 
ATOM      5  C   UNL     1      12.155  12.893  20.805  1.00  0.00     0.161 A 
ATOM      6  C   UNL     1      13.362  13.292  20.209  1.00  0.00     0.050 A 
ENDROOT
BRANCH   3   7
ATOM      7  O   UNL     1       9.708  14.457  18.506  1.00  0.00    -0.504 OA
ATOM      8  H   UNL     1       9.668  14.944  17.619  1.00  0.00     0.293 HD
ENDBRANCH   3   7
BRANCH   5   9
ATOM      9  O   UNL     1      12.170  12.112  21.959  1.00  0.00    -0.504 OA
ATOM     10  H   UNL     1      11.331  11.960  22.507  1.00  0.00     0.293 HD
ENDBRANCH   5   9
BRANCH   4  11
ATOM     11  O   UNL     1       9.718  12.902  20.804  1.00  0.00    -0.502 OA
ATOM     12  H   UNL     1       9.671  12.399  21.683  1.00  0.00     0.293 HD
ENDBRANCH   4  11
TORSDOF 3
ENDMDL
MODEL 5
REMARK VINA RESULT:    -3.931      1.325      3.018
REMARK INTER + INTRA:          -4.275
REMARK INTER:                  -4.275
REMARK INTRA:                   0.000
REMARK UNBOUND:                 0.000
REMARK SMILES Oc1cccc(O)c1O
REMARK SMILES IDX 4 1 5 2 6 3 8 4 2 5 3 6 7 7 1 9 9 11
REMARK H PARENT 7 8 1 10 9 12
REMARK Flexibility Score: inf
ROOT
ATOM      1  C   UNL     1      12.338  14.071  21.554  1.00  0.00     0.008 A 
ATOM      2  C   UNL     1      12.641  14.651  20.319  1.00  0.00     0.050 A 
ATOM      3  C   UNL     1      11.899  14.306  19.180  1.00  0.00     0.161 A 
ATOM      4  C   UNL     1      10.851  13.379  19.280  1.00  0.00     0.200 A 
ATOM      5  C   UNL     1      10.548  12.797  20.524  1.00  0.00     0.161 A 
ATOM      6  C   UNL     1      11.296  13.148  21.658  1.00  0.00     0.050 A 
ENDROOT
BRANCH   3   7
ATOM      7  O   UNL     1      12.198  14.882  17.945  1.00  0.00    -0.504 OA
ATOM      8  H   UNL     1      11.557  14.821  17.163  1.00  0.00     0.293 HD
ENDBRANCH   3   7
BRANCH   5   9
ATOM      9  O   UNL     1       9.508  11.875  20.629  1.00  0.00    -0.504 OA
ATOM     10  H   UNL     1       9.087  11.454  19.809  1.00  0.00     0.293 HD
ENDBRANCH   5   9
BRANCH   4  11
ATOM     11  O   UNL     1      10.123  13.048  18.137  1.00  0.00    -0.502 OA
ATOM     12  H   UNL     1       9.554  13.727  17.645  1.00  0.00     0.293 HD
ENDBRANCH   4  11
TORSDOF 3
ENDMDL
MODEL 6
REMARK VINA RESULT:    -3.868      1.137      1.354
REMARK INTER + INTRA:          -4.208
REMARK INTER:                  -4.208
REMARK INTRA:                   0.000
REMARK UNBOUND:                 0.000
REMARK SMILES Oc1cccc(O)c1O
REMARK SMILES IDX 4 1 5 2 6 3 8 4 2 5 3 6 7 7 1 9 9 11
REMARK H PARENT 7 8 1 10 9 12
REMARK Flexibility Score: inf
ROOT
ATOM      1  C   UNL     1      13.158  12.382  20.433  1.00  0.00     0.008 A 
ATOM      2  C   UNL     1      11.919  11.878  20.835  1.00  0.00     0.050 A 
ATOM      3  C   UNL     1      10.739  12.375  20.263  1.00  0.00     0.161 A 
ATOM      4  C   UNL     1      10.803  13.379  19.286  1.00  0.00     0.200 A 
ATOM      5  C   UNL     1      12.051  13.885  18.882  1.00  0.00     0.161 A 
ATOM      6  C   UNL     1      13.227  13.382  19.460  1.00  0.00     0.050 A 
ENDROOT
BRANCH   3   7
ATOM      7  O   UNL     1       9.499  11.875  20.661  1.00  0.00    -0.504 OA
ATOM      8  H   UNL     1       9.380  11.399  21.547  1.00  0.00     0.293 HD
ENDBRANCH   3   7
BRANCH   5   9
ATOM      9  O   UNL     1      12.121  14.883  17.912  1.00  0.00    -0.504 OA
ATOM     10  H   UNL     1      12.749  15.673  18.007  1.00  0.00     0.293 HD
ENDBRANCH   5   9
BRANCH   4  11
ATOM     11  O   UNL     1       9.619  13.862  18.727  1.00  0.00    -0.502 OA
ATOM     12  H   UNL     1       9.398  14.850  18.702  1.00  0.00     0.293 HD
ENDBRANCH   4  11
TORSDOF 3
ENDMDL
MODEL 7
REMARK VINA RESULT:    -3.665      1.061      2.847
REMARK INTER + INTRA:          -3.986
REMARK INTER:                  -3.986
REMARK INTRA:                   0.000
REMARK UNBOUND:                 0.000
REMARK SMILES Oc1cccc(O)c1O
REMARK SMILES IDX 4 1 5 2 6 3 8 4 2 5 3 6 7 7 1 9 9 11
REMARK H PARENT 7 8 1 10 9 12
REMARK Flexibility Score: inf
ROOT
ATOM      1  C   UNL     1      10.756  11.875  20.583  1.00  0.00     0.008 A 
ATOM      2  C   UNL     1      12.129  12.125  20.535  1.00  0.00     0.050 A 
ATOM      3  C   UNL     1      12.633  13.130  19.696  1.00  0.00     0.161 A 
ATOM      4  C   UNL     1      11.756  13.885  18.905  1.00  0.00     0.200 A 
ATOM      5  C   UNL     1      10.373  13.632  18.954  1.00  0.00     0.161 A 
ATOM      6  C   UNL     1       9.879  12.625  19.796  1.00  0.00     0.050 A 
ENDROOT
BRANCH   3   7
ATOM      7  O   UNL     1      14.003  13.382  19.645  1.00  0.00    -0.504 OA
ATOM      8  H   UNL     1      14.513  13.364  18.770  1.00  0.00     0.293 HD
ENDBRANCH   3   7
BRANCH   5   9
ATOM      9  O   UNL     1       9.497  14.380  18.169  1.00  0.00    -0.504 OA
ATOM     10  H   UNL     1       9.259  14.099  17.224  1.00  0.00     0.293 HD
ENDBRANCH   5   9
BRANCH   4  11
ATOM     11  O   UNL     1      12.273  14.881  18.075  1.00  0.00    -0.502 OA
ATOM     12  H   UNL     1      11.701  15.366  17.394  1.00  0.00     0.293 HD
ENDBRANCH   4  11
TORSDOF 3
ENDMDL
MODEL 8
REMARK VINA RESULT:    -3.492     23.423     24.205
REMARK INTER + INTRA:          -3.798
REMARK INTER:                  -3.798
REMARK INTRA:                   0.000
REMARK UNBOUND:                 0.000
REMARK SMILES Oc1cccc(O)c1O
REMARK SMILES IDX 4 1 5 2 6 3 8 4 2 5 3 6 7 7 1 9 9 11
REMARK H PARENT 7 8 1 10 9 12
REMARK Flexibility Score: inf
ROOT
ATOM      1  C   UNL     1      -0.325  31.742   5.612  1.00  0.00     0.008 A 
ATOM      2  C   UNL     1      -1.392  30.869   5.836  1.00  0.00     0.050 A 
ATOM      3  C   UNL     1      -1.634  30.372   7.126  1.00  0.00     0.161 A 
ATOM      4  C   UNL     1      -0.806  30.753   8.190  1.00  0.00     0.200 A 
ATOM      5  C   UNL     1       0.268  31.633   7.963  1.00  0.00     0.161 A 
ATOM      6  C   UNL     1       0.503  32.125   6.669  1.00  0.00     0.050 A 
ENDROOT
BRANCH   3   7
ATOM      7  O   UNL     1      -2.698  29.499   7.354  1.00  0.00    -0.504 OA
ATOM      8  H   UNL     1      -2.771  28.967   8.213  1.00  0.00     0.293 HD
ENDBRANCH   3   7
BRANCH   5   9
ATOM      9  O   UNL     1       1.095  32.016   9.017  1.00  0.00    -0.504 OA
ATOM     10  H   UNL     1       1.400  31.352   9.720  1.00  0.00     0.293 HD
ENDBRANCH   5   9
BRANCH   4  11
ATOM     11  O   UNL     1      -1.061  30.250   9.467  1.00  0.00    -0.502 OA
ATOM     12  H   UNL     1      -0.461  30.453  10.257  1.00  0.00     0.293 HD
ENDBRANCH   4  11
TORSDOF 3
ENDMDL
MODEL 9
REMARK VINA RESULT:    -3.351      1.886      3.099
REMARK INTER + INTRA:          -3.645
REMARK INTER:                  -3.645
REMARK INTRA:                   0.000
REMARK UNBOUND:                 0.000
REMARK SMILES Oc1cccc(O)c1O
REMARK SMILES IDX 4 1 5 2 6 3 8 4 2 5 3 6 7 7 1 9 9 11
REMARK H PARENT 7 8 1 10 9 12
REMARK Flexibility Score: inf
ROOT
ATOM      1  C   UNL     1      10.138  11.943  19.902  1.00  0.00     0.008 A 
ATOM      2  C   UNL     1      10.589  12.778  18.877  1.00  0.00     0.050 A 
ATOM      3  C   UNL     1      11.412  13.874  19.173  1.00  0.00     0.161 A 
ATOM      4  C   UNL     1      11.783  14.132  20.501  1.00  0.00     0.200 A 
ATOM      5  C   UNL     1      11.328  13.290  21.532  1.00  0.00     0.161 A 
ATOM      6  C   UNL     1      10.505  12.196  21.225  1.00  0.00     0.050 A 
ENDROOT
BRANCH   3   7
ATOM      7  O   UNL     1      11.864  14.711  18.153  1.00  0.00    -0.504 OA
ATOM      8  H   UNL     1      12.755  14.556  17.696  1.00  0.00     0.293 HD
ENDBRANCH   3   7
BRANCH   5   9
ATOM      9  O   UNL     1      11.694  13.542  22.853  1.00  0.00    -0.504 OA
ATOM     10  H   UNL     1      11.001  13.717  23.571  1.00  0.00     0.293 HD
ENDBRANCH   5   9
BRANCH   4  11
ATOM     11  O   UNL     1      12.602  15.227  20.778  1.00  0.00    -0.502 OA
ATOM     12  H   UNL     1      13.424  15.150  21.366  1.00  0.00     0.293 HD
ENDBRANCH   4  11
TORSDOF 3
ENDMDL
