MODEL 1
REMARK VINA RESULT:    -4.208      0.000      0.000
REMARK INTER + INTRA:          -5.946
REMARK INTER:                  -5.930
REMARK INTRA:                  -0.016
REMARK UNBOUND:                -0.016
REMARK SMILES CC1=CCC(=C(C)C)C(=O)CC(C)=CCC1
REMARK SMILES IDX 12 1 14 2 13 3 15 4 16 5 2 6 1 7 3 8 11 10 9 11 10 12 5 13
REMARK SMILES IDX 6 14 7 15 8 16 4 17
REMARK H PARENT
REMARK Flexibility Score: 60.00
ROOT
ATOM      1  C   UNL     1      10.304 -17.984 -21.065  1.00  0.00    -0.070 C 
ATOM      2  C   UNL     1       9.862 -17.642 -22.310  1.00  0.00    -0.027 C 
ATOM      3  C   UNL     1       9.417 -18.909 -20.263  1.00  0.00     0.039 C 
ENDROOT
BRANCH   2   4
ATOM      4  C   UNL     1      10.496 -16.796 -23.408  1.00  0.00     0.032 C 
BRANCH   4   5
ATOM      5  C   UNL     1      11.829 -17.280 -23.989  1.00  0.00     0.034 C 
BRANCH   5   6
ATOM      6  C   UNL     1      13.099 -16.481 -23.659  1.00  0.00    -0.077 C 
ATOM      7  C   UNL     1      13.112 -15.051 -24.155  1.00  0.00     0.039 C 
ATOM      8  C   UNL     1      14.181 -16.854 -22.913  1.00  0.00    -0.023 CG0
ATOM      9  G   UNL     1      14.497 -18.159 -22.207  1.00  0.00     0.000 G0
ENDBRANCH   5   6
ENDBRANCH   4   5
ENDBRANCH   2   4
BRANCH   1  10
ATOM     10  C   UNL     1      11.592 -17.528 -20.397  1.00  0.00     0.111 C 
BRANCH  10  11
ATOM     11  C   UNL     1      12.670 -18.562 -20.499  1.00  0.00     0.163 C 
ATOM     12  O   UNL     1      12.361 -19.780 -20.395  1.00  0.00    -0.294 OA
BRANCH  11  13
ATOM     13  C   UNL     1      14.078 -18.169 -20.763  1.00  0.00    -0.002 C 
ATOM     14  C   UNL     1      14.931 -17.848 -19.748  1.00  0.00    -0.069 C 
ATOM     15  C   UNL     1      16.392 -17.551 -20.002  1.00  0.00     0.039 C 
ATOM     16  C   UNL     1      14.445 -17.760 -18.317  1.00  0.00     0.039 C 
BRANCH  13  17
ATOM     17  C   UNL     1      14.506 -18.163 -22.215  1.00  0.00     0.066 CG0
ATOM     18  G   UNL     1      14.163 -16.857 -22.905  1.00  0.00     0.000 G0
ENDBRANCH  13  17
ENDBRANCH  11  13
ENDBRANCH  10  11
ENDBRANCH   1  10
TORSDOF 0
ENDMDL
MODEL 2
REMARK VINA RESULT:    -4.187      1.342      4.303
REMARK INTER + INTRA:          -5.917
REMARK INTER:                  -6.149
REMARK INTRA:                   0.232
REMARK UNBOUND:                -0.016
REMARK SMILES CC1=CCC(=C(C)C)C(=O)CC(C)=CCC1
REMARK SMILES IDX 12 1 14 2 13 3 15 4 16 5 2 6 1 7 3 8 11 10 9 11 10 12 5 13
REMARK SMILES IDX 6 14 7 15 8 16 4 17
REMARK H PARENT
REMARK Flexibility Score: 60.00
ROOT
ATOM      1  C   UNL     1      14.317 -18.103 -18.847  1.00  0.00    -0.070 C 
ATOM      2  C   UNL     1      15.498 -17.962 -19.515  1.00  0.00    -0.027 C 
ATOM      3  C   UNL     1      14.391 -18.695 -17.459  1.00  0.00     0.039 C 
ENDROOT
BRANCH   2   4
ATOM      4  C   UNL     1      15.820 -17.364 -20.880  1.00  0.00     0.032 C 
BRANCH   4   5
ATOM      5  C   UNL     1      16.345 -18.319 -21.959  1.00  0.00     0.034 C 
BRANCH   5   6
ATOM      6  C   UNL     1      15.355 -19.297 -22.609  1.00  0.00    -0.077 C 
ATOM      7  C   UNL     1      15.885 -20.696 -22.840  1.00  0.00     0.039 C 
ATOM      8  C   UNL     1      14.042 -19.105 -22.932  1.00  0.00    -0.023 CG0
ATOM      9  G   UNL     1      13.154 -17.883 -22.792  1.00  0.00     0.000 G0
ENDBRANCH   5   6
ENDBRANCH   4   5
ENDBRANCH   2   4
BRANCH   1  10
ATOM     10  C   UNL     1      12.932 -17.732 -19.355  1.00  0.00     0.111 C 
BRANCH  10  11
ATOM     11  C   UNL     1      12.477 -18.644 -20.453  1.00  0.00     0.163 C 
ATOM     12  O   UNL     1      12.421 -19.884 -20.235  1.00  0.00    -0.294 OA
BRANCH  11  13
ATOM     13  C   UNL     1      12.055 -18.097 -21.768  1.00  0.00    -0.002 C 
ATOM     14  C   UNL     1      10.750 -17.798 -22.031  1.00  0.00    -0.069 C 
ATOM     15  C   UNL     1      10.331 -17.142 -23.327  1.00  0.00     0.039 C 
ATOM     16  C   UNL     1       9.658 -18.128 -21.036  1.00  0.00     0.039 C 
BRANCH  13  17
ATOM     17  C   UNL     1      13.158 -17.877 -22.782  1.00  0.00     0.066 CG0
ATOM     18  G   UNL     1      14.040 -19.101 -22.939  1.00  0.00     0.000 G0
ENDBRANCH  13  17
ENDBRANCH  11  13
ENDBRANCH  10  11
ENDBRANCH   1  10
TORSDOF 0
ENDMDL
MODEL 3
REMARK VINA RESULT:    -4.157      1.715      3.922
REMARK INTER + INTRA:          -5.874
REMARK INTER:                  -6.085
REMARK INTRA:                   0.211
REMARK UNBOUND:                -0.016
REMARK SMILES CC1=CCC(=C(C)C)C(=O)CC(C)=CCC1
REMARK SMILES IDX 12 1 14 2 13 3 15 4 16 5 2 6 1 7 3 8 11 10 9 11 10 12 5 13
REMARK SMILES IDX 6 14 7 15 8 16 4 17
REMARK H PARENT
REMARK Flexibility Score: 60.00
ROOT
ATOM      1  C   UNL     1       9.064 -18.197 -22.186  1.00  0.00    -0.070 C 
ATOM      2  C   UNL     1       9.391 -18.639 -20.939  1.00  0.00    -0.027 C 
ATOM      3  C   UNL     1       7.901 -18.882 -22.864  1.00  0.00     0.039 C 
ENDROOT
BRANCH   2   4
ATOM      4  C   UNL     1      10.444 -18.165 -19.943  1.00  0.00     0.032 C 
BRANCH   4   5
ATOM      5  C   UNL     1      11.813 -18.853 -19.986  1.00  0.00     0.034 C 
BRANCH   5   6
ATOM      6  C   UNL     1      13.033 -18.021 -20.408  1.00  0.00    -0.077 C 
ATOM      7  C   UNL     1      13.838 -17.428 -19.271  1.00  0.00     0.039 C 
ATOM      8  C   UNL     1      13.539 -17.810 -21.659  1.00  0.00    -0.023 CG0
ATOM      9  G   UNL     1      13.060 -18.286 -23.017  1.00  0.00     0.000 G0
ENDBRANCH   5   6
ENDBRANCH   4   5
ENDBRANCH   2   4
BRANCH   1  10
ATOM     10  C   UNL     1       9.752 -17.090 -22.971  1.00  0.00     0.111 C 
BRANCH  10  11
ATOM     11  C   UNL     1      10.786 -17.630 -23.910  1.00  0.00     0.163 C 
ATOM     12  O   UNL     1      10.418 -18.360 -24.869  1.00  0.00    -0.294 OA
BRANCH  11  13
ATOM     13  C   UNL     1      12.219 -17.279 -23.746  1.00  0.00    -0.002 C 
ATOM     14  C   UNL     1      12.721 -16.095 -24.204  1.00  0.00    -0.069 C 
ATOM     15  C   UNL     1      14.153 -15.686 -23.944  1.00  0.00     0.039 C 
ATOM     16  C   UNL     1      11.863 -15.143 -25.009  1.00  0.00     0.039 C 
BRANCH  13  17
ATOM     17  C   UNL     1      13.077 -18.300 -23.029  1.00  0.00     0.066 CG0
ATOM     18  G   UNL     1      13.525 -17.810 -21.665  1.00  0.00     0.000 G0
ENDBRANCH  13  17
ENDBRANCH  11  13
ENDBRANCH  10  11
ENDBRANCH   1  10
TORSDOF 0
ENDMDL
MODEL 4
REMARK VINA RESULT:    -4.090      6.485      7.965
REMARK INTER + INTRA:          -5.780
REMARK INTER:                  -5.749
REMARK INTRA:                  -0.031
REMARK UNBOUND:                -0.016
REMARK SMILES CC1=CCC(=C(C)C)C(=O)CC(C)=CCC1
REMARK SMILES IDX 12 1 14 2 13 3 15 4 16 5 2 6 1 7 3 8 11 10 9 11 10 12 5 13
REMARK SMILES IDX 6 14 7 15 8 16 4 17
REMARK H PARENT
REMARK Flexibility Score: 60.00
ROOT
ATOM      1  C   UNL     1      16.928 -24.172 -23.293  1.00  0.00    -0.070 C 
ATOM      2  C   UNL     1      15.956 -23.250 -23.036  1.00  0.00    -0.027 C 
ATOM      3  C   UNL     1      16.951 -25.396 -22.407  1.00  0.00     0.039 C 
ENDROOT
BRANCH   2   4
ATOM      4  C   UNL     1      15.591 -21.946 -23.737  1.00  0.00     0.032 C 
BRANCH   4   5
ATOM      5  C   UNL     1      16.728 -20.960 -24.025  1.00  0.00     0.034 C 
BRANCH   5   6
ATOM      6  C   UNL     1      17.600 -20.493 -22.851  1.00  0.00    -0.077 C 
ATOM      7  C   UNL     1      16.903 -19.611 -21.836  1.00  0.00     0.039 C 
ATOM      8  C   UNL     1      18.890 -20.827 -22.550  1.00  0.00    -0.023 CG0
ATOM      9  G   UNL     1      19.878 -21.722 -23.275  1.00  0.00     0.000 G0
ENDBRANCH   5   6
ENDBRANCH   4   5
ENDBRANCH   2   4
BRANCH   1  10
ATOM     10  C   UNL     1      17.995 -24.095 -24.374  1.00  0.00     0.111 C 
BRANCH  10  11
ATOM     11  C   UNL     1      19.377 -24.173 -23.800  1.00  0.00     0.163 C 
ATOM     12  O   UNL     1      20.156 -25.078 -24.203  1.00  0.00    -0.294 OA
BRANCH  11  13
ATOM     13  C   UNL     1      19.843 -23.174 -22.804  1.00  0.00    -0.002 C 
ATOM     14  C   UNL     1      20.216 -23.544 -21.544  1.00  0.00    -0.069 C 
ATOM     15  C   UNL     1      20.792 -22.548 -20.563  1.00  0.00     0.039 C 
ATOM     16  C   UNL     1      20.053 -24.971 -21.068  1.00  0.00     0.039 C 
BRANCH  13  17
ATOM     17  C   UNL     1      19.895 -21.737 -23.277  1.00  0.00     0.066 CG0
ATOM     18  G   UNL     1      18.897 -20.860 -22.545  1.00  0.00     0.000 G0
ENDBRANCH  13  17
ENDBRANCH  11  13
ENDBRANCH  10  11
ENDBRANCH   1  10
TORSDOF 0
ENDMDL
MODEL 5
REMARK VINA RESULT:    -4.019      6.893      8.857
REMARK INTER + INTRA:          -5.679
REMARK INTER:                  -5.752
REMARK INTRA:                   0.072
REMARK UNBOUND:                -0.016
REMARK SMILES CC1=CCC(=C(C)C)C(=O)CC(C)=CCC1
REMARK SMILES IDX 12 1 14 2 13 3 15 4 16 5 2 6 1 7 3 8 11 10 9 11 10 12 5 13
REMARK SMILES IDX 6 14 7 15 8 16 4 17
REMARK H PARENT
REMARK Flexibility Score: 60.00
ROOT
ATOM      1  C   UNL     1      19.236 -24.309 -22.124  1.00  0.00    -0.070 C 
ATOM      2  C   UNL     1      18.016 -24.918 -22.119  1.00  0.00    -0.027 C 
ATOM      3  C   UNL     1      20.271 -24.860 -21.171  1.00  0.00     0.039 C 
ENDROOT
BRANCH   2   4
ATOM      4  C   UNL     1      16.767 -24.683 -22.962  1.00  0.00     0.032 C 
BRANCH   4   5
ATOM      5  C   UNL     1      15.846 -23.530 -22.548  1.00  0.00     0.034 C 
BRANCH   5   6
ATOM      6  C   UNL     1      16.141 -22.128 -23.101  1.00  0.00    -0.077 C 
ATOM      7  C   UNL     1      15.740 -20.979 -22.201  1.00  0.00     0.039 C 
ATOM      8  C   UNL     1      16.788 -21.775 -24.251  1.00  0.00    -0.023 CG0
ATOM      9  G   UNL     1      17.384 -22.627 -25.356  1.00  0.00     0.000 G0
ENDBRANCH   5   6
ENDBRANCH   4   5
ENDBRANCH   2   4
BRANCH   1  10
ATOM     10  C   UNL     1      19.665 -23.131 -22.985  1.00  0.00     0.111 C 
BRANCH  10  11
ATOM     11  C   UNL     1      19.609 -23.457 -24.446  1.00  0.00     0.163 C 
ATOM     12  O   UNL     1      20.135 -24.528 -24.854  1.00  0.00    -0.294 OA
BRANCH  11  13
ATOM     13  C   UNL     1      18.906 -22.560 -25.399  1.00  0.00    -0.002 C 
ATOM     14  C   UNL     1      19.593 -21.746 -26.251  1.00  0.00    -0.069 C 
ATOM     15  C   UNL     1      18.886 -20.911 -27.295  1.00  0.00     0.039 C 
ATOM     16  C   UNL     1      21.100 -21.630 -26.177  1.00  0.00     0.039 C 
BRANCH  13  17
ATOM     17  C   UNL     1      17.393 -22.620 -25.376  1.00  0.00     0.066 CG0
ATOM     18  G   UNL     1      16.807 -21.789 -24.251  1.00  0.00     0.000 G0
ENDBRANCH  13  17
ENDBRANCH  11  13
ENDBRANCH  10  11
ENDBRANCH   1  10
TORSDOF 0
ENDMDL
MODEL 6
REMARK VINA RESULT:    -4.019      1.938      3.744
REMARK INTER + INTRA:          -5.679
REMARK INTER:                  -5.713
REMARK INTRA:                   0.034
REMARK UNBOUND:                -0.016
REMARK SMILES CC1=CCC(=C(C)C)C(=O)CC(C)=CCC1
REMARK SMILES IDX 12 1 14 2 13 3 15 4 16 5 2 6 1 7 3 8 11 10 9 11 10 12 5 13
REMARK SMILES IDX 6 14 7 15 8 16 4 17
REMARK H PARENT
REMARK Flexibility Score: 60.00
ROOT
ATOM      1  C   UNL     1      14.851 -17.876 -19.549  1.00  0.00    -0.070 C 
ATOM      2  C   UNL     1      16.160 -17.689 -19.883  1.00  0.00    -0.027 C 
ATOM      3  C   UNL     1      14.581 -18.569 -18.234  1.00  0.00     0.039 C 
ENDROOT
BRANCH   2   4
ATOM      4  C   UNL     1      16.808 -16.993 -21.076  1.00  0.00     0.032 C 
BRANCH   4   5
ATOM      5  C   UNL     1      16.357 -17.430 -22.474  1.00  0.00     0.034 C 
BRANCH   5   6
ATOM      6  C   UNL     1      15.256 -16.616 -23.171  1.00  0.00    -0.077 C 
ATOM      7  C   UNL     1      15.604 -15.172 -23.464  1.00  0.00     0.039 C 
ATOM      8  C   UNL     1      14.041 -17.034 -23.636  1.00  0.00    -0.023 CG0
ATOM      9  G   UNL     1      13.376 -18.396 -23.591  1.00  0.00     0.000 G0
ENDBRANCH   5   6
ENDBRANCH   4   5
ENDBRANCH   2   4
BRANCH   1  10
ATOM     10  C   UNL     1      13.634 -17.467 -20.364  1.00  0.00     0.111 C 
BRANCH  10  11
ATOM     11  C   UNL     1      13.026 -18.633 -21.083  1.00  0.00     0.163 C 
ATOM     12  O   UNL     1      11.955 -19.130 -20.645  1.00  0.00    -0.294 OA
BRANCH  11  13
ATOM     13  C   UNL     1      13.648 -19.169 -22.321  1.00  0.00    -0.002 C 
ATOM     14  C   UNL     1      14.415 -20.298 -22.302  1.00  0.00    -0.069 C 
ATOM     15  C   UNL     1      14.961 -20.908 -23.573  1.00  0.00     0.039 C 
ATOM     16  C   UNL     1      14.767 -20.982 -20.999  1.00  0.00     0.039 C 
BRANCH  13  17
ATOM     17  C   UNL     1      13.365 -18.402 -23.595  1.00  0.00     0.066 CG0
ATOM     18  G   UNL     1      14.065 -17.056 -23.617  1.00  0.00     0.000 G0
ENDBRANCH  13  17
ENDBRANCH  11  13
ENDBRANCH  10  11
ENDBRANCH   1  10
TORSDOF 0
ENDMDL
MODEL 7
REMARK VINA RESULT:    -3.914      6.793      8.596
REMARK INTER + INTRA:          -5.533
REMARK INTER:                  -5.927
REMARK INTRA:                   0.394
REMARK UNBOUND:                -0.016
REMARK SMILES CC1=CCC(=C(C)C)C(=O)CC(C)=CCC1
REMARK SMILES IDX 12 1 14 2 13 3 15 4 16 5 2 6 1 7 3 8 11 10 9 11 10 12 5 13
REMARK SMILES IDX 6 14 7 15 8 16 4 17
REMARK H PARENT
REMARK Flexibility Score: 60.00
ROOT
ATOM      1  C   UNL     1      15.972 -22.119 -22.471  1.00  0.00    -0.070 C 
ATOM      2  C   UNL     1      15.774 -23.468 -22.430  1.00  0.00    -0.027 C 
ATOM      3  C   UNL     1      14.987 -21.267 -21.705  1.00  0.00     0.039 C 
ENDROOT
BRANCH   2   4
ATOM      4  C   UNL     1      16.576 -24.624 -23.018  1.00  0.00     0.032 C 
BRANCH   4   5
ATOM      5  C   UNL     1      17.733 -25.176 -22.178  1.00  0.00     0.034 C 
BRANCH   5   6
ATOM      6  C   UNL     1      19.155 -24.683 -22.486  1.00  0.00    -0.077 C 
ATOM      7  C   UNL     1      20.174 -24.921 -21.392  1.00  0.00     0.039 C 
ATOM      8  C   UNL     1      19.646 -24.136 -23.637  1.00  0.00    -0.023 CG0
ATOM      9  G   UNL     1      18.962 -23.809 -24.950  1.00  0.00     0.000 G0
ENDBRANCH   5   6
ENDBRANCH   4   5
ENDBRANCH   2   4
BRANCH   1  10
ATOM     10  C   UNL     1      17.077 -21.381 -23.213  1.00  0.00     0.111 C 
BRANCH  10  11
ATOM     11  C   UNL     1      17.281 -21.923 -24.594  1.00  0.00     0.163 C 
ATOM     12  O   UNL     1      16.292 -22.000 -25.373  1.00  0.00    -0.294 OA
BRANCH  11  13
ATOM     13  C   UNL     1      18.632 -22.325 -25.061  1.00  0.00    -0.002 C 
ATOM     14  C   UNL     1      19.521 -21.409 -25.545  1.00  0.00    -0.069 C 
ATOM     15  C   UNL     1      20.934 -21.795 -25.921  1.00  0.00     0.039 C 
ATOM     16  C   UNL     1      19.122 -19.963 -25.744  1.00  0.00     0.039 C 
BRANCH  13  17
ATOM     17  C   UNL     1      18.965 -23.797 -24.949  1.00  0.00     0.066 CG0
ATOM     18  G   UNL     1      19.656 -24.127 -23.639  1.00  0.00     0.000 G0
ENDBRANCH  13  17
ENDBRANCH  11  13
ENDBRANCH  10  11
ENDBRANCH   1  10
TORSDOF 0
ENDMDL
MODEL 8
REMARK VINA RESULT:    -3.853      2.269      5.075
REMARK INTER + INTRA:          -5.446
REMARK INTER:                  -5.758
REMARK INTRA:                   0.312
REMARK UNBOUND:                -0.016
REMARK SMILES CC1=CCC(=C(C)C)C(=O)CC(C)=CCC1
REMARK SMILES IDX 12 1 14 2 13 3 15 4 16 5 2 6 1 7 3 8 11 10 9 11 10 12 5 13
REMARK SMILES IDX 6 14 7 15 8 16 4 17
REMARK H PARENT
REMARK Flexibility Score: 60.00
ROOT
ATOM      1  C   UNL     1      14.624 -21.051 -23.101  1.00  0.00    -0.070 C 
ATOM      2  C   UNL     1      14.606 -21.282 -21.757  1.00  0.00    -0.027 C 
ATOM      3  C   UNL     1      15.703 -21.753 -23.893  1.00  0.00     0.039 C 
ENDROOT
BRANCH   2   4
ATOM      4  C   UNL     1      13.654 -20.807 -20.665  1.00  0.00     0.032 C 
BRANCH   4   5
ATOM      5  C   UNL     1      14.226 -19.875 -19.590  1.00  0.00     0.034 C 
BRANCH   5   6
ATOM      6  C   UNL     1      14.152 -18.360 -19.827  1.00  0.00    -0.077 C 
ATOM      7  C   UNL     1      15.220 -17.542 -19.131  1.00  0.00     0.039 C 
ATOM      8  C   UNL     1      13.310 -17.656 -20.640  1.00  0.00    -0.023 CG0
ATOM      9  G   UNL     1      12.175 -18.119 -21.533  1.00  0.00     0.000 G0
ENDBRANCH   5   6
ENDBRANCH   4   5
ENDBRANCH   2   4
BRANCH   1  10
ATOM     10  C   UNL     1      13.676 -20.159 -23.887  1.00  0.00     0.111 C 
BRANCH  10  11
ATOM     11  C   UNL     1      13.756 -18.730 -23.442  1.00  0.00     0.163 C 
ATOM     12  O   UNL     1      14.871 -18.143 -23.473  1.00  0.00    -0.294 OA
BRANCH  11  13
ATOM     13  C   UNL     1      12.537 -17.999 -23.013  1.00  0.00    -0.002 C 
ATOM     14  C   UNL     1      11.787 -17.280 -23.898  1.00  0.00    -0.069 C 
ATOM     15  C   UNL     1      10.489 -16.623 -23.488  1.00  0.00     0.039 C 
ATOM     16  C   UNL     1      12.234 -17.097 -25.332  1.00  0.00     0.039 C 
BRANCH  13  17
ATOM     17  C   UNL     1      12.174 -18.114 -21.547  1.00  0.00     0.066 CG0
ATOM     18  G   UNL     1      13.307 -17.670 -20.643  1.00  0.00     0.000 G0
ENDBRANCH  13  17
ENDBRANCH  11  13
ENDBRANCH  10  11
ENDBRANCH   1  10
TORSDOF 0
ENDMDL
MODEL 9
REMARK VINA RESULT:    -3.827      1.722      2.587
REMARK INTER + INTRA:          -5.409
REMARK INTER:                  -5.476
REMARK INTRA:                   0.067
REMARK UNBOUND:                -0.016
REMARK SMILES CC1=CCC(=C(C)C)C(=O)CC(C)=CCC1
REMARK SMILES IDX 12 1 14 2 13 3 15 4 16 5 2 6 1 7 3 8 11 10 9 11 10 12 5 13
REMARK SMILES IDX 6 14 7 15 8 16 4 17
REMARK H PARENT
REMARK Flexibility Score: 60.00
ROOT
ATOM      1  C   UNL     1      11.460 -16.952 -24.053  1.00  0.00    -0.070 C 
ATOM      2  C   UNL     1      11.899 -16.051 -24.977  1.00  0.00    -0.027 C 
ATOM      3  C   UNL     1      10.330 -17.861 -24.479  1.00  0.00     0.039 C 
ENDROOT
BRANCH   2   4
ATOM      4  C   UNL     1      13.032 -15.030 -24.933  1.00  0.00     0.032 C 
BRANCH   4   5
ATOM      5  C   UNL     1      14.464 -15.573 -24.871  1.00  0.00     0.034 C 
BRANCH   5   6
ATOM      6  C   UNL     1      15.331 -15.202 -23.658  1.00  0.00    -0.077 C 
ATOM      7  C   UNL     1      15.645 -13.728 -23.513  1.00  0.00     0.039 C 
ATOM      8  C   UNL     1      15.787 -16.002 -22.650  1.00  0.00    -0.023 CG0
ATOM      9  G   UNL     1      15.625 -17.491 -22.414  1.00  0.00     0.000 G0
ENDBRANCH   5   6
ENDBRANCH   4   5
ENDBRANCH   2   4
BRANCH   1  10
ATOM     10  C   UNL     1      11.984 -17.137 -22.637  1.00  0.00     0.111 C 
BRANCH  10  11
ATOM     11  C   UNL     1      13.147 -18.080 -22.590  1.00  0.00     0.163 C 
ATOM     12  O   UNL     1      13.141 -19.094 -23.338  1.00  0.00    -0.294 OA
BRANCH  11  13
ATOM     13  C   UNL     1      14.313 -17.805 -21.712  1.00  0.00    -0.002 C 
ATOM     14  C   UNL     1      14.210 -17.861 -20.352  1.00  0.00    -0.069 C 
ATOM     15  C   UNL     1      15.416 -17.688 -19.457  1.00  0.00     0.039 C 
ATOM     16  C   UNL     1      12.873 -18.084 -19.678  1.00  0.00     0.039 C 
BRANCH  13  17
ATOM     17  C   UNL     1      15.613 -17.480 -22.415  1.00  0.00     0.066 CG0
ATOM     18  G   UNL     1      15.790 -15.988 -22.626  1.00  0.00     0.000 G0
ENDBRANCH  13  17
ENDBRANCH  11  13
ENDBRANCH  10  11
ENDBRANCH   1  10
TORSDOF 0
ENDMDL
