MODEL 1
REMARK VINA RESULT:    -5.322      0.000      0.000
REMARK INTER + INTRA:          -5.633
REMARK INTER:                  -5.633
REMARK INTRA:                   0.000
REMARK UNBOUND:                 0.000
REMARK SMILES O=c1ccc2cc(O)c(O)cc2o1
REMARK SMILES IDX 4 1 3 2 2 3 1 4 13 5 12 6 11 7 9 8 7 9 6 10 5 11 8 12 10 14
REMARK H PARENT 8 13 10 15
REMARK Flexibility Score: inf
ROOT
ATOM      1  C   UNL     1      10.112  -7.359  -9.867  1.00  0.00     0.019 A 
ATOM      2  C   UNL     1       9.332  -8.120 -10.738  1.00  0.00     0.094 A 
ATOM      3  C   UNL     1       7.985  -8.335 -10.429  1.00  0.00     0.336 A 
ATOM      4  O   UNL     1       7.265  -9.019 -11.203  1.00  0.00    -0.246 OA
ATOM      5  O   UNL     1       7.457  -7.822  -9.322  1.00  0.00    -0.423 OA
ATOM      6  C   UNL     1       8.165  -7.090  -8.464  1.00  0.00     0.142 A 
ATOM      7  C   UNL     1       7.557  -6.575  -7.315  1.00  0.00     0.098 A 
ATOM      8  C   UNL     1       8.298  -5.804  -6.407  1.00  0.00     0.161 A 
ATOM      9  C   UNL     1       9.659  -5.546  -6.653  1.00  0.00     0.158 A 
ATOM     10  C   UNL     1      10.271  -6.060  -7.803  1.00  0.00     0.062 A 
ATOM     11  C   UNL     1       9.531  -6.831  -8.709  1.00  0.00     0.022 A 
ENDROOT
BRANCH   9  12
ATOM     12  O   UNL     1      10.418  -4.782  -5.768  1.00  0.00    -0.504 OA
ATOM     13  H   UNL     1      10.392  -3.770  -5.770  1.00  0.00     0.293 HD
ENDBRANCH   9  12
BRANCH   8  14
ATOM     14  O   UNL     1       7.686  -5.293  -5.263  1.00  0.00    -0.504 OA
ATOM     15  H   UNL     1       6.870  -4.697  -5.319  1.00  0.00     0.293 HD
ENDBRANCH   8  14
TORSDOF 2
ENDMDL
MODEL 2
REMARK VINA RESULT:    -5.230      1.284      2.316
REMARK INTER + INTRA:          -5.536
REMARK INTER:                  -5.536
REMARK INTRA:                   0.000
REMARK UNBOUND:                 0.000
REMARK SMILES O=c1ccc2cc(O)c(O)cc2o1
REMARK SMILES IDX 4 1 3 2 2 3 1 4 13 5 12 6 11 7 9 8 7 9 6 10 5 11 8 12 10 14
REMARK H PARENT 8 13 10 15
REMARK Flexibility Score: inf
ROOT
ATOM      1  C   UNL     1       7.638  -7.887  -9.618  1.00  0.00     0.019 A 
ATOM      2  C   UNL     1       8.327  -8.276 -10.767  1.00  0.00     0.094 A 
ATOM      3  C   UNL     1       9.659  -7.882 -10.925  1.00  0.00     0.336 A 
ATOM      4  O   UNL     1      10.298  -8.224 -11.954  1.00  0.00    -0.246 OA
ATOM      5  O   UNL     1      10.260  -7.148  -9.992  1.00  0.00    -0.423 OA
ATOM      6  C   UNL     1       9.641  -6.754  -8.881  1.00  0.00     0.142 A 
ATOM      7  C   UNL     1      10.322  -5.983  -7.936  1.00  0.00     0.098 A 
ATOM      8  C   UNL     1       9.674  -5.565  -6.764  1.00  0.00     0.161 A 
ATOM      9  C   UNL     1       8.333  -5.924  -6.538  1.00  0.00     0.158 A 
ATOM     10  C   UNL     1       7.648  -6.697  -7.484  1.00  0.00     0.062 A 
ATOM     11  C   UNL     1       8.294  -7.114  -8.654  1.00  0.00     0.022 A 
ENDROOT
BRANCH   9  12
ATOM     12  O   UNL     1       7.666  -5.523  -5.381  1.00  0.00    -0.504 OA
ATOM     13  H   UNL     1       7.955  -5.827  -4.460  1.00  0.00     0.293 HD
ENDBRANCH   9  12
BRANCH   8  14
ATOM     14  O   UNL     1      10.359  -4.796  -5.824  1.00  0.00    -0.504 OA
ATOM     15  H   UNL     1      11.370  -4.798  -5.771  1.00  0.00     0.293 HD
ENDBRANCH   8  14
TORSDOF 2
ENDMDL
MODEL 3
REMARK VINA RESULT:    -5.183     17.033     18.213
REMARK INTER + INTRA:          -5.487
REMARK INTER:                  -5.487
REMARK INTRA:                   0.000
REMARK UNBOUND:                 0.000
REMARK SMILES O=c1ccc2cc(O)c(O)cc2o1
REMARK SMILES IDX 4 1 3 2 2 3 1 4 13 5 12 6 11 7 9 8 7 9 6 10 5 11 8 12 10 14
REMARK H PARENT 8 13 10 15
REMARK Flexibility Score: inf
ROOT
ATOM      1  C   UNL     1      20.436  -1.114 -21.985  1.00  0.00     0.019 A 
ATOM      2  C   UNL     1      21.146  -0.284 -22.853  1.00  0.00     0.094 A 
ATOM      3  C   UNL     1      21.705   0.898 -22.356  1.00  0.00     0.336 A 
ATOM      4  O   UNL     1      22.349   1.659 -23.124  1.00  0.00    -0.246 OA
ATOM      5  O   UNL     1      21.560   1.225 -21.075  1.00  0.00    -0.423 OA
ATOM      6  C   UNL     1      20.891   0.463 -20.213  1.00  0.00     0.142 A 
ATOM      7  C   UNL     1      20.771   0.857 -18.877  1.00  0.00     0.098 A 
ATOM      8  C   UNL     1      20.066   0.058 -17.964  1.00  0.00     0.161 A 
ATOM      9  C   UNL     1      19.478  -1.146 -18.394  1.00  0.00     0.158 A 
ATOM     10  C   UNL     1      19.597  -1.543 -19.731  1.00  0.00     0.062 A 
ATOM     11  C   UNL     1      20.299  -0.745 -20.643  1.00  0.00     0.022 A 
ENDROOT
BRANCH   9  12
ATOM     12  O   UNL     1      18.773  -1.958 -17.507  1.00  0.00    -0.504 OA
ATOM     13  H   UNL     1      17.773  -1.869 -17.373  1.00  0.00     0.293 HD
ENDBRANCH   9  12
BRANCH   8  14
ATOM     14  O   UNL     1      19.950   0.456 -16.633  1.00  0.00    -0.504 OA
ATOM     15  H   UNL     1      19.410   1.270 -16.367  1.00  0.00     0.293 HD
ENDBRANCH   8  14
TORSDOF 2
ENDMDL
MODEL 4
REMARK VINA RESULT:    -5.134     16.415     17.925
REMARK INTER + INTRA:          -5.434
REMARK INTER:                  -5.434
REMARK INTRA:                   0.000
REMARK UNBOUND:                 0.000
REMARK SMILES O=c1ccc2cc(O)c(O)cc2o1
REMARK SMILES IDX 4 1 3 2 2 3 1 4 13 5 12 6 11 7 9 8 7 9 6 10 5 11 8 12 10 14
REMARK H PARENT 8 13 10 15
REMARK Flexibility Score: inf
ROOT
ATOM      1  C   UNL     1      19.250  -2.118 -18.963  1.00  0.00     0.019 A 
ATOM      2  C   UNL     1      18.875  -1.796 -17.659  1.00  0.00     0.094 A 
ATOM      3  C   UNL     1      19.160  -0.518 -17.168  1.00  0.00     0.336 A 
ATOM      4  O   UNL     1      18.828  -0.208 -15.993  1.00  0.00    -0.246 OA
ATOM      5  O   UNL     1      19.780   0.376 -17.933  1.00  0.00    -0.423 OA
ATOM      6  C   UNL     1      20.155   0.110 -19.183  1.00  0.00     0.142 A 
ATOM      7  C   UNL     1      20.804   1.089 -19.942  1.00  0.00     0.098 A 
ATOM      8  C   UNL     1      21.202   0.814 -21.258  1.00  0.00     0.161 A 
ATOM      9  C   UNL     1      20.948  -0.452 -21.819  1.00  0.00     0.158 A 
ATOM     10  C   UNL     1      20.299  -1.433 -21.061  1.00  0.00     0.062 A 
ATOM     11  C   UNL     1      19.901  -1.160 -19.746  1.00  0.00     0.022 A 
ENDROOT
BRANCH   9  12
ATOM     12  O   UNL     1      21.333  -0.750 -23.125  1.00  0.00    -0.504 OA
ATOM     13  H   UNL     1      21.587  -1.688 -23.411  1.00  0.00     0.293 HD
ENDBRANCH   9  12
BRANCH   8  14
ATOM     14  O   UNL     1      21.849   1.794 -22.011  1.00  0.00    -0.504 OA
ATOM     15  H   UNL     1      22.729   1.611 -22.476  1.00  0.00     0.293 HD
ENDBRANCH   8  14
TORSDOF 2
ENDMDL
MODEL 5
REMARK VINA RESULT:    -4.914      2.168      2.747
REMARK INTER + INTRA:          -5.201
REMARK INTER:                  -5.201
REMARK INTRA:                   0.000
REMARK UNBOUND:                 0.000
REMARK SMILES O=c1ccc2cc(O)c(O)cc2o1
REMARK SMILES IDX 4 1 3 2 2 3 1 4 13 5 12 6 11 7 9 8 7 9 6 10 5 11 8 12 10 14
REMARK H PARENT 8 13 10 15
REMARK Flexibility Score: inf
ROOT
ATOM      1  C   UNL     1      11.317  -6.700  -8.337  1.00  0.00     0.019 A 
ATOM      2  C   UNL     1      11.876  -6.895  -9.600  1.00  0.00     0.094 A 
ATOM      3  C   UNL     1      11.110  -6.602 -10.733  1.00  0.00     0.336 A 
ATOM      4  O   UNL     1      11.597  -6.771 -11.881  1.00  0.00    -0.246 OA
ATOM      5  O   UNL     1       9.867  -6.145 -10.606  1.00  0.00    -0.423 OA
ATOM      6  C   UNL     1       9.295  -5.944  -9.421  1.00  0.00     0.142 A 
ATOM      7  C   UNL     1       7.985  -5.461  -9.349  1.00  0.00     0.098 A 
ATOM      8  C   UNL     1       7.378  -5.249  -8.102  1.00  0.00     0.161 A 
ATOM      9  C   UNL     1       8.089  -5.522  -6.919  1.00  0.00     0.158 A 
ATOM     10  C   UNL     1       9.402  -6.005  -6.989  1.00  0.00     0.062 A 
ATOM     11  C   UNL     1      10.008  -6.218  -8.233  1.00  0.00     0.022 A 
ENDROOT
BRANCH   9  12
ATOM     12  O   UNL     1       7.509  -5.319  -5.668  1.00  0.00    -0.504 OA
ATOM     13  H   UNL     1       7.136  -4.420  -5.387  1.00  0.00     0.293 HD
ENDBRANCH   9  12
BRANCH   8  14
ATOM     14  O   UNL     1       6.071  -4.767  -8.036  1.00  0.00    -0.504 OA
ATOM     15  H   UNL     1       5.692  -4.377  -7.182  1.00  0.00     0.293 HD
ENDBRANCH   8  14
TORSDOF 2
ENDMDL
MODEL 6
REMARK VINA RESULT:    -4.894      2.196      3.033
REMARK INTER + INTRA:          -5.180
REMARK INTER:                  -5.180
REMARK INTRA:                   0.000
REMARK UNBOUND:                 0.000
REMARK SMILES O=c1ccc2cc(O)c(O)cc2o1
REMARK SMILES IDX 4 1 3 2 2 3 1 4 13 5 12 6 11 7 9 8 7 9 6 10 5 11 8 12 10 14
REMARK H PARENT 8 13 10 15
REMARK Flexibility Score: inf
ROOT
ATOM      1  C   UNL     1       8.239  -6.960 -11.831  1.00  0.00     0.019 A 
ATOM      2  C   UNL     1       8.997  -7.687 -12.748  1.00  0.00     0.094 A 
ATOM      3  C   UNL     1      10.316  -8.021 -12.425  1.00  0.00     0.336 A 
ATOM      4  O   UNL     1      11.015  -8.677 -13.240  1.00  0.00    -0.246 OA
ATOM      5  O   UNL     1      10.839  -7.649 -11.260  1.00  0.00    -0.423 OA
ATOM      6  C   UNL     1      10.151  -6.954 -10.355  1.00  0.00     0.142 A 
ATOM      7  C   UNL     1      10.753  -6.591  -9.147  1.00  0.00     0.098 A 
ATOM      8  C   UNL     1      10.033  -5.858  -8.191  1.00  0.00     0.161 A 
ATOM      9  C   UNL     1       8.700  -5.488  -8.448  1.00  0.00     0.158 A 
ATOM     10  C   UNL     1       8.096  -5.851  -9.658  1.00  0.00     0.062 A 
ATOM     11  C   UNL     1       8.814  -6.581 -10.613  1.00  0.00     0.022 A 
ENDROOT
BRANCH   9  12
ATOM     12  O   UNL     1       7.963  -4.760  -7.515  1.00  0.00    -0.504 OA
ATOM     13  H   UNL     1       7.596  -5.183  -6.671  1.00  0.00     0.293 HD
ENDBRANCH   9  12
BRANCH   8  14
ATOM     14  O   UNL     1      10.638  -5.499  -6.987  1.00  0.00    -0.504 OA
ATOM     15  H   UNL     1      11.609  -5.217  -6.944  1.00  0.00     0.293 HD
ENDBRANCH   8  14
TORSDOF 2
ENDMDL
MODEL 7
REMARK VINA RESULT:    -4.891      1.864      2.291
REMARK INTER + INTRA:          -5.177
REMARK INTER:                  -5.177
REMARK INTRA:                   0.000
REMARK UNBOUND:                 0.000
REMARK SMILES O=c1ccc2cc(O)c(O)cc2o1
REMARK SMILES IDX 4 1 3 2 2 3 1 4 13 5 12 6 11 7 9 8 7 9 6 10 5 11 8 12 10 14
REMARK H PARENT 8 13 10 15
REMARK Flexibility Score: inf
ROOT
ATOM      1  C   UNL     1      11.783  -7.842 -10.564  1.00  0.00     0.019 A 
ATOM      2  C   UNL     1      11.414  -8.333 -11.816  1.00  0.00     0.094 A 
ATOM      3  C   UNL     1      10.130  -8.060 -12.300  1.00  0.00     0.336 A 
ATOM      4  O   UNL     1       9.779  -8.494 -13.428  1.00  0.00    -0.246 OA
ATOM      5  O   UNL     1       9.275  -7.343 -11.576  1.00  0.00    -0.423 OA
ATOM      6  C   UNL     1       9.586  -6.856 -10.376  1.00  0.00     0.142 A 
ATOM      7  C   UNL     1       8.646  -6.109  -9.660  1.00  0.00     0.098 A 
ATOM      8  C   UNL     1       8.968  -5.594  -8.395  1.00  0.00     0.161 A 
ATOM      9  C   UNL     1      10.242  -5.829  -7.845  1.00  0.00     0.158 A 
ATOM     10  C   UNL     1      11.185  -6.576  -8.561  1.00  0.00     0.062 A 
ATOM     11  C   UNL     1      10.864  -7.092  -9.823  1.00  0.00     0.022 A 
ENDROOT
BRANCH   9  12
ATOM     12  O   UNL     1      10.587  -5.328  -6.591  1.00  0.00    -0.504 OA
ATOM     13  H   UNL     1      11.456  -4.832  -6.429  1.00  0.00     0.293 HD
ENDBRANCH   9  12
BRANCH   8  14
ATOM     14  O   UNL     1       8.028  -4.850  -7.685  1.00  0.00    -0.504 OA
ATOM     15  H   UNL     1       7.349  -4.263  -8.155  1.00  0.00     0.293 HD
ENDBRANCH   8  14
TORSDOF 2
ENDMDL
MODEL 8
REMARK VINA RESULT:    -4.867      2.477      3.156
REMARK INTER + INTRA:          -5.152
REMARK INTER:                  -5.152
REMARK INTRA:                   0.000
REMARK UNBOUND:                 0.000
REMARK SMILES O=c1ccc2cc(O)c(O)cc2o1
REMARK SMILES IDX 4 1 3 2 2 3 1 4 13 5 12 6 11 7 9 8 7 9 6 10 5 11 8 12 10 14
REMARK H PARENT 8 13 10 15
REMARK Flexibility Score: inf
ROOT
ATOM      1  C   UNL     1      10.383  -8.585  -8.726  1.00  0.00     0.019 A 
ATOM      2  C   UNL     1      11.347  -7.962  -9.518  1.00  0.00     0.094 A 
ATOM      3  C   UNL     1      11.581  -6.593  -9.351  1.00  0.00     0.336 A 
ATOM      4  O   UNL     1      12.447  -6.013 -10.056  1.00  0.00    -0.246 OA
ATOM      5  O   UNL     1      10.893  -5.897  -8.449  1.00  0.00    -0.423 OA
ATOM      6  C   UNL     1       9.965  -6.452  -7.672  1.00  0.00     0.142 A 
ATOM      7  C   UNL     1       9.273  -5.671  -6.742  1.00  0.00     0.098 A 
ATOM      8  C   UNL     1       8.293  -6.251  -5.922  1.00  0.00     0.161 A 
ATOM      9  C   UNL     1       8.005  -7.623  -6.035  1.00  0.00     0.158 A 
ATOM     10  C   UNL     1       8.697  -8.407  -6.966  1.00  0.00     0.062 A 
ATOM     11  C   UNL     1       9.674  -7.829  -7.786  1.00  0.00     0.022 A 
ENDROOT
BRANCH   9  12
ATOM     12  O   UNL     1       7.037  -8.224  -5.231  1.00  0.00    -0.504 OA
ATOM     13  H   UNL     1       6.562  -7.719  -4.493  1.00  0.00     0.293 HD
ENDBRANCH   9  12
BRANCH   8  14
ATOM     14  O   UNL     1       7.607  -5.467  -4.995  1.00  0.00    -0.504 OA
ATOM     15  H   UNL     1       7.430  -4.484  -5.158  1.00  0.00     0.293 HD
ENDBRANCH   8  14
TORSDOF 2
ENDMDL
MODEL 9
REMARK VINA RESULT:    -4.783      1.896      2.319
REMARK INTER + INTRA:          -5.062
REMARK INTER:                  -5.062
REMARK INTRA:                   0.000
REMARK UNBOUND:                 0.000
REMARK SMILES O=c1ccc2cc(O)c(O)cc2o1
REMARK SMILES IDX 4 1 3 2 2 3 1 4 13 5 12 6 11 7 9 8 7 9 6 10 5 11 8 12 10 14
REMARK H PARENT 8 13 10 15
REMARK Flexibility Score: inf
ROOT
ATOM      1  C   UNL     1       8.313  -4.842 -10.226  1.00  0.00     0.019 A 
ATOM      2  C   UNL     1       8.421  -5.393 -11.503  1.00  0.00     0.094 A 
ATOM      3  C   UNL     1       8.305  -6.778 -11.655  1.00  0.00     0.336 A 
ATOM      4  O   UNL     1       8.399  -7.294 -12.799  1.00  0.00    -0.246 OA
ATOM      5  O   UNL     1       8.097  -7.558 -10.597  1.00  0.00    -0.423 OA
ATOM      6  C   UNL     1       7.988  -7.074  -9.362  1.00  0.00     0.142 A 
ATOM      7  C   UNL     1       7.768  -7.941  -8.287  1.00  0.00     0.098 A 
ATOM      8  C   UNL     1       7.654  -7.436  -6.983  1.00  0.00     0.161 A 
ATOM      9  C   UNL     1       7.759  -6.052  -6.755  1.00  0.00     0.158 A 
ATOM     10  C   UNL     1       7.979  -5.182  -7.829  1.00  0.00     0.062 A 
ATOM     11  C   UNL     1       8.094  -5.685  -9.131  1.00  0.00     0.022 A 
ENDROOT
BRANCH   9  12
ATOM     12  O   UNL     1       7.648  -5.525  -5.469  1.00  0.00    -0.504 OA
ATOM     13  H   UNL     1       7.110  -5.983  -4.744  1.00  0.00     0.293 HD
ENDBRANCH   9  12
BRANCH   8  14
ATOM     14  O   UNL     1       7.434  -8.305  -5.916  1.00  0.00    -0.504 OA
ATOM     15  H   UNL     1       7.213  -7.963  -4.989  1.00  0.00     0.293 HD
ENDBRANCH   8  14
TORSDOF 2
ENDMDL
