MODEL 1
REMARK VINA RESULT:    -5.564      0.000      0.000
REMARK INTER + INTRA:         -12.052
REMARK INTER:                 -10.118
REMARK INTRA:                  -1.934
REMARK UNBOUND:                -1.934
REMARK SMILES CCCCCCCCCCCCCC[C@@H](C)C(=O)[O-]
REMARK SMILES IDX 9 1 10 2 11 3 12 4 13 5 14 6 15 7 16 8 17 9 18 10 19 11 8 12
REMARK SMILES IDX 7 13 6 14 5 15 4 16 3 17 2 18 1 19
REMARK H PARENT
REMARK Flexibility Score: inf
ROOT
ATOM      1  C   UNL     1      15.441 -13.957  26.214  1.00  0.00     0.000 C 
ENDROOT
BRANCH   1   2
ATOM      2  C   UNL     1      14.511 -14.632  25.190  1.00  0.00     0.000 C 
BRANCH   2   3
ATOM      3  C   UNL     1      13.670 -13.664  24.331  1.00  0.00     0.000 C 
BRANCH   3   4
ATOM      4  C   UNL     1      13.554 -12.231  24.878  1.00  0.00     0.000 C 
BRANCH   4   5
ATOM      5  C   UNL     1      12.095 -11.771  25.043  1.00  0.00     0.001 C 
BRANCH   5   6
ATOM      6  C   UNL     1      11.079 -12.889  24.737  1.00  0.00     0.009 C 
BRANCH   6   7
ATOM      7  C   UNL     1       9.773 -12.399  24.072  1.00  0.00     0.032 C 
ATOM      8  C   UNL     1       9.349 -11.048  24.658  1.00  0.00     0.014 C 
BRANCH   7   9
ATOM      9  C   UNL     1       9.920 -12.284  22.578  1.00  0.00     0.044 C 
ATOM     10  O   UNL     1       9.042 -11.696  21.890  1.00  0.00    -0.550 OA
ATOM     11  O   UNL     1      11.034 -12.825  21.949  1.00  0.00    -0.550 OA
ENDBRANCH   7   9
ENDBRANCH   6   7
ENDBRANCH   5   6
ENDBRANCH   4   5
ENDBRANCH   3   4
ENDBRANCH   2   3
ENDBRANCH   1   2
BRANCH   1  12
ATOM     12  C   UNL     1      15.134 -14.372  27.661  1.00  0.00     0.000 C 
BRANCH  12  13
ATOM     13  C   UNL     1      14.290 -13.304  28.369  1.00  0.00    -0.000 C 
BRANCH  13  14
ATOM     14  C   UNL     1      12.793 -13.631  28.269  1.00  0.00    -0.000 C 
BRANCH  14  15
ATOM     15  C   UNL     1      12.137 -13.834  29.644  1.00  0.00    -0.000 C 
BRANCH  15  16
ATOM     16  C   UNL     1      10.728 -13.220  29.727  1.00  0.00    -0.000 C 
BRANCH  16  17
ATOM     17  C   UNL     1      10.116 -12.979  28.330  1.00  0.00    -0.000 C 
BRANCH  17  18
ATOM     18  C   UNL     1       8.710 -12.359  28.375  1.00  0.00    -0.003 C 
ATOM     19  C   UNL     1       8.146 -12.253  29.789  1.00  0.00     0.004 C 
ENDBRANCH  17  18
ENDBRANCH  16  17
ENDBRANCH  15  16
ENDBRANCH  14  15
ENDBRANCH  13  14
ENDBRANCH  12  13
ENDBRANCH   1  12
TORSDOF 14
ENDMDL
MODEL 2
REMARK VINA RESULT:    -5.281      3.723      5.914
REMARK INTER + INTRA:         -11.537
REMARK INTER:                 -10.164
REMARK INTRA:                  -1.373
REMARK UNBOUND:                -1.934
REMARK SMILES CCCCCCCCCCCCCC[C@@H](C)C(=O)[O-]
REMARK SMILES IDX 9 1 10 2 11 3 12 4 13 5 14 6 15 7 16 8 17 9 18 10 19 11 8 12
REMARK SMILES IDX 7 13 6 14 5 15 4 16 3 17 2 18 1 19
REMARK H PARENT
REMARK Flexibility Score: inf
ROOT
ATOM      1  C   UNL     1      13.958 -12.712  25.793  1.00  0.00     0.000 C 
ENDROOT
BRANCH   1   2
ATOM      2  C   UNL     1      13.508 -13.415  27.085  1.00  0.00     0.000 C 
BRANCH   2   3
ATOM      3  C   UNL     1      14.571 -13.475  28.203  1.00  0.00     0.000 C 
BRANCH   3   4
ATOM      4  C   UNL     1      16.032 -13.427  27.725  1.00  0.00     0.000 C 
BRANCH   4   5
ATOM      5  C   UNL     1      16.919 -12.527  28.602  1.00  0.00     0.001 C 
BRANCH   5   6
ATOM      6  C   UNL     1      16.120 -11.418  29.315  1.00  0.00     0.009 C 
BRANCH   6   7
ATOM      7  C   UNL     1      16.131 -10.055  28.584  1.00  0.00     0.032 C 
ATOM      8  C   UNL     1      16.048  -8.906  29.594  1.00  0.00     0.014 C 
BRANCH   7   9
ATOM      9  C   UNL     1      17.358  -9.895  27.727  1.00  0.00     0.044 C 
ATOM     10  O   UNL     1      18.445  -9.503  28.229  1.00  0.00    -0.550 OA
ATOM     11  O   UNL     1      17.296 -10.186  26.370  1.00  0.00    -0.550 OA
ENDBRANCH   7   9
ENDBRANCH   6   7
ENDBRANCH   5   6
ENDBRANCH   4   5
ENDBRANCH   3   4
ENDBRANCH   2   3
ENDBRANCH   1   2
BRANCH   1  12
ATOM     12  C   UNL     1      12.816 -11.957  25.096  1.00  0.00     0.000 C 
BRANCH  12  13
ATOM     13  C   UNL     1      11.452 -12.508  25.529  1.00  0.00    -0.000 C 
BRANCH  13  14
ATOM     14  C   UNL     1      10.310 -11.636  24.985  1.00  0.00    -0.000 C 
BRANCH  14  15
ATOM     15  C   UNL     1       9.053 -11.687  25.868  1.00  0.00    -0.000 C 
BRANCH  15  16
ATOM     16  C   UNL     1       8.625 -13.125  26.210  1.00  0.00    -0.000 C 
BRANCH  16  17
ATOM     17  C   UNL     1       8.149 -13.258  27.673  1.00  0.00    -0.000 C 
BRANCH  17  18
ATOM     18  C   UNL     1       9.022 -12.485  28.675  1.00  0.00    -0.003 C 
ATOM     19  C   UNL     1      10.282 -13.244  29.083  1.00  0.00     0.004 C 
ENDBRANCH  17  18
ENDBRANCH  16  17
ENDBRANCH  15  16
ENDBRANCH  14  15
ENDBRANCH  13  14
ENDBRANCH  12  13
ENDBRANCH   1  12
TORSDOF 14
ENDMDL
MODEL 3
REMARK VINA RESULT:    -5.278      3.108      5.194
REMARK INTER + INTRA:         -11.532
REMARK INTER:                  -9.845
REMARK INTRA:                  -1.688
REMARK UNBOUND:                -1.934
REMARK SMILES CCCCCCCCCCCCCC[C@@H](C)C(=O)[O-]
REMARK SMILES IDX 9 1 10 2 11 3 12 4 13 5 14 6 15 7 16 8 17 9 18 10 19 11 8 12
REMARK SMILES IDX 7 13 6 14 5 15 4 16 3 17 2 18 1 19
REMARK H PARENT
REMARK Flexibility Score: inf
ROOT
ATOM      1  C   UNL     1      14.001 -11.720  24.270  1.00  0.00     0.000 C 
ENDROOT
BRANCH   1   2
ATOM      2  C   UNL     1      15.315 -12.497  24.463  1.00  0.00     0.000 C 
BRANCH   2   3
ATOM      3  C   UNL     1      15.405 -13.833  23.695  1.00  0.00     0.000 C 
BRANCH   3   4
ATOM      4  C   UNL     1      15.549 -15.089  24.573  1.00  0.00     0.000 C 
BRANCH   4   5
ATOM      5  C   UNL     1      14.353 -15.295  25.519  1.00  0.00     0.001 C 
BRANCH   5   6
ATOM      6  C   UNL     1      14.718 -15.062  26.999  1.00  0.00     0.009 C 
BRANCH   6   7
ATOM      7  C   UNL     1      14.384 -13.646  27.522  1.00  0.00     0.032 C 
ATOM      8  C   UNL     1      13.134 -13.684  28.409  1.00  0.00     0.014 C 
BRANCH   7   9
ATOM      9  C   UNL     1      15.536 -13.051  28.288  1.00  0.00     0.044 C 
ATOM     10  O   UNL     1      16.692 -13.024  27.788  1.00  0.00    -0.550 OA
ATOM     11  O   UNL     1      15.324 -12.521  29.555  1.00  0.00    -0.550 OA
ENDBRANCH   7   9
ENDBRANCH   6   7
ENDBRANCH   5   6
ENDBRANCH   4   5
ENDBRANCH   3   4
ENDBRANCH   2   3
ENDBRANCH   1   2
BRANCH   1  12
ATOM     12  C   UNL     1      12.826 -12.626  23.872  1.00  0.00     0.000 C 
BRANCH  12  13
ATOM     13  C   UNL     1      11.680 -12.513  24.886  1.00  0.00    -0.000 C 
BRANCH  13  14
ATOM     14  C   UNL     1      10.316 -12.547  24.180  1.00  0.00    -0.000 C 
BRANCH  14  15
ATOM     15  C   UNL     1       9.355 -11.465  24.695  1.00  0.00    -0.000 C 
BRANCH  15  16
ATOM     16  C   UNL     1       9.003 -11.643  26.183  1.00  0.00    -0.000 C 
BRANCH  16  17
ATOM     17  C   UNL     1       8.338 -13.007  26.464  1.00  0.00    -0.000 C 
BRANCH  17  18
ATOM     18  C   UNL     1       8.343 -13.399  27.951  1.00  0.00    -0.003 C 
ATOM     19  C   UNL     1       9.439 -12.699  28.751  1.00  0.00     0.004 C 
ENDBRANCH  17  18
ENDBRANCH  16  17
ENDBRANCH  15  16
ENDBRANCH  14  15
ENDBRANCH  13  14
ENDBRANCH  12  13
ENDBRANCH   1  12
TORSDOF 14
ENDMDL
MODEL 4
REMARK VINA RESULT:    -5.242      2.673      5.179
REMARK INTER + INTRA:         -11.466
REMARK INTER:                 -10.271
REMARK INTRA:                  -1.195
REMARK UNBOUND:                -1.934
REMARK SMILES CCCCCCCCCCCCCC[C@@H](C)C(=O)[O-]
REMARK SMILES IDX 9 1 10 2 11 3 12 4 13 5 14 6 15 7 16 8 17 9 18 10 19 11 8 12
REMARK SMILES IDX 7 13 6 14 5 15 4 16 3 17 2 18 1 19
REMARK H PARENT
REMARK Flexibility Score: inf
ROOT
ATOM      1  C   UNL     1      11.031 -12.731  21.929  1.00  0.00     0.000 C 
ENDROOT
BRANCH   1   2
ATOM      2  C   UNL     1      12.561 -12.641  22.070  1.00  0.00     0.000 C 
BRANCH   2   3
ATOM      3  C   UNL     1      13.075 -12.420  23.508  1.00  0.00     0.000 C 
BRANCH   3   4
ATOM      4  C   UNL     1      14.561 -12.037  23.625  1.00  0.00     0.000 C 
BRANCH   4   5
ATOM      5  C   UNL     1      15.089 -12.128  25.067  1.00  0.00     0.001 C 
BRANCH   5   6
ATOM      6  C   UNL     1      14.014 -12.595  26.067  1.00  0.00     0.009 C 
BRANCH   6   7
ATOM      7  C   UNL     1      14.577 -13.281  27.333  1.00  0.00     0.032 C 
ATOM      8  C   UNL     1      13.448 -13.587  28.323  1.00  0.00     0.014 C 
BRANCH   7   9
ATOM      9  C   UNL     1      15.318 -14.547  26.996  1.00  0.00     0.044 C 
ATOM     10  O   UNL     1      16.487 -14.740  27.426  1.00  0.00    -0.550 OA
ATOM     11  O   UNL     1      14.710 -15.516  26.208  1.00  0.00    -0.550 OA
ENDBRANCH   7   9
ENDBRANCH   6   7
ENDBRANCH   5   6
ENDBRANCH   4   5
ENDBRANCH   3   4
ENDBRANCH   2   3
ENDBRANCH   1   2
BRANCH   1  12
ATOM     12  C   UNL     1      10.313 -12.834  23.283  1.00  0.00     0.000 C 
BRANCH  12  13
ATOM     13  C   UNL     1       9.365 -11.647  23.493  1.00  0.00    -0.000 C 
BRANCH  13  14
ATOM     14  C   UNL     1       9.506 -11.076  24.912  1.00  0.00    -0.000 C 
BRANCH  14  15
ATOM     15  C   UNL     1       9.677 -12.170  25.977  1.00  0.00    -0.000 C 
BRANCH  15  16
ATOM     16  C   UNL     1       8.390 -12.983  26.205  1.00  0.00    -0.000 C 
BRANCH  16  17
ATOM     17  C   UNL     1       8.142 -13.272  27.701  1.00  0.00    -0.000 C 
BRANCH  17  18
ATOM     18  C   UNL     1       8.790 -12.243  28.641  1.00  0.00    -0.003 C 
ATOM     19  C   UNL     1       8.096 -12.150  29.997  1.00  0.00     0.004 C 
ENDBRANCH  17  18
ENDBRANCH  16  17
ENDBRANCH  15  16
ENDBRANCH  14  15
ENDBRANCH  13  14
ENDBRANCH  12  13
ENDBRANCH   1  12
TORSDOF 14
ENDMDL
MODEL 5
REMARK VINA RESULT:    -5.087      4.113      6.517
REMARK INTER + INTRA:         -11.184
REMARK INTER:                  -9.954
REMARK INTRA:                  -1.229
REMARK UNBOUND:                -1.934
REMARK SMILES CCCCCCCCCCCCCC[C@@H](C)C(=O)[O-]
REMARK SMILES IDX 9 1 10 2 11 3 12 4 13 5 14 6 15 7 16 8 17 9 18 10 19 11 8 12
REMARK SMILES IDX 7 13 6 14 5 15 4 16 3 17 2 18 1 19
REMARK H PARENT
REMARK Flexibility Score: inf
ROOT
ATOM      1  C   UNL     1      11.412 -12.697  25.099  1.00  0.00     0.000 C 
ENDROOT
BRANCH   1   2
ATOM      2  C   UNL     1      12.799 -12.040  25.215  1.00  0.00     0.000 C 
BRANCH   2   3
ATOM      3  C   UNL     1      13.941 -12.991  25.633  1.00  0.00     0.000 C 
BRANCH   3   4
ATOM      4  C   UNL     1      14.134 -13.162  27.150  1.00  0.00     0.000 C 
BRANCH   4   5
ATOM      5  C   UNL     1      15.612 -13.313  27.550  1.00  0.00     0.001 C 
BRANCH   5   6
ATOM      6  C   UNL     1      15.925 -12.681  28.921  1.00  0.00     0.009 C 
BRANCH   6   7
ATOM      7  C   UNL     1      16.972 -11.544  28.874  1.00  0.00     0.032 C 
ATOM      8  C   UNL     1      16.281 -10.189  28.688  1.00  0.00     0.014 C 
BRANCH   7   9
ATOM      9  C   UNL     1      17.820 -11.519  30.117  1.00  0.00     0.044 C 
ATOM     10  O   UNL     1      18.872 -10.826  30.162  1.00  0.00    -0.550 OA
ATOM     11  O   UNL     1      17.441 -12.260  31.229  1.00  0.00    -0.550 OA
ENDBRANCH   7   9
ENDBRANCH   6   7
ENDBRANCH   5   6
ENDBRANCH   4   5
ENDBRANCH   3   4
ENDBRANCH   2   3
ENDBRANCH   1   2
BRANCH   1  12
ATOM     12  C   UNL     1      10.358 -11.760  24.492  1.00  0.00     0.000 C 
BRANCH  12  13
ATOM     13  C   UNL     1       9.085 -11.740  25.347  1.00  0.00    -0.000 C 
BRANCH  13  14
ATOM     14  C   UNL     1       8.757 -13.144  25.878  1.00  0.00    -0.000 C 
BRANCH  14  15
ATOM     15  C   UNL     1       8.085 -13.113  27.259  1.00  0.00    -0.000 C 
BRANCH  15  16
ATOM     16  C   UNL     1       8.906 -12.333  28.302  1.00  0.00    -0.000 C 
BRANCH  16  17
ATOM     17  C   UNL     1      10.292 -12.966  28.544  1.00  0.00    -0.000 C 
BRANCH  17  18
ATOM     18  C   UNL     1      10.565 -13.304  30.019  1.00  0.00    -0.003 C 
ATOM     19  C   UNL     1      11.987 -13.800  30.267  1.00  0.00     0.004 C 
ENDBRANCH  17  18
ENDBRANCH  16  17
ENDBRANCH  15  16
ENDBRANCH  14  15
ENDBRANCH  13  14
ENDBRANCH  12  13
ENDBRANCH   1  12
TORSDOF 14
ENDMDL
MODEL 6
REMARK VINA RESULT:    -5.078      2.749      5.490
REMARK INTER + INTRA:         -11.168
REMARK INTER:                  -9.888
REMARK INTRA:                  -1.281
REMARK UNBOUND:                -1.934
REMARK SMILES CCCCCCCCCCCCCC[C@@H](C)C(=O)[O-]
REMARK SMILES IDX 9 1 10 2 11 3 12 4 13 5 14 6 15 7 16 8 17 9 18 10 19 11 8 12
REMARK SMILES IDX 7 13 6 14 5 15 4 16 3 17 2 18 1 19
REMARK H PARENT
REMARK Flexibility Score: inf
ROOT
ATOM      1  C   UNL     1      13.890 -12.815  25.252  1.00  0.00     0.000 C 
ENDROOT
BRANCH   1   2
ATOM      2  C   UNL     1      13.561 -14.284  24.933  1.00  0.00     0.000 C 
BRANCH   2   3
ATOM      3  C   UNL     1      14.438 -15.325  25.660  1.00  0.00     0.000 C 
BRANCH   3   4
ATOM      4  C   UNL     1      15.129 -14.823  26.940  1.00  0.00     0.000 C 
BRANCH   4   5
ATOM      5  C   UNL     1      16.657 -14.722  26.793  1.00  0.00     0.001 C 
BRANCH   5   6
ATOM      6  C   UNL     1      17.172 -15.339  25.478  1.00  0.00     0.009 C 
BRANCH   6   7
ATOM      7  C   UNL     1      17.752 -14.313  24.477  1.00  0.00     0.032 C 
ATOM      8  C   UNL     1      19.275 -14.455  24.388  1.00  0.00     0.014 C 
BRANCH   7   9
ATOM      9  C   UNL     1      17.143 -14.468  23.109  1.00  0.00     0.044 C 
ATOM     10  O   UNL     1      16.446 -15.478  22.827  1.00  0.00    -0.550 OA
ATOM     11  O   UNL     1      17.346 -13.485  22.147  1.00  0.00    -0.550 OA
ENDBRANCH   7   9
ENDBRANCH   6   7
ENDBRANCH   5   6
ENDBRANCH   4   5
ENDBRANCH   3   4
ENDBRANCH   2   3
ENDBRANCH   1   2
BRANCH   1  12
ATOM     12  C   UNL     1      12.699 -11.874  25.017  1.00  0.00     0.000 C 
BRANCH  12  13
ATOM     13  C   UNL     1      11.370 -12.628  25.146  1.00  0.00    -0.000 C 
BRANCH  13  14
ATOM     14  C   UNL     1      10.319 -12.059  24.181  1.00  0.00    -0.000 C 
BRANCH  14  15
ATOM     15  C   UNL     1       9.043 -11.596  24.900  1.00  0.00    -0.000 C 
BRANCH  15  16
ATOM     16  C   UNL     1       9.095 -11.841  26.420  1.00  0.00    -0.000 C 
BRANCH  16  17
ATOM     17  C   UNL     1       8.265 -13.072  26.840  1.00  0.00    -0.000 C 
BRANCH  17  18
ATOM     18  C   UNL     1       8.401 -13.425  28.330  1.00  0.00    -0.003 C 
ATOM     19  C   UNL     1       9.711 -12.938  28.944  1.00  0.00     0.004 C 
ENDBRANCH  17  18
ENDBRANCH  16  17
ENDBRANCH  15  16
ENDBRANCH  14  15
ENDBRANCH  13  14
ENDBRANCH  12  13
ENDBRANCH   1  12
TORSDOF 14
ENDMDL
MODEL 7
REMARK VINA RESULT:    -5.026      2.859      5.810
REMARK INTER + INTRA:         -11.074
REMARK INTER:                  -9.278
REMARK INTRA:                  -1.796
REMARK UNBOUND:                -1.934
REMARK SMILES CCCCCCCCCCCCCC[C@@H](C)C(=O)[O-]
REMARK SMILES IDX 9 1 10 2 11 3 12 4 13 5 14 6 15 7 16 8 17 9 18 10 19 11 8 12
REMARK SMILES IDX 7 13 6 14 5 15 4 16 3 17 2 18 1 19
REMARK H PARENT
REMARK Flexibility Score: inf
ROOT
ATOM      1  C   UNL     1      16.579 -11.835  26.201  1.00  0.00     0.000 C 
ENDROOT
BRANCH   1   2
ATOM      2  C   UNL     1      15.108 -11.717  25.762  1.00  0.00     0.000 C 
BRANCH   2   3
ATOM      3  C   UNL     1      14.861 -11.886  24.248  1.00  0.00     0.000 C 
BRANCH   3   4
ATOM      4  C   UNL     1      13.538 -12.575  23.870  1.00  0.00     0.000 C 
BRANCH   4   5
ATOM      5  C   UNL     1      12.583 -12.732  25.066  1.00  0.00     0.001 C 
BRANCH   5   6
ATOM      6  C   UNL     1      11.104 -12.817  24.641  1.00  0.00     0.009 C 
BRANCH   6   7
ATOM      7  C   UNL     1      10.171 -11.832  25.382  1.00  0.00     0.032 C 
ATOM      8  C   UNL     1       9.226 -11.143  24.392  1.00  0.00     0.014 C 
BRANCH   7   9
ATOM      9  C   UNL     1       9.372 -12.524  26.454  1.00  0.00     0.044 C 
ATOM     10  O   UNL     1       9.796 -12.573  27.640  1.00  0.00    -0.550 OA
ATOM     11  O   UNL     1       8.152 -13.109  26.138  1.00  0.00    -0.550 OA
ENDBRANCH   7   9
ENDBRANCH   6   7
ENDBRANCH   5   6
ENDBRANCH   4   5
ENDBRANCH   3   4
ENDBRANCH   2   3
ENDBRANCH   1   2
BRANCH   1  12
ATOM     12  C   UNL     1      16.748 -12.612  27.515  1.00  0.00     0.000 C 
BRANCH  12  13
ATOM     13  C   UNL     1      15.888 -13.882  27.514  1.00  0.00    -0.000 C 
BRANCH  13  14
ATOM     14  C   UNL     1      16.572 -15.009  26.725  1.00  0.00    -0.000 C 
BRANCH  14  15
ATOM     15  C   UNL     1      15.889 -15.288  25.378  1.00  0.00    -0.000 C 
BRANCH  15  16
ATOM     16  C   UNL     1      16.892 -15.395  24.214  1.00  0.00    -0.000 C 
BRANCH  16  17
ATOM     17  C   UNL     1      18.207 -14.643  24.509  1.00  0.00    -0.000 C 
BRANCH  17  18
ATOM     18  C   UNL     1      19.460 -15.370  23.992  1.00  0.00    -0.003 C 
ATOM     19  C   UNL     1      19.423 -16.876  24.239  1.00  0.00     0.004 C 
ENDBRANCH  17  18
ENDBRANCH  16  17
ENDBRANCH  15  16
ENDBRANCH  14  15
ENDBRANCH  13  14
ENDBRANCH  12  13
ENDBRANCH   1  12
TORSDOF 14
ENDMDL
MODEL 8
REMARK VINA RESULT:    -4.969      2.428      4.378
REMARK INTER + INTRA:         -10.970
REMARK INTER:                  -8.969
REMARK INTRA:                  -2.001
REMARK UNBOUND:                -1.934
REMARK SMILES CCCCCCCCCCCCCC[C@@H](C)C(=O)[O-]
REMARK SMILES IDX 9 1 10 2 11 3 12 4 13 5 14 6 15 7 16 8 17 9 18 10 19 11 8 12
REMARK SMILES IDX 7 13 6 14 5 15 4 16 3 17 2 18 1 19
REMARK H PARENT
REMARK Flexibility Score: inf
ROOT
ATOM      1  C   UNL     1      15.394 -13.789  23.496  1.00  0.00     0.000 C 
ENDROOT
BRANCH   1   2
ATOM      2  C   UNL     1      14.971 -12.442  24.111  1.00  0.00     0.000 C 
BRANCH   2   3
ATOM      3  C   UNL     1      13.591 -11.920  23.658  1.00  0.00     0.000 C 
BRANCH   3   4
ATOM      4  C   UNL     1      12.648 -12.982  23.065  1.00  0.00     0.000 C 
BRANCH   4   5
ATOM      5  C   UNL     1      11.379 -13.191  23.909  1.00  0.00     0.001 C 
BRANCH   5   6
ATOM      6  C   UNL     1      11.347 -12.302  25.168  1.00  0.00     0.009 C 
BRANCH   6   7
ATOM      7  C   UNL     1      10.003 -11.574  25.399  1.00  0.00     0.032 C 
ATOM      8  C   UNL     1       9.283 -11.342  24.066  1.00  0.00     0.014 C 
BRANCH   7   9
ATOM      9  C   UNL     1       9.109 -12.342  26.336  1.00  0.00     0.044 C 
ATOM     10  O   UNL     1       8.145 -13.019  25.891  1.00  0.00    -0.550 OA
ATOM     11  O   UNL     1       9.351 -12.311  27.704  1.00  0.00    -0.550 OA
ENDBRANCH   7   9
ENDBRANCH   6   7
ENDBRANCH   5   6
ENDBRANCH   4   5
ENDBRANCH   3   4
ENDBRANCH   2   3
ENDBRANCH   1   2
BRANCH   1  12
ATOM     12  C   UNL     1      15.668 -14.867  24.555  1.00  0.00     0.000 C 
BRANCH  12  13
ATOM     13  C   UNL     1      14.378 -15.257  25.288  1.00  0.00    -0.000 C 
BRANCH  13  14
ATOM     14  C   UNL     1      14.601 -15.297  26.807  1.00  0.00    -0.000 C 
BRANCH  14  15
ATOM     15  C   UNL     1      14.598 -13.899  27.444  1.00  0.00    -0.000 C 
BRANCH  15  16
ATOM     16  C   UNL     1      15.931 -13.559  28.136  1.00  0.00    -0.000 C 
BRANCH  16  17
ATOM     17  C   UNL     1      16.698 -12.440  27.400  1.00  0.00    -0.000 C 
BRANCH  17  18
ATOM     18  C   UNL     1      16.115 -11.037  27.638  1.00  0.00    -0.003 C 
ATOM     19  C   UNL     1      17.168  -9.933  27.584  1.00  0.00     0.004 C 
ENDBRANCH  17  18
ENDBRANCH  16  17
ENDBRANCH  15  16
ENDBRANCH  14  15
ENDBRANCH  13  14
ENDBRANCH  12  13
ENDBRANCH   1  12
TORSDOF 14
ENDMDL
MODEL 9
REMARK VINA RESULT:    -4.950      5.031      8.693
REMARK INTER + INTRA:         -10.936
REMARK INTER:                  -9.512
REMARK INTRA:                  -1.424
REMARK UNBOUND:                -1.934
REMARK SMILES CCCCCCCCCCCCCC[C@@H](C)C(=O)[O-]
REMARK SMILES IDX 9 1 10 2 11 3 12 4 13 5 14 6 15 7 16 8 17 9 18 10 19 11 8 12
REMARK SMILES IDX 7 13 6 14 5 15 4 16 3 17 2 18 1 19
REMARK H PARENT
REMARK Flexibility Score: inf
ROOT
ATOM      1  C   UNL     1      16.319 -15.217  24.128  1.00  0.00     0.000 C 
ENDROOT
BRANCH   1   2
ATOM      2  C   UNL     1      15.003 -15.225  24.927  1.00  0.00     0.000 C 
BRANCH   2   3
ATOM      3  C   UNL     1      15.169 -15.212  26.461  1.00  0.00     0.000 C 
BRANCH   3   4
ATOM      4  C   UNL     1      14.156 -14.340  27.225  1.00  0.00     0.000 C 
BRANCH   4   5
ATOM      5  C   UNL     1      14.831 -13.310  28.147  1.00  0.00     0.001 C 
BRANCH   5   6
ATOM      6  C   UNL     1      16.348 -13.542  28.290  1.00  0.00     0.009 C 
BRANCH   6   7
ATOM      7  C   UNL     1      17.195 -12.248  28.269  1.00  0.00     0.032 C 
ATOM      8  C   UNL     1      17.413 -11.776  26.827  1.00  0.00     0.014 C 
BRANCH   7   9
ATOM      9  C   UNL     1      16.553 -11.151  29.074  1.00  0.00     0.044 C 
ATOM     10  O   UNL     1      16.515 -11.216  30.332  1.00  0.00    -0.550 OA
ATOM     11  O   UNL     1      16.001 -10.051  28.429  1.00  0.00    -0.550 OA
ENDBRANCH   7   9
ENDBRANCH   6   7
ENDBRANCH   5   6
ENDBRANCH   4   5
ENDBRANCH   3   4
ENDBRANCH   2   3
ENDBRANCH   1   2
BRANCH   1  12
ATOM     12  C   UNL     1      17.563 -15.191  25.028  1.00  0.00     0.000 C 
BRANCH  12  13
ATOM     13  C   UNL     1      18.846 -15.284  24.192  1.00  0.00    -0.000 C 
BRANCH  13  14
ATOM     14  C   UNL     1      19.478 -16.679  24.309  1.00  0.00    -0.000 C 
BRANCH  14  15
ATOM     15  C   UNL     1      19.125 -17.591  23.124  1.00  0.00    -0.000 C 
BRANCH  15  16
ATOM     16  C   UNL     1      19.251 -16.876  21.766  1.00  0.00    -0.000 C 
BRANCH  16  17
ATOM     17  C   UNL     1      18.601 -17.682  20.622  1.00  0.00    -0.000 C 
BRANCH  17  18
ATOM     18  C   UNL     1      17.169 -17.231  20.289  1.00  0.00    -0.003 C 
ATOM     19  C   UNL     1      16.816 -17.396  18.813  1.00  0.00     0.004 C 
ENDBRANCH  17  18
ENDBRANCH  16  17
ENDBRANCH  15  16
ENDBRANCH  14  15
ENDBRANCH  13  14
ENDBRANCH  12  13
ENDBRANCH   1  12
TORSDOF 14
ENDMDL
