MODEL 1
REMARK VINA RESULT:    -4.707      0.000      0.000
REMARK INTER + INTRA:          -4.707
REMARK INTER:                  -4.707
REMARK INTRA:                   0.000
REMARK UNBOUND:                 0.000
REMARK SMILES C=C1[C@H]2CC[C@H](C2)C1(C)C
REMARK SMILES IDX 9 1 8 2 6 3 5 4 4 5 3 6 7 7 2 8 1 9 10 10
REMARK H PARENT
REMARK Flexibility Score: inf
ROOT
ATOM      1  C   UNL     1       4.216   7.553  13.710  1.00  0.00     0.016 C 
ATOM      2  C   UNL     1       5.488   7.438  12.839  1.00  0.00    -0.012 C 
ATOM      3  C   UNL     1       5.605   6.082  12.058  1.00  0.00    -0.001 C 
ATOM      4  C   UNL     1       5.351   4.875  12.994  1.00  0.00     0.005 C 
ATOM      5  C   UNL     1       6.578   4.901  13.931  1.00  0.00     0.008 C 
ATOM      6  C   UNL     1       7.430   6.043  13.349  1.00  0.00     0.015 C 
ATOM      7  C   UNL     1       7.112   5.935  11.875  1.00  0.00     0.012 C 
ATOM      8  C   UNL     1       6.738   7.338  13.681  1.00  0.00    -0.068 C 
ATOM      9  C   UNL     1       7.144   8.214  14.609  1.00  0.00     0.008 C 
ATOM     10  C   UNL     1       5.550   8.646  11.878  1.00  0.00     0.016 C 
ENDROOT
TORSDOF 0
ENDMDL
MODEL 2
REMARK VINA RESULT:    -4.489      0.892      2.708
REMARK INTER + INTRA:          -4.489
REMARK INTER:                  -4.489
REMARK INTRA:                   0.000
REMARK UNBOUND:                 0.000
REMARK SMILES C=C1[C@H]2CC[C@H](C2)C1(C)C
REMARK SMILES IDX 9 1 8 2 6 3 5 4 4 5 3 6 7 7 2 8 1 9 10 10
REMARK H PARENT
REMARK Flexibility Score: inf
ROOT
ATOM      1  C   UNL     1       5.141   8.526  11.876  1.00  0.00     0.016 C 
ATOM      2  C   UNL     1       5.277   7.553  13.070  1.00  0.00    -0.012 C 
ATOM      3  C   UNL     1       6.659   7.640  13.807  1.00  0.00    -0.001 C 
ATOM      4  C   UNL     1       7.833   7.595  12.799  1.00  0.00     0.005 C 
ATOM      5  C   UNL     1       7.763   6.151  12.254  1.00  0.00     0.008 C 
ATOM      6  C   UNL     1       6.636   5.522  13.092  1.00  0.00     0.015 C 
ATOM      7  C   UNL     1       6.801   6.246  14.409  1.00  0.00     0.012 C 
ATOM      8  C   UNL     1       5.336   6.113  12.618  1.00  0.00    -0.068 C 
ATOM      9  C   UNL     1       4.424   5.475  11.875  1.00  0.00     0.008 C 
ATOM     10  C   UNL     1       4.104   7.791  14.048  1.00  0.00     0.016 C 
ENDROOT
TORSDOF 0
ENDMDL
MODEL 3
REMARK VINA RESULT:    -4.463      0.769      2.473
REMARK INTER + INTRA:          -4.463
REMARK INTER:                  -4.463
REMARK INTRA:                   0.000
REMARK UNBOUND:                 0.000
REMARK SMILES C=C1[C@H]2CC[C@H](C2)C1(C)C
REMARK SMILES IDX 9 1 8 2 6 3 5 4 4 5 3 6 7 7 2 8 1 9 10 10
REMARK H PARENT
REMARK Flexibility Score: inf
ROOT
ATOM      1  C   UNL     1       7.037   8.251  11.984  1.00  0.00     0.016 C 
ATOM      2  C   UNL     1       6.808   7.378  13.239  1.00  0.00    -0.012 C 
ATOM      3  C   UNL     1       7.593   6.019  13.221  1.00  0.00    -0.001 C 
ATOM      4  C   UNL     1       7.398   5.280  11.875  1.00  0.00     0.005 C 
ATOM      5  C   UNL     1       5.907   4.878  11.917  1.00  0.00     0.008 C 
ATOM      6  C   UNL     1       5.466   5.337  13.318  1.00  0.00     0.015 C 
ATOM      7  C   UNL     1       6.734   5.130  14.115  1.00  0.00     0.012 C 
ATOM      8  C   UNL     1       5.399   6.840  13.300  1.00  0.00    -0.068 C 
ATOM      9  C   UNL     1       4.271   7.561  13.285  1.00  0.00     0.008 C 
ATOM     10  C   UNL     1       7.152   8.207  14.497  1.00  0.00     0.016 C 
ENDROOT
TORSDOF 0
ENDMDL
MODEL 4
REMARK VINA RESULT:    -4.406      0.926      3.282
REMARK INTER + INTRA:          -4.406
REMARK INTER:                  -4.406
REMARK INTRA:                   0.000
REMARK UNBOUND:                 0.000
REMARK SMILES C=C1[C@H]2CC[C@H](C2)C1(C)C
REMARK SMILES IDX 9 1 8 2 6 3 5 4 4 5 3 6 7 7 2 8 1 9 10 10
REMARK H PARENT
REMARK Flexibility Score: inf
ROOT
ATOM      1  C   UNL     1       6.726   4.876  14.254  1.00  0.00     0.016 C 
ATOM      2  C   UNL     1       6.840   5.663  12.929  1.00  0.00    -0.012 C 
ATOM      3  C   UNL     1       7.252   7.166  13.114  1.00  0.00    -0.001 C 
ATOM      4  C   UNL     1       6.388   7.852  14.200  1.00  0.00     0.005 C 
ATOM      5  C   UNL     1       4.989   7.900  13.548  1.00  0.00     0.008 C 
ATOM      6  C   UNL     1       5.248   7.341  12.137  1.00  0.00     0.015 C 
ATOM      7  C   UNL     1       6.655   7.826  11.875  1.00  0.00     0.012 C 
ATOM      8  C   UNL     1       5.493   5.862  12.276  1.00  0.00    -0.068 C 
ATOM      9  C   UNL     1       4.629   4.901  11.926  1.00  0.00     0.008 C 
ATOM     10  C   UNL     1       7.820   4.925  11.989  1.00  0.00     0.016 C 
ENDROOT
TORSDOF 0
ENDMDL
MODEL 5
REMARK VINA RESULT:    -4.134      1.110      2.453
REMARK INTER + INTRA:          -4.134
REMARK INTER:                  -4.134
REMARK INTRA:                   0.000
REMARK UNBOUND:                 0.000
REMARK SMILES C=C1[C@H]2CC[C@H](C2)C1(C)C
REMARK SMILES IDX 9 1 8 2 6 3 5 4 4 5 3 6 7 7 2 8 1 9 10 10
REMARK H PARENT
REMARK Flexibility Score: inf
ROOT
ATOM      1  C   UNL     1       4.200   7.245  14.136  1.00  0.00     0.016 C 
ATOM      2  C   UNL     1       5.134   7.010  12.928  1.00  0.00    -0.012 C 
ATOM      3  C   UNL     1       6.517   6.373  13.307  1.00  0.00    -0.001 C 
ATOM      4  C   UNL     1       7.171   7.122  14.494  1.00  0.00     0.005 C 
ATOM      5  C   UNL     1       7.520   8.496  13.882  1.00  0.00     0.008 C 
ATOM      6  C   UNL     1       7.127   8.325  12.404  1.00  0.00     0.015 C 
ATOM      7  C   UNL     1       7.425   6.859  12.182  1.00  0.00     0.012 C 
ATOM      8  C   UNL     1       5.624   8.310  12.335  1.00  0.00    -0.068 C 
ATOM      9  C   UNL     1       4.863   9.310  11.875  1.00  0.00     0.008 C 
ATOM     10  C   UNL     1       4.392   6.154  11.877  1.00  0.00     0.016 C 
ENDROOT
TORSDOF 0
ENDMDL
MODEL 6
REMARK VINA RESULT:    -3.938     10.320     11.897
REMARK INTER + INTRA:          -3.938
REMARK INTER:                  -3.938
REMARK INTRA:                   0.000
REMARK UNBOUND:                 0.000
REMARK SMILES C=C1[C@H]2CC[C@H](C2)C1(C)C
REMARK SMILES IDX 9 1 8 2 6 3 5 4 4 5 3 6 7 7 2 8 1 9 10 10
REMARK H PARENT
REMARK Flexibility Score: inf
ROOT
ATOM      1  C   UNL     1      -0.711  18.362  15.256  1.00  0.00     0.016 C 
ATOM      2  C   UNL     1       0.582  17.529  15.110  1.00  0.00    -0.012 C 
ATOM      3  C   UNL     1       0.340  15.978  15.079  1.00  0.00    -0.001 C 
ATOM      4  C   UNL     1      -0.588  15.535  16.236  1.00  0.00     0.005 C 
ATOM      5  C   UNL     1       0.284  15.776  17.488  1.00  0.00     0.008 C 
ATOM      6  C   UNL     1       1.630  16.220  16.889  1.00  0.00     0.015 C 
ATOM      7  C   UNL     1       1.662  15.427  15.602  1.00  0.00     0.012 C 
ATOM      8  C   UNL     1       1.447  17.611  16.345  1.00  0.00    -0.068 C 
ATOM      9  C   UNL     1       1.928  18.728  16.906  1.00  0.00     0.008 C 
ATOM     10  C   UNL     1       1.347  18.002  13.853  1.00  0.00     0.016 C 
ENDROOT
TORSDOF 0
ENDMDL
MODEL 7
REMARK VINA RESULT:    -3.887      8.860     10.829
REMARK INTER + INTRA:          -3.887
REMARK INTER:                  -3.887
REMARK INTRA:                   0.000
REMARK UNBOUND:                 0.000
REMARK SMILES C=C1[C@H]2CC[C@H](C2)C1(C)C
REMARK SMILES IDX 9 1 8 2 6 3 5 4 4 5 3 6 7 7 2 8 1 9 10 10
REMARK H PARENT
REMARK Flexibility Score: inf
ROOT
ATOM      1  C   UNL     1       0.627  13.251  17.716  1.00  0.00     0.016 C 
ATOM      2  C   UNL     1       1.434  14.550  17.497  1.00  0.00    -0.012 C 
ATOM      3  C   UNL     1       0.573  15.858  17.591  1.00  0.00    -0.001 C 
ATOM      4  C   UNL     1      -0.712  15.743  16.734  1.00  0.00     0.005 C 
ATOM      5  C   UNL     1      -0.162  15.731  15.290  1.00  0.00     0.008 C 
ATOM      6  C   UNL     1       1.347  15.950  15.495  1.00  0.00     0.015 C 
ATOM      7  C   UNL     1       1.359  16.834  16.722  1.00  0.00     0.012 C 
ATOM      8  C   UNL     1       1.914  14.681  16.071  1.00  0.00    -0.068 C 
ATOM      9  C   UNL     1       2.668  13.799  15.403  1.00  0.00     0.008 C 
ATOM     10  C   UNL     1       2.614  14.584  18.496  1.00  0.00     0.016 C 
ENDROOT
TORSDOF 0
ENDMDL
MODEL 8
REMARK VINA RESULT:    -3.881      8.294     10.070
REMARK INTER + INTRA:          -3.881
REMARK INTER:                  -3.881
REMARK INTRA:                   0.000
REMARK UNBOUND:                 0.000
REMARK SMILES C=C1[C@H]2CC[C@H](C2)C1(C)C
REMARK SMILES IDX 9 1 8 2 6 3 5 4 4 5 3 6 7 7 2 8 1 9 10 10
REMARK H PARENT
REMARK Flexibility Score: inf
ROOT
ATOM      1  C   UNL     1       0.907  13.331  18.504  1.00  0.00     0.016 C 
ATOM      2  C   UNL     1       0.393  14.252  17.374  1.00  0.00    -0.012 C 
ATOM      3  C   UNL     1       0.265  13.541  15.981  1.00  0.00    -0.001 C 
ATOM      4  C   UNL     1       1.552  12.752  15.637  1.00  0.00     0.005 C 
ATOM      5  C   UNL     1       2.593  13.871  15.418  1.00  0.00     0.008 C 
ATOM      6  C   UNL     1       1.754  15.154  15.554  1.00  0.00     0.015 C 
ATOM      7  C   UNL     1       0.421  14.701  15.003  1.00  0.00     0.012 C 
ATOM      8  C   UNL     1       1.405  15.313  17.010  1.00  0.00    -0.068 C 
ATOM      9  C   UNL     1       1.950  16.210  17.840  1.00  0.00     0.008 C 
ATOM     10  C   UNL     1      -0.951  14.879  17.809  1.00  0.00     0.016 C 
ENDROOT
TORSDOF 0
ENDMDL
MODEL 9
REMARK VINA RESULT:    -3.837      8.879     10.832
REMARK INTER + INTRA:          -3.837
REMARK INTER:                  -3.837
REMARK INTRA:                   0.000
REMARK UNBOUND:                 0.000
REMARK SMILES C=C1[C@H]2CC[C@H](C2)C1(C)C
REMARK SMILES IDX 9 1 8 2 6 3 5 4 4 5 3 6 7 7 2 8 1 9 10 10
REMARK H PARENT
REMARK Flexibility Score: inf
ROOT
ATOM      1  C   UNL     1       2.604  13.930  15.527  1.00  0.00     0.016 C 
ATOM      2  C   UNL     1       1.370  14.200  16.417  1.00  0.00    -0.012 C 
ATOM      3  C   UNL     1       0.347  15.215  15.797  1.00  0.00    -0.001 C 
ATOM      4  C   UNL     1       1.064  16.487  15.284  1.00  0.00     0.005 C 
ATOM      5  C   UNL     1       1.549  17.159  16.587  1.00  0.00     0.008 C 
ATOM      6  C   UNL     1       0.958  16.252  17.681  1.00  0.00     0.015 C 
ATOM      7  C   UNL     1      -0.330  15.799  17.032  1.00  0.00     0.012 C 
ATOM      8  C   UNL     1       1.735  14.963  17.668  1.00  0.00    -0.068 C 
ATOM      9  C   UNL     1       2.636  14.596  18.588  1.00  0.00     0.008 C 
ATOM     10  C   UNL     1       0.689  12.854  16.755  1.00  0.00     0.016 C 
ENDROOT
TORSDOF 0
ENDMDL
