MODEL 1
REMARK VINA RESULT:    -5.683      0.000      0.000
REMARK INTER + INTRA:          -6.974
REMARK INTER:                  -6.680
REMARK INTRA:                  -0.293
REMARK UNBOUND:                -0.293
REMARK SMILES O=c1cc(-c2ccc(O)c(O)c2)oc2cc(O)cc(O)c12
REMARK SMILES IDX 4 1 3 2 2 3 1 4 21 5 19 6 18 7 16 8 15 9 14 10 13 11 5 12
REMARK SMILES IDX 6 13 7 14 8 15 12 16 10 17 9 18 11 20 20 22 17 24
REMARK H PARENT 9 19 11 21 20 23 17 25
REMARK Flexibility Score: inf
ROOT
ATOM      1  C   UNL     1      35.111 -13.315  -2.096  1.00  0.00     0.138 A 
ATOM      2  C   UNL     1      33.802 -13.384  -2.599  1.00  0.00     0.100 A 
ATOM      3  C   UNL     1      33.542 -14.152  -3.735  1.00  0.00     0.197 A 
ATOM      4  O   UNL     1      32.364 -14.207  -4.180  1.00  0.00    -0.289 OA
ATOM      5  C   UNL     1      34.599 -14.843  -4.364  1.00  0.00     0.107 A 
ATOM      6  C   UNL     1      34.422 -15.643  -5.517  1.00  0.00     0.134 A 
ATOM      7  C   UNL     1      35.526 -16.294  -6.086  1.00  0.00     0.093 A 
ATOM      8  C   UNL     1      36.799 -16.161  -5.527  1.00  0.00     0.123 A 
ATOM      9  C   UNL     1      36.979 -15.371  -4.385  1.00  0.00     0.094 A 
ATOM     10  C   UNL     1      35.892 -14.714  -3.803  1.00  0.00     0.146 A 
ATOM     11  O   UNL     1      36.088 -13.971  -2.719  1.00  0.00    -0.456 OA
ENDROOT
BRANCH   1  12
ATOM     12  C   UNL     1      35.446 -12.513  -0.891  1.00  0.00     0.021 A 
ATOM     13  C   UNL     1      36.783 -12.153  -0.650  1.00  0.00     0.016 A 
ATOM     14  C   UNL     1      37.126 -11.406   0.479  1.00  0.00     0.051 A 
ATOM     15  C   UNL     1      36.143 -11.014   1.392  1.00  0.00     0.157 A 
ATOM     16  C   UNL     1      34.461 -12.126   0.038  1.00  0.00     0.062 A 
ATOM     17  C   UNL     1      34.804 -11.378   1.173  1.00  0.00     0.158 A 
BRANCH  15  18
ATOM     18  O   UNL     1      36.514 -10.266   2.509  1.00  0.00    -0.504 OA
ATOM     19  H   UNL     1      37.483 -10.150   2.782  1.00  0.00     0.293 HD
ENDBRANCH  15  18
BRANCH  17  20
ATOM     20  O   UNL     1      33.821 -10.998   2.086  1.00  0.00    -0.504 OA
ATOM     21  H   UNL     1      34.059 -10.595   2.986  1.00  0.00     0.293 HD
ENDBRANCH  17  20
ENDBRANCH   1  12
BRANCH   6  22
ATOM     22  O   UNL     1      33.164 -15.795  -6.099  1.00  0.00    -0.507 OA
ATOM     23  H   UNL     1      32.743 -15.061  -6.659  1.00  0.00     0.293 HD
ENDBRANCH   6  22
BRANCH   8  24
ATOM     24  O   UNL     1      37.879 -16.818  -6.111  1.00  0.00    -0.508 OA
ATOM     25  H   UNL     1      38.329 -17.606  -5.659  1.00  0.00     0.293 HD
ENDBRANCH   8  24
TORSDOF 5
ENDMDL
MODEL 2
REMARK VINA RESULT:    -5.673      1.678      7.002
REMARK INTER + INTRA:          -6.961
REMARK INTER:                  -6.644
REMARK INTRA:                  -0.317
REMARK UNBOUND:                -0.293
REMARK SMILES O=c1cc(-c2ccc(O)c(O)c2)oc2cc(O)cc(O)c12
REMARK SMILES IDX 4 1 3 2 2 3 1 4 21 5 19 6 18 7 16 8 15 9 14 10 13 11 5 12
REMARK SMILES IDX 6 13 7 14 8 15 12 16 10 17 9 18 11 20 20 22 17 24
REMARK H PARENT 9 19 11 21 20 23 17 25
REMARK Flexibility Score: inf
ROOT
ATOM      1  C   UNL     1      35.050 -13.795  -1.804  1.00  0.00     0.138 A 
ATOM      2  C   UNL     1      33.820 -13.789  -1.127  1.00  0.00     0.100 A 
ATOM      3  C   UNL     1      33.621 -12.897  -0.071  1.00  0.00     0.197 A 
ATOM      4  O   UNL     1      32.514 -12.900   0.532  1.00  0.00    -0.289 OA
ATOM      5  C   UNL     1      34.660 -12.020   0.304  1.00  0.00     0.107 A 
ATOM      6  C   UNL     1      34.541 -11.086   1.359  1.00  0.00     0.134 A 
ATOM      7  C   UNL     1      35.624 -10.252   1.673  1.00  0.00     0.093 A 
ATOM      8  C   UNL     1      36.819 -10.333   0.954  1.00  0.00     0.123 A 
ATOM      9  C   UNL     1      36.941 -11.255  -0.092  1.00  0.00     0.094 A 
ATOM     10  C   UNL     1      35.874 -12.095  -0.420  1.00  0.00     0.146 A 
ATOM     11  O   UNL     1      36.014 -12.961  -1.418  1.00  0.00    -0.456 OA
ENDROOT
BRANCH   1  12
ATOM     12  C   UNL     1      35.319 -14.722  -2.933  1.00  0.00     0.021 A 
ATOM     13  C   UNL     1      34.396 -15.741  -3.225  1.00  0.00     0.016 A 
ATOM     14  C   UNL     1      34.628 -16.629  -4.277  1.00  0.00     0.051 A 
ATOM     15  C   UNL     1      35.789 -16.524  -5.048  1.00  0.00     0.157 A 
ATOM     16  C   UNL     1      36.493 -14.627  -3.705  1.00  0.00     0.062 A 
ATOM     17  C   UNL     1      36.728 -15.521  -4.760  1.00  0.00     0.158 A 
BRANCH  15  18
ATOM     18  O   UNL     1      35.993 -17.425  -6.093  1.00  0.00    -0.504 OA
ATOM     19  H   UNL     1      35.996 -18.427  -5.948  1.00  0.00     0.293 HD
ENDBRANCH  15  18
BRANCH  17  20
ATOM     20  O   UNL     1      37.893 -15.418  -5.520  1.00  0.00    -0.504 OA
ATOM     21  H   UNL     1      38.255 -14.518  -5.816  1.00  0.00     0.293 HD
ENDBRANCH  17  20
ENDBRANCH   1  12
BRANCH   6  22
ATOM     22  O   UNL     1      33.361 -10.982   2.096  1.00  0.00    -0.507 OA
ATOM     23  H   UNL     1      33.051 -11.724   2.713  1.00  0.00     0.293 HD
ENDBRANCH   6  22
BRANCH   8  24
ATOM     24  O   UNL     1      37.879  -9.492   1.286  1.00  0.00    -0.508 OA
ATOM     25  H   UNL     1      37.723  -8.552   1.629  1.00  0.00     0.293 HD
ENDBRANCH   8  24
TORSDOF 5
ENDMDL
MODEL 3
REMARK VINA RESULT:    -5.579      2.335      7.627
REMARK INTER + INTRA:          -6.851
REMARK INTER:                  -6.587
REMARK INTRA:                  -0.264
REMARK UNBOUND:                -0.293
REMARK SMILES O=c1cc(-c2ccc(O)c(O)c2)oc2cc(O)cc(O)c12
REMARK SMILES IDX 4 1 3 2 2 3 1 4 21 5 19 6 18 7 16 8 15 9 14 10 13 11 5 12
REMARK SMILES IDX 6 13 7 14 8 15 12 16 10 17 9 18 11 20 20 22 17 24
REMARK H PARENT 9 19 11 21 20 23 17 25
REMARK Flexibility Score: inf
ROOT
ATOM      1  C   UNL     1      34.226 -12.384   0.233  1.00  0.00     0.138 A 
ATOM      2  C   UNL     1      32.997 -11.841   0.641  1.00  0.00     0.100 A 
ATOM      3  C   UNL     1      32.983 -10.725   1.479  1.00  0.00     0.197 A 
ATOM      4  O   UNL     1      31.875 -10.245   1.841  1.00  0.00    -0.289 OA
ATOM      5  C   UNL     1      34.203 -10.162   1.908  1.00  0.00     0.107 A 
ATOM      6  C   UNL     1      34.278  -9.032   2.755  1.00  0.00     0.134 A 
ATOM      7  C   UNL     1      35.532  -8.536   3.141  1.00  0.00     0.093 A 
ATOM      8  C   UNL     1      36.708  -9.146   2.698  1.00  0.00     0.123 A 
ATOM      9  C   UNL     1      36.639 -10.264   1.859  1.00  0.00     0.094 A 
ATOM     10  C   UNL     1      35.399 -10.773   1.463  1.00  0.00     0.146 A 
ATOM     11  O   UNL     1      35.360 -11.835   0.664  1.00  0.00    -0.456 OA
ENDROOT
BRANCH   1  12
ATOM     12  C   UNL     1      34.302 -13.571  -0.656  1.00  0.00     0.021 A 
ATOM     13  C   UNL     1      34.031 -14.847  -0.132  1.00  0.00     0.016 A 
ATOM     14  C   UNL     1      34.102 -15.980  -0.946  1.00  0.00     0.051 A 
ATOM     15  C   UNL     1      34.455 -15.861  -2.293  1.00  0.00     0.157 A 
ATOM     16  C   UNL     1      34.669 -13.458  -2.011  1.00  0.00     0.062 A 
ATOM     17  C   UNL     1      34.743 -14.596  -2.829  1.00  0.00     0.158 A 
BRANCH  15  18
ATOM     18  O   UNL     1      34.516 -17.010  -3.081  1.00  0.00    -0.504 OA
ATOM     19  H   UNL     1      33.694 -17.562  -3.294  1.00  0.00     0.293 HD
ENDBRANCH  15  18
BRANCH  17  20
ATOM     20  O   UNL     1      35.105 -14.473  -4.170  1.00  0.00    -0.504 OA
ATOM     21  H   UNL     1      35.756 -13.761  -4.481  1.00  0.00     0.293 HD
ENDBRANCH  17  20
ENDBRANCH   1  12
BRANCH   6  22
ATOM     22  O   UNL     1      33.122  -8.401   3.215  1.00  0.00    -0.507 OA
ATOM     23  H   UNL     1      32.199  -8.780   3.032  1.00  0.00     0.293 HD
ENDBRANCH   6  22
BRANCH   8  24
ATOM     24  O   UNL     1      37.940  -8.633   3.095  1.00  0.00    -0.508 OA
ATOM     25  H   UNL     1      38.287  -8.757   4.039  1.00  0.00     0.293 HD
ENDBRANCH   8  24
TORSDOF 5
ENDMDL
MODEL 4
REMARK VINA RESULT:    -5.339      1.851      7.449
REMARK INTER + INTRA:          -6.568
REMARK INTER:                  -6.283
REMARK INTRA:                  -0.285
REMARK UNBOUND:                -0.293
REMARK SMILES O=c1cc(-c2ccc(O)c(O)c2)oc2cc(O)cc(O)c12
REMARK SMILES IDX 4 1 3 2 2 3 1 4 21 5 19 6 18 7 16 8 15 9 14 10 13 11 5 12
REMARK SMILES IDX 6 13 7 14 8 15 12 16 10 17 9 18 11 20 20 22 17 24
REMARK H PARENT 9 19 11 21 20 23 17 25
REMARK Flexibility Score: inf
ROOT
ATOM      1  C   UNL     1      36.582 -12.922  -2.448  1.00  0.00     0.138 A 
ATOM      2  C   UNL     1      37.409 -11.864  -2.859  1.00  0.00     0.100 A 
ATOM      3  C   UNL     1      37.672 -10.815  -1.977  1.00  0.00     0.197 A 
ATOM      4  O   UNL     1      38.414  -9.869  -2.356  1.00  0.00    -0.289 OA
ATOM      5  C   UNL     1      37.100 -10.830  -0.688  1.00  0.00     0.107 A 
ATOM      6  C   UNL     1      37.316  -9.809   0.266  1.00  0.00     0.134 A 
ATOM      7  C   UNL     1      36.706  -9.895   1.526  1.00  0.00     0.093 A 
ATOM      8  C   UNL     1      35.886 -10.979   1.849  1.00  0.00     0.123 A 
ATOM      9  C   UNL     1      35.670 -11.993   0.908  1.00  0.00     0.094 A 
ATOM     10  C   UNL     1      36.269 -11.925  -0.353  1.00  0.00     0.146 A 
ATOM     11  O   UNL     1      36.050 -12.901  -1.228  1.00  0.00    -0.456 OA
ENDROOT
BRANCH   1  12
ATOM     12  C   UNL     1      36.266 -14.064  -3.344  1.00  0.00     0.021 A 
ATOM     13  C   UNL     1      34.998 -14.666  -3.277  1.00  0.00     0.016 A 
ATOM     14  C   UNL     1      34.679 -15.745  -4.103  1.00  0.00     0.051 A 
ATOM     15  C   UNL     1      35.622 -16.250  -5.003  1.00  0.00     0.157 A 
ATOM     16  C   UNL     1      37.217 -14.584  -4.243  1.00  0.00     0.062 A 
ATOM     17  C   UNL     1      36.899 -15.670  -5.072  1.00  0.00     0.158 A 
BRANCH  15  18
ATOM     18  O   UNL     1      35.274 -17.327  -5.817  1.00  0.00    -0.504 OA
ATOM     19  H   UNL     1      35.390 -17.303  -6.822  1.00  0.00     0.293 HD
ENDBRANCH  15  18
BRANCH  17  20
ATOM     20  O   UNL     1      37.847 -16.176  -5.960  1.00  0.00    -0.504 OA
ATOM     21  H   UNL     1      38.823 -16.262  -5.702  1.00  0.00     0.293 HD
ENDBRANCH  17  20
ENDBRANCH   1  12
BRANCH   6  22
ATOM     22  O   UNL     1      38.128  -8.713  -0.027  1.00  0.00    -0.507 OA
ATOM     23  H   UNL     1      38.997  -8.815  -0.539  1.00  0.00     0.293 HD
ENDBRANCH   6  22
BRANCH   8  24
ATOM     24  O   UNL     1      35.293 -11.041   3.107  1.00  0.00    -0.508 OA
ATOM     25  H   UNL     1      35.443 -10.318   3.801  1.00  0.00     0.293 HD
ENDBRANCH   8  24
TORSDOF 5
ENDMDL
MODEL 5
REMARK VINA RESULT:    -5.329      1.703      3.019
REMARK INTER + INTRA:          -6.557
REMARK INTER:                  -6.261
REMARK INTRA:                  -0.296
REMARK UNBOUND:                -0.293
REMARK SMILES O=c1cc(-c2ccc(O)c(O)c2)oc2cc(O)cc(O)c12
REMARK SMILES IDX 4 1 3 2 2 3 1 4 21 5 19 6 18 7 16 8 15 9 14 10 13 11 5 12
REMARK SMILES IDX 6 13 7 14 8 15 12 16 10 17 9 18 11 20 20 22 17 24
REMARK H PARENT 9 19 11 21 20 23 17 25
REMARK Flexibility Score: inf
ROOT
ATOM      1  C   UNL     1      35.379 -13.446  -2.306  1.00  0.00     0.138 A 
ATOM      2  C   UNL     1      36.518 -12.794  -2.806  1.00  0.00     0.100 A 
ATOM      3  C   UNL     1      37.212 -13.351  -3.882  1.00  0.00     0.197 A 
ATOM      4  O   UNL     1      38.234 -12.760  -4.323  1.00  0.00    -0.289 OA
ATOM      5  C   UNL     1      36.762 -14.562  -4.447  1.00  0.00     0.107 A 
ATOM      6  C   UNL     1      37.404 -15.192  -5.538  1.00  0.00     0.134 A 
ATOM      7  C   UNL     1      36.896 -16.400  -6.040  1.00  0.00     0.093 A 
ATOM      8  C   UNL     1      35.762 -16.987  -5.474  1.00  0.00     0.123 A 
ATOM      9  C   UNL     1      35.122 -16.366  -4.395  1.00  0.00     0.094 A 
ATOM     10  C   UNL     1      35.613 -15.163  -3.880  1.00  0.00     0.146 A 
ATOM     11  O   UNL     1      34.987 -14.593  -2.856  1.00  0.00    -0.456 OA
ENDROOT
BRANCH   1  12
ATOM     12  C   UNL     1      34.603 -12.900  -1.163  1.00  0.00     0.021 A 
ATOM     13  C   UNL     1      33.375 -13.490  -0.817  1.00  0.00     0.016 A 
ATOM     14  C   UNL     1      32.623 -12.991   0.249  1.00  0.00     0.051 A 
ATOM     15  C   UNL     1      33.077 -11.891   0.981  1.00  0.00     0.157 A 
ATOM     16  C   UNL     1      35.051 -11.784  -0.431  1.00  0.00     0.062 A 
ATOM     17  C   UNL     1      34.294 -11.281   0.638  1.00  0.00     0.158 A 
BRANCH  15  18
ATOM     18  O   UNL     1      32.305 -11.417   2.041  1.00  0.00    -0.504 OA
ATOM     19  H   UNL     1      31.895 -10.491   2.037  1.00  0.00     0.293 HD
ENDBRANCH  15  18
BRANCH  17  20
ATOM     20  O   UNL     1      34.747 -10.176   1.359  1.00  0.00    -0.504 OA
ATOM     21  H   UNL     1      34.392  -9.965   2.285  1.00  0.00     0.293 HD
ENDBRANCH  17  20
ENDBRANCH   1  12
BRANCH   6  22
ATOM     22  O   UNL     1      38.539 -14.632  -6.125  1.00  0.00    -0.507 OA
ATOM     23  H   UNL     1      38.833 -14.880  -7.062  1.00  0.00     0.293 HD
ENDBRANCH   6  22
BRANCH   8  24
ATOM     24  O   UNL     1      35.278 -18.186  -5.991  1.00  0.00    -0.508 OA
ATOM     25  H   UNL     1      35.615 -19.081  -5.659  1.00  0.00     0.293 HD
ENDBRANCH   8  24
TORSDOF 5
ENDMDL
MODEL 6
REMARK VINA RESULT:    -5.322      2.473      4.100
REMARK INTER + INTRA:          -6.548
REMARK INTER:                  -6.284
REMARK INTRA:                  -0.264
REMARK UNBOUND:                -0.293
REMARK SMILES O=c1cc(-c2ccc(O)c(O)c2)oc2cc(O)cc(O)c12
REMARK SMILES IDX 4 1 3 2 2 3 1 4 21 5 19 6 18 7 16 8 15 9 14 10 13 11 5 12
REMARK SMILES IDX 6 13 7 14 8 15 12 16 10 17 9 18 11 20 20 22 17 24
REMARK H PARENT 9 19 11 21 20 23 17 25
REMARK Flexibility Score: inf
ROOT
ATOM      1  C   UNL     1      34.728 -11.687   0.365  1.00  0.00     0.138 A 
ATOM      2  C   UNL     1      35.646 -11.261  -0.608  1.00  0.00     0.100 A 
ATOM      3  C   UNL     1      35.997 -12.125  -1.646  1.00  0.00     0.197 A 
ATOM      4  O   UNL     1      36.823 -11.734  -2.515  1.00  0.00    -0.289 OA
ATOM      5  C   UNL     1      35.430 -13.415  -1.700  1.00  0.00     0.107 A 
ATOM      6  C   UNL     1      35.731 -14.351  -2.717  1.00  0.00     0.134 A 
ATOM      7  C   UNL     1      35.127 -15.617  -2.696  1.00  0.00     0.093 A 
ATOM      8  C   UNL     1      34.232 -15.964  -1.680  1.00  0.00     0.123 A 
ATOM      9  C   UNL     1      33.931 -15.041  -0.672  1.00  0.00     0.094 A 
ATOM     10  C   UNL     1      34.522 -13.774  -0.676  1.00  0.00     0.146 A 
ATOM     11  O   UNL     1      34.218 -12.915   0.291  1.00  0.00    -0.456 OA
ENDROOT
BRANCH   1  12
ATOM     12  C   UNL     1      34.318 -10.811   1.492  1.00  0.00     0.021 A 
ATOM     13  C   UNL     1      33.061 -10.183   1.459  1.00  0.00     0.016 A 
ATOM     14  C   UNL     1      32.655  -9.349   2.503  1.00  0.00     0.051 A 
ATOM     15  C   UNL     1      33.498  -9.119   3.593  1.00  0.00     0.157 A 
ATOM     16  C   UNL     1      35.169 -10.567   2.587  1.00  0.00     0.062 A 
ATOM     17  C   UNL     1      34.763  -9.727   3.635  1.00  0.00     0.158 A 
BRANCH  15  18
ATOM     18  O   UNL     1      33.065  -8.283   4.621  1.00  0.00    -0.504 OA
ATOM     19  H   UNL     1      33.044  -8.584   5.588  1.00  0.00     0.293 HD
ENDBRANCH  15  18
BRANCH  17  20
ATOM     20  O   UNL     1      35.613  -9.493   4.715  1.00  0.00    -0.504 OA
ATOM     21  H   UNL     1      35.675  -8.581   5.154  1.00  0.00     0.293 HD
ENDBRANCH  17  20
ENDBRANCH   1  12
BRANCH   6  22
ATOM     22  O   UNL     1      36.621 -14.034  -3.743  1.00  0.00    -0.507 OA
ATOM     23  H   UNL     1      37.194 -14.742  -4.189  1.00  0.00     0.293 HD
ENDBRANCH   6  22
BRANCH   8  24
ATOM     24  O   UNL     1      33.647 -17.227  -1.683  1.00  0.00    -0.508 OA
ATOM     25  H   UNL     1      33.420 -17.705  -2.547  1.00  0.00     0.293 HD
ENDBRANCH   8  24
TORSDOF 5
ENDMDL
MODEL 7
REMARK VINA RESULT:    -5.312      1.639      2.301
REMARK INTER + INTRA:          -6.536
REMARK INTER:                  -6.244
REMARK INTRA:                  -0.292
REMARK UNBOUND:                -0.293
REMARK SMILES O=c1cc(-c2ccc(O)c(O)c2)oc2cc(O)cc(O)c12
REMARK SMILES IDX 4 1 3 2 2 3 1 4 21 5 19 6 18 7 16 8 15 9 14 10 13 11 5 12
REMARK SMILES IDX 6 13 7 14 8 15 12 16 10 17 9 18 11 20 20 22 17 24
REMARK H PARENT 9 19 11 21 20 23 17 25
REMARK Flexibility Score: inf
ROOT
ATOM      1  C   UNL     1      34.972 -13.239  -1.246  1.00  0.00     0.138 A 
ATOM      2  C   UNL     1      34.203 -14.391  -1.475  1.00  0.00     0.100 A 
ATOM      3  C   UNL     1      34.533 -15.238  -2.534  1.00  0.00     0.197 A 
ATOM      4  O   UNL     1      33.836 -16.270  -2.733  1.00  0.00    -0.289 OA
ATOM      5  C   UNL     1      35.630 -14.922  -3.362  1.00  0.00     0.107 A 
ATOM      6  C   UNL     1      36.032 -15.725  -4.454  1.00  0.00     0.134 A 
ATOM      7  C   UNL     1      37.133 -15.338  -5.233  1.00  0.00     0.093 A 
ATOM      8  C   UNL     1      37.836 -14.167  -4.942  1.00  0.00     0.123 A 
ATOM      9  C   UNL     1      37.442 -13.368  -3.862  1.00  0.00     0.094 A 
ATOM     10  C   UNL     1      36.349 -13.737  -3.073  1.00  0.00     0.146 A 
ATOM     11  O   UNL     1      35.995 -12.964  -2.052  1.00  0.00    -0.456 OA
ENDROOT
BRANCH   1  12
ATOM     12  C   UNL     1      34.667 -12.301  -0.136  1.00  0.00     0.021 A 
ATOM     13  C   UNL     1      33.339 -11.899   0.085  1.00  0.00     0.016 A 
ATOM     14  C   UNL     1      33.027 -11.012   1.118  1.00  0.00     0.051 A 
ATOM     15  C   UNL     1      34.035 -10.504   1.942  1.00  0.00     0.157 A 
ATOM     16  C   UNL     1      35.681 -11.777   0.690  1.00  0.00     0.062 A 
ATOM     17  C   UNL     1      35.369 -10.885   1.726  1.00  0.00     0.158 A 
BRANCH  15  18
ATOM     18  O   UNL     1      33.692  -9.622   2.967  1.00  0.00    -0.504 OA
ATOM     19  H   UNL     1      33.663  -8.620   2.827  1.00  0.00     0.293 HD
ENDBRANCH  15  18
BRANCH  17  20
ATOM     20  O   UNL     1      36.379 -10.373   2.539  1.00  0.00    -0.504 OA
ATOM     21  H   UNL     1      36.386  -9.402   2.830  1.00  0.00     0.293 HD
ENDBRANCH  17  20
ENDBRANCH   1  12
BRANCH   6  22
ATOM     22  O   UNL     1      35.350 -16.900  -4.771  1.00  0.00    -0.507 OA
ATOM     23  H   UNL     1      35.251 -17.656  -4.103  1.00  0.00     0.293 HD
ENDBRANCH   6  22
BRANCH   8  24
ATOM     24  O   UNL     1      38.925 -13.805  -5.731  1.00  0.00    -0.508 OA
ATOM     25  H   UNL     1      38.991 -14.082  -6.703  1.00  0.00     0.293 HD
ENDBRANCH   8  24
TORSDOF 5
ENDMDL
MODEL 8
REMARK VINA RESULT:    -5.162      2.010      3.054
REMARK INTER + INTRA:          -6.360
REMARK INTER:                  -6.042
REMARK INTRA:                  -0.318
REMARK UNBOUND:                -0.293
REMARK SMILES O=c1cc(-c2ccc(O)c(O)c2)oc2cc(O)cc(O)c12
REMARK SMILES IDX 4 1 3 2 2 3 1 4 21 5 19 6 18 7 16 8 15 9 14 10 13 11 5 12
REMARK SMILES IDX 6 13 7 14 8 15 12 16 10 17 9 18 11 20 20 22 17 24
REMARK H PARENT 9 19 11 21 20 23 17 25
REMARK Flexibility Score: inf
ROOT
ATOM      1  C   UNL     1      36.202 -12.153  -0.888  1.00  0.00     0.138 A 
ATOM      2  C   UNL     1      36.853 -11.966  -2.118  1.00  0.00     0.100 A 
ATOM      3  C   UNL     1      36.708 -12.922  -3.124  1.00  0.00     0.197 A 
ATOM      4  O   UNL     1      37.298 -12.746  -4.225  1.00  0.00    -0.289 OA
ATOM      5  C   UNL     1      35.916 -14.064  -2.889  1.00  0.00     0.107 A 
ATOM      6  C   UNL     1      35.716 -15.079  -3.854  1.00  0.00     0.134 A 
ATOM      7  C   UNL     1      34.916 -16.188  -3.540  1.00  0.00     0.093 A 
ATOM      8  C   UNL     1      34.315 -16.301  -2.284  1.00  0.00     0.123 A 
ATOM      9  C   UNL     1      34.508 -15.299  -1.327  1.00  0.00     0.094 A 
ATOM     10  C   UNL     1      35.301 -14.186  -1.620  1.00  0.00     0.146 A 
ATOM     11  O   UNL     1      35.469 -13.248  -0.695  1.00  0.00    -0.456 OA
ENDROOT
BRANCH   1  12
ATOM     12  C   UNL     1      36.320 -11.170   0.219  1.00  0.00     0.021 A 
ATOM     13  C   UNL     1      37.111 -10.022   0.043  1.00  0.00     0.016 A 
ATOM     14  C   UNL     1      37.245  -9.085   1.070  1.00  0.00     0.051 A 
ATOM     15  C   UNL     1      36.601  -9.283   2.295  1.00  0.00     0.157 A 
ATOM     16  C   UNL     1      35.683 -11.371   1.459  1.00  0.00     0.062 A 
ATOM     17  C   UNL     1      35.819 -10.433   2.493  1.00  0.00     0.158 A 
BRANCH  15  18
ATOM     18  O   UNL     1      36.752  -8.330   3.301  1.00  0.00    -0.504 OA
ATOM     19  H   UNL     1      36.337  -7.408   3.237  1.00  0.00     0.293 HD
ENDBRANCH  15  18
BRANCH  17  20
ATOM     20  O   UNL     1      35.183 -10.640   3.716  1.00  0.00    -0.504 OA
ATOM     21  H   UNL     1      34.848 -11.556   3.992  1.00  0.00     0.293 HD
ENDBRANCH  17  20
ENDBRANCH   1  12
BRANCH   6  22
ATOM     22  O   UNL     1      36.304 -14.996  -5.116  1.00  0.00    -0.507 OA
ATOM     23  H   UNL     1      36.633 -15.820  -5.607  1.00  0.00     0.293 HD
ENDBRANCH   6  22
BRANCH   8  24
ATOM     24  O   UNL     1      33.525 -17.412  -1.998  1.00  0.00    -0.508 OA
ATOM     25  H   UNL     1      33.333 -17.695  -1.045  1.00  0.00     0.293 HD
ENDBRANCH   8  24
TORSDOF 5
ENDMDL
MODEL 9
REMARK VINA RESULT:    -5.148      2.569      3.554
REMARK INTER + INTRA:          -6.345
REMARK INTER:                  -6.075
REMARK INTRA:                  -0.270
REMARK UNBOUND:                -0.293
REMARK SMILES O=c1cc(-c2ccc(O)c(O)c2)oc2cc(O)cc(O)c12
REMARK SMILES IDX 4 1 3 2 2 3 1 4 21 5 19 6 18 7 16 8 15 9 14 10 13 11 5 12
REMARK SMILES IDX 6 13 7 14 8 15 12 16 10 17 9 18 11 20 20 22 17 24
REMARK H PARENT 9 19 11 21 20 23 17 25
REMARK Flexibility Score: inf
ROOT
ATOM      1  C   UNL     1      33.468 -11.714  -0.102  1.00  0.00     0.138 A 
ATOM      2  C   UNL     1      32.891 -11.100  -1.225  1.00  0.00     0.100 A 
ATOM      3  C   UNL     1      32.731 -11.833  -2.402  1.00  0.00     0.197 A 
ATOM      4  O   UNL     1      32.213 -11.274  -3.406  1.00  0.00    -0.289 OA
ATOM      5  C   UNL     1      33.156 -13.177  -2.448  1.00  0.00     0.107 A 
ATOM      6  C   UNL     1      33.029 -13.990  -3.598  1.00  0.00     0.134 A 
ATOM      7  C   UNL     1      33.482 -15.317  -3.564  1.00  0.00     0.093 A 
ATOM      8  C   UNL     1      34.057 -15.845  -2.405  1.00  0.00     0.123 A 
ATOM      9  C   UNL     1      34.183 -15.045  -1.264  1.00  0.00     0.094 A 
ATOM     10  C   UNL     1      33.738 -13.720  -1.278  1.00  0.00     0.146 A 
ATOM     11  O   UNL     1      33.868 -12.981  -0.181  1.00  0.00    -0.456 OA
ENDROOT
BRANCH   1  12
ATOM     12  C   UNL     1      33.665 -10.983   1.176  1.00  0.00     0.021 A 
ATOM     13  C   UNL     1      32.546 -10.627   1.949  1.00  0.00     0.016 A 
ATOM     14  C   UNL     1      32.703  -9.933   3.150  1.00  0.00     0.051 A 
ATOM     15  C   UNL     1      33.977  -9.573   3.597  1.00  0.00     0.157 A 
ATOM     16  C   UNL     1      34.946 -10.607   1.624  1.00  0.00     0.062 A 
ATOM     17  C   UNL     1      35.104  -9.908   2.830  1.00  0.00     0.158 A 
BRANCH  15  18
ATOM     18  O   UNL     1      34.103  -8.882   4.802  1.00  0.00    -0.504 OA
ATOM     19  H   UNL     1      33.507  -9.074   5.598  1.00  0.00     0.293 HD
ENDBRANCH  15  18
BRANCH  17  20
ATOM     20  O   UNL     1      36.377  -9.542   3.266  1.00  0.00    -0.504 OA
ATOM     21  H   UNL     1      36.564  -8.619   3.642  1.00  0.00     0.293 HD
ENDBRANCH  17  20
ENDBRANCH   1  12
BRANCH   6  22
ATOM     22  O   UNL     1      32.461 -13.491  -4.770  1.00  0.00    -0.507 OA
ATOM     23  H   UNL     1      32.784 -12.630  -5.195  1.00  0.00     0.293 HD
ENDBRANCH   6  22
BRANCH   8  24
ATOM     24  O   UNL     1      34.498 -17.166  -2.397  1.00  0.00    -0.508 OA
ATOM     25  H   UNL     1      34.989 -17.557  -1.602  1.00  0.00     0.293 HD
ENDBRANCH   8  24
TORSDOF 5
ENDMDL
