MODEL 1
REMARK VINA RESULT:    -4.474      0.000      0.000
REMARK INTER + INTRA:          -9.985
REMARK INTER:                  -8.135
REMARK INTRA:                  -1.850
REMARK UNBOUND:                -1.850
REMARK SMILES CCCCCCCCCCCCCC[C@@H](C)C(=O)[O-]
REMARK SMILES IDX 9 1 10 2 11 3 12 4 13 5 14 6 15 7 16 8 17 9 18 10 19 11 8 12
REMARK SMILES IDX 7 13 6 14 5 15 4 16 3 17 2 18 1 19
REMARK H PARENT
REMARK Flexibility Score: inf
ROOT
ATOM      1  C   UNL     1      58.143  34.098  76.043  1.00  0.00     0.000 C 
ENDROOT
BRANCH   1   2
ATOM      2  C   UNL     1      57.413  34.122  77.396  1.00  0.00     0.000 C 
BRANCH   2   3
ATOM      3  C   UNL     1      58.008  33.127  78.409  1.00  0.00     0.000 C 
BRANCH   3   4
ATOM      4  C   UNL     1      57.853  33.605  79.861  1.00  0.00     0.000 C 
BRANCH   4   5
ATOM      5  C   UNL     1      59.052  34.444  80.336  1.00  0.00     0.001 C 
BRANCH   5   6
ATOM      6  C   UNL     1      58.626  35.739  81.054  1.00  0.00     0.009 C 
BRANCH   6   7
ATOM      7  C   UNL     1      58.534  36.974  80.130  1.00  0.00     0.032 C 
ATOM      8  C   UNL     1      59.391  36.772  78.876  1.00  0.00     0.014 C 
BRANCH   7   9
ATOM      9  C   UNL     1      57.111  37.269  79.737  1.00  0.00     0.044 C 
ATOM     10  O   UNL     1      56.227  37.446  80.617  1.00  0.00    -0.550 OA
ATOM     11  O   UNL     1      56.768  37.356  78.394  1.00  0.00    -0.550 OA
ENDBRANCH   7   9
ENDBRANCH   6   7
ENDBRANCH   5   6
ENDBRANCH   4   5
ENDBRANCH   3   4
ENDBRANCH   2   3
ENDBRANCH   1   2
BRANCH   1  12
ATOM     12  C   UNL     1      57.693  32.927  75.152  1.00  0.00     0.000 C 
BRANCH  12  13
ATOM     13  C   UNL     1      58.878  32.160  74.543  1.00  0.00    -0.000 C 
BRANCH  13  14
ATOM     14  C   UNL     1      59.812  31.568  75.609  1.00  0.00    -0.000 C 
BRANCH  14  15
ATOM     15  C   UNL     1      59.157  30.369  76.308  1.00  0.00    -0.000 C 
BRANCH  15  16
ATOM     16  C   UNL     1      58.896  29.229  75.311  1.00  0.00    -0.000 C 
BRANCH  16  17
ATOM     17  C   UNL     1      57.550  28.528  75.554  1.00  0.00    -0.000 C 
BRANCH  17  18
ATOM     18  C   UNL     1      56.365  29.504  75.545  1.00  0.00    -0.003 C 
ATOM     19  C   UNL     1      55.841  29.717  74.127  1.00  0.00     0.004 C 
ENDBRANCH  17  18
ENDBRANCH  16  17
ENDBRANCH  15  16
ENDBRANCH  14  15
ENDBRANCH  13  14
ENDBRANCH  12  13
ENDBRANCH   1  12
TORSDOF 14
ENDMDL
MODEL 2
REMARK VINA RESULT:    -4.306      3.340      7.367
REMARK INTER + INTRA:          -9.679
REMARK INTER:                  -8.006
REMARK INTRA:                  -1.673
REMARK UNBOUND:                -1.850
REMARK SMILES CCCCCCCCCCCCCC[C@@H](C)C(=O)[O-]
REMARK SMILES IDX 9 1 10 2 11 3 12 4 13 5 14 6 15 7 16 8 17 9 18 10 19 11 8 12
REMARK SMILES IDX 7 13 6 14 5 15 4 16 3 17 2 18 1 19
REMARK H PARENT
REMARK Flexibility Score: inf
ROOT
ATOM      1  C   UNL     1      58.441  34.187  80.659  1.00  0.00     0.000 C 
ENDROOT
BRANCH   1   2
ATOM      2  C   UNL     1      58.976  33.807  79.269  1.00  0.00     0.000 C 
BRANCH   2   3
ATOM      3  C   UNL     1      57.960  33.000  78.441  1.00  0.00     0.000 C 
BRANCH   3   4
ATOM      4  C   UNL     1      58.583  32.391  77.177  1.00  0.00     0.000 C 
BRANCH   4   5
ATOM      5  C   UNL     1      57.791  32.737  75.904  1.00  0.00     0.001 C 
BRANCH   5   6
ATOM      6  C   UNL     1      57.851  31.621  74.843  1.00  0.00     0.009 C 
BRANCH   6   7
ATOM      7  C   UNL     1      56.470  31.068  74.427  1.00  0.00     0.032 C 
ATOM      8  C   UNL     1      56.196  31.362  72.947  1.00  0.00     0.014 C 
BRANCH   7   9
ATOM      9  C   UNL     1      56.364  29.588  74.684  1.00  0.00     0.044 C 
ATOM     10  O   UNL     1      55.674  28.855  73.927  1.00  0.00    -0.550 OA
ATOM     11  O   UNL     1      57.038  29.023  75.758  1.00  0.00    -0.550 OA
ENDBRANCH   7   9
ENDBRANCH   6   7
ENDBRANCH   5   6
ENDBRANCH   4   5
ENDBRANCH   3   4
ENDBRANCH   2   3
ENDBRANCH   1   2
BRANCH   1  12
ATOM     12  C   UNL     1      58.860  35.605  81.085  1.00  0.00     0.000 C 
BRANCH  12  13
ATOM     13  C   UNL     1      58.681  36.636  79.958  1.00  0.00    -0.000 C 
BRANCH  13  14
ATOM     14  C   UNL     1      57.229  37.120  79.823  1.00  0.00    -0.000 C 
BRANCH  14  15
ATOM     15  C   UNL     1      56.674  36.802  78.428  1.00  0.00    -0.000 C 
BRANCH  15  16
ATOM     16  C   UNL     1      57.563  37.409  77.332  1.00  0.00    -0.000 C 
BRANCH  16  17
ATOM     17  C   UNL     1      58.143  36.345  76.385  1.00  0.00    -0.000 C 
BRANCH  17  18
ATOM     18  C   UNL     1      59.515  36.740  75.821  1.00  0.00    -0.003 C 
ATOM     19  C   UNL     1      60.257  37.665  76.782  1.00  0.00     0.004 C 
ENDBRANCH  17  18
ENDBRANCH  16  17
ENDBRANCH  15  16
ENDBRANCH  14  15
ENDBRANCH  13  14
ENDBRANCH  12  13
ENDBRANCH   1  12
TORSDOF 14
ENDMDL
MODEL 3
REMARK VINA RESULT:    -4.299      1.550      2.743
REMARK INTER + INTRA:          -9.668
REMARK INTER:                  -8.098
REMARK INTRA:                  -1.569
REMARK UNBOUND:                -1.850
REMARK SMILES CCCCCCCCCCCCCC[C@@H](C)C(=O)[O-]
REMARK SMILES IDX 9 1 10 2 11 3 12 4 13 5 14 6 15 7 16 8 17 9 18 10 19 11 8 12
REMARK SMILES IDX 7 13 6 14 5 15 4 16 3 17 2 18 1 19
REMARK H PARENT
REMARK Flexibility Score: inf
ROOT
ATOM      1  C   UNL     1      58.828  33.621  79.074  1.00  0.00     0.000 C 
ENDROOT
BRANCH   1   2
ATOM      2  C   UNL     1      58.174  33.937  80.428  1.00  0.00     0.000 C 
BRANCH   2   3
ATOM      3  C   UNL     1      58.899  35.062  81.190  1.00  0.00     0.000 C 
BRANCH   3   4
ATOM      4  C   UNL     1      58.904  36.388  80.415  1.00  0.00     0.000 C 
BRANCH   4   5
ATOM      5  C   UNL     1      57.616  37.201  80.629  1.00  0.00     0.001 C 
BRANCH   5   6
ATOM      6  C   UNL     1      56.716  37.232  79.378  1.00  0.00     0.009 C 
BRANCH   6   7
ATOM      7  C   UNL     1      57.474  37.025  78.048  1.00  0.00     0.032 C 
ATOM      8  C   UNL     1      56.616  36.232  77.057  1.00  0.00     0.014 C 
BRANCH   7   9
ATOM      9  C   UNL     1      57.886  38.338  77.434  1.00  0.00     0.044 C 
ATOM     10  O   UNL     1      57.225  38.836  76.485  1.00  0.00    -0.550 OA
ATOM     11  O   UNL     1      58.999  39.011  77.922  1.00  0.00    -0.550 OA
ENDBRANCH   7   9
ENDBRANCH   6   7
ENDBRANCH   5   6
ENDBRANCH   4   5
ENDBRANCH   3   4
ENDBRANCH   2   3
ENDBRANCH   1   2
BRANCH   1  12
ATOM     12  C   UNL     1      57.925  32.763  78.170  1.00  0.00     0.000 C 
BRANCH  12  13
ATOM     13  C   UNL     1      58.677  32.192  76.957  1.00  0.00    -0.000 C 
BRANCH  13  14
ATOM     14  C   UNL     1      58.079  32.650  75.618  1.00  0.00    -0.000 C 
BRANCH  14  15
ATOM     15  C   UNL     1      57.710  31.446  74.741  1.00  0.00    -0.000 C 
BRANCH  15  16
ATOM     16  C   UNL     1      58.024  30.126  75.462  1.00  0.00    -0.000 C 
BRANCH  16  17
ATOM     17  C   UNL     1      57.085  28.984  75.040  1.00  0.00    -0.000 C 
BRANCH  17  18
ATOM     18  C   UNL     1      55.897  29.475  74.201  1.00  0.00    -0.003 C 
ATOM     19  C   UNL     1      54.593  29.380  74.987  1.00  0.00     0.004 C 
ENDBRANCH  17  18
ENDBRANCH  16  17
ENDBRANCH  15  16
ENDBRANCH  14  15
ENDBRANCH  13  14
ENDBRANCH  12  13
ENDBRANCH   1  12
TORSDOF 14
ENDMDL
MODEL 4
REMARK VINA RESULT:    -4.289      3.318      6.831
REMARK INTER + INTRA:          -9.649
REMARK INTER:                  -7.587
REMARK INTRA:                  -2.062
REMARK UNBOUND:                -1.850
REMARK SMILES CCCCCCCCCCCCCC[C@@H](C)C(=O)[O-]
REMARK SMILES IDX 9 1 10 2 11 3 12 4 13 5 14 6 15 7 16 8 17 9 18 10 19 11 8 12
REMARK SMILES IDX 7 13 6 14 5 15 4 16 3 17 2 18 1 19
REMARK H PARENT
REMARK Flexibility Score: inf
ROOT
ATOM      1  C   UNL     1      58.636  34.394  80.725  1.00  0.00     0.000 C 
ENDROOT
BRANCH   1   2
ATOM      2  C   UNL     1      57.952  33.725  79.522  1.00  0.00     0.000 C 
BRANCH   2   3
ATOM      3  C   UNL     1      58.957  33.083  78.549  1.00  0.00     0.000 C 
BRANCH   3   4
ATOM      4  C   UNL     1      58.267  32.359  77.384  1.00  0.00     0.000 C 
BRANCH   4   5
ATOM      5  C   UNL     1      59.198  31.357  76.678  1.00  0.00     0.001 C 
BRANCH   5   6
ATOM      6  C   UNL     1      58.796  31.100  75.213  1.00  0.00     0.009 C 
BRANCH   6   7
ATOM      7  C   UNL     1      57.274  31.153  74.956  1.00  0.00     0.032 C 
ATOM      8  C   UNL     1      56.973  31.905  73.655  1.00  0.00     0.014 C 
BRANCH   7   9
ATOM      9  C   UNL     1      56.671  29.774  74.903  1.00  0.00     0.044 C 
ATOM     10  O   UNL     1      57.273  28.792  75.413  1.00  0.00    -0.550 OA
ATOM     11  O   UNL     1      55.438  29.581  74.295  1.00  0.00    -0.550 OA
ENDBRANCH   7   9
ENDBRANCH   6   7
ENDBRANCH   5   6
ENDBRANCH   4   5
ENDBRANCH   3   4
ENDBRANCH   2   3
ENDBRANCH   1   2
BRANCH   1  12
ATOM     12  C   UNL     1      58.664  35.928  80.609  1.00  0.00     0.000 C 
BRANCH  12  13
ATOM     13  C   UNL     1      57.526  36.475  79.731  1.00  0.00    -0.000 C 
BRANCH  13  14
ATOM     14  C   UNL     1      57.998  37.571  78.764  1.00  0.00    -0.000 C 
BRANCH  14  15
ATOM     15  C   UNL     1      59.432  37.302  78.288  1.00  0.00    -0.000 C 
BRANCH  15  16
ATOM     16  C   UNL     1      59.493  37.209  76.755  1.00  0.00    -0.000 C 
BRANCH  16  17
ATOM     17  C   UNL     1      58.886  35.902  76.218  1.00  0.00    -0.000 C 
BRANCH  17  18
ATOM     18  C   UNL     1      57.636  36.140  75.359  1.00  0.00    -0.003 C 
ATOM     19  C   UNL     1      56.466  35.288  75.844  1.00  0.00     0.004 C 
ENDBRANCH  17  18
ENDBRANCH  16  17
ENDBRANCH  15  16
ENDBRANCH  14  15
ENDBRANCH  13  14
ENDBRANCH  12  13
ENDBRANCH   1  12
TORSDOF 14
ENDMDL
MODEL 5
REMARK VINA RESULT:    -4.250      1.205      2.169
REMARK INTER + INTRA:          -9.578
REMARK INTER:                  -7.452
REMARK INTRA:                  -2.126
REMARK UNBOUND:                -1.850
REMARK SMILES CCCCCCCCCCCCCC[C@@H](C)C(=O)[O-]
REMARK SMILES IDX 9 1 10 2 11 3 12 4 13 5 14 6 15 7 16 8 17 9 18 10 19 11 8 12
REMARK SMILES IDX 7 13 6 14 5 15 4 16 3 17 2 18 1 19
REMARK H PARENT
REMARK Flexibility Score: inf
ROOT
ATOM      1  C   UNL     1      58.140  34.369  76.790  1.00  0.00     0.000 C 
ENDROOT
BRANCH   1   2
ATOM      2  C   UNL     1      57.648  33.641  78.051  1.00  0.00     0.000 C 
BRANCH   2   3
ATOM      3  C   UNL     1      58.725  33.560  79.148  1.00  0.00     0.000 C 
BRANCH   3   4
ATOM      4  C   UNL     1      58.307  34.284  80.437  1.00  0.00     0.000 C 
BRANCH   4   5
ATOM      5  C   UNL     1      59.095  35.586  80.663  1.00  0.00     0.001 C 
BRANCH   5   6
ATOM      6  C   UNL     1      58.223  36.846  80.503  1.00  0.00     0.009 C 
BRANCH   6   7
ATOM      7  C   UNL     1      58.540  37.679  79.241  1.00  0.00     0.032 C 
ATOM      8  C   UNL     1      59.789  37.136  78.538  1.00  0.00     0.014 C 
BRANCH   7   9
ATOM      9  C   UNL     1      57.379  37.697  78.282  1.00  0.00     0.044 C 
ATOM     10  O   UNL     1      57.404  38.433  77.260  1.00  0.00    -0.550 OA
ATOM     11  O   UNL     1      56.273  36.891  78.519  1.00  0.00    -0.550 OA
ENDBRANCH   7   9
ENDBRANCH   6   7
ENDBRANCH   5   6
ENDBRANCH   4   5
ENDBRANCH   3   4
ENDBRANCH   2   3
ENDBRANCH   1   2
BRANCH   1  12
ATOM     12  C   UNL     1      57.010  34.617  75.775  1.00  0.00     0.000 C 
BRANCH  12  13
ATOM     13  C   UNL     1      57.276  33.940  74.420  1.00  0.00    -0.000 C 
BRANCH  13  14
ATOM     14  C   UNL     1      58.196  32.715  74.539  1.00  0.00    -0.000 C 
BRANCH  14  15
ATOM     15  C   UNL     1      57.378  31.418  74.595  1.00  0.00    -0.000 C 
BRANCH  15  16
ATOM     16  C   UNL     1      57.751  30.586  75.831  1.00  0.00    -0.000 C 
BRANCH  16  17
ATOM     17  C   UNL     1      59.186  30.855  76.314  1.00  0.00    -0.000 C 
BRANCH  17  18
ATOM     18  C   UNL     1      60.099  29.630  76.169  1.00  0.00    -0.003 C 
ATOM     19  C   UNL     1      59.302  28.400  75.742  1.00  0.00     0.004 C 
ENDBRANCH  17  18
ENDBRANCH  16  17
ENDBRANCH  15  16
ENDBRANCH  14  15
ENDBRANCH  13  14
ENDBRANCH  12  13
ENDBRANCH   1  12
TORSDOF 14
ENDMDL
MODEL 6
REMARK VINA RESULT:    -4.241      3.235      6.538
REMARK INTER + INTRA:          -9.562
REMARK INTER:                  -7.597
REMARK INTRA:                  -1.965
REMARK UNBOUND:                -1.850
REMARK SMILES CCCCCCCCCCCCCC[C@@H](C)C(=O)[O-]
REMARK SMILES IDX 9 1 10 2 11 3 12 4 13 5 14 6 15 7 16 8 17 9 18 10 19 11 8 12
REMARK SMILES IDX 7 13 6 14 5 15 4 16 3 17 2 18 1 19
REMARK H PARENT
REMARK Flexibility Score: inf
ROOT
ATOM      1  C   UNL     1      58.647  36.338  81.034  1.00  0.00     0.000 C 
ENDROOT
BRANCH   1   2
ATOM      2  C   UNL     1      58.953  34.835  81.126  1.00  0.00     0.000 C 
BRANCH   2   3
ATOM      3  C   UNL     1      58.084  33.993  80.175  1.00  0.00     0.000 C 
BRANCH   3   4
ATOM      4  C   UNL     1      58.869  33.481  78.958  1.00  0.00     0.000 C 
BRANCH   4   5
ATOM      5  C   UNL     1      57.950  32.974  77.833  1.00  0.00     0.001 C 
BRANCH   5   6
ATOM      6  C   UNL     1      58.329  31.563  77.345  1.00  0.00     0.009 C 
BRANCH   6   7
ATOM      7  C   UNL     1      57.844  31.237  75.915  1.00  0.00     0.032 C 
ATOM      8  C   UNL     1      58.835  31.771  74.875  1.00  0.00     0.014 C 
BRANCH   7   9
ATOM      9  C   UNL     1      57.644  29.757  75.720  1.00  0.00     0.044 C 
ATOM     10  O   UNL     1      56.514  29.233  75.904  1.00  0.00    -0.550 OA
ATOM     11  O   UNL     1      58.712  28.961  75.326  1.00  0.00    -0.550 OA
ENDBRANCH   7   9
ENDBRANCH   6   7
ENDBRANCH   5   6
ENDBRANCH   4   5
ENDBRANCH   3   4
ENDBRANCH   2   3
ENDBRANCH   1   2
BRANCH   1  12
ATOM     12  C   UNL     1      57.612  36.663  79.944  1.00  0.00     0.000 C 
BRANCH  12  13
ATOM     13  C   UNL     1      58.150  37.649  78.894  1.00  0.00    -0.000 C 
BRANCH  13  14
ATOM     14  C   UNL     1      59.598  37.345  78.482  1.00  0.00    -0.000 C 
BRANCH  14  15
ATOM     15  C   UNL     1      59.751  37.371  76.956  1.00  0.00    -0.000 C 
BRANCH  15  16
ATOM     16  C   UNL     1      59.094  36.138  76.317  1.00  0.00    -0.000 C 
BRANCH  16  17
ATOM     17  C   UNL     1      57.907  36.503  75.410  1.00  0.00    -0.000 C 
BRANCH  17  18
ATOM     18  C   UNL     1      56.657  35.663  75.705  1.00  0.00    -0.003 C 
ATOM     19  C   UNL     1      55.688  36.418  76.610  1.00  0.00     0.004 C 
ENDBRANCH  17  18
ENDBRANCH  16  17
ENDBRANCH  15  16
ENDBRANCH  14  15
ENDBRANCH  13  14
ENDBRANCH  12  13
ENDBRANCH   1  12
TORSDOF 14
ENDMDL
MODEL 7
REMARK VINA RESULT:    -4.238      2.985      6.641
REMARK INTER + INTRA:          -9.556
REMARK INTER:                  -6.903
REMARK INTRA:                  -2.654
REMARK UNBOUND:                -1.850
REMARK SMILES CCCCCCCCCCCCCC[C@@H](C)C(=O)[O-]
REMARK SMILES IDX 9 1 10 2 11 3 12 4 13 5 14 6 15 7 16 8 17 9 18 10 19 11 8 12
REMARK SMILES IDX 7 13 6 14 5 15 4 16 3 17 2 18 1 19
REMARK H PARENT
REMARK Flexibility Score: inf
ROOT
ATOM      1  C   UNL     1      58.071  37.284  80.647  1.00  0.00     0.000 C 
ENDROOT
BRANCH   1   2
ATOM      2  C   UNL     1      58.782  35.947  80.907  1.00  0.00     0.000 C 
BRANCH   2   3
ATOM      3  C   UNL     1      58.968  35.114  79.626  1.00  0.00     0.000 C 
BRANCH   3   4
ATOM      4  C   UNL     1      58.425  33.685  79.770  1.00  0.00     0.000 C 
BRANCH   4   5
ATOM      5  C   UNL     1      57.647  33.222  78.526  1.00  0.00     0.001 C 
BRANCH   5   6
ATOM      6  C   UNL     1      58.326  33.640  77.208  1.00  0.00     0.009 C 
BRANCH   6   7
ATOM      7  C   UNL     1      57.610  33.130  75.937  1.00  0.00     0.032 C 
ATOM      8  C   UNL     1      58.037  33.948  74.714  1.00  0.00     0.014 C 
BRANCH   7   9
ATOM      9  C   UNL     1      57.882  31.668  75.697  1.00  0.00     0.044 C 
ATOM     10  O   UNL     1      57.134  30.994  74.940  1.00  0.00    -0.550 OA
ATOM     11  O   UNL     1      58.971  31.057  76.306  1.00  0.00    -0.550 OA
ENDBRANCH   7   9
ENDBRANCH   6   7
ENDBRANCH   5   6
ENDBRANCH   4   5
ENDBRANCH   3   4
ENDBRANCH   2   3
ENDBRANCH   1   2
BRANCH   1  12
ATOM     12  C   UNL     1      56.665  37.098  80.051  1.00  0.00     0.000 C 
BRANCH  12  13
ATOM     13  C   UNL     1      56.552  37.652  78.622  1.00  0.00    -0.000 C 
BRANCH  13  14
ATOM     14  C   UNL     1      56.136  36.581  77.602  1.00  0.00    -0.000 C 
BRANCH  14  15
ATOM     15  C   UNL     1      56.457  37.032  76.171  1.00  0.00    -0.000 C 
BRANCH  15  16
ATOM     16  C   UNL     1      57.630  38.024  76.159  1.00  0.00    -0.000 C 
BRANCH  16  17
ATOM     17  C   UNL     1      58.900  37.431  75.526  1.00  0.00    -0.000 C 
BRANCH  17  18
ATOM     18  C   UNL     1      59.999  37.148  76.559  1.00  0.00    -0.003 C 
ATOM     19  C   UNL     1      59.996  38.200  77.665  1.00  0.00     0.004 C 
ENDBRANCH  17  18
ENDBRANCH  16  17
ENDBRANCH  15  16
ENDBRANCH  14  15
ENDBRANCH  13  14
ENDBRANCH  12  13
ENDBRANCH   1  12
TORSDOF 14
ENDMDL
MODEL 8
REMARK VINA RESULT:    -4.223      3.180      7.078
REMARK INTER + INTRA:          -9.529
REMARK INTER:                  -7.762
REMARK INTRA:                  -1.767
REMARK UNBOUND:                -1.850
REMARK SMILES CCCCCCCCCCCCCC[C@@H](C)C(=O)[O-]
REMARK SMILES IDX 9 1 10 2 11 3 12 4 13 5 14 6 15 7 16 8 17 9 18 10 19 11 8 12
REMARK SMILES IDX 7 13 6 14 5 15 4 16 3 17 2 18 1 19
REMARK H PARENT
REMARK Flexibility Score: inf
ROOT
ATOM      1  C   UNL     1      58.874  35.367  79.668  1.00  0.00     0.000 C 
ENDROOT
BRANCH   1   2
ATOM      2  C   UNL     1      58.160  34.051  80.013  1.00  0.00     0.000 C 
BRANCH   2   3
ATOM      3  C   UNL     1      57.999  33.124  78.795  1.00  0.00     0.000 C 
BRANCH   3   4
ATOM      4  C   UNL     1      57.738  33.900  77.495  1.00  0.00     0.000 C 
BRANCH   4   5
ATOM      5  C   UNL     1      57.941  33.034  76.240  1.00  0.00     0.001 C 
BRANCH   5   6
ATOM      6  C   UNL     1      58.105  31.538  76.569  1.00  0.00     0.009 C 
BRANCH   6   7
ATOM      7  C   UNL     1      58.195  30.623  75.327  1.00  0.00     0.032 C 
ATOM      8  C   UNL     1      58.995  29.356  75.649  1.00  0.00     0.014 C 
BRANCH   7   9
ATOM      9  C   UNL     1      56.830  30.252  74.810  1.00  0.00     0.044 C 
ATOM     10  O   UNL     1      56.150  29.360  75.384  1.00  0.00    -0.550 OA
ATOM     11  O   UNL     1      56.311  30.901  73.698  1.00  0.00    -0.550 OA
ENDBRANCH   7   9
ENDBRANCH   6   7
ENDBRANCH   5   6
ENDBRANCH   4   5
ENDBRANCH   3   4
ENDBRANCH   2   3
ENDBRANCH   1   2
BRANCH   1  12
ATOM     12  C   UNL     1      58.363  36.552  80.504  1.00  0.00     0.000 C 
BRANCH  12  13
ATOM     13  C   UNL     1      56.948  36.995  80.098  1.00  0.00    -0.000 C 
BRANCH  13  14
ATOM     14  C   UNL     1      56.800  37.188  78.580  1.00  0.00    -0.000 C 
BRANCH  14  15
ATOM     15  C   UNL     1      57.496  38.475  78.121  1.00  0.00    -0.000 C 
BRANCH  15  16
ATOM     16  C   UNL     1      57.519  38.569  76.587  1.00  0.00    -0.000 C 
BRANCH  16  17
ATOM     17  C   UNL     1      57.051  37.272  75.908  1.00  0.00    -0.000 C 
BRANCH  17  18
ATOM     18  C   UNL     1      58.038  36.772  74.844  1.00  0.00    -0.003 C 
ATOM     19  C   UNL     1      59.416  36.519  75.449  1.00  0.00     0.004 C 
ENDBRANCH  17  18
ENDBRANCH  16  17
ENDBRANCH  15  16
ENDBRANCH  14  15
ENDBRANCH  13  14
ENDBRANCH  12  13
ENDBRANCH   1  12
TORSDOF 14
ENDMDL
MODEL 9
REMARK VINA RESULT:    -4.194      1.779      2.958
REMARK INTER + INTRA:          -9.477
REMARK INTER:                  -8.166
REMARK INTRA:                  -1.311
REMARK UNBOUND:                -1.850
REMARK SMILES CCCCCCCCCCCCCC[C@@H](C)C(=O)[O-]
REMARK SMILES IDX 9 1 10 2 11 3 12 4 13 5 14 6 15 7 16 8 17 9 18 10 19 11 8 12
REMARK SMILES IDX 7 13 6 14 5 15 4 16 3 17 2 18 1 19
REMARK H PARENT
REMARK Flexibility Score: inf
ROOT
ATOM      1  C   UNL     1      57.992  33.096  78.820  1.00  0.00     0.000 C 
ENDROOT
BRANCH   1   2
ATOM      2  C   UNL     1      59.122  33.832  79.557  1.00  0.00     0.000 C 
BRANCH   2   3
ATOM      3  C   UNL     1      58.650  34.485  80.869  1.00  0.00     0.000 C 
BRANCH   3   4
ATOM      4  C   UNL     1      58.814  36.012  80.858  1.00  0.00     0.000 C 
BRANCH   4   5
ATOM      5  C   UNL     1      58.567  36.621  79.467  1.00  0.00     0.001 C 
BRANCH   5   6
ATOM      6  C   UNL     1      57.175  37.266  79.337  1.00  0.00     0.009 C 
BRANCH   6   7
ATOM      7  C   UNL     1      56.954  38.034  78.015  1.00  0.00     0.032 C 
ATOM      8  C   UNL     1      58.058  39.076  77.807  1.00  0.00     0.014 C 
BRANCH   7   9
ATOM      9  C   UNL     1      56.899  37.101  76.834  1.00  0.00     0.044 C 
ATOM     10  O   UNL     1      57.849  37.056  76.009  1.00  0.00    -0.550 OA
ATOM     11  O   UNL     1      55.795  36.277  76.655  1.00  0.00    -0.550 OA
ENDBRANCH   7   9
ENDBRANCH   6   7
ENDBRANCH   5   6
ENDBRANCH   4   5
ENDBRANCH   3   4
ENDBRANCH   2   3
ENDBRANCH   1   2
BRANCH   1  12
ATOM     12  C   UNL     1      57.930  33.459  77.326  1.00  0.00     0.000 C 
BRANCH  12  13
ATOM     13  C   UNL     1      58.647  32.428  76.439  1.00  0.00    -0.000 C 
BRANCH  13  14
ATOM     14  C   UNL     1      57.942  31.064  76.424  1.00  0.00    -0.000 C 
BRANCH  14  15
ATOM     15  C   UNL     1      57.877  30.495  75.001  1.00  0.00    -0.000 C 
BRANCH  15  16
ATOM     16  C   UNL     1      56.423  30.227  74.582  1.00  0.00    -0.000 C 
BRANCH  16  17
ATOM     17  C   UNL     1      56.049  30.928  73.266  1.00  0.00    -0.000 C 
BRANCH  17  18
ATOM     18  C   UNL     1      56.493  32.397  73.231  1.00  0.00    -0.003 C 
ATOM     19  C   UNL     1      57.369  32.676  72.013  1.00  0.00     0.004 C 
ENDBRANCH  17  18
ENDBRANCH  16  17
ENDBRANCH  15  16
ENDBRANCH  14  15
ENDBRANCH  13  14
ENDBRANCH  12  13
ENDBRANCH   1  12
TORSDOF 14
ENDMDL
