MODEL 1
REMARK VINA RESULT:    -5.430      0.000      0.000
REMARK INTER + INTRA:         -18.005
REMARK INTER:                 -14.319
REMARK INTRA:                  -3.686
REMARK UNBOUND:                -3.686
REMARK SMILES CCCCCCCCCCCCCCCCCCCCCCCCCCCCCC(=O)[O-]
REMARK SMILES IDX 16 1 17 2 18 3 19 4 20 5 21 6 22 7 23 8 24 9 25 10 26 11
REMARK SMILES IDX 27 12 28 13 29 14 30 15 31 16 32 17 15 18 14 19 13 20 12 21
REMARK SMILES IDX 11 22 10 23 9 24 8 25 7 26 6 27 5 28 4 29 3 30 2 31 1 32
REMARK H PARENT
REMARK Flexibility Score: inf
ROOT
ATOM      1  C   UNL     1     193.326 198.774 193.808  1.00  0.00     0.000 C 
ENDROOT
BRANCH   1   2
ATOM      2  C   UNL     1     193.288 199.797 192.661  1.00  0.00     0.000 C 
BRANCH   2   3
ATOM      3  C   UNL     1     192.337 199.355 191.527  1.00  0.00     0.000 C 
BRANCH   3   4
ATOM      4  C   UNL     1     191.297 198.310 191.966  1.00  0.00     0.000 C 
BRANCH   4   5
ATOM      5  C   UNL     1     191.298 197.055 191.074  1.00  0.00     0.000 C 
BRANCH   5   6
ATOM      6  C   UNL     1     191.786 195.791 191.809  1.00  0.00     0.000 C 
BRANCH   6   7
ATOM      7  C   UNL     1     192.705 194.879 190.971  1.00  0.00     0.000 C 
BRANCH   7   8
ATOM      8  C   UNL     1     192.796 193.409 191.426  1.00  0.00     0.000 C 
BRANCH   8   9
ATOM      9  C   UNL     1     191.596 192.521 191.046  1.00  0.00     0.000 C 
BRANCH   9  10
ATOM     10  C   UNL     1     191.432 191.306 191.974  1.00  0.00     0.000 C 
BRANCH  10  11
ATOM     11  C   UNL     1     190.442 191.567 193.122  1.00  0.00     0.000 C 
BRANCH  11  12
ATOM     12  C   UNL     1     189.120 192.235 192.703  1.00  0.00     0.000 C 
BRANCH  12  13
ATOM     13  C   UNL     1     188.145 191.282 191.980  1.00  0.00     0.006 C 
BRANCH  13  14
ATOM     14  C   UNL     1     187.088 192.039 191.166  1.00  0.00     0.053 C 
BRANCH  14  15
ATOM     15  C   UNL     1     187.353 191.897 189.701  1.00  0.00     0.041 C 
ATOM     16  O   UNL     1     188.493 192.160 189.234  1.00  0.00    -0.550 OA
ATOM     17  O   UNL     1     186.356 191.425 188.857  1.00  0.00    -0.550 OA
ENDBRANCH  14  15
ENDBRANCH  13  14
ENDBRANCH  12  13
ENDBRANCH  11  12
ENDBRANCH  10  11
ENDBRANCH   9  10
ENDBRANCH   8   9
ENDBRANCH   7   8
ENDBRANCH   6   7
ENDBRANCH   5   6
ENDBRANCH   4   5
ENDBRANCH   3   4
ENDBRANCH   2   3
ENDBRANCH   1   2
BRANCH   1  18
ATOM     18  C   UNL     1     193.696 199.402 195.161  1.00  0.00     0.000 C 
BRANCH  18  19
ATOM     19  C   UNL     1     193.532 200.933 195.170  1.00  0.00     0.000 C 
BRANCH  19  20
ATOM     20  C   UNL     1     194.165 201.609 196.404  1.00  0.00     0.000 C 
BRANCH  20  21
ATOM     21  C   UNL     1     193.158 202.010 197.499  1.00  0.00     0.000 C 
BRANCH  21  22
ATOM     22  C   UNL     1     191.690 201.629 197.228  1.00  0.00     0.000 C 
BRANCH  22  23
ATOM     23  C   UNL     1     191.038 200.728 198.294  1.00  0.00     0.000 C 
BRANCH  23  24
ATOM     24  C   UNL     1     190.198 199.593 197.682  1.00  0.00    -0.000 C 
BRANCH  24  25
ATOM     25  C   UNL     1     191.003 198.301 197.478  1.00  0.00    -0.000 C 
BRANCH  25  26
ATOM     26  C   UNL     1     190.102 197.063 197.316  1.00  0.00    -0.000 C 
BRANCH  26  27
ATOM     27  C   UNL     1     189.016 197.259 196.246  1.00  0.00    -0.000 C 
BRANCH  27  28
ATOM     28  C   UNL     1     189.507 196.904 194.833  1.00  0.00    -0.000 C 
BRANCH  28  29
ATOM     29  C   UNL     1     189.254 195.433 194.463  1.00  0.00    -0.000 C 
BRANCH  29  30
ATOM     30  C   UNL     1     188.112 194.781 195.273  1.00  0.00    -0.000 C 
BRANCH  30  31
ATOM     31  C   UNL     1     186.801 194.715 194.477  1.00  0.00    -0.003 C 
ATOM     32  C   UNL     1     185.847 195.832 194.890  1.00  0.00     0.004 C 
ENDBRANCH  30  31
ENDBRANCH  29  30
ENDBRANCH  28  29
ENDBRANCH  27  28
ENDBRANCH  26  27
ENDBRANCH  25  26
ENDBRANCH  24  25
ENDBRANCH  23  24
ENDBRANCH  22  23
ENDBRANCH  21  22
ENDBRANCH  20  21
ENDBRANCH  19  20
ENDBRANCH  18  19
ENDBRANCH   1  18
TORSDOF 28
ENDMDL
MODEL 2
REMARK VINA RESULT:    -5.349      1.033      4.864
REMARK INTER + INTRA:         -17.790
REMARK INTER:                 -13.651
REMARK INTRA:                  -4.139
REMARK UNBOUND:                -3.686
REMARK SMILES CCCCCCCCCCCCCCCCCCCCCCCCCCCCCC(=O)[O-]
REMARK SMILES IDX 16 1 17 2 18 3 19 4 20 5 21 6 22 7 23 8 24 9 25 10 26 11
REMARK SMILES IDX 27 12 28 13 29 14 30 15 31 16 32 17 15 18 14 19 13 20 12 21
REMARK SMILES IDX 11 22 10 23 9 24 8 25 7 26 6 27 5 28 4 29 3 30 2 31 1 32
REMARK H PARENT
REMARK Flexibility Score: inf
ROOT
ATOM      1  C   UNL     1     190.190 199.727 197.806  1.00  0.00     0.000 C 
ENDROOT
BRANCH   1   2
ATOM      2  C   UNL     1     190.387 198.276 198.275  1.00  0.00     0.000 C 
BRANCH   2   3
ATOM      3  C   UNL     1     189.844 197.260 197.246  1.00  0.00     0.000 C 
BRANCH   3   4
ATOM      4  C   UNL     1     189.911 197.758 195.792  1.00  0.00     0.000 C 
BRANCH   4   5
ATOM      5  C   UNL     1     188.624 197.467 195.000  1.00  0.00     0.000 C 
BRANCH   5   6
ATOM      6  C   UNL     1     187.359 197.462 195.882  1.00  0.00     0.000 C 
BRANCH   6   7
ATOM      7  C   UNL     1     186.529 196.165 195.801  1.00  0.00     0.000 C 
BRANCH   7   8
ATOM      8  C   UNL     1     186.818 195.252 194.593  1.00  0.00     0.000 C 
BRANCH   8   9
ATOM      9  C   UNL     1     187.527 193.924 194.919  1.00  0.00     0.000 C 
BRANCH   9  10
ATOM     10  C   UNL     1     189.031 194.098 195.186  1.00  0.00     0.000 C 
BRANCH  10  11
ATOM     11  C   UNL     1     189.905 193.476 194.084  1.00  0.00     0.000 C 
BRANCH  11  12
ATOM     12  C   UNL     1     189.277 193.475 192.678  1.00  0.00     0.000 C 
BRANCH  12  13
ATOM     13  C   UNL     1     189.113 192.065 192.072  1.00  0.00     0.006 C 
BRANCH  13  14
ATOM     14  C   UNL     1     189.106 192.088 190.539  1.00  0.00     0.053 C 
BRANCH  14  15
ATOM     15  C   UNL     1     187.725 191.853 190.016  1.00  0.00     0.041 C 
ATOM     16  O   UNL     1     186.933 191.095 190.637  1.00  0.00    -0.550 OA
ATOM     17  O   UNL     1     187.293 192.511 188.872  1.00  0.00    -0.550 OA
ENDBRANCH  14  15
ENDBRANCH  13  14
ENDBRANCH  12  13
ENDBRANCH  11  12
ENDBRANCH  10  11
ENDBRANCH   9  10
ENDBRANCH   8   9
ENDBRANCH   7   8
ENDBRANCH   6   7
ENDBRANCH   5   6
ENDBRANCH   4   5
ENDBRANCH   3   4
ENDBRANCH   2   3
ENDBRANCH   1   2
BRANCH   1  18
ATOM     18  C   UNL     1     191.304 200.670 198.287  1.00  0.00     0.000 C 
BRANCH  18  19
ATOM     19  C   UNL     1     191.754 201.663 197.199  1.00  0.00     0.000 C 
BRANCH  19  20
ATOM     20  C   UNL     1     193.285 201.833 197.120  1.00  0.00     0.000 C 
BRANCH  20  21
ATOM     21  C   UNL     1     193.924 201.270 195.836  1.00  0.00     0.000 C 
BRANCH  21  22
ATOM     22  C   UNL     1     193.733 199.758 195.602  1.00  0.00     0.000 C 
BRANCH  22  23
ATOM     23  C   UNL     1     193.327 199.362 194.170  1.00  0.00     0.000 C 
BRANCH  23  24
ATOM     24  C   UNL     1     193.414 200.537 193.179  1.00  0.00    -0.000 C 
BRANCH  24  25
ATOM     25  C   UNL     1     192.754 200.224 191.828  1.00  0.00    -0.000 C 
BRANCH  25  26
ATOM     26  C   UNL     1     192.543 198.715 191.609  1.00  0.00    -0.000 C 
BRANCH  26  27
ATOM     27  C   UNL     1     191.078 198.290 191.798  1.00  0.00    -0.000 C 
BRANCH  27  28
ATOM     28  C   UNL     1     190.943 196.916 192.474  1.00  0.00    -0.000 C 
BRANCH  28  29
ATOM     29  C   UNL     1     192.195 196.039 192.301  1.00  0.00    -0.000 C 
BRANCH  29  30
ATOM     30  C   UNL     1     192.083 195.027 191.140  1.00  0.00    -0.000 C 
BRANCH  30  31
ATOM     31  C   UNL     1     193.219 193.994 191.160  1.00  0.00    -0.003 C 
ATOM     32  C   UNL     1     192.716 192.633 191.636  1.00  0.00     0.004 C 
ENDBRANCH  30  31
ENDBRANCH  29  30
ENDBRANCH  28  29
ENDBRANCH  27  28
ENDBRANCH  26  27
ENDBRANCH  25  26
ENDBRANCH  24  25
ENDBRANCH  23  24
ENDBRANCH  22  23
ENDBRANCH  21  22
ENDBRANCH  20  21
ENDBRANCH  19  20
ENDBRANCH  18  19
ENDBRANCH   1  18
TORSDOF 28
ENDMDL
MODEL 3
REMARK VINA RESULT:    -5.296      2.901      6.159
REMARK INTER + INTRA:         -17.651
REMARK INTER:                 -12.565
REMARK INTRA:                  -5.086
REMARK UNBOUND:                -3.686
REMARK SMILES CCCCCCCCCCCCCCCCCCCCCCCCCCCCCC(=O)[O-]
REMARK SMILES IDX 16 1 17 2 18 3 19 4 20 5 21 6 22 7 23 8 24 9 25 10 26 11
REMARK SMILES IDX 27 12 28 13 29 14 30 15 31 16 32 17 15 18 14 19 13 20 12 21
REMARK SMILES IDX 11 22 10 23 9 24 8 25 7 26 6 27 5 28 4 29 3 30 2 31 1 32
REMARK H PARENT
REMARK Flexibility Score: inf
ROOT
ATOM      1  C   UNL     1     192.122 195.579 192.479  1.00  0.00     0.000 C 
ENDROOT
BRANCH   1   2
ATOM      2  C   UNL     1     192.143 195.092 191.020  1.00  0.00     0.000 C 
BRANCH   2   3
ATOM      3  C   UNL     1     192.799 193.699 190.888  1.00  0.00     0.000 C 
BRANCH   3   4
ATOM      4  C   UNL     1     192.249 192.662 191.882  1.00  0.00     0.000 C 
BRANCH   4   5
ATOM      5  C   UNL     1     191.445 191.543 191.194  1.00  0.00     0.000 C 
BRANCH   5   6
ATOM      6  C   UNL     1     189.922 191.690 191.381  1.00  0.00     0.000 C 
BRANCH   6   7
ATOM      7  C   UNL     1     189.276 192.796 190.523  1.00  0.00     0.000 C 
BRANCH   7   8
ATOM      8  C   UNL     1     188.127 192.349 189.598  1.00  0.00     0.000 C 
BRANCH   8   9
ATOM      9  C   UNL     1     186.850 191.868 190.312  1.00  0.00     0.000 C 
BRANCH   9  10
ATOM     10  C   UNL     1     186.283 190.570 189.714  1.00  0.00     0.000 C 
BRANCH  10  11
ATOM     11  C   UNL     1     186.567 189.339 190.592  1.00  0.00     0.000 C 
BRANCH  11  12
ATOM     12  C   UNL     1     186.685 189.630 192.100  1.00  0.00     0.000 C 
BRANCH  12  13
ATOM     13  C   UNL     1     187.777 188.799 192.807  1.00  0.00     0.006 C 
BRANCH  13  14
ATOM     14  C   UNL     1     187.188 187.793 193.803  1.00  0.00     0.053 C 
BRANCH  14  15
ATOM     15  C   UNL     1     187.152 186.422 193.206  1.00  0.00     0.041 C 
ATOM     16  O   UNL     1     187.175 186.275 191.955  1.00  0.00    -0.550 OA
ATOM     17  O   UNL     1     187.145 185.304 194.030  1.00  0.00    -0.550 OA
ENDBRANCH  14  15
ENDBRANCH  13  14
ENDBRANCH  12  13
ENDBRANCH  11  12
ENDBRANCH  10  11
ENDBRANCH   9  10
ENDBRANCH   8   9
ENDBRANCH   7   8
ENDBRANCH   6   7
ENDBRANCH   5   6
ENDBRANCH   4   5
ENDBRANCH   3   4
ENDBRANCH   2   3
ENDBRANCH   1   2
BRANCH   1  18
ATOM     18  C   UNL     1     190.710 195.934 192.972  1.00  0.00     0.000 C 
BRANCH  18  19
ATOM     19  C   UNL     1     190.108 194.849 193.884  1.00  0.00     0.000 C 
BRANCH  19  20
ATOM     20  C   UNL     1     188.589 194.662 193.692  1.00  0.00     0.000 C 
BRANCH  20  21
ATOM     21  C   UNL     1     188.049 193.299 194.165  1.00  0.00     0.000 C 
BRANCH  21  22
ATOM     22  C   UNL     1     186.593 192.983 193.768  1.00  0.00     0.000 C 
BRANCH  22  23
ATOM     23  C   UNL     1     185.858 194.110 193.019  1.00  0.00     0.000 C 
BRANCH  23  24
ATOM     24  C   UNL     1     184.959 194.951 193.943  1.00  0.00    -0.000 C 
BRANCH  24  25
ATOM     25  C   UNL     1     184.777 194.319 195.331  1.00  0.00    -0.000 C 
BRANCH  25  26
ATOM     26  C   UNL     1     185.134 195.289 196.473  1.00  0.00    -0.000 C 
BRANCH  26  27
ATOM     27  C   UNL     1     186.296 194.779 197.339  1.00  0.00    -0.000 C 
BRANCH  27  28
ATOM     28  C   UNL     1     187.610 195.531 197.069  1.00  0.00    -0.000 C 
BRANCH  28  29
ATOM     29  C   UNL     1     187.419 196.765 196.171  1.00  0.00    -0.000 C 
BRANCH  29  30
ATOM     30  C   UNL     1     188.648 197.699 196.137  1.00  0.00    -0.000 C 
BRANCH  30  31
ATOM     31  C   UNL     1     189.852 197.099 196.877  1.00  0.00    -0.003 C 
ATOM     32  C   UNL     1     190.784 198.194 197.390  1.00  0.00     0.004 C 
ENDBRANCH  30  31
ENDBRANCH  29  30
ENDBRANCH  28  29
ENDBRANCH  27  28
ENDBRANCH  26  27
ENDBRANCH  25  26
ENDBRANCH  24  25
ENDBRANCH  23  24
ENDBRANCH  22  23
ENDBRANCH  21  22
ENDBRANCH  20  21
ENDBRANCH  19  20
ENDBRANCH  18  19
ENDBRANCH   1  18
TORSDOF 28
ENDMDL
MODEL 4
REMARK VINA RESULT:    -5.222      1.156      3.566
REMARK INTER + INTRA:         -17.455
REMARK INTER:                 -13.092
REMARK INTRA:                  -4.363
REMARK UNBOUND:                -3.686
REMARK SMILES CCCCCCCCCCCCCCCCCCCCCCCCCCCCCC(=O)[O-]
REMARK SMILES IDX 16 1 17 2 18 3 19 4 20 5 21 6 22 7 23 8 24 9 25 10 26 11
REMARK SMILES IDX 27 12 28 13 29 14 30 15 31 16 32 17 15 18 14 19 13 20 12 21
REMARK SMILES IDX 11 22 10 23 9 24 8 25 7 26 6 27 5 28 4 29 3 30 2 31 1 32
REMARK H PARENT
REMARK Flexibility Score: inf
ROOT
ATOM      1  C   UNL     1     193.273 201.931 197.389  1.00  0.00     0.000 C 
ENDROOT
BRANCH   1   2
ATOM      2  C   UNL     1     193.940 201.587 196.047  1.00  0.00     0.000 C 
BRANCH   2   3
ATOM      3  C   UNL     1     193.707 200.111 195.651  1.00  0.00     0.000 C 
BRANCH   3   4
ATOM      4  C   UNL     1     193.435 199.910 194.151  1.00  0.00     0.000 C 
BRANCH   4   5
ATOM      5  C   UNL     1     193.316 198.426 193.759  1.00  0.00     0.000 C 
BRANCH   5   6
ATOM      6  C   UNL     1     191.890 198.027 193.330  1.00  0.00     0.000 C 
BRANCH   6   7
ATOM      7  C   UNL     1     191.732 196.543 192.939  1.00  0.00     0.000 C 
BRANCH   7   8
ATOM      8  C   UNL     1     191.261 196.271 191.497  1.00  0.00     0.000 C 
BRANCH   8   9
ATOM      9  C   UNL     1     191.566 194.862 190.955  1.00  0.00     0.000 C 
BRANCH   9  10
ATOM     10  C   UNL     1     191.892 193.851 192.066  1.00  0.00     0.000 C 
BRANCH  10  11
ATOM     11  C   UNL     1     192.413 192.512 191.516  1.00  0.00     0.000 C 
BRANCH  11  12
ATOM     12  C   UNL     1     191.388 191.363 191.522  1.00  0.00     0.000 C 
BRANCH  12  13
ATOM     13  C   UNL     1     190.193 191.602 192.470  1.00  0.00     0.006 C 
BRANCH  13  14
ATOM     14  C   UNL     1     188.928 190.871 192.006  1.00  0.00     0.053 C 
BRANCH  14  15
ATOM     15  C   UNL     1     188.256 191.629 190.907  1.00  0.00     0.041 C 
ATOM     16  O   UNL     1     188.566 192.830 190.683  1.00  0.00    -0.550 OA
ATOM     17  O   UNL     1     187.323 190.997 190.094  1.00  0.00    -0.550 OA
ENDBRANCH  14  15
ENDBRANCH  13  14
ENDBRANCH  12  13
ENDBRANCH  11  12
ENDBRANCH  10  11
ENDBRANCH   9  10
ENDBRANCH   8   9
ENDBRANCH   7   8
ENDBRANCH   6   7
ENDBRANCH   5   6
ENDBRANCH   4   5
ENDBRANCH   3   4
ENDBRANCH   2   3
ENDBRANCH   1   2
BRANCH   1  18
ATOM     18  C   UNL     1     191.746 201.756 197.363  1.00  0.00     0.000 C 
BRANCH  18  19
ATOM     19  C   UNL     1     191.269 200.574 198.227  1.00  0.00     0.000 C 
BRANCH  19  20
ATOM     20  C   UNL     1     190.225 199.683 197.522  1.00  0.00     0.000 C 
BRANCH  20  21
ATOM     21  C   UNL     1     190.725 198.269 197.172  1.00  0.00     0.000 C 
BRANCH  21  22
ATOM     22  C   UNL     1     189.663 197.304 196.609  1.00  0.00     0.000 C 
BRANCH  22  23
ATOM     23  C   UNL     1     188.801 197.872 195.466  1.00  0.00     0.000 C 
BRANCH  23  24
ATOM     24  C   UNL     1     187.407 197.225 195.393  1.00  0.00    -0.000 C 
BRANCH  24  25
ATOM     25  C   UNL     1     187.070 196.397 196.643  1.00  0.00    -0.000 C 
BRANCH  25  26
ATOM     26  C   UNL     1     185.840 195.495 196.439  1.00  0.00    -0.000 C 
BRANCH  26  27
ATOM     27  C   UNL     1     185.072 195.826 195.150  1.00  0.00    -0.000 C 
BRANCH  27  28
ATOM     28  C   UNL     1     184.945 194.616 194.209  1.00  0.00    -0.000 C 
BRANCH  28  29
ATOM     29  C   UNL     1     186.171 194.436 193.298  1.00  0.00    -0.000 C 
BRANCH  29  30
ATOM     30  C   UNL     1     187.266 193.535 193.908  1.00  0.00    -0.000 C 
BRANCH  30  31
ATOM     31  C   UNL     1     188.642 194.217 193.914  1.00  0.00    -0.003 C 
ATOM     32  C   UNL     1     189.368 193.981 195.236  1.00  0.00     0.004 C 
ENDBRANCH  30  31
ENDBRANCH  29  30
ENDBRANCH  28  29
ENDBRANCH  27  28
ENDBRANCH  26  27
ENDBRANCH  25  26
ENDBRANCH  24  25
ENDBRANCH  23  24
ENDBRANCH  22  23
ENDBRANCH  21  22
ENDBRANCH  20  21
ENDBRANCH  19  20
ENDBRANCH  18  19
ENDBRANCH   1  18
TORSDOF 28
ENDMDL
MODEL 5
REMARK VINA RESULT:    -5.195      3.497      8.497
REMARK INTER + INTRA:         -17.384
REMARK INTER:                 -13.103
REMARK INTRA:                  -4.281
REMARK UNBOUND:                -3.686
REMARK SMILES CCCCCCCCCCCCCCCCCCCCCCCCCCCCCC(=O)[O-]
REMARK SMILES IDX 16 1 17 2 18 3 19 4 20 5 21 6 22 7 23 8 24 9 25 10 26 11
REMARK SMILES IDX 27 12 28 13 29 14 30 15 31 16 32 17 15 18 14 19 13 20 12 21
REMARK SMILES IDX 11 22 10 23 9 24 8 25 7 26 6 27 5 28 4 29 3 30 2 31 1 32
REMARK H PARENT
REMARK Flexibility Score: inf
ROOT
ATOM      1  C   UNL     1     191.474 192.713 191.107  1.00  0.00     0.000 C 
ENDROOT
BRANCH   1   2
ATOM      2  C   UNL     1     192.832 193.434 191.061  1.00  0.00     0.000 C 
BRANCH   2   3
ATOM      3  C   UNL     1     192.725 194.892 191.562  1.00  0.00     0.000 C 
BRANCH   3   4
ATOM      4  C   UNL     1     191.474 195.629 191.057  1.00  0.00     0.000 C 
BRANCH   4   5
ATOM      5  C   UNL     1     191.267 196.993 191.741  1.00  0.00     0.000 C 
BRANCH   5   6
ATOM      6  C   UNL     1     191.354 196.918 193.278  1.00  0.00     0.000 C 
BRANCH   6   7
ATOM      7  C   UNL     1     190.083 196.381 193.965  1.00  0.00     0.000 C 
BRANCH   7   8
ATOM      8  C   UNL     1     189.896 194.851 193.938  1.00  0.00     0.000 C 
BRANCH   8   9
ATOM      9  C   UNL     1     189.495 194.208 195.280  1.00  0.00     0.000 C 
BRANCH   9  10
ATOM     10  C   UNL     1     188.220 194.822 195.881  1.00  0.00     0.000 C 
BRANCH  10  11
ATOM     11  C   UNL     1     188.354 195.112 197.386  1.00  0.00     0.000 C 
BRANCH  11  12
ATOM     12  C   UNL     1     189.786 195.406 197.867  1.00  0.00     0.000 C 
BRANCH  12  13
ATOM     13  C   UNL     1     190.012 196.876 198.280  1.00  0.00     0.006 C 
BRANCH  13  14
ATOM     14  C   UNL     1     190.140 197.807 197.068  1.00  0.00     0.053 C 
BRANCH  14  15
ATOM     15  C   UNL     1     191.048 198.954 197.380  1.00  0.00     0.041 C 
ATOM     16  O   UNL     1     192.108 199.122 196.719  1.00  0.00    -0.550 OA
ATOM     17  O   UNL     1     190.701 199.868 198.367  1.00  0.00    -0.550 OA
ENDBRANCH  14  15
ENDBRANCH  13  14
ENDBRANCH  12  13
ENDBRANCH  11  12
ENDBRANCH  10  11
ENDBRANCH   9  10
ENDBRANCH   8   9
ENDBRANCH   7   8
ENDBRANCH   6   7
ENDBRANCH   5   6
ENDBRANCH   4   5
ENDBRANCH   3   4
ENDBRANCH   2   3
ENDBRANCH   1   2
BRANCH   1  18
ATOM     18  C   UNL     1     191.524 191.392 191.891  1.00  0.00     0.000 C 
BRANCH  18  19
ATOM     19  C   UNL     1     190.436 191.304 192.977  1.00  0.00     0.000 C 
BRANCH  19  20
ATOM     20  C   UNL     1     189.021 191.068 192.409  1.00  0.00     0.000 C 
BRANCH  20  21
ATOM     21  C   UNL     1     188.093 192.296 192.477  1.00  0.00     0.000 C 
BRANCH  21  22
ATOM     22  C   UNL     1     187.306 192.611 191.190  1.00  0.00     0.000 C 
BRANCH  22  23
ATOM     23  C   UNL     1     187.721 191.795 189.951  1.00  0.00     0.000 C 
BRANCH  23  24
ATOM     24  C   UNL     1     186.542 191.039 189.314  1.00  0.00    -0.000 C 
BRANCH  24  25
ATOM     25  C   UNL     1     186.292 189.670 189.967  1.00  0.00    -0.000 C 
BRANCH  25  26
ATOM     26  C   UNL     1     185.149 189.708 190.998  1.00  0.00    -0.000 C 
BRANCH  26  27
ATOM     27  C   UNL     1     185.621 189.342 192.415  1.00  0.00    -0.000 C 
BRANCH  27  28
ATOM     28  C   UNL     1     185.268 190.420 193.453  1.00  0.00    -0.000 C 
BRANCH  28  29
ATOM     29  C   UNL     1     184.038 191.253 193.055  1.00  0.00    -0.000 C 
BRANCH  29  30
ATOM     30  C   UNL     1     183.796 192.472 193.972  1.00  0.00    -0.000 C 
BRANCH  30  31
ATOM     31  C   UNL     1     184.918 193.514 193.859  1.00  0.00    -0.003 C 
ATOM     32  C   UNL     1     184.365 194.876 193.445  1.00  0.00     0.004 C 
ENDBRANCH  30  31
ENDBRANCH  29  30
ENDBRANCH  28  29
ENDBRANCH  27  28
ENDBRANCH  26  27
ENDBRANCH  25  26
ENDBRANCH  24  25
ENDBRANCH  23  24
ENDBRANCH  22  23
ENDBRANCH  21  22
ENDBRANCH  20  21
ENDBRANCH  19  20
ENDBRANCH  18  19
ENDBRANCH   1  18
TORSDOF 28
ENDMDL
MODEL 6
REMARK VINA RESULT:    -5.164      1.706      5.320
REMARK INTER + INTRA:         -17.303
REMARK INTER:                 -13.503
REMARK INTRA:                  -3.799
REMARK UNBOUND:                -3.686
REMARK SMILES CCCCCCCCCCCCCCCCCCCCCCCCCCCCCC(=O)[O-]
REMARK SMILES IDX 16 1 17 2 18 3 19 4 20 5 21 6 22 7 23 8 24 9 25 10 26 11
REMARK SMILES IDX 27 12 28 13 29 14 30 15 31 16 32 17 15 18 14 19 13 20 12 21
REMARK SMILES IDX 11 22 10 23 9 24 8 25 7 26 6 27 5 28 4 29 3 30 2 31 1 32
REMARK H PARENT
REMARK Flexibility Score: inf
ROOT
ATOM      1  C   UNL     1     192.549 202.181 197.303  1.00  0.00     0.000 C 
ENDROOT
BRANCH   1   2
ATOM      2  C   UNL     1     191.868 201.240 198.310  1.00  0.00     0.000 C 
BRANCH   2   3
ATOM      3  C   UNL     1     190.692 200.469 197.671  1.00  0.00     0.000 C 
BRANCH   3   4
ATOM      4  C   UNL     1     190.185 199.296 198.527  1.00  0.00     0.000 C 
BRANCH   4   5
ATOM      5  C   UNL     1     190.435 197.926 197.872  1.00  0.00     0.000 C 
BRANCH   5   6
ATOM      6  C   UNL     1     190.362 197.969 196.333  1.00  0.00     0.000 C 
BRANCH   6   7
ATOM      7  C   UNL     1     188.935 197.876 195.757  1.00  0.00     0.000 C 
BRANCH   7   8
ATOM      8  C   UNL     1     188.131 196.619 196.145  1.00  0.00     0.000 C 
BRANCH   8   9
ATOM      9  C   UNL     1     186.941 196.282 195.226  1.00  0.00     0.000 C 
BRANCH   9  10
ATOM     10  C   UNL     1     186.877 194.792 194.851  1.00  0.00     0.000 C 
BRANCH  10  11
ATOM     11  C   UNL     1     185.894 194.511 193.702  1.00  0.00     0.000 C 
BRANCH  11  12
ATOM     12  C   UNL     1     186.397 193.511 192.645  1.00  0.00     0.000 C 
BRANCH  12  13
ATOM     13  C   UNL     1     186.174 192.034 193.033  1.00  0.00     0.006 C 
BRANCH  13  14
ATOM     14  C   UNL     1     187.212 191.103 192.396  1.00  0.00     0.053 C 
BRANCH  14  15
ATOM     15  C   UNL     1     187.057 189.709 192.916  1.00  0.00     0.041 C 
ATOM     16  O   UNL     1     185.913 189.261 193.196  1.00  0.00    -0.550 OA
ATOM     17  O   UNL     1     188.169 188.886 193.043  1.00  0.00    -0.550 OA
ENDBRANCH  14  15
ENDBRANCH  13  14
ENDBRANCH  12  13
ENDBRANCH  11  12
ENDBRANCH  10  11
ENDBRANCH   9  10
ENDBRANCH   8   9
ENDBRANCH   7   8
ENDBRANCH   6   7
ENDBRANCH   5   6
ENDBRANCH   4   5
ENDBRANCH   3   4
ENDBRANCH   2   3
ENDBRANCH   1   2
BRANCH   1  18
ATOM     18  C   UNL     1     193.882 201.630 196.772  1.00  0.00     0.000 C 
BRANCH  18  19
ATOM     19  C   UNL     1     193.750 201.002 195.372  1.00  0.00     0.000 C 
BRANCH  19  20
ATOM     20  C   UNL     1     193.573 199.469 195.403  1.00  0.00     0.000 C 
BRANCH  20  21
ATOM     21  C   UNL     1     193.459 198.812 194.014  1.00  0.00     0.000 C 
BRANCH  21  22
ATOM     22  C   UNL     1     193.359 199.783 192.822  1.00  0.00     0.000 C 
BRANCH  22  23
ATOM     23  C   UNL     1     192.036 199.721 192.034  1.00  0.00     0.000 C 
BRANCH  23  24
ATOM     24  C   UNL     1     192.167 198.941 190.713  1.00  0.00    -0.000 C 
BRANCH  24  25
ATOM     25  C   UNL     1     191.435 197.591 190.746  1.00  0.00    -0.000 C 
BRANCH  25  26
ATOM     26  C   UNL     1     191.004 197.187 192.168  1.00  0.00    -0.000 C 
BRANCH  26  27
ATOM     27  C   UNL     1     191.306 195.713 192.480  1.00  0.00    -0.000 C 
BRANCH  27  28
ATOM     28  C   UNL     1     190.262 195.081 193.416  1.00  0.00    -0.000 C 
BRANCH  28  29
ATOM     29  C   UNL     1     189.995 193.599 193.101  1.00  0.00    -0.000 C 
BRANCH  29  30
ATOM     30  C   UNL     1     190.404 193.190 191.669  1.00  0.00    -0.000 C 
BRANCH  30  31
ATOM     31  C   UNL     1     190.822 191.715 191.585  1.00  0.00    -0.003 C 
ATOM     32  C   UNL     1     190.881 191.079 192.972  1.00  0.00     0.004 C 
ENDBRANCH  30  31
ENDBRANCH  29  30
ENDBRANCH  28  29
ENDBRANCH  27  28
ENDBRANCH  26  27
ENDBRANCH  25  26
ENDBRANCH  24  25
ENDBRANCH  23  24
ENDBRANCH  22  23
ENDBRANCH  21  22
ENDBRANCH  20  21
ENDBRANCH  19  20
ENDBRANCH  18  19
ENDBRANCH   1  18
TORSDOF 28
ENDMDL
MODEL 7
REMARK VINA RESULT:    -5.147      3.325      6.257
REMARK INTER + INTRA:         -17.258
REMARK INTER:                 -12.590
REMARK INTRA:                  -4.668
REMARK UNBOUND:                -3.686
REMARK SMILES CCCCCCCCCCCCCCCCCCCCCCCCCCCCCC(=O)[O-]
REMARK SMILES IDX 16 1 17 2 18 3 19 4 20 5 21 6 22 7 23 8 24 9 25 10 26 11
REMARK SMILES IDX 27 12 28 13 29 14 30 15 31 16 32 17 15 18 14 19 13 20 12 21
REMARK SMILES IDX 11 22 10 23 9 24 8 25 7 26 6 27 5 28 4 29 3 30 2 31 1 32
REMARK H PARENT
REMARK Flexibility Score: inf
ROOT
ATOM      1  C   UNL     1     191.520 191.431 192.014  1.00  0.00     0.000 C 
ENDROOT
BRANCH   1   2
ATOM      2  C   UNL     1     190.121 191.073 192.544  1.00  0.00     0.000 C 
BRANCH   2   3
ATOM      3  C   UNL     1     189.290 192.333 192.872  1.00  0.00     0.000 C 
BRANCH   3   4
ATOM      4  C   UNL     1     187.826 192.245 192.412  1.00  0.00     0.000 C 
BRANCH   4   5
ATOM      5  C   UNL     1     187.598 192.861 191.020  1.00  0.00     0.000 C 
BRANCH   5   6
ATOM      6  C   UNL     1     187.881 191.876 189.868  1.00  0.00     0.000 C 
BRANCH   6   7
ATOM      7  C   UNL     1     186.649 191.083 189.388  1.00  0.00     0.000 C 
BRANCH   7   8
ATOM      8  C   UNL     1     186.329 189.794 190.171  1.00  0.00     0.000 C 
BRANCH   8   9
ATOM      9  C   UNL     1     185.226 189.923 191.239  1.00  0.00     0.000 C 
BRANCH   9  10
ATOM     10  C   UNL     1     185.442 188.984 192.438  1.00  0.00     0.000 C 
BRANCH  10  11
ATOM     11  C   UNL     1     186.848 189.116 193.049  1.00  0.00     0.000 C 
BRANCH  11  12
ATOM     12  C   UNL     1     187.450 187.805 193.586  1.00  0.00     0.000 C 
BRANCH  12  13
ATOM     13  C   UNL     1     186.416 186.670 193.752  1.00  0.00     0.006 C 
BRANCH  13  14
ATOM     14  C   UNL     1     186.695 185.489 192.814  1.00  0.00     0.053 C 
BRANCH  14  15
ATOM     15  C   UNL     1     186.120 185.748 191.458  1.00  0.00     0.041 C 
ATOM     16  O   UNL     1     184.912 185.480 191.220  1.00  0.00    -0.550 OA
ATOM     17  O   UNL     1     186.903 186.334 190.471  1.00  0.00    -0.550 OA
ENDBRANCH  14  15
ENDBRANCH  13  14
ENDBRANCH  12  13
ENDBRANCH  11  12
ENDBRANCH  10  11
ENDBRANCH   9  10
ENDBRANCH   8   9
ENDBRANCH   7   8
ENDBRANCH   6   7
ENDBRANCH   5   6
ENDBRANCH   4   5
ENDBRANCH   3   4
ENDBRANCH   2   3
ENDBRANCH   1   2
BRANCH   1  18
ATOM     18  C   UNL     1     191.485 192.485 190.896  1.00  0.00     0.000 C 
BRANCH  18  19
ATOM     19  C   UNL     1     192.223 193.781 191.279  1.00  0.00     0.000 C 
BRANCH  19  20
ATOM     20  C   UNL     1     191.293 195.007 191.385  1.00  0.00     0.000 C 
BRANCH  20  21
ATOM     21  C   UNL     1     191.403 195.779 192.714  1.00  0.00     0.000 C 
BRANCH  21  22
ATOM     22  C   UNL     1     190.232 195.589 193.697  1.00  0.00     0.000 C 
BRANCH  22  23
ATOM     23  C   UNL     1     189.731 196.877 194.377  1.00  0.00     0.000 C 
BRANCH  23  24
ATOM     24  C   UNL     1     189.642 196.746 195.908  1.00  0.00    -0.000 C 
BRANCH  24  25
ATOM     25  C   UNL     1     189.331 195.312 196.364  1.00  0.00    -0.000 C 
BRANCH  25  26
ATOM     26  C   UNL     1     187.889 195.156 196.881  1.00  0.00    -0.000 C 
BRANCH  26  27
ATOM     27  C   UNL     1     186.966 194.473 195.859  1.00  0.00    -0.000 C 
BRANCH  27  28
ATOM     28  C   UNL     1     186.213 195.482 194.975  1.00  0.00    -0.000 C 
BRANCH  28  29
ATOM     29  C   UNL     1     185.617 194.840 193.711  1.00  0.00    -0.000 C 
BRANCH  29  30
ATOM     30  C   UNL     1     184.293 194.089 193.966  1.00  0.00    -0.000 C 
BRANCH  30  31
ATOM     31  C   UNL     1     184.365 192.621 193.523  1.00  0.00    -0.003 C 
ATOM     32  C   UNL     1     184.148 191.678 194.704  1.00  0.00     0.004 C 
ENDBRANCH  30  31
ENDBRANCH  29  30
ENDBRANCH  28  29
ENDBRANCH  27  28
ENDBRANCH  26  27
ENDBRANCH  25  26
ENDBRANCH  24  25
ENDBRANCH  23  24
ENDBRANCH  22  23
ENDBRANCH  21  22
ENDBRANCH  20  21
ENDBRANCH  19  20
ENDBRANCH  18  19
ENDBRANCH   1  18
TORSDOF 28
ENDMDL
MODEL 8
REMARK VINA RESULT:    -5.096      2.731      7.791
REMARK INTER + INTRA:         -17.124
REMARK INTER:                 -12.588
REMARK INTRA:                  -4.537
REMARK UNBOUND:                -3.686
REMARK SMILES CCCCCCCCCCCCCCCCCCCCCCCCCCCCCC(=O)[O-]
REMARK SMILES IDX 16 1 17 2 18 3 19 4 20 5 21 6 22 7 23 8 24 9 25 10 26 11
REMARK SMILES IDX 27 12 28 13 29 14 30 15 31 16 32 17 15 18 14 19 13 20 12 21
REMARK SMILES IDX 11 22 10 23 9 24 8 25 7 26 6 27 5 28 4 29 3 30 2 31 1 32
REMARK H PARENT
REMARK Flexibility Score: inf
ROOT
ATOM      1  C   UNL     1     188.075 194.427 195.529  1.00  0.00     0.000 C 
ENDROOT
BRANCH   1   2
ATOM      2  C   UNL     1     189.270 194.479 196.496  1.00  0.00     0.000 C 
BRANCH   2   3
ATOM      3  C   UNL     1     188.967 195.346 197.738  1.00  0.00     0.000 C 
BRANCH   3   4
ATOM      4  C   UNL     1     190.148 196.223 198.183  1.00  0.00     0.000 C 
BRANCH   4   5
ATOM      5  C   UNL     1     190.261 197.528 197.374  1.00  0.00     0.000 C 
BRANCH   5   6
ATOM      6  C   UNL     1     188.953 197.907 196.651  1.00  0.00     0.000 C 
BRANCH   6   7
ATOM      7  C   UNL     1     189.029 197.831 195.113  1.00  0.00     0.000 C 
BRANCH   7   8
ATOM      8  C   UNL     1     190.426 197.564 194.518  1.00  0.00     0.000 C 
BRANCH   8   9
ATOM      9  C   UNL     1     190.471 196.543 193.365  1.00  0.00     0.000 C 
BRANCH   9  10
ATOM     10  C   UNL     1     191.551 196.868 192.320  1.00  0.00     0.000 C 
BRANCH  10  11
ATOM     11  C   UNL     1     191.582 195.854 191.163  1.00  0.00     0.000 C 
BRANCH  11  12
ATOM     12  C   UNL     1     191.842 194.396 191.583  1.00  0.00     0.000 C 
BRANCH  12  13
ATOM     13  C   UNL     1     190.573 193.518 191.593  1.00  0.00     0.006 C 
BRANCH  13  14
ATOM     14  C   UNL     1     190.452 192.685 192.875  1.00  0.00     0.053 C 
BRANCH  14  15
ATOM     15  C   UNL     1     190.894 191.277 192.630  1.00  0.00     0.041 C 
ATOM     16  O   UNL     1     190.565 190.361 193.431  1.00  0.00    -0.550 OA
ATOM     17  O   UNL     1     191.627 190.966 191.492  1.00  0.00    -0.550 OA
ENDBRANCH  14  15
ENDBRANCH  13  14
ENDBRANCH  12  13
ENDBRANCH  11  12
ENDBRANCH  10  11
ENDBRANCH   9  10
ENDBRANCH   8   9
ENDBRANCH   7   8
ENDBRANCH   6   7
ENDBRANCH   5   6
ENDBRANCH   4   5
ENDBRANCH   3   4
ENDBRANCH   2   3
ENDBRANCH   1   2
BRANCH   1  18
ATOM     18  C   UNL     1     186.754 194.861 196.183  1.00  0.00     0.000 C 
BRANCH  18  19
ATOM     19  C   UNL     1     185.922 195.792 195.282  1.00  0.00     0.000 C 
BRANCH  19  20
ATOM     20  C   UNL     1     184.546 195.207 194.902  1.00  0.00     0.000 C 
BRANCH  20  21
ATOM     21  C   UNL     1     184.472 194.626 193.477  1.00  0.00     0.000 C 
BRANCH  21  22
ATOM     22  C   UNL     1     184.558 193.090 193.377  1.00  0.00     0.000 C 
BRANCH  22  23
ATOM     23  C   UNL     1     185.974 192.526 193.155  1.00  0.00     0.000 C 
BRANCH  23  24
ATOM     24  C   UNL     1     186.825 193.403 192.219  1.00  0.00    -0.000 C 
BRANCH  24  25
ATOM     25  C   UNL     1     187.150 192.710 190.888  1.00  0.00    -0.000 C 
BRANCH  25  26
ATOM     26  C   UNL     1     187.262 191.181 191.030  1.00  0.00    -0.000 C 
BRANCH  26  27
ATOM     27  C   UNL     1     186.399 190.428 190.005  1.00  0.00    -0.000 C 
BRANCH  27  28
ATOM     28  C   UNL     1     186.036 189.007 190.467  1.00  0.00    -0.000 C 
BRANCH  28  29
ATOM     29  C   UNL     1     184.694 188.945 191.216  1.00  0.00    -0.000 C 
BRANCH  29  30
ATOM     30  C   UNL     1     184.774 188.196 192.563  1.00  0.00    -0.000 C 
BRANCH  30  31
ATOM     31  C   UNL     1     185.978 188.643 193.405  1.00  0.00    -0.003 C 
ATOM     32  C   UNL     1     186.636 187.454 194.100  1.00  0.00     0.004 C 
ENDBRANCH  30  31
ENDBRANCH  29  30
ENDBRANCH  28  29
ENDBRANCH  27  28
ENDBRANCH  26  27
ENDBRANCH  25  26
ENDBRANCH  24  25
ENDBRANCH  23  24
ENDBRANCH  22  23
ENDBRANCH  21  22
ENDBRANCH  20  21
ENDBRANCH  19  20
ENDBRANCH  18  19
ENDBRANCH   1  18
TORSDOF 28
ENDMDL
MODEL 9
REMARK VINA RESULT:    -5.071      3.002      7.037
REMARK INTER + INTRA:         -17.058
REMARK INTER:                 -12.377
REMARK INTRA:                  -4.681
REMARK UNBOUND:                -3.686
REMARK SMILES CCCCCCCCCCCCCCCCCCCCCCCCCCCCCC(=O)[O-]
REMARK SMILES IDX 16 1 17 2 18 3 19 4 20 5 21 6 22 7 23 8 24 9 25 10 26 11
REMARK SMILES IDX 27 12 28 13 29 14 30 15 31 16 32 17 15 18 14 19 13 20 12 21
REMARK SMILES IDX 11 22 10 23 9 24 8 25 7 26 6 27 5 28 4 29 3 30 2 31 1 32
REMARK H PARENT
REMARK Flexibility Score: inf
ROOT
ATOM      1  C   UNL     1     189.657 193.568 194.117  1.00  0.00     0.000 C 
ENDROOT
BRANCH   1   2
ATOM      2  C   UNL     1     190.372 192.464 193.322  1.00  0.00     0.000 C 
BRANCH   2   3
ATOM      3  C   UNL     1     191.127 193.032 192.099  1.00  0.00     0.000 C 
BRANCH   3   4
ATOM      4  C   UNL     1     190.855 192.266 190.794  1.00  0.00     0.000 C 
BRANCH   4   5
ATOM      5  C   UNL     1     189.500 191.535 190.801  1.00  0.00     0.000 C 
BRANCH   5   6
ATOM      6  C   UNL     1     188.422 192.252 189.964  1.00  0.00     0.000 C 
BRANCH   6   7
ATOM      7  C   UNL     1     187.103 191.467 189.814  1.00  0.00     0.000 C 
BRANCH   7   8
ATOM      8  C   UNL     1     186.887 190.312 190.813  1.00  0.00     0.000 C 
BRANCH   8   9
ATOM      9  C   UNL     1     185.420 189.903 191.047  1.00  0.00     0.000 C 
BRANCH   9  10
ATOM     10  C   UNL     1     185.095 188.504 190.498  1.00  0.00     0.000 C 
BRANCH  10  11
ATOM     11  C   UNL     1     186.299 187.844 189.805  1.00  0.00     0.000 C 
BRANCH  11  12
ATOM     12  C   UNL     1     186.772 186.524 190.441  1.00  0.00     0.000 C 
BRANCH  12  13
ATOM     13  C   UNL     1     185.844 186.007 191.561  1.00  0.00     0.006 C 
BRANCH  13  14
ATOM     14  C   UNL     1     186.578 185.857 192.899  1.00  0.00     0.053 C 
BRANCH  14  15
ATOM     15  C   UNL     1     186.979 187.195 193.432  1.00  0.00     0.041 C 
ATOM     16  O   UNL     1     186.111 187.974 193.909  1.00  0.00    -0.550 OA
ATOM     17  O   UNL     1     188.318 187.564 193.449  1.00  0.00    -0.550 OA
ENDBRANCH  14  15
ENDBRANCH  13  14
ENDBRANCH  12  13
ENDBRANCH  11  12
ENDBRANCH  10  11
ENDBRANCH   9  10
ENDBRANCH   8   9
ENDBRANCH   7   8
ENDBRANCH   6   7
ENDBRANCH   5   6
ENDBRANCH   4   5
ENDBRANCH   3   4
ENDBRANCH   2   3
ENDBRANCH   1   2
BRANCH   1  18
ATOM     18  C   UNL     1     188.397 194.096 193.412  1.00  0.00     0.000 C 
BRANCH  18  19
ATOM     19  C   UNL     1     187.245 193.073 193.411  1.00  0.00     0.000 C 
BRANCH  19  20
ATOM     20  C   UNL     1     185.980 193.578 192.687  1.00  0.00     0.000 C 
BRANCH  20  21
ATOM     21  C   UNL     1     184.705 193.575 193.553  1.00  0.00     0.000 C 
BRANCH  21  22
ATOM     22  C   UNL     1     184.075 194.956 193.818  1.00  0.00     0.000 C 
BRANCH  22  23
ATOM     23  C   UNL     1     184.734 195.772 194.947  1.00  0.00     0.000 C 
BRANCH  23  24
ATOM     24  C   UNL     1     185.192 194.896 196.126  1.00  0.00    -0.000 C 
BRANCH  24  25
ATOM     25  C   UNL     1     186.574 195.296 196.662  1.00  0.00    -0.000 C 
BRANCH  25  26
ATOM     26  C   UNL     1     187.059 196.644 196.096  1.00  0.00    -0.000 C 
BRANCH  26  27
ATOM     27  C   UNL     1     188.587 196.699 195.930  1.00  0.00    -0.000 C 
BRANCH  27  28
ATOM     28  C   UNL     1     189.018 197.485 194.681  1.00  0.00    -0.000 C 
BRANCH  28  29
ATOM     29  C   UNL     1     190.533 197.417 194.425  1.00  0.00    -0.000 C 
BRANCH  29  30
ATOM     30  C   UNL     1     190.898 197.172 192.945  1.00  0.00    -0.000 C 
BRANCH  30  31
ATOM     31  C   UNL     1     191.943 198.173 192.432  1.00  0.00    -0.003 C 
ATOM     32  C   UNL     1     192.995 198.466 193.499  1.00  0.00     0.004 C 
ENDBRANCH  30  31
ENDBRANCH  29  30
ENDBRANCH  28  29
ENDBRANCH  27  28
ENDBRANCH  26  27
ENDBRANCH  25  26
ENDBRANCH  24  25
ENDBRANCH  23  24
ENDBRANCH  22  23
ENDBRANCH  21  22
ENDBRANCH  20  21
ENDBRANCH  19  20
ENDBRANCH  18  19
ENDBRANCH   1  18
TORSDOF 28
ENDMDL
