MODEL 1
REMARK VINA RESULT:     7.139      0.000      0.000
REMARK INTER + INTRA:           7.347
REMARK INTER:                   7.347
REMARK INTRA:                   0.000
REMARK UNBOUND:                 0.000
REMARK SMILES Cc1cccc(O)c1C
REMARK SMILES IDX 1 1 2 2 8 3 6 4 5 5 4 6 3 7 9 8 7 9
REMARK H PARENT 7 10
REMARK Flexibility Score: inf
ROOT
ATOM      1  C   UNL     1       3.777  42.751  24.609  1.00  0.00     0.045 C 
ATOM      2  C   UNL     1       5.227  42.341  24.644  1.00  0.00    -0.045 A 
ATOM      3  C   UNL     1       6.213  42.978  23.841  1.00  0.00    -0.006 A 
ATOM      4  C   UNL     1       7.558  42.540  23.926  1.00  0.00     0.118 A 
ATOM      5  C   UNL     1       7.903  41.495  24.788  1.00  0.00     0.046 A 
ATOM      6  C   UNL     1       6.933  40.875  25.571  1.00  0.00     0.004 A 
ATOM      7  C   UNL     1       5.606  41.293  25.502  1.00  0.00     0.004 A 
ATOM      8  C   UNL     1       5.864  44.110  22.901  1.00  0.00     0.048 C 
ENDROOT
BRANCH   4   9
ATOM      9  O   UNL     1       8.580  43.119  23.166  1.00  0.00    -0.508 OA
ATOM     10  H   UNL     1       8.580  44.089  22.881  1.00  0.00     0.293 HD
ENDBRANCH   4   9
TORSDOF 1
ENDMDL
MODEL 2
REMARK VINA RESULT:     7.399     11.613     12.350
REMARK INTER + INTRA:           7.616
REMARK INTER:                   7.616
REMARK INTRA:                   0.000
REMARK UNBOUND:                 0.000
REMARK SMILES Cc1cccc(O)c1C
REMARK SMILES IDX 1 1 2 2 8 3 6 4 5 5 4 6 3 7 9 8 7 9
REMARK H PARENT 7 10
REMARK Flexibility Score: inf
ROOT
ATOM      1  C   UNL     1      -1.898  51.387  18.312  1.00  0.00     0.045 C 
ATOM      2  C   UNL     1      -1.735  51.205  19.800  1.00  0.00    -0.045 A 
ATOM      3  C   UNL     1      -0.528  51.538  20.474  1.00  0.00    -0.006 A 
ATOM      4  C   UNL     1      -0.446  51.340  21.876  1.00  0.00     0.118 A 
ATOM      5  C   UNL     1      -1.541  50.825  22.576  1.00  0.00     0.046 A 
ATOM      6  C   UNL     1      -2.719  50.502  21.910  1.00  0.00     0.004 A 
ATOM      7  C   UNL     1      -2.818  50.690  20.533  1.00  0.00     0.004 A 
ATOM      8  C   UNL     1       0.669  52.096  19.737  1.00  0.00     0.048 C 
ENDROOT
BRANCH   4   9
ATOM      9  O   UNL     1       0.708  51.644  22.605  1.00  0.00    -0.508 OA
ATOM     10  H   UNL     1       1.296  50.942  23.034  1.00  0.00     0.293 HD
ENDBRANCH   4   9
TORSDOF 1
ENDMDL
MODEL 3
REMARK VINA RESULT:     7.784      1.284      2.812
REMARK INTER + INTRA:           8.011
REMARK INTER:                   8.011
REMARK INTRA:                   0.000
REMARK UNBOUND:                 0.000
REMARK SMILES Cc1cccc(O)c1C
REMARK SMILES IDX 1 1 2 2 8 3 6 4 5 5 4 6 3 7 9 8 7 9
REMARK H PARENT 7 10
REMARK Flexibility Score: inf
ROOT
ATOM      1  C   UNL     1       8.853  40.875  24.753  1.00  0.00     0.045 C 
ATOM      2  C   UNL     1       7.479  41.488  24.666  1.00  0.00    -0.045 A 
ATOM      3  C   UNL     1       7.217  42.649  23.887  1.00  0.00    -0.006 A 
ATOM      4  C   UNL     1       5.899  43.171  23.851  1.00  0.00     0.118 A 
ATOM      5  C   UNL     1       4.878  42.547  24.575  1.00  0.00     0.046 A 
ATOM      6  C   UNL     1       5.141  41.412  25.334  1.00  0.00     0.004 A 
ATOM      7  C   UNL     1       6.430  40.884  25.381  1.00  0.00     0.004 A 
ATOM      8  C   UNL     1       8.305  43.340  23.097  1.00  0.00     0.048 C 
ENDROOT
BRANCH   4   9
ATOM      9  O   UNL     1       5.568  44.308  23.109  1.00  0.00    -0.508 OA
ATOM     10  H   UNL     1       5.214  44.272  22.162  1.00  0.00     0.293 HD
ENDBRANCH   4   9
TORSDOF 1
ENDMDL
MODEL 4
REMARK VINA RESULT:     7.856      1.802      2.891
REMARK INTER + INTRA:           8.086
REMARK INTER:                   8.086
REMARK INTRA:                   0.000
REMARK UNBOUND:                 0.000
REMARK SMILES Cc1cccc(O)c1C
REMARK SMILES IDX 1 1 2 2 8 3 6 4 5 5 4 6 3 7 9 8 7 9
REMARK H PARENT 7 10
REMARK Flexibility Score: inf
ROOT
ATOM      1  C   UNL     1       8.554  43.021  23.497  1.00  0.00     0.045 C 
ATOM      2  C   UNL     1       7.288  42.502  24.130  1.00  0.00    -0.045 A 
ATOM      3  C   UNL     1       6.020  43.097  23.883  1.00  0.00    -0.006 A 
ATOM      4  C   UNL     1       4.871  42.555  24.513  1.00  0.00     0.118 A 
ATOM      5  C   UNL     1       4.992  41.453  25.364  1.00  0.00     0.046 A 
ATOM      6  C   UNL     1       6.236  40.876  25.602  1.00  0.00     0.004 A 
ATOM      7  C   UNL     1       7.376  41.394  24.991  1.00  0.00     0.004 A 
ATOM      8  C   UNL     1       5.865  44.290  22.967  1.00  0.00     0.048 C 
ENDROOT
BRANCH   4   9
ATOM      9  O   UNL     1       3.594  43.088  24.317  1.00  0.00    -0.508 OA
ATOM     10  H   UNL     1       3.269  43.446  23.429  1.00  0.00     0.293 HD
ENDBRANCH   4   9
TORSDOF 1
ENDMDL
MODEL 5
REMARK VINA RESULT:     8.078      1.102      2.110
REMARK INTER + INTRA:           8.314
REMARK INTER:                   8.314
REMARK INTRA:                   0.000
REMARK UNBOUND:                 0.000
REMARK SMILES Cc1cccc(O)c1C
REMARK SMILES IDX 1 1 2 2 8 3 6 4 5 5 4 6 3 7 9 8 7 9
REMARK H PARENT 7 10
REMARK Flexibility Score: inf
ROOT
ATOM      1  C   UNL     1       5.874  44.602  23.097  1.00  0.00     0.045 C 
ATOM      2  C   UNL     1       6.151  43.340  23.874  1.00  0.00    -0.045 A 
ATOM      3  C   UNL     1       7.432  42.723  23.883  1.00  0.00    -0.006 A 
ATOM      4  C   UNL     1       7.620  41.537  24.636  1.00  0.00     0.118 A 
ATOM      5  C   UNL     1       6.555  40.988  25.357  1.00  0.00     0.046 A 
ATOM      6  C   UNL     1       5.304  41.597  25.344  1.00  0.00     0.004 A 
ATOM      7  C   UNL     1       5.100  42.764  24.610  1.00  0.00     0.004 A 
ATOM      8  C   UNL     1       8.598  43.298  23.110  1.00  0.00     0.048 C 
ENDROOT
BRANCH   4   9
ATOM      9  O   UNL     1       8.850  40.876  24.691  1.00  0.00    -0.508 OA
ATOM     10  H   UNL     1       9.654  41.235  25.188  1.00  0.00     0.293 HD
ENDBRANCH   4   9
TORSDOF 1
ENDMDL
MODEL 6
REMARK VINA RESULT:     8.244     11.552     12.533
REMARK INTER + INTRA:           8.485
REMARK INTER:                   8.485
REMARK INTRA:                   0.000
REMARK UNBOUND:                 0.000
REMARK SMILES Cc1cccc(O)c1C
REMARK SMILES IDX 1 1 2 2 8 3 6 4 5 5 4 6 3 7 9 8 7 9
REMARK H PARENT 7 10
REMARK Flexibility Score: inf
ROOT
ATOM      1  C   UNL     1       0.707  51.712  22.541  1.00  0.00     0.045 C 
ATOM      2  C   UNL     1      -0.470  51.401  21.651  1.00  0.00    -0.045 A 
ATOM      3  C   UNL     1      -0.441  51.637  20.249  1.00  0.00    -0.006 A 
ATOM      4  C   UNL     1      -1.584  51.321  19.473  1.00  0.00     0.118 A 
ATOM      5  C   UNL     1      -2.721  50.787  20.086  1.00  0.00     0.046 A 
ATOM      6  C   UNL     1      -2.744  50.559  21.459  1.00  0.00     0.004 A 
ATOM      7  C   UNL     1      -1.629  50.863  22.237  1.00  0.00     0.004 A 
ATOM      8  C   UNL     1       0.778  52.214  19.564  1.00  0.00     0.048 C 
ENDROOT
BRANCH   4   9
ATOM      9  O   UNL     1      -1.627  51.525  18.091  1.00  0.00    -0.508 OA
ATOM     10  H   UNL     1      -0.804  51.690  17.526  1.00  0.00     0.293 HD
ENDBRANCH   4   9
TORSDOF 1
ENDMDL
MODEL 7
REMARK VINA RESULT:     8.256     11.460     12.760
REMARK INTER + INTRA:           8.497
REMARK INTER:                   8.497
REMARK INTRA:                   0.000
REMARK UNBOUND:                 0.000
REMARK SMILES Cc1cccc(O)c1C
REMARK SMILES IDX 1 1 2 2 8 3 6 4 5 5 4 6 3 7 9 8 7 9
REMARK H PARENT 7 10
REMARK Flexibility Score: inf
ROOT
ATOM      1  C   UNL     1       0.987  52.367  19.713  1.00  0.00     0.045 C 
ATOM      2  C   UNL     1      -0.361  51.754  19.995  1.00  0.00    -0.045 A 
ATOM      3  C   UNL     1      -0.736  51.316  21.295  1.00  0.00    -0.006 A 
ATOM      4  C   UNL     1      -2.021  50.748  21.486  1.00  0.00     0.118 A 
ATOM      5  C   UNL     1      -2.900  50.623  20.406  1.00  0.00     0.046 A 
ATOM      6  C   UNL     1      -2.526  51.053  19.136  1.00  0.00     0.004 A 
ATOM      7  C   UNL     1      -1.268  51.614  18.930  1.00  0.00     0.004 A 
ATOM      8  C   UNL     1       0.198  51.441  22.478  1.00  0.00     0.048 C 
ENDROOT
BRANCH   4   9
ATOM      9  O   UNL     1      -2.457  50.296  22.735  1.00  0.00    -0.508 OA
ATOM     10  H   UNL     1      -2.440  50.865  23.571  1.00  0.00     0.293 HD
ENDBRANCH   4   9
TORSDOF 1
ENDMDL
MODEL 8
REMARK VINA RESULT:     8.912     11.688     12.346
REMARK INTER + INTRA:           9.173
REMARK INTER:                   9.173
REMARK INTRA:                   0.000
REMARK UNBOUND:                 0.000
REMARK SMILES Cc1cccc(O)c1C
REMARK SMILES IDX 1 1 2 2 8 3 6 4 5 5 4 6 3 7 9 8 7 9
REMARK H PARENT 7 10
REMARK Flexibility Score: inf
ROOT
ATOM      1  C   UNL     1      -2.737  50.378  22.720  1.00  0.00     0.045 C 
ATOM      2  C   UNL     1      -1.651  50.919  21.825  1.00  0.00    -0.045 A 
ATOM      3  C   UNL     1      -1.830  51.062  20.422  1.00  0.00    -0.006 A 
ATOM      4  C   UNL     1      -0.765  51.578  19.641  1.00  0.00     0.118 A 
ATOM      5  C   UNL     1       0.441  51.937  20.251  1.00  0.00     0.046 A 
ATOM      6  C   UNL     1       0.609  51.794  21.625  1.00  0.00     0.004 A 
ATOM      7  C   UNL     1      -0.427  51.289  22.408  1.00  0.00     0.004 A 
ATOM      8  C   UNL     1      -3.125  50.680  19.740  1.00  0.00     0.048 C 
ENDROOT
BRANCH   4   9
ATOM      9  O   UNL     1      -0.868  51.746  18.257  1.00  0.00    -0.508 OA
ATOM     10  H   UNL     1      -1.729  51.996  17.789  1.00  0.00     0.293 HD
ENDBRANCH   4   9
TORSDOF 1
ENDMDL
MODEL 9
REMARK VINA RESULT:     9.190     13.287     14.454
REMARK INTER + INTRA:           9.459
REMARK INTER:                   9.459
REMARK INTRA:                   0.000
REMARK UNBOUND:                 0.000
REMARK SMILES Cc1cccc(O)c1C
REMARK SMILES IDX 1 1 2 2 8 3 6 4 5 5 4 6 3 7 9 8 7 9
REMARK H PARENT 7 10
REMARK Flexibility Score: inf
ROOT
ATOM      1  C   UNL     1      14.889  45.103  13.964  1.00  0.00     0.045 C 
ATOM      2  C   UNL     1      14.882  43.634  13.625  1.00  0.00    -0.045 A 
ATOM      3  C   UNL     1      15.932  43.023  12.887  1.00  0.00    -0.006 A 
ATOM      4  C   UNL     1      15.860  41.635  12.605  1.00  0.00     0.118 A 
ATOM      5  C   UNL     1      14.766  40.886  13.050  1.00  0.00     0.046 A 
ATOM      6  C   UNL     1      13.741  41.491  13.772  1.00  0.00     0.004 A 
ATOM      7  C   UNL     1      13.796  42.853  14.059  1.00  0.00     0.004 A 
ATOM      8  C   UNL     1      17.125  43.813  12.395  1.00  0.00     0.048 C 
ENDROOT
BRANCH   4   9
ATOM      9  O   UNL     1      16.854  40.968  11.885  1.00  0.00    -0.508 OA
ATOM     10  H   UNL     1      17.796  40.833  12.229  1.00  0.00     0.293 HD
ENDBRANCH   4   9
TORSDOF 1
ENDMDL
