MODEL 1
REMARK VINA RESULT:    -4.587      0.000      0.000
REMARK INTER + INTRA:          -6.161
REMARK INTER:                  -5.928
REMARK INTRA:                  -0.233
REMARK UNBOUND:                -0.233
REMARK SMILES CCCCCCC(=O)[O-]
REMARK SMILES IDX 5 1 6 2 7 3 8 4 9 5 4 6 3 7 2 8 1 9
REMARK H PARENT
REMARK Flexibility Score: inf
ROOT
ATOM      1  C   UNL     1     103.664 307.357 192.428  1.00  0.00     0.006 C 
ENDROOT
BRANCH   1   2
ATOM      2  C   UNL     1     102.390 307.813 191.710  1.00  0.00     0.053 C 
BRANCH   2   3
ATOM      3  C   UNL     1     102.727 308.730 190.577  1.00  0.00     0.041 C 
ATOM      4  O   UNL     1     103.912 309.119 190.407  1.00  0.00    -0.550 OA
ATOM      5  O   UNL     1     101.740 309.116 189.678  1.00  0.00    -0.550 OA
ENDBRANCH   2   3
ENDBRANCH   1   2
BRANCH   1   6
ATOM      6  C   UNL     1     103.408 306.088 193.251  1.00  0.00     0.000 C 
BRANCH   6   7
ATOM      7  C   UNL     1     101.902 305.835 193.418  1.00  0.00    -0.000 C 
BRANCH   7   8
ATOM      8  C   UNL     1     101.405 306.142 194.838  1.00  0.00    -0.003 C 
ATOM      9  C   UNL     1     102.546 306.352 195.832  1.00  0.00     0.004 C 
ENDBRANCH   7   8
ENDBRANCH   6   7
ENDBRANCH   1   6
TORSDOF 5
ENDMDL
MODEL 2
REMARK VINA RESULT:    -4.537      3.865      5.310
REMARK INTER + INTRA:          -6.096
REMARK INTER:                  -5.872
REMARK INTRA:                  -0.224
REMARK UNBOUND:                -0.233
REMARK SMILES CCCCCCC(=O)[O-]
REMARK SMILES IDX 5 1 6 2 7 3 8 4 9 5 4 6 3 7 2 8 1 9
REMARK H PARENT
REMARK Flexibility Score: inf
ROOT
ATOM      1  C   UNL     1     101.533 306.145 194.604  1.00  0.00     0.006 C 
ENDROOT
BRANCH   1   2
ATOM      2  C   UNL     1     102.603 306.503 195.640  1.00  0.00     0.053 C 
BRANCH   2   3
ATOM      3  C   UNL     1     102.057 306.364 197.026  1.00  0.00     0.041 C 
ATOM      4  O   UNL     1     101.924 307.380 197.759  1.00  0.00    -0.550 OA
ATOM      5  O   UNL     1     101.649 305.121 197.491  1.00  0.00    -0.550 OA
ENDBRANCH   2   3
ENDBRANCH   1   2
BRANCH   1   6
ATOM      6  C   UNL     1     102.170 305.795 193.253  1.00  0.00     0.000 C 
BRANCH   6   7
ATOM      7  C   UNL     1     103.605 306.336 193.165  1.00  0.00    -0.000 C 
BRANCH   7   8
ATOM      8  C   UNL     1     103.744 307.476 192.145  1.00  0.00    -0.003 C 
ATOM      9  C   UNL     1     102.404 307.901 191.546  1.00  0.00     0.004 C 
ENDBRANCH   7   8
ENDBRANCH   6   7
ENDBRANCH   1   6
TORSDOF 5
ENDMDL
MODEL 3
REMARK VINA RESULT:    -4.487     19.863     20.624
REMARK INTER + INTRA:          -6.031
REMARK INTER:                  -5.766
REMARK INTRA:                  -0.265
REMARK UNBOUND:                -0.233
REMARK SMILES CCCCCCC(=O)[O-]
REMARK SMILES IDX 5 1 6 2 7 3 8 4 9 5 4 6 3 7 2 8 1 9
REMARK H PARENT
REMARK Flexibility Score: inf
ROOT
ATOM      1  C   UNL     1      84.908 319.471 193.611  1.00  0.00     0.006 C 
ENDROOT
BRANCH   1   2
ATOM      2  C   UNL     1      86.110 319.006 192.783  1.00  0.00     0.053 C 
BRANCH   2   3
ATOM      3  C   UNL     1      85.667 318.099 191.679  1.00  0.00     0.041 C 
ATOM      4  O   UNL     1      86.479 317.746 190.784  1.00  0.00    -0.550 OA
ATOM      5  O   UNL     1      84.369 317.603 191.665  1.00  0.00    -0.550 OA
ENDBRANCH   2   3
ENDBRANCH   1   2
BRANCH   1   6
ATOM      6  C   UNL     1      85.262 320.704 194.452  1.00  0.00     0.000 C 
BRANCH   6   7
ATOM      7  C   UNL     1      86.782 320.825 194.637  1.00  0.00    -0.000 C 
BRANCH   7   8
ATOM      8  C   UNL     1      87.227 320.528 196.076  1.00  0.00    -0.003 C 
ATOM      9  C   UNL     1      87.358 319.032 196.358  1.00  0.00     0.004 C 
ENDBRANCH   7   8
ENDBRANCH   6   7
ENDBRANCH   1   6
TORSDOF 5
ENDMDL
MODEL 4
REMARK VINA RESULT:    -4.459      2.969      5.005
REMARK INTER + INTRA:          -5.995
REMARK INTER:                  -5.798
REMARK INTRA:                  -0.197
REMARK UNBOUND:                -0.233
REMARK SMILES CCCCCCC(=O)[O-]
REMARK SMILES IDX 5 1 6 2 7 3 8 4 9 5 4 6 3 7 2 8 1 9
REMARK H PARENT
REMARK Flexibility Score: inf
ROOT
ATOM      1  C   UNL     1     102.246 307.616 192.479  1.00  0.00     0.006 C 
ENDROOT
BRANCH   1   2
ATOM      2  C   UNL     1     102.256 306.174 192.994  1.00  0.00     0.053 C 
BRANCH   2   3
ATOM      3  C   UNL     1     102.260 306.151 194.490  1.00  0.00     0.041 C 
ATOM      4  O   UNL     1     101.192 305.940 195.124  1.00  0.00    -0.550 OA
ATOM      5  O   UNL     1     103.452 306.314 195.185  1.00  0.00    -0.550 OA
ENDBRANCH   2   3
ENDBRANCH   1   2
BRANCH   1   6
ATOM      6  C   UNL     1     103.609 308.001 191.892  1.00  0.00     0.000 C 
BRANCH   6   7
ATOM      7  C   UNL     1     103.443 308.905 190.662  1.00  0.00    -0.000 C 
BRANCH   7   8
ATOM      8  C   UNL     1     102.000 308.926 190.135  1.00  0.00    -0.003 C 
ATOM      9  C   UNL     1     101.872 309.639 188.789  1.00  0.00     0.004 C 
ENDBRANCH   7   8
ENDBRANCH   6   7
ENDBRANCH   1   6
TORSDOF 5
ENDMDL
MODEL 5
REMARK VINA RESULT:    -4.385     20.450     21.283
REMARK INTER + INTRA:          -5.899
REMARK INTER:                  -5.672
REMARK INTRA:                  -0.228
REMARK UNBOUND:                -0.233
REMARK SMILES CCCCCCC(=O)[O-]
REMARK SMILES IDX 5 1 6 2 7 3 8 4 9 5 4 6 3 7 2 8 1 9
REMARK H PARENT
REMARK Flexibility Score: inf
ROOT
ATOM      1  C   UNL     1      87.144 320.615 195.419  1.00  0.00     0.006 C 
ENDROOT
BRANCH   1   2
ATOM      2  C   UNL     1      86.172 320.310 196.562  1.00  0.00     0.053 C 
BRANCH   2   3
ATOM      3  C   UNL     1      86.910 320.181 197.857  1.00  0.00     0.041 C 
ATOM      4  O   UNL     1      87.272 321.211 198.485  1.00  0.00    -0.550 OA
ATOM      5  O   UNL     1      87.154 318.924 198.397  1.00  0.00    -0.550 OA
ENDBRANCH   2   3
ENDBRANCH   1   2
BRANCH   1   6
ATOM      6  C   UNL     1      86.403 320.719 194.080  1.00  0.00     0.000 C 
BRANCH   6   7
ATOM      7  C   UNL     1      85.030 320.035 194.156  1.00  0.00    -0.000 C 
BRANCH   7   8
ATOM      8  C   UNL     1      84.821 319.005 193.036  1.00  0.00    -0.003 C 
ATOM      9  C   UNL     1      86.115 318.663 192.297  1.00  0.00     0.004 C 
ENDBRANCH   7   8
ENDBRANCH   6   7
ENDBRANCH   1   6
TORSDOF 5
ENDMDL
MODEL 6
REMARK VINA RESULT:    -4.366      3.414      4.910
REMARK INTER + INTRA:          -5.875
REMARK INTER:                  -5.657
REMARK INTRA:                  -0.218
REMARK UNBOUND:                -0.233
REMARK SMILES CCCCCCC(=O)[O-]
REMARK SMILES IDX 5 1 6 2 7 3 8 4 9 5 4 6 3 7 2 8 1 9
REMARK H PARENT
REMARK Flexibility Score: inf
ROOT
ATOM      1  C   UNL     1     103.443 306.150 194.039  1.00  0.00     0.006 C 
ENDROOT
BRANCH   1   2
ATOM      2  C   UNL     1     102.029 306.260 194.617  1.00  0.00     0.053 C 
BRANCH   2   3
ATOM      3  C   UNL     1     102.083 306.594 196.074  1.00  0.00     0.041 C 
ATOM      4  O   UNL     1     102.286 307.780 196.445  1.00  0.00    -0.550 OA
ATOM      5  O   UNL     1     101.860 305.604 197.023  1.00  0.00    -0.550 OA
ENDBRANCH   2   3
ENDBRANCH   1   2
BRANCH   1   6
ATOM      6  C   UNL     1     103.595 307.021 192.786  1.00  0.00     0.000 C 
BRANCH   6   7
ATOM      7  C   UNL     1     102.229 307.520 192.293  1.00  0.00    -0.000 C 
BRANCH   7   8
ATOM      8  C   UNL     1     102.326 308.309 190.980  1.00  0.00    -0.003 C 
ATOM      9  C   UNL     1     103.712 308.911 190.752  1.00  0.00     0.004 C 
ENDBRANCH   7   8
ENDBRANCH   6   7
ENDBRANCH   1   6
TORSDOF 5
ENDMDL
MODEL 7
REMARK VINA RESULT:    -4.334     20.231     21.160
REMARK INTER + INTRA:          -5.834
REMARK INTER:                  -5.642
REMARK INTRA:                  -0.192
REMARK UNBOUND:                -0.233
REMARK SMILES CCCCCCC(=O)[O-]
REMARK SMILES IDX 5 1 6 2 7 3 8 4 9 5 4 6 3 7 2 8 1 9
REMARK H PARENT
REMARK Flexibility Score: inf
ROOT
ATOM      1  C   UNL     1      86.419 319.702 193.453  1.00  0.00     0.006 C 
ENDROOT
BRANCH   1   2
ATOM      2  C   UNL     1      86.321 320.939 194.351  1.00  0.00     0.053 C 
BRANCH   2   3
ATOM      3  C   UNL     1      85.734 320.579 195.679  1.00  0.00     0.041 C 
ATOM      4  O   UNL     1      84.604 321.022 196.013  1.00  0.00    -0.550 OA
ATOM      5  O   UNL     1      86.413 319.713 196.527  1.00  0.00    -0.550 OA
ENDBRANCH   2   3
ENDBRANCH   1   2
BRANCH   1   6
ATOM      6  C   UNL     1      85.045 319.046 193.267  1.00  0.00     0.000 C 
BRANCH   6   7
ATOM      7  C   UNL     1      85.044 318.109 192.050  1.00  0.00    -0.000 C 
BRANCH   7   8
ATOM      8  C   UNL     1      86.352 318.179 191.249  1.00  0.00    -0.003 C 
ATOM      9  C   UNL     1      86.295 317.373 189.952  1.00  0.00     0.004 C 
ENDBRANCH   7   8
ENDBRANCH   6   7
ENDBRANCH   1   6
TORSDOF 5
ENDMDL
MODEL 8
REMARK VINA RESULT:    -4.327      1.648      2.058
REMARK INTER + INTRA:          -5.824
REMARK INTER:                  -5.479
REMARK INTRA:                  -0.345
REMARK UNBOUND:                -0.233
REMARK SMILES CCCCCCC(=O)[O-]
REMARK SMILES IDX 5 1 6 2 7 3 8 4 9 5 4 6 3 7 2 8 1 9
REMARK H PARENT
REMARK Flexibility Score: inf
ROOT
ATOM      1  C   UNL     1     102.221 306.433 192.769  1.00  0.00     0.006 C 
ENDROOT
BRANCH   1   2
ATOM      2  C   UNL     1     102.234 307.597 191.774  1.00  0.00     0.053 C 
BRANCH   2   3
ATOM      3  C   UNL     1     102.438 308.896 192.488  1.00  0.00     0.041 C 
ATOM      4  O   UNL     1     101.696 309.210 193.456  1.00  0.00    -0.550 OA
ATOM      5  O   UNL     1     103.479 309.737 192.117  1.00  0.00    -0.550 OA
ENDBRANCH   2   3
ENDBRANCH   1   2
BRANCH   1   6
ATOM      6  C   UNL     1     103.616 306.202 193.363  1.00  0.00     0.000 C 
BRANCH   6   7
ATOM      7  C   UNL     1     103.560 306.154 194.897  1.00  0.00    -0.000 C 
BRANCH   7   8
ATOM      8  C   UNL     1     102.126 306.250 195.439  1.00  0.00    -0.003 C 
ATOM      9  C   UNL     1     102.030 305.902 196.924  1.00  0.00     0.004 C 
ENDBRANCH   7   8
ENDBRANCH   6   7
ENDBRANCH   1   6
TORSDOF 5
ENDMDL
MODEL 9
REMARK VINA RESULT:    -4.255      1.118      1.600
REMARK INTER + INTRA:          -5.732
REMARK INTER:                  -5.565
REMARK INTRA:                  -0.166
REMARK UNBOUND:                -0.233
REMARK SMILES CCCCCCC(=O)[O-]
REMARK SMILES IDX 5 1 6 2 7 3 8 4 9 5 4 6 3 7 2 8 1 9
REMARK H PARENT
REMARK Flexibility Score: inf
ROOT
ATOM      1  C   UNL     1     102.705 307.794 191.770  1.00  0.00     0.006 C 
ENDROOT
BRANCH   1   2
ATOM      2  C   UNL     1     103.187 308.863 190.785  1.00  0.00     0.053 C 
BRANCH   2   3
ATOM      3  C   UNL     1     102.023 309.596 190.195  1.00  0.00     0.041 C 
ATOM      4  O   UNL     1     101.586 310.640 190.747  1.00  0.00    -0.550 OA
ATOM      5  O   UNL     1     101.452 309.154 189.008  1.00  0.00    -0.550 OA
ENDBRANCH   2   3
ENDBRANCH   1   2
BRANCH   1   6
ATOM      6  C   UNL     1     103.888 307.136 192.490  1.00  0.00     0.000 C 
BRANCH   6   7
ATOM      7  C   UNL     1     103.441 305.871 193.238  1.00  0.00    -0.000 C 
BRANCH   7   8
ATOM      8  C   UNL     1     101.916 305.782 193.389  1.00  0.00    -0.003 C 
ATOM      9  C   UNL     1     101.447 306.037 194.821  1.00  0.00     0.004 C 
ENDBRANCH   7   8
ENDBRANCH   6   7
ENDBRANCH   1   6
TORSDOF 5
ENDMDL
