MODEL 1
REMARK VINA RESULT:    -3.738      0.000      0.000
REMARK INTER + INTRA:          -7.205
REMARK INTER:                  -5.924
REMARK INTRA:                  -1.281
REMARK UNBOUND:                -1.281
REMARK SMILES CCCCCCCCCCCC(=O)[O-]
REMARK SMILES IDX 7 1 8 2 9 3 10 4 11 5 12 6 13 7 14 8 6 9 5 10 4 11 3 12 2 13
REMARK SMILES IDX 1 14
REMARK H PARENT
REMARK Flexibility Score: inf
ROOT
ATOM      1  C   UNL     1       1.880  15.477  10.175  1.00  0.00     0.000 C 
ENDROOT
BRANCH   1   2
ATOM      2  C   UNL     1       2.242  14.426  11.235  1.00  0.00     0.000 C 
BRANCH   2   3
ATOM      3  C   UNL     1       3.509  14.831  11.998  1.00  0.00     0.000 C 
BRANCH   3   4
ATOM      4  C   UNL     1       4.476  13.645  12.131  1.00  0.00     0.006 C 
BRANCH   4   5
ATOM      5  C   UNL     1       5.659  13.748  11.159  1.00  0.00     0.053 C 
BRANCH   5   6
ATOM      6  C   UNL     1       6.680  12.681  11.410  1.00  0.00     0.041 C 
ATOM      7  O   UNL     1       7.858  12.819  10.986  1.00  0.00    -0.550 OA
ATOM      8  O   UNL     1       6.323  11.519  12.082  1.00  0.00    -0.550 OA
ENDBRANCH   5   6
ENDBRANCH   4   5
ENDBRANCH   3   4
ENDBRANCH   2   3
ENDBRANCH   1   2
BRANCH   1   9
ATOM      9  C   UNL     1       0.850  14.960   9.157  1.00  0.00     0.000 C 
BRANCH   9  10
ATOM     10  C   UNL     1       1.327  13.701   8.417  1.00  0.00    -0.000 C 
BRANCH  10  11
ATOM     11  C   UNL     1       2.668  13.956   7.713  1.00  0.00    -0.000 C 
BRANCH  11  12
ATOM     12  C   UNL     1       3.738  12.904   8.060  1.00  0.00    -0.000 C 
BRANCH  12  13
ATOM     13  C   UNL     1       3.189  11.500   8.365  1.00  0.00    -0.003 C 
ATOM     14  C   UNL     1       3.771  10.894   9.641  1.00  0.00     0.004 C 
ENDBRANCH  12  13
ENDBRANCH  11  12
ENDBRANCH  10  11
ENDBRANCH   9  10
ENDBRANCH   1   9
TORSDOF 10
ENDMDL
MODEL 2
REMARK VINA RESULT:    -3.713      1.361      3.768
REMARK INTER + INTRA:          -7.165
REMARK INTER:                  -5.812
REMARK INTRA:                  -1.353
REMARK UNBOUND:                -1.281
REMARK SMILES CCCCCCCCCCCC(=O)[O-]
REMARK SMILES IDX 7 1 8 2 9 3 10 4 11 5 12 6 13 7 14 8 6 9 5 10 4 11 3 12 2 13
REMARK SMILES IDX 1 14
REMARK H PARENT
REMARK Flexibility Score: inf
ROOT
ATOM      1  C   UNL     1       0.707  14.118   9.091  1.00  0.00     0.000 C 
ENDROOT
BRANCH   1   2
ATOM      2  C   UNL     1       1.255  13.332   7.890  1.00  0.00     0.000 C 
BRANCH   2   3
ATOM      3  C   UNL     1       2.631  13.861   7.470  1.00  0.00     0.000 C 
BRANCH   3   4
ATOM      4  C   UNL     1       3.748  12.898   7.899  1.00  0.00     0.006 C 
BRANCH   4   5
ATOM      5  C   UNL     1       3.199  11.548   8.378  1.00  0.00     0.053 C 
BRANCH   5   6
ATOM      6  C   UNL     1       3.931  11.045   9.584  1.00  0.00     0.041 C 
ATOM      7  O   UNL     1       3.327  10.906  10.681  1.00  0.00    -0.550 OA
ATOM      8  O   UNL     1       5.289  10.763   9.507  1.00  0.00    -0.550 OA
ENDBRANCH   5   6
ENDBRANCH   4   5
ENDBRANCH   3   4
ENDBRANCH   2   3
ENDBRANCH   1   2
BRANCH   1   9
ATOM      9  C   UNL     1       1.392  15.483   9.268  1.00  0.00     0.000 C 
BRANCH   9  10
ATOM     10  C   UNL     1       1.994  15.667  10.669  1.00  0.00    -0.000 C 
BRANCH  10  11
ATOM     11  C   UNL     1       2.605  14.354  11.179  1.00  0.00    -0.000 C 
BRANCH  11  12
ATOM     12  C   UNL     1       3.908  14.565  11.972  1.00  0.00    -0.000 C 
BRANCH  12  13
ATOM     13  C   UNL     1       5.172  13.999  11.301  1.00  0.00    -0.003 C 
ATOM     14  C   UNL     1       5.956  13.051  12.208  1.00  0.00     0.004 C 
ENDBRANCH  12  13
ENDBRANCH  11  12
ENDBRANCH  10  11
ENDBRANCH   9  10
ENDBRANCH   1   9
TORSDOF 10
ENDMDL
MODEL 3
REMARK VINA RESULT:    -3.700      1.986      3.523
REMARK INTER + INTRA:          -7.144
REMARK INTER:                  -5.817
REMARK INTRA:                  -1.327
REMARK UNBOUND:                -1.281
REMARK SMILES CCCCCCCCCCCC(=O)[O-]
REMARK SMILES IDX 7 1 8 2 9 3 10 4 11 5 12 6 13 7 14 8 6 9 5 10 4 11 3 12 2 13
REMARK SMILES IDX 1 14
REMARK H PARENT
REMARK Flexibility Score: inf
ROOT
ATOM      1  C   UNL     1       3.601  14.933  12.183  1.00  0.00     0.000 C 
ENDROOT
BRANCH   1   2
ATOM      2  C   UNL     1       4.839  14.081  11.866  1.00  0.00     0.000 C 
BRANCH   2   3
ATOM      3  C   UNL     1       4.765  13.514  10.444  1.00  0.00     0.000 C 
BRANCH   3   4
ATOM      4  C   UNL     1       4.877  11.982  10.454  1.00  0.00     0.006 C 
BRANCH   4   5
ATOM      5  C   UNL     1       3.672  11.307   9.786  1.00  0.00     0.053 C 
BRANCH   5   6
ATOM      6  C   UNL     1       2.628  10.918  10.787  1.00  0.00     0.041 C 
ATOM      7  O   UNL     1       2.888  10.947  12.019  1.00  0.00    -0.550 OA
ATOM      8  O   UNL     1       1.378  10.490  10.358  1.00  0.00    -0.550 OA
ENDBRANCH   5   6
ENDBRANCH   4   5
ENDBRANCH   3   4
ENDBRANCH   2   3
ENDBRANCH   1   2
BRANCH   1   9
ATOM      9  C   UNL     1       2.427  14.650  11.232  1.00  0.00     0.000 C 
BRANCH   9  10
ATOM     10  C   UNL     1       1.846  15.929  10.610  1.00  0.00    -0.000 C 
BRANCH  10  11
ATOM     11  C   UNL     1       1.240  15.640   9.229  1.00  0.00    -0.000 C 
BRANCH  11  12
ATOM     12  C   UNL     1       1.500  14.202   8.748  1.00  0.00    -0.000 C 
BRANCH  12  13
ATOM     13  C   UNL     1       2.443  14.085   7.537  1.00  0.00    -0.003 C 
ATOM     14  C   UNL     1       1.890  13.187   6.432  1.00  0.00     0.004 C 
ENDBRANCH  12  13
ENDBRANCH  11  12
ENDBRANCH  10  11
ENDBRANCH   9  10
ENDBRANCH   1   9
TORSDOF 10
ENDMDL
MODEL 4
REMARK VINA RESULT:    -3.669      1.543      3.955
REMARK INTER + INTRA:          -7.094
REMARK INTER:                  -5.942
REMARK INTRA:                  -1.153
REMARK UNBOUND:                -1.281
REMARK SMILES CCCCCCCCCCCC(=O)[O-]
REMARK SMILES IDX 7 1 8 2 9 3 10 4 11 5 12 6 13 7 14 8 6 9 5 10 4 11 3 12 2 13
REMARK SMILES IDX 1 14
REMARK H PARENT
REMARK Flexibility Score: inf
ROOT
ATOM      1  C   UNL     1       2.287  13.986  10.919  1.00  0.00     0.000 C 
ENDROOT
BRANCH   1   2
ATOM      2  C   UNL     1       1.634  14.772   9.773  1.00  0.00     0.000 C 
BRANCH   2   3
ATOM      3  C   UNL     1       2.104  14.248   8.411  1.00  0.00     0.000 C 
BRANCH   3   4
ATOM      4  C   UNL     1       3.463  13.543   8.530  1.00  0.00     0.006 C 
BRANCH   4   5
ATOM      5  C   UNL     1       3.396  12.074   8.090  1.00  0.00     0.053 C 
BRANCH   5   6
ATOM      6  C   UNL     1       4.389  11.227   8.826  1.00  0.00     0.041 C 
ATOM      7  O   UNL     1       4.158  10.865  10.010  1.00  0.00    -0.550 OA
ATOM      8  O   UNL     1       5.584  10.866   8.217  1.00  0.00    -0.550 OA
ENDBRANCH   5   6
ENDBRANCH   4   5
ENDBRANCH   3   4
ENDBRANCH   2   3
ENDBRANCH   1   2
BRANCH   1   9
ATOM      9  C   UNL     1       2.630  14.875  12.127  1.00  0.00     0.000 C 
BRANCH   9  10
ATOM     10  C   UNL     1       4.143  15.004  12.357  1.00  0.00    -0.000 C 
BRANCH  10  11
ATOM     11  C   UNL     1       4.857  13.676  12.066  1.00  0.00    -0.000 C 
BRANCH  11  12
ATOM     12  C   UNL     1       6.012  13.822  11.059  1.00  0.00    -0.000 C 
BRANCH  12  13
ATOM     13  C   UNL     1       7.141  12.788  11.215  1.00  0.00    -0.003 C 
ATOM     14  C   UNL     1       6.844  11.736  12.283  1.00  0.00     0.004 C 
ENDBRANCH  12  13
ENDBRANCH  11  12
ENDBRANCH  10  11
ENDBRANCH   9  10
ENDBRANCH   1   9
TORSDOF 10
ENDMDL
MODEL 5
REMARK VINA RESULT:    -3.603      1.496      3.310
REMARK INTER + INTRA:          -6.990
REMARK INTER:                  -5.744
REMARK INTRA:                  -1.246
REMARK UNBOUND:                -1.281
REMARK SMILES CCCCCCCCCCCC(=O)[O-]
REMARK SMILES IDX 7 1 8 2 9 3 10 4 11 5 12 6 13 7 14 8 6 9 5 10 4 11 3 12 2 13
REMARK SMILES IDX 1 14
REMARK H PARENT
REMARK Flexibility Score: inf
ROOT
ATOM      1  C   UNL     1       4.840  13.870  12.556  1.00  0.00     0.000 C 
ENDROOT
BRANCH   1   2
ATOM      2  C   UNL     1       5.643  13.852  11.247  1.00  0.00     0.000 C 
BRANCH   2   3
ATOM      3  C   UNL     1       5.647  12.451  10.625  1.00  0.00     0.000 C 
BRANCH   3   4
ATOM      4  C   UNL     1       6.013  11.385  11.669  1.00  0.00     0.006 C 
BRANCH   4   5
ATOM      5  C   UNL     1       7.474  10.932  11.550  1.00  0.00     0.053 C 
BRANCH   5   6
ATOM      6  C   UNL     1       8.398  11.827  12.317  1.00  0.00     0.041 C 
ATOM      7  O   UNL     1       8.118  12.166  13.497  1.00  0.00    -0.550 OA
ATOM      8  O   UNL     1       9.553  12.314  11.717  1.00  0.00    -0.550 OA
ENDBRANCH   5   6
ENDBRANCH   4   5
ENDBRANCH   3   4
ENDBRANCH   2   3
ENDBRANCH   1   2
BRANCH   1   9
ATOM      9  C   UNL     1       3.804  15.006  12.600  1.00  0.00     0.000 C 
BRANCH   9  10
ATOM     10  C   UNL     1       2.866  15.001  11.384  1.00  0.00    -0.000 C 
BRANCH  10  11
ATOM     11  C   UNL     1       1.998  13.734  11.368  1.00  0.00    -0.000 C 
BRANCH  11  12
ATOM     12  C   UNL     1       2.015  13.011  10.009  1.00  0.00    -0.000 C 
BRANCH  12  13
ATOM     13  C   UNL     1       2.241  13.927   8.792  1.00  0.00    -0.003 C 
ATOM     14  C   UNL     1       3.316  13.403   7.842  1.00  0.00     0.004 C 
ENDBRANCH  12  13
ENDBRANCH  11  12
ENDBRANCH  10  11
ENDBRANCH   9  10
ENDBRANCH   1   9
TORSDOF 10
ENDMDL
MODEL 6
REMARK VINA RESULT:    -3.579      2.162      4.684
REMARK INTER + INTRA:          -6.952
REMARK INTER:                  -6.071
REMARK INTRA:                  -0.882
REMARK UNBOUND:                -1.281
REMARK SMILES CCCCCCCCCCCC(=O)[O-]
REMARK SMILES IDX 7 1 8 2 9 3 10 4 11 5 12 6 13 7 14 8 6 9 5 10 4 11 3 12 2 13
REMARK SMILES IDX 1 14
REMARK H PARENT
REMARK Flexibility Score: inf
ROOT
ATOM      1  C   UNL     1       3.326  14.846  12.063  1.00  0.00     0.000 C 
ENDROOT
BRANCH   1   2
ATOM      2  C   UNL     1       2.492  13.987  11.102  1.00  0.00     0.000 C 
BRANCH   2   3
ATOM      3  C   UNL     1       1.953  14.829   9.939  1.00  0.00     0.000 C 
BRANCH   3   4
ATOM      4  C   UNL     1       1.948  14.025   8.631  1.00  0.00     0.006 C 
BRANCH   4   5
ATOM      5  C   UNL     1       3.354  13.559   8.230  1.00  0.00     0.053 C 
BRANCH   5   6
ATOM      6  C   UNL     1       3.459  12.065   8.202  1.00  0.00     0.041 C 
ATOM      7  O   UNL     1       4.575  11.505   8.364  1.00  0.00    -0.550 OA
ATOM      8  O   UNL     1       2.329  11.292   7.964  1.00  0.00    -0.550 OA
ENDBRANCH   5   6
ENDBRANCH   4   5
ENDBRANCH   3   4
ENDBRANCH   2   3
ENDBRANCH   1   2
BRANCH   1   9
ATOM      9  C   UNL     1       4.689  14.214  12.391  1.00  0.00     0.000 C 
BRANCH   9  10
ATOM     10  C   UNL     1       5.560  14.001  11.143  1.00  0.00    -0.000 C 
BRANCH  10  11
ATOM     11  C   UNL     1       6.329  12.675  11.233  1.00  0.00    -0.000 C 
BRANCH  11  12
ATOM     12  C   UNL     1       6.912  12.413  12.633  1.00  0.00    -0.000 C 
BRANCH  12  13
ATOM     13  C   UNL     1       8.393  11.994  12.650  1.00  0.00    -0.003 C 
ATOM     14  C   UNL     1       9.079  12.171  11.296  1.00  0.00     0.004 C 
ENDBRANCH  12  13
ENDBRANCH  11  12
ENDBRANCH  10  11
ENDBRANCH   9  10
ENDBRANCH   1   9
TORSDOF 10
ENDMDL
MODEL 7
REMARK VINA RESULT:    -3.556      2.411      5.090
REMARK INTER + INTRA:          -6.916
REMARK INTER:                  -5.846
REMARK INTRA:                  -1.070
REMARK UNBOUND:                -1.281
REMARK SMILES CCCCCCCCCCCC(=O)[O-]
REMARK SMILES IDX 7 1 8 2 9 3 10 4 11 5 12 6 13 7 14 8 6 9 5 10 4 11 3 12 2 13
REMARK SMILES IDX 1 14
REMARK H PARENT
REMARK Flexibility Score: inf
ROOT
ATOM      1  C   UNL     1       4.910  13.631  12.417  1.00  0.00     0.000 C 
ENDROOT
BRANCH   1   2
ATOM      2  C   UNL     1       4.122  14.949  12.392  1.00  0.00     0.000 C 
BRANCH   2   3
ATOM      3  C   UNL     1       2.656  14.705  12.014  1.00  0.00     0.000 C 
BRANCH   3   4
ATOM      4  C   UNL     1       2.503  14.514  10.498  1.00  0.00     0.006 C 
BRANCH   4   5
ATOM      5  C   UNL     1       2.118  13.075  10.130  1.00  0.00     0.053 C 
BRANCH   5   6
ATOM      6  C   UNL     1       2.962  12.542   9.012  1.00  0.00     0.041 C 
ATOM      7  O   UNL     1       2.904  11.323   8.699  1.00  0.00    -0.550 OA
ATOM      8  O   UNL     1       3.837  13.384   8.338  1.00  0.00    -0.550 OA
ENDBRANCH   5   6
ENDBRANCH   4   5
ENDBRANCH   3   4
ENDBRANCH   2   3
ENDBRANCH   1   2
BRANCH   1   9
ATOM      9  C   UNL     1       5.961  13.548  11.297  1.00  0.00     0.000 C 
BRANCH   9  10
ATOM     10  C   UNL     1       6.190  12.110  10.805  1.00  0.00    -0.000 C 
BRANCH  10  11
ATOM     11  C   UNL     1       7.006  11.306  11.827  1.00  0.00    -0.000 C 
BRANCH  11  12
ATOM     12  C   UNL     1       8.270  12.044  12.302  1.00  0.00    -0.000 C 
BRANCH  12  13
ATOM     13  C   UNL     1       8.508  12.007  13.822  1.00  0.00    -0.003 C 
ATOM     14  C   UNL     1       7.218  11.850  14.626  1.00  0.00     0.004 C 
ENDBRANCH  12  13
ENDBRANCH  11  12
ENDBRANCH  10  11
ENDBRANCH   9  10
ENDBRANCH   1   9
TORSDOF 10
ENDMDL
MODEL 8
REMARK VINA RESULT:    -3.522      2.897      5.213
REMARK INTER + INTRA:          -6.863
REMARK INTER:                  -5.390
REMARK INTRA:                  -1.473
REMARK UNBOUND:                -1.281
REMARK SMILES CCCCCCCCCCCC(=O)[O-]
REMARK SMILES IDX 7 1 8 2 9 3 10 4 11 5 12 6 13 7 14 8 6 9 5 10 4 11 3 12 2 13
REMARK SMILES IDX 1 14
REMARK H PARENT
REMARK Flexibility Score: inf
ROOT
ATOM      1  C   UNL     1       5.060  11.625  11.425  1.00  0.00     0.000 C 
ENDROOT
BRANCH   1   2
ATOM      2  C   UNL     1       5.720  11.164  10.117  1.00  0.00     0.000 C 
BRANCH   2   3
ATOM      3  C   UNL     1       4.677  10.990   9.007  1.00  0.00     0.000 C 
BRANCH   3   4
ATOM      4  C   UNL     1       3.515  11.980   9.182  1.00  0.00     0.006 C 
BRANCH   4   5
ATOM      5  C   UNL     1       3.661  13.212   8.279  1.00  0.00     0.053 C 
BRANCH   5   6
ATOM      6  C   UNL     1       2.339  13.669   7.743  1.00  0.00     0.041 C 
ATOM      7  O   UNL     1       2.193  13.876   6.510  1.00  0.00    -0.550 OA
ATOM      8  O   UNL     1       1.278  13.900   8.610  1.00  0.00    -0.550 OA
ENDBRANCH   5   6
ENDBRANCH   4   5
ENDBRANCH   3   4
ENDBRANCH   2   3
ENDBRANCH   1   2
BRANCH   1   9
ATOM      9  C   UNL     1       5.815  12.786  12.093  1.00  0.00     0.000 C 
BRANCH   9  10
ATOM     10  C   UNL     1       5.426  14.156  11.517  1.00  0.00    -0.000 C 
BRANCH  10  11
ATOM     11  C   UNL     1       4.328  14.815  12.363  1.00  0.00    -0.000 C 
BRANCH  11  12
ATOM     12  C   UNL     1       2.956  14.828  11.664  1.00  0.00    -0.000 C 
BRANCH  12  13
ATOM     13  C   UNL     1       1.997  13.707  12.101  1.00  0.00    -0.003 C 
ATOM     14  C   UNL     1       2.241  13.235  13.534  1.00  0.00     0.004 C 
ENDBRANCH  12  13
ENDBRANCH  11  12
ENDBRANCH  10  11
ENDBRANCH   9  10
ENDBRANCH   1   9
TORSDOF 10
ENDMDL
MODEL 9
REMARK VINA RESULT:    -3.508      2.861      5.220
REMARK INTER + INTRA:          -6.840
REMARK INTER:                  -5.545
REMARK INTRA:                  -1.295
REMARK UNBOUND:                -1.281
REMARK SMILES CCCCCCCCCCCC(=O)[O-]
REMARK SMILES IDX 7 1 8 2 9 3 10 4 11 5 12 6 13 7 14 8 6 9 5 10 4 11 3 12 2 13
REMARK SMILES IDX 1 14
REMARK H PARENT
REMARK Flexibility Score: inf
ROOT
ATOM      1  C   UNL     1       3.480  12.243  11.098  1.00  0.00     0.000 C 
ENDROOT
BRANCH   1   2
ATOM      2  C   UNL     1       3.983  11.829   9.707  1.00  0.00     0.000 C 
BRANCH   2   3
ATOM      3  C   UNL     1       4.071  13.041   8.772  1.00  0.00     0.000 C 
BRANCH   3   4
ATOM      4  C   UNL     1       3.042  12.937   7.636  1.00  0.00     0.006 C 
BRANCH   4   5
ATOM      5  C   UNL     1       2.232  14.228   7.465  1.00  0.00     0.053 C 
BRANCH   5   6
ATOM      6  C   UNL     1       1.385  14.518   8.665  1.00  0.00     0.041 C 
ATOM      7  O   UNL     1       1.407  15.660   9.196  1.00  0.00    -0.550 OA
ATOM      8  O   UNL     1       0.597  13.517   9.220  1.00  0.00    -0.550 OA
ENDBRANCH   5   6
ENDBRANCH   4   5
ENDBRANCH   3   4
ENDBRANCH   2   3
ENDBRANCH   1   2
BRANCH   1   9
ATOM      9  C   UNL     1       3.798  13.711  11.431  1.00  0.00     0.000 C 
BRANCH   9  10
ATOM     10  C   UNL     1       5.216  13.898  11.990  1.00  0.00    -0.000 C 
BRANCH  10  11
ATOM     11  C   UNL     1       5.542  12.816  13.030  1.00  0.00    -0.000 C 
BRANCH  11  12
ATOM     12  C   UNL     1       6.960  12.238  12.873  1.00  0.00    -0.000 C 
BRANCH  12  13
ATOM     13  C   UNL     1       7.404  12.003  11.418  1.00  0.00    -0.003 C 
ATOM     14  C   UNL     1       7.242  10.551  10.971  1.00  0.00     0.004 C 
ENDBRANCH  12  13
ENDBRANCH  11  12
ENDBRANCH  10  11
ENDBRANCH   9  10
ENDBRANCH   1   9
TORSDOF 10
ENDMDL
