MODEL 1
REMARK VINA RESULT:    -7.376      0.000      0.000
REMARK INTER + INTRA:         -12.354
REMARK INTER:                 -10.394
REMARK INTRA:                  -1.960
REMARK UNBOUND:                -1.960
REMARK SMILES O=C(C=Cc1ccc(O)cc1)CC(=O)C=Cc1ccc(O)cc1
REMARK SMILES IDX 12 1 2 2 1 3 3 4 4 5 5 6 6 7 7 8 8 9 11 10 10 11 9 12 13 14
REMARK SMILES IDX 14 15 15 16 16 17 17 18 18 19 23 20 19 21 22 22 20 23 21 24
REMARK H PARENT 9 13 21 25
REMARK Flexibility Score: inf
ROOT
ATOM      1  C   UNL     1     -35.212  38.592  41.962  1.00  0.00     0.160 C 
ENDROOT
BRANCH   1   2
ATOM      2  C   UNL     1     -34.627  38.967  40.636  1.00  0.00     0.163 C 
ATOM      3  O   UNL     1     -35.308  38.792  39.589  1.00  0.00    -0.294 OA
BRANCH   2   4
ATOM      4  C   UNL     1     -33.261  39.529  40.565  1.00  0.00     0.048 C 
ATOM      5  C   UNL     1     -32.939  40.806  40.823  1.00  0.00     0.012 C 
BRANCH   5   6
ATOM      6  C   UNL     1     -33.853  41.812  41.408  1.00  0.00    -0.025 A 
ATOM      7  C   UNL     1     -34.056  41.894  42.797  1.00  0.00     0.012 A 
ATOM      8  C   UNL     1     -34.891  42.882  43.329  1.00  0.00     0.047 A 
ATOM      9  C   UNL     1     -35.513  43.808  42.486  1.00  0.00     0.115 A 
ATOM     10  C   UNL     1     -34.455  42.761  40.569  1.00  0.00     0.012 A 
ATOM     11  C   UNL     1     -35.289  43.748  41.104  1.00  0.00     0.047 A 
BRANCH   9  12
ATOM     12  O   UNL     1     -36.342  44.785  43.030  1.00  0.00    -0.508 OA
ATOM     13  H   UNL     1     -37.336  44.805  42.834  1.00  0.00     0.293 HD
ENDBRANCH   9  12
ENDBRANCH   5   6
ENDBRANCH   2   4
ENDBRANCH   1   2
BRANCH   1  14
ATOM     14  C   UNL     1     -36.700  38.763  41.929  1.00  0.00     0.163 C 
ATOM     15  O   UNL     1     -37.437  37.754  42.096  1.00  0.00    -0.294 OA
BRANCH  14  16
ATOM     16  C   UNL     1     -37.279  40.121  41.823  1.00  0.00     0.048 C 
ATOM     17  C   UNL     1     -37.740  40.857  42.848  1.00  0.00     0.012 C 
BRANCH  17  18
ATOM     18  C   UNL     1     -37.920  40.376  44.232  1.00  0.00    -0.025 A 
ATOM     19  C   UNL     1     -39.073  39.649  44.563  1.00  0.00     0.012 A 
ATOM     20  C   UNL     1     -36.913  40.547  45.200  1.00  0.00     0.012 A 
ATOM     21  C   UNL     1     -39.243  39.143  45.855  1.00  0.00     0.047 A 
ATOM     22  C   UNL     1     -37.086  40.040  46.492  1.00  0.00     0.047 A 
ATOM     23  C   UNL     1     -38.254  39.341  46.824  1.00  0.00     0.115 A 
BRANCH  23  24
ATOM     24  O   UNL     1     -38.437  38.833  48.108  1.00  0.00    -0.508 OA
ATOM     25  H   UNL     1     -37.711  38.900  48.812  1.00  0.00     0.293 HD
ENDBRANCH  23  24
ENDBRANCH  17  18
ENDBRANCH  14  16
ENDBRANCH   1  14
TORSDOF 8
ENDMDL
MODEL 2
REMARK VINA RESULT:    -7.371      2.153      6.614
REMARK INTER + INTRA:         -12.347
REMARK INTER:                 -10.366
REMARK INTRA:                  -1.981
REMARK UNBOUND:                -1.960
REMARK SMILES O=C(C=Cc1ccc(O)cc1)CC(=O)C=Cc1ccc(O)cc1
REMARK SMILES IDX 12 1 2 2 1 3 3 4 4 5 5 6 6 7 7 8 8 9 11 10 10 11 9 12 13 14
REMARK SMILES IDX 14 15 15 16 16 17 17 18 18 19 23 20 19 21 22 22 20 23 21 24
REMARK H PARENT 9 13 21 25
REMARK Flexibility Score: inf
ROOT
ATOM      1  C   UNL     1     -34.762  40.309  45.608  1.00  0.00     0.160 C 
ENDROOT
BRANCH   1   2
ATOM      2  C   UNL     1     -36.062  41.052  45.629  1.00  0.00     0.163 C 
ATOM      3  O   UNL     1     -36.372  41.724  46.649  1.00  0.00    -0.294 OA
BRANCH   2   4
ATOM      4  C   UNL     1     -36.969  40.985  44.462  1.00  0.00     0.048 C 
ATOM      5  C   UNL     1     -37.855  40.005  44.231  1.00  0.00     0.012 C 
BRANCH   5   6
ATOM      6  C   UNL     1     -38.212  38.937  45.191  1.00  0.00    -0.025 A 
ATOM      7  C   UNL     1     -37.406  37.796  45.347  1.00  0.00     0.012 A 
ATOM      8  C   UNL     1     -37.741  36.820  46.292  1.00  0.00     0.047 A 
ATOM      9  C   UNL     1     -38.868  36.984  47.103  1.00  0.00     0.115 A 
ATOM     10  C   UNL     1     -39.325  39.111  46.027  1.00  0.00     0.012 A 
ATOM     11  C   UNL     1     -39.658  38.134  46.971  1.00  0.00     0.047 A 
BRANCH   9  12
ATOM     12  O   UNL     1     -39.190  36.005  48.039  1.00  0.00    -0.508 OA
ATOM     13  H   UNL     1     -38.479  35.412  48.451  1.00  0.00     0.293 HD
ENDBRANCH   9  12
ENDBRANCH   5   6
ENDBRANCH   2   4
ENDBRANCH   1   2
BRANCH   1  14
ATOM     14  C   UNL     1     -33.872  40.869  44.541  1.00  0.00     0.163 C 
ATOM     15  O   UNL     1     -33.719  42.118  44.463  1.00  0.00    -0.294 OA
BRANCH  14  16
ATOM     16  C   UNL     1     -33.098  39.951  43.676  1.00  0.00     0.048 C 
ATOM     17  C   UNL     1     -33.425  39.596  42.422  1.00  0.00     0.012 C 
BRANCH  17  18
ATOM     18  C   UNL     1     -34.702  39.911  41.750  1.00  0.00    -0.025 A 
ATOM     19  C   UNL     1     -34.930  41.213  41.282  1.00  0.00     0.012 A 
ATOM     20  C   UNL     1     -35.652  38.908  41.482  1.00  0.00     0.012 A 
ATOM     21  C   UNL     1     -36.111  41.523  40.601  1.00  0.00     0.047 A 
ATOM     22  C   UNL     1     -36.832  39.220  40.801  1.00  0.00     0.047 A 
ATOM     23  C   UNL     1     -37.067  40.530  40.362  1.00  0.00     0.115 A 
BRANCH  23  24
ATOM     24  O   UNL     1     -38.240  40.852  39.684  1.00  0.00    -0.508 OA
ATOM     25  H   UNL     1     -38.734  41.719  39.863  1.00  0.00     0.293 HD
ENDBRANCH  23  24
ENDBRANCH  17  18
ENDBRANCH  14  16
ENDBRANCH   1  14
TORSDOF 8
ENDMDL
MODEL 3
REMARK VINA RESULT:    -7.349      2.372      3.635
REMARK INTER + INTRA:         -12.317
REMARK INTER:                 -10.035
REMARK INTRA:                  -2.282
REMARK UNBOUND:                -1.960
REMARK SMILES O=C(C=Cc1ccc(O)cc1)CC(=O)C=Cc1ccc(O)cc1
REMARK SMILES IDX 12 1 2 2 1 3 3 4 4 5 5 6 6 7 7 8 8 9 11 10 10 11 9 12 13 14
REMARK SMILES IDX 14 15 15 16 16 17 17 18 18 19 23 20 19 21 22 22 20 23 21 24
REMARK H PARENT 9 13 21 25
REMARK Flexibility Score: inf
ROOT
ATOM      1  C   UNL     1     -34.774  41.799  44.859  1.00  0.00     0.160 C 
ENDROOT
BRANCH   1   2
ATOM      2  C   UNL     1     -34.076  40.480  44.724  1.00  0.00     0.163 C 
ATOM      3  O   UNL     1     -34.403  39.529  45.484  1.00  0.00    -0.294 OA
BRANCH   2   4
ATOM      4  C   UNL     1     -33.012  40.308  43.711  1.00  0.00     0.048 C 
ATOM      5  C   UNL     1     -33.220  40.151  42.395  1.00  0.00     0.012 C 
BRANCH   5   6
ATOM      6  C   UNL     1     -34.522  40.318  41.714  1.00  0.00    -0.025 A 
ATOM      7  C   UNL     1     -34.965  41.582  41.284  1.00  0.00     0.012 A 
ATOM      8  C   UNL     1     -36.180  41.709  40.604  1.00  0.00     0.047 A 
ATOM      9  C   UNL     1     -36.953  40.577  40.326  1.00  0.00     0.115 A 
ATOM     10  C   UNL     1     -35.286  39.182  41.407  1.00  0.00     0.012 A 
ATOM     11  C   UNL     1     -36.501  39.312  40.725  1.00  0.00     0.047 A 
BRANCH   9  12
ATOM     12  O   UNL     1     -38.161  40.718  39.647  1.00  0.00    -0.508 OA
ATOM     13  H   UNL     1     -38.984  40.192  39.917  1.00  0.00     0.293 HD
ENDBRANCH   9  12
ENDBRANCH   5   6
ENDBRANCH   2   4
ENDBRANCH   1   2
BRANCH   1  14
ATOM     14  C   UNL     1     -36.206  41.581  45.239  1.00  0.00     0.163 C 
ATOM     15  O   UNL     1     -36.543  41.687  46.449  1.00  0.00    -0.294 OA
BRANCH  14  16
ATOM     16  C   UNL     1     -37.220  41.363  44.182  1.00  0.00     0.048 C 
ATOM     17  C   UNL     1     -37.975  40.262  44.038  1.00  0.00     0.012 C 
BRANCH  17  18
ATOM     18  C   UNL     1     -37.805  39.004  44.792  1.00  0.00    -0.025 A 
ATOM     19  C   UNL     1     -38.503  38.823  45.995  1.00  0.00     0.012 A 
ATOM     20  C   UNL     1     -37.034  37.945  44.278  1.00  0.00     0.012 A 
ATOM     21  C   UNL     1     -38.394  37.621  46.701  1.00  0.00     0.047 A 
ATOM     22  C   UNL     1     -36.926  36.744  44.986  1.00  0.00     0.047 A 
ATOM     23  C   UNL     1     -37.603  36.581  46.203  1.00  0.00     0.115 A 
BRANCH  23  24
ATOM     24  O   UNL     1     -37.502  35.390  46.917  1.00  0.00    -0.508 OA
ATOM     25  H   UNL     1     -37.900  35.293  47.844  1.00  0.00     0.293 HD
ENDBRANCH  23  24
ENDBRANCH  17  18
ENDBRANCH  14  16
ENDBRANCH   1  14
TORSDOF 8
ENDMDL
MODEL 4
REMARK VINA RESULT:    -7.340      1.256      2.101
REMARK INTER + INTRA:         -12.304
REMARK INTER:                 -10.339
REMARK INTRA:                  -1.965
REMARK UNBOUND:                -1.960
REMARK SMILES O=C(C=Cc1ccc(O)cc1)CC(=O)C=Cc1ccc(O)cc1
REMARK SMILES IDX 12 1 2 2 1 3 3 4 4 5 5 6 6 7 7 8 8 9 11 10 10 11 9 12 13 14
REMARK SMILES IDX 14 15 15 16 16 17 17 18 18 19 23 20 19 21 22 22 20 23 21 24
REMARK H PARENT 9 13 21 25
REMARK Flexibility Score: inf
ROOT
ATOM      1  C   UNL     1     -35.508  38.456  41.878  1.00  0.00     0.160 C 
ENDROOT
BRANCH   1   2
ATOM      2  C   UNL     1     -34.784  38.346  43.185  1.00  0.00     0.163 C 
ATOM      3  O   UNL     1     -35.399  37.914  44.197  1.00  0.00    -0.294 OA
BRANCH   2   4
ATOM      4  C   UNL     1     -33.364  38.750  43.277  1.00  0.00     0.048 C 
ATOM      5  C   UNL     1     -32.912  40.008  43.155  1.00  0.00     0.012 C 
BRANCH   5   6
ATOM      6  C   UNL     1     -33.762  41.216  43.104  1.00  0.00    -0.025 A 
ATOM      7  C   UNL     1     -34.187  41.760  41.879  1.00  0.00     0.012 A 
ATOM      8  C   UNL     1     -35.027  42.878  41.858  1.00  0.00     0.047 A 
ATOM      9  C   UNL     1     -35.468  43.450  43.055  1.00  0.00     0.115 A 
ATOM     10  C   UNL     1     -34.232  41.775  44.303  1.00  0.00     0.012 A 
ATOM     11  C   UNL     1     -35.072  42.893  44.279  1.00  0.00     0.047 A 
BRANCH   9  12
ATOM     12  O   UNL     1     -36.304  44.563  43.019  1.00  0.00    -0.508 OA
ATOM     13  H   UNL     1     -37.213  44.559  43.466  1.00  0.00     0.293 HD
ENDBRANCH   9  12
ENDBRANCH   5   6
ENDBRANCH   2   4
ENDBRANCH   1   2
BRANCH   1  14
ATOM     14  C   UNL     1     -36.969  38.680  42.123  1.00  0.00     0.163 C 
ATOM     15  O   UNL     1     -37.700  37.695  42.417  1.00  0.00    -0.294 OA
BRANCH  14  16
ATOM     16  C   UNL     1     -37.507  40.059  42.135  1.00  0.00     0.048 C 
ATOM     17  C   UNL     1     -37.957  40.712  43.219  1.00  0.00     0.012 C 
BRANCH  17  18
ATOM     18  C   UNL     1     -38.167  40.114  44.553  1.00  0.00    -0.025 A 
ATOM     19  C   UNL     1     -37.181  40.269  45.537  1.00  0.00     0.012 A 
ATOM     20  C   UNL     1     -39.378  39.479  44.885  1.00  0.00     0.012 A 
ATOM     21  C   UNL     1     -37.378  39.752  46.822  1.00  0.00     0.047 A 
ATOM     22  C   UNL     1     -39.573  38.963  46.169  1.00  0.00     0.047 A 
ATOM     23  C   UNL     1     -38.571  39.094  47.140  1.00  0.00     0.115 A 
BRANCH  23  24
ATOM     24  O   UNL     1     -38.754  38.583  48.423  1.00  0.00    -0.508 OA
ATOM     25  H   UNL     1     -38.065  37.978  48.855  1.00  0.00     0.293 HD
ENDBRANCH  23  24
ENDBRANCH  17  18
ENDBRANCH  14  16
ENDBRANCH   1  14
TORSDOF 8
ENDMDL
MODEL 5
REMARK VINA RESULT:    -7.338      2.519      3.979
REMARK INTER + INTRA:         -12.301
REMARK INTER:                 -10.028
REMARK INTRA:                  -2.272
REMARK UNBOUND:                -1.960
REMARK SMILES O=C(C=Cc1ccc(O)cc1)CC(=O)C=Cc1ccc(O)cc1
REMARK SMILES IDX 12 1 2 2 1 3 3 4 4 5 5 6 6 7 7 8 8 9 11 10 10 11 9 12 13 14
REMARK SMILES IDX 14 15 15 16 16 17 17 18 18 19 23 20 19 21 22 22 20 23 21 24
REMARK H PARENT 9 13 21 25
REMARK Flexibility Score: inf
ROOT
ATOM      1  C   UNL     1     -36.987  37.306  42.583  1.00  0.00     0.160 C 
ENDROOT
BRANCH   1   2
ATOM      2  C   UNL     1     -37.753  38.592  42.624  1.00  0.00     0.163 C 
ATOM      3  O   UNL     1     -37.874  39.203  43.720  1.00  0.00    -0.294 OA
BRANCH   2   4
ATOM      4  C   UNL     1     -38.364  39.127  41.388  1.00  0.00     0.048 C 
ATOM      5  C   UNL     1     -37.704  39.796  40.430  1.00  0.00     0.012 C 
BRANCH   5   6
ATOM      6  C   UNL     1     -36.234  39.939  40.352  1.00  0.00    -0.025 A 
ATOM      7  C   UNL     1     -35.438  38.968  39.719  1.00  0.00     0.012 A 
ATOM      8  C   UNL     1     -34.054  39.147  39.619  1.00  0.00     0.047 A 
ATOM      9  C   UNL     1     -33.456  40.303  40.129  1.00  0.00     0.115 A 
ATOM     10  C   UNL     1     -35.632  41.111  40.835  1.00  0.00     0.012 A 
ATOM     11  C   UNL     1     -34.248  41.288  40.734  1.00  0.00     0.047 A 
BRANCH   9  12
ATOM     12  O   UNL     1     -32.077  40.468  40.023  1.00  0.00    -0.508 OA
ATOM     13  H   UNL     1     -31.673  41.264  39.544  1.00  0.00     0.293 HD
ENDBRANCH   9  12
ENDBRANCH   5   6
ENDBRANCH   2   4
ENDBRANCH   1   2
BRANCH   1  14
ATOM     14  C   UNL     1     -35.858  37.354  43.566  1.00  0.00     0.163 C 
ATOM     15  O   UNL     1     -35.977  36.749  44.667  1.00  0.00    -0.294 OA
BRANCH  14  16
ATOM     16  C   UNL     1     -34.583  38.003  43.187  1.00  0.00     0.048 C 
ATOM     17  C   UNL     1     -34.066  39.103  43.759  1.00  0.00     0.012 C 
BRANCH  17  18
ATOM     18  C   UNL     1     -34.760  39.964  44.738  1.00  0.00    -0.025 A 
ATOM     19  C   UNL     1     -34.803  39.576  46.085  1.00  0.00     0.012 A 
ATOM     20  C   UNL     1     -35.291  41.213  44.364  1.00  0.00     0.012 A 
ATOM     21  C   UNL     1     -35.413  40.398  47.038  1.00  0.00     0.047 A 
ATOM     22  C   UNL     1     -35.900  42.033  45.319  1.00  0.00     0.047 A 
ATOM     23  C   UNL     1     -35.967  41.625  46.658  1.00  0.00     0.115 A 
BRANCH  23  24
ATOM     24  O   UNL     1     -36.572  42.434  47.617  1.00  0.00    -0.508 OA
ATOM     25  H   UNL     1     -36.929  42.049  48.484  1.00  0.00     0.293 HD
ENDBRANCH  23  24
ENDBRANCH  17  18
ENDBRANCH  14  16
ENDBRANCH   1  14
TORSDOF 8
ENDMDL
MODEL 6
REMARK VINA RESULT:    -7.322      1.329      5.584
REMARK INTER + INTRA:         -12.278
REMARK INTER:                 -10.036
REMARK INTRA:                  -2.242
REMARK UNBOUND:                -1.960
REMARK SMILES O=C(C=Cc1ccc(O)cc1)CC(=O)C=Cc1ccc(O)cc1
REMARK SMILES IDX 12 1 2 2 1 3 3 4 4 5 5 6 6 7 7 8 8 9 11 10 10 11 9 12 13 14
REMARK SMILES IDX 14 15 15 16 16 17 17 18 18 19 23 20 19 21 22 22 20 23 21 24
REMARK H PARENT 9 13 21 25
REMARK Flexibility Score: inf
ROOT
ATOM      1  C   UNL     1     -35.527  38.379  41.909  1.00  0.00     0.160 C 
ENDROOT
BRANCH   1   2
ATOM      2  C   UNL     1     -36.953  38.685  42.250  1.00  0.00     0.163 C 
ATOM      3  O   UNL     1     -37.774  37.737  42.378  1.00  0.00    -0.294 OA
BRANCH   2   4
ATOM      4  C   UNL     1     -37.385  40.089  42.425  1.00  0.00     0.048 C 
ATOM      5  C   UNL     1     -37.902  40.600  43.553  1.00  0.00     0.012 C 
BRANCH   5   6
ATOM      6  C   UNL     1     -37.944  39.907  44.859  1.00  0.00    -0.025 A 
ATOM      7  C   UNL     1     -36.862  39.970  45.755  1.00  0.00     0.012 A 
ATOM      8  C   UNL     1     -36.943  39.343  47.003  1.00  0.00     0.047 A 
ATOM      9  C   UNL     1     -38.109  38.669  47.377  1.00  0.00     0.115 A 
ATOM     10  C   UNL     1     -39.123  39.255  45.252  1.00  0.00     0.012 A 
ATOM     11  C   UNL     1     -39.201  38.629  46.500  1.00  0.00     0.047 A 
BRANCH   9  12
ATOM     12  O   UNL     1     -38.175  38.048  48.622  1.00  0.00    -0.508 OA
ATOM     13  H   UNL     1     -37.532  38.287  49.368  1.00  0.00     0.293 HD
ENDBRANCH   9  12
ENDBRANCH   5   6
ENDBRANCH   2   4
ENDBRANCH   1   2
BRANCH   1  14
ATOM     14  C   UNL     1     -34.716  38.270  43.164  1.00  0.00     0.163 C 
ATOM     15  O   UNL     1     -35.203  37.667  44.159  1.00  0.00    -0.294 OA
BRANCH  14  16
ATOM     16  C   UNL     1     -33.320  38.763  43.180  1.00  0.00     0.048 C 
ATOM     17  C   UNL     1     -32.947  40.050  43.265  1.00  0.00     0.012 C 
BRANCH  17  18
ATOM     18  C   UNL     1     -33.855  41.212  43.174  1.00  0.00    -0.025 A 
ATOM     19  C   UNL     1     -34.301  41.829  44.351  1.00  0.00     0.012 A 
ATOM     20  C   UNL     1     -34.201  41.771  41.930  1.00  0.00     0.012 A 
ATOM     21  C   UNL     1     -35.123  42.959  44.289  1.00  0.00     0.047 A 
ATOM     22  C   UNL     1     -35.023  42.900  41.870  1.00  0.00     0.047 A 
ATOM     23  C   UNL     1     -35.489  43.495  43.050  1.00  0.00     0.115 A 
BRANCH  23  24
ATOM     24  O   UNL     1     -36.309  44.620  43.003  1.00  0.00    -0.508 OA
ATOM     25  H   UNL     1     -36.910  44.870  43.779  1.00  0.00     0.293 HD
ENDBRANCH  23  24
ENDBRANCH  17  18
ENDBRANCH  14  16
ENDBRANCH   1  14
TORSDOF 8
ENDMDL
MODEL 7
REMARK VINA RESULT:    -7.312      2.034      5.495
REMARK INTER + INTRA:         -12.265
REMARK INTER:                 -10.032
REMARK INTRA:                  -2.232
REMARK UNBOUND:                -1.960
REMARK SMILES O=C(C=Cc1ccc(O)cc1)CC(=O)C=Cc1ccc(O)cc1
REMARK SMILES IDX 12 1 2 2 1 3 3 4 4 5 5 6 6 7 7 8 8 9 11 10 10 11 9 12 13 14
REMARK SMILES IDX 14 15 15 16 16 17 17 18 18 19 23 20 19 21 22 22 20 23 21 24
REMARK H PARENT 9 13 21 25
REMARK Flexibility Score: inf
ROOT
ATOM      1  C   UNL     1     -37.929  38.753  42.059  1.00  0.00     0.160 C 
ENDROOT
BRANCH   1   2
ATOM      2  C   UNL     1     -36.627  38.054  42.306  1.00  0.00     0.163 C 
ATOM      3  O   UNL     1     -35.597  38.433  41.687  1.00  0.00    -0.294 OA
BRANCH   2   4
ATOM      4  C   UNL     1     -36.564  36.928  43.263  1.00  0.00     0.048 C 
ATOM      5  C   UNL     1     -36.404  37.053  44.589  1.00  0.00     0.012 C 
BRANCH   5   6
ATOM      6  C   UNL     1     -36.459  38.328  45.336  1.00  0.00    -0.025 A 
ATOM      7  C   UNL     1     -35.316  39.130  45.498  1.00  0.00     0.012 A 
ATOM      8  C   UNL     1     -35.403  40.353  46.171  1.00  0.00     0.047 A 
ATOM      9  C   UNL     1     -36.632  40.796  46.669  1.00  0.00     0.115 A 
ATOM     10  C   UNL     1     -37.695  38.791  45.812  1.00  0.00     0.012 A 
ATOM     11  C   UNL     1     -37.780  40.014  46.484  1.00  0.00     0.047 A 
BRANCH   9  12
ATOM     12  O   UNL     1     -36.704  42.016  47.338  1.00  0.00    -0.508 OA
ATOM     13  H   UNL     1     -35.985  42.722  47.231  1.00  0.00     0.293 HD
ENDBRANCH   9  12
ENDBRANCH   5   6
ENDBRANCH   2   4
ENDBRANCH   1   2
BRANCH   1  14
ATOM     14  C   UNL     1     -37.683  40.205  41.786  1.00  0.00     0.163 C 
ATOM     15  O   UNL     1     -37.682  40.613  40.593  1.00  0.00    -0.294 OA
BRANCH  14  16
ATOM     16  C   UNL     1     -37.566  41.154  42.916  1.00  0.00     0.048 C 
ATOM     17  C   UNL     1     -36.564  42.028  43.102  1.00  0.00     0.012 C 
BRANCH  17  18
ATOM     18  C   UNL     1     -35.313  42.074  42.318  1.00  0.00    -0.025 A 
ATOM     19  C   UNL     1     -35.240  42.902  41.188  1.00  0.00     0.012 A 
ATOM     20  C   UNL     1     -34.163  41.381  42.739  1.00  0.00     0.012 A 
ATOM     21  C   UNL     1     -34.052  42.997  40.458  1.00  0.00     0.047 A 
ATOM     22  C   UNL     1     -32.975  41.478  42.007  1.00  0.00     0.047 A 
ATOM     23  C   UNL     1     -32.918  42.284  40.861  1.00  0.00     0.115 A 
BRANCH  23  24
ATOM     24  O   UNL     1     -31.741  42.388  40.124  1.00  0.00    -0.508 OA
ATOM     25  H   UNL     1     -30.834  42.249  40.553  1.00  0.00     0.293 HD
ENDBRANCH  23  24
ENDBRANCH  17  18
ENDBRANCH  14  16
ENDBRANCH   1  14
TORSDOF 8
ENDMDL
MODEL 8
REMARK VINA RESULT:    -7.188      2.435      5.912
REMARK INTER + INTRA:         -12.090
REMARK INTER:                  -9.931
REMARK INTRA:                  -2.159
REMARK UNBOUND:                -1.960
REMARK SMILES O=C(C=Cc1ccc(O)cc1)CC(=O)C=Cc1ccc(O)cc1
REMARK SMILES IDX 12 1 2 2 1 3 3 4 4 5 5 6 6 7 7 8 8 9 11 10 10 11 9 12 13 14
REMARK SMILES IDX 14 15 15 16 16 17 17 18 18 19 23 20 19 21 22 22 20 23 21 24
REMARK H PARENT 9 13 21 25
REMARK Flexibility Score: inf
ROOT
ATOM      1  C   UNL     1     -33.267  41.325  44.365  1.00  0.00     0.160 C 
ENDROOT
BRANCH   1   2
ATOM      2  C   UNL     1     -34.643  41.910  44.284  1.00  0.00     0.163 C 
ATOM      3  O   UNL     1     -35.242  41.925  43.175  1.00  0.00    -0.294 OA
BRANCH   2   4
ATOM      4  C   UNL     1     -35.281  42.467  45.496  1.00  0.00     0.048 C 
ATOM      5  C   UNL     1     -35.873  41.741  46.457  1.00  0.00     0.012 C 
BRANCH   5   6
ATOM      6  C   UNL     1     -35.817  40.267  46.566  1.00  0.00    -0.025 A 
ATOM      7  C   UNL     1     -34.765  39.624  47.242  1.00  0.00     0.012 A 
ATOM      8  C   UNL     1     -34.757  38.231  47.369  1.00  0.00     0.047 A 
ATOM      9  C   UNL     1     -35.806  37.470  46.845  1.00  0.00     0.115 A 
ATOM     10  C   UNL     1     -36.883  39.502  46.069  1.00  0.00     0.012 A 
ATOM     11  C   UNL     1     -36.873  38.109  46.198  1.00  0.00     0.047 A 
BRANCH   9  12
ATOM     12  O   UNL     1     -35.785  36.084  46.979  1.00  0.00    -0.508 OA
ATOM     13  H   UNL     1     -35.319  35.634  47.758  1.00  0.00     0.293 HD
ENDBRANCH   9  12
ENDBRANCH   5   6
ENDBRANCH   2   4
ENDBRANCH   1   2
BRANCH   1  14
ATOM     14  C   UNL     1     -33.138  40.189  43.397  1.00  0.00     0.163 C 
ATOM     15  O   UNL     1     -32.519  40.373  42.314  1.00  0.00    -0.294 OA
BRANCH  14  16
ATOM     16  C   UNL     1     -33.629  38.845  43.776  1.00  0.00     0.048 C 
ATOM     17  C   UNL     1     -34.657  38.199  43.202  1.00  0.00     0.012 C 
BRANCH  17  18
ATOM     18  C   UNL     1     -35.594  38.783  42.221  1.00  0.00    -0.025 A 
ATOM     19  C   UNL     1     -36.877  39.164  42.637  1.00  0.00     0.012 A 
ATOM     20  C   UNL     1     -35.190  39.056  40.901  1.00  0.00     0.012 A 
ATOM     21  C   UNL     1     -37.764  39.762  41.737  1.00  0.00     0.047 A 
ATOM     22  C   UNL     1     -36.078  39.654  40.002  1.00  0.00     0.047 A 
ATOM     23  C   UNL     1     -37.370  40.005  40.417  1.00  0.00     0.115 A 
BRANCH  23  24
ATOM     24  O   UNL     1     -38.264  40.600  39.530  1.00  0.00    -0.508 OA
ATOM     25  H   UNL     1     -39.170  40.935  39.837  1.00  0.00     0.293 HD
ENDBRANCH  23  24
ENDBRANCH  17  18
ENDBRANCH  14  16
ENDBRANCH   1  14
TORSDOF 8
ENDMDL
MODEL 9
REMARK VINA RESULT:    -7.153      2.151      4.063
REMARK INTER + INTRA:         -12.040
REMARK INTER:                  -9.810
REMARK INTRA:                  -2.231
REMARK UNBOUND:                -1.960
REMARK SMILES O=C(C=Cc1ccc(O)cc1)CC(=O)C=Cc1ccc(O)cc1
REMARK SMILES IDX 12 1 2 2 1 3 3 4 4 5 5 6 6 7 7 8 8 9 11 10 10 11 9 12 13 14
REMARK SMILES IDX 14 15 15 16 16 17 17 18 18 19 23 20 19 21 22 22 20 23 21 24
REMARK H PARENT 9 13 21 25
REMARK Flexibility Score: inf
ROOT
ATOM      1  C   UNL     1     -37.665  41.396  43.990  1.00  0.00     0.160 C 
ENDROOT
BRANCH   1   2
ATOM      2  C   UNL     1     -36.523  41.024  44.885  1.00  0.00     0.163 C 
ATOM      3  O   UNL     1     -36.455  39.852  45.343  1.00  0.00    -0.294 OA
BRANCH   2   4
ATOM      4  C   UNL     1     -35.497  42.032  45.229  1.00  0.00     0.048 C 
ATOM      5  C   UNL     1     -34.543  42.474  44.395  1.00  0.00     0.012 C 
BRANCH   5   6
ATOM      6  C   UNL     1     -34.476  42.180  42.947  1.00  0.00    -0.025 A 
ATOM      7  C   UNL     1     -35.205  42.937  42.013  1.00  0.00     0.012 A 
ATOM      8  C   UNL     1     -35.092  42.668  40.645  1.00  0.00     0.047 A 
ATOM      9  C   UNL     1     -34.235  41.659  40.195  1.00  0.00     0.115 A 
ATOM     10  C   UNL     1     -33.595  41.189  42.489  1.00  0.00     0.012 A 
ATOM     11  C   UNL     1     -33.482  40.922  41.120  1.00  0.00     0.047 A 
BRANCH   9  12
ATOM     12  O   UNL     1     -34.132  41.402  38.831  1.00  0.00    -0.508 OA
ATOM     13  H   UNL     1     -34.155  40.457  38.466  1.00  0.00     0.293 HD
ENDBRANCH   9  12
ENDBRANCH   5   6
ENDBRANCH   2   4
ENDBRANCH   1   2
BRANCH   1  14
ATOM     14  C   UNL     1     -38.067  40.214  43.161  1.00  0.00     0.163 C 
ATOM     15  O   UNL     1     -39.045  39.510  43.531  1.00  0.00    -0.294 OA
BRANCH  14  16
ATOM     16  C   UNL     1     -37.393  39.963  41.867  1.00  0.00     0.048 C 
ATOM     17  C   UNL     1     -36.625  38.900  41.580  1.00  0.00     0.012 C 
BRANCH  17  18
ATOM     18  C   UNL     1     -36.167  37.888  42.553  1.00  0.00    -0.025 A 
ATOM     19  C   UNL     1     -36.986  36.785  42.834  1.00  0.00     0.012 A 
ATOM     20  C   UNL     1     -34.884  37.957  43.127  1.00  0.00     0.012 A 
ATOM     21  C   UNL     1     -36.552  35.790  43.717  1.00  0.00     0.047 A 
ATOM     22  C   UNL     1     -34.453  36.961  44.009  1.00  0.00     0.047 A 
ATOM     23  C   UNL     1     -35.289  35.877  44.309  1.00  0.00     0.115 A 
BRANCH  23  24
ATOM     24  O   UNL     1     -34.870  34.880  45.187  1.00  0.00    -0.508 OA
ATOM     25  H   UNL     1     -34.382  34.055  44.858  1.00  0.00     0.293 HD
ENDBRANCH  23  24
ENDBRANCH  17  18
ENDBRANCH  14  16
ENDBRANCH   1  14
TORSDOF 8
ENDMDL
