MODEL 1
REMARK VINA RESULT:    -3.177      0.000      0.000
REMARK INTER + INTRA:          -3.894
REMARK INTER:                  -3.734
REMARK INTRA:                  -0.160
REMARK UNBOUND:                -0.160
REMARK SMILES COc1ccc(C=CC(=O)[O-])cc1
REMARK SMILES IDX 6 1 5 2 12 3 4 4 13 5 3 6 7 7 8 8 9 9 10 10 11 11 2 12 1 13
REMARK H PARENT
REMARK Flexibility Score: inf
ROOT
ATOM      1  C   UNL     1      -8.260  -4.129 -13.225  1.00  0.00    -0.025 A 
ATOM      2  C   UNL     1      -9.378  -3.756 -12.450  1.00  0.00     0.012 A 
ATOM      3  C   UNL     1      -7.669  -3.170 -14.062  1.00  0.00     0.012 A 
ATOM      4  C   UNL     1      -9.869  -2.448 -12.498  1.00  0.00     0.047 A 
ATOM      5  C   UNL     1      -8.161  -1.862 -14.108  1.00  0.00     0.047 A 
ATOM      6  C   UNL     1      -9.259  -1.489 -13.328  1.00  0.00     0.118 A 
ENDROOT
BRANCH   1   7
ATOM      7  C   UNL     1      -7.707  -5.505 -13.220  1.00  0.00     0.010 C 
ATOM      8  C   UNL     1      -8.329  -6.556 -12.665  1.00  0.00     0.025 C 
BRANCH   8   9
ATOM      9  C   UNL     1      -7.744  -7.907 -12.668  1.00  0.00     0.064 C 
ATOM     10  O   UNL     1      -7.380  -8.464 -11.599  1.00  0.00    -0.545 OA
ATOM     11  O   UNL     1      -7.588  -8.580 -13.874  1.00  0.00    -0.545 OA
ENDBRANCH   8   9
ENDBRANCH   1   7
BRANCH   6  12
ATOM     12  O   UNL     1      -9.715  -0.164 -13.408  1.00  0.00    -0.497 OA
ATOM     13  C   UNL     1      -9.811   0.722 -12.298  1.00  0.00     0.278 C 
ENDBRANCH   6  12
TORSDOF 3
ENDMDL
MODEL 2
REMARK VINA RESULT:    -3.176     13.914     14.484
REMARK INTER + INTRA:          -3.893
REMARK INTER:                  -3.728
REMARK INTRA:                  -0.166
REMARK UNBOUND:                -0.160
REMARK SMILES COc1ccc(C=CC(=O)[O-])cc1
REMARK SMILES IDX 6 1 5 2 12 3 4 4 13 5 3 6 7 7 8 8 9 9 10 10 11 11 2 12 1 13
REMARK H PARENT
REMARK Flexibility Score: inf
ROOT
ATOM      1  C   UNL     1      -8.018   8.710  -8.825  1.00  0.00    -0.025 A 
ATOM      2  C   UNL     1      -7.214   8.268  -7.756  1.00  0.00     0.012 A 
ATOM      3  C   UNL     1      -9.411   8.746  -8.652  1.00  0.00     0.012 A 
ATOM      4  C   UNL     1      -7.792   7.899  -6.538  1.00  0.00     0.047 A 
ATOM      5  C   UNL     1      -9.988   8.377  -7.433  1.00  0.00     0.047 A 
ATOM      6  C   UNL     1      -9.188   7.954  -6.368  1.00  0.00     0.118 A 
ENDROOT
BRANCH   1   7
ATOM      7  C   UNL     1      -7.456   9.101 -10.141  1.00  0.00     0.010 C 
ATOM      8  C   UNL     1      -6.177   9.459 -10.328  1.00  0.00     0.025 C 
BRANCH   8   9
ATOM      9  C   UNL     1      -5.656   9.854 -11.647  1.00  0.00     0.064 C 
ATOM     10  O   UNL     1      -6.433  10.122 -12.602  1.00  0.00    -0.545 OA
ATOM     11  O   UNL     1      -4.283   9.930 -11.844  1.00  0.00    -0.545 OA
ENDBRANCH   8   9
ENDBRANCH   1   7
BRANCH   6  12
ATOM     12  O   UNL     1      -9.815   7.595  -5.165  1.00  0.00    -0.497 OA
ATOM     13  C   UNL     1      -9.147   7.484  -3.912  1.00  0.00     0.278 C 
ENDBRANCH   6  12
TORSDOF 3
ENDMDL
MODEL 3
REMARK VINA RESULT:    -3.066     13.902     14.129
REMARK INTER + INTRA:          -3.763
REMARK INTER:                  -3.583
REMARK INTRA:                  -0.180
REMARK UNBOUND:                -0.160
REMARK SMILES COc1ccc(C=CC(=O)[O-])cc1
REMARK SMILES IDX 6 1 5 2 12 3 4 4 13 5 3 6 7 7 8 8 9 9 10 10 11 11 2 12 1 13
REMARK H PARENT
REMARK Flexibility Score: inf
ROOT
ATOM      1  C   UNL     1      -8.154   9.085  -9.239  1.00  0.00    -0.025 A 
ATOM      2  C   UNL     1      -8.924   9.496 -10.345  1.00  0.00     0.012 A 
ATOM      3  C   UNL     1      -6.759   9.008  -9.378  1.00  0.00     0.012 A 
ATOM      4  C   UNL     1      -8.306   9.846 -11.549  1.00  0.00     0.047 A 
ATOM      5  C   UNL     1      -6.143   9.359 -10.583  1.00  0.00     0.047 A 
ATOM      6  C   UNL     1      -6.906   9.782 -11.675  1.00  0.00     0.118 A 
ENDROOT
BRANCH   1   7
ATOM      7  C   UNL     1      -8.760   8.692  -7.943  1.00  0.00     0.010 C 
ATOM      8  C   UNL     1      -8.103   8.023  -6.985  1.00  0.00     0.025 C 
BRANCH   8   9
ATOM      9  C   UNL     1      -8.742   7.639  -5.715  1.00  0.00     0.064 C 
ATOM     10  O   UNL     1      -8.072   7.146  -4.769  1.00  0.00    -0.545 OA
ATOM     11  O   UNL     1     -10.111   7.822  -5.558  1.00  0.00    -0.545 OA
ENDBRANCH   8   9
ENDBRANCH   1   7
BRANCH   6  12
ATOM     12  O   UNL     1      -6.241  10.125 -12.862  1.00  0.00    -0.497 OA
ATOM     13  C   UNL     1      -5.031   9.522 -13.309  1.00  0.00     0.278 C 
ENDBRANCH   6  12
TORSDOF 3
ENDMDL
MODEL 4
REMARK VINA RESULT:    -3.052      1.197      2.046
REMARK INTER + INTRA:          -3.747
REMARK INTER:                  -3.566
REMARK INTRA:                  -0.181
REMARK UNBOUND:                -0.160
REMARK SMILES COc1ccc(C=CC(=O)[O-])cc1
REMARK SMILES IDX 6 1 5 2 12 3 4 4 13 5 3 6 7 7 8 8 9 9 10 10 11 11 2 12 1 13
REMARK H PARENT
REMARK Flexibility Score: inf
ROOT
ATOM      1  C   UNL     1      -8.071  -5.103 -13.047  1.00  0.00    -0.025 A 
ATOM      2  C   UNL     1      -7.043  -4.374 -13.679  1.00  0.00     0.012 A 
ATOM      3  C   UNL     1      -9.268  -4.444 -12.727  1.00  0.00     0.012 A 
ATOM      4  C   UNL     1      -7.226  -3.026 -14.004  1.00  0.00     0.047 A 
ATOM      5  C   UNL     1      -9.450  -3.097 -13.054  1.00  0.00     0.047 A 
ATOM      6  C   UNL     1      -8.437  -2.378 -13.695  1.00  0.00     0.118 A 
ENDROOT
BRANCH   1   7
ATOM      7  C   UNL     1      -7.922  -6.530 -12.670  1.00  0.00     0.010 C 
ATOM      8  C   UNL     1      -8.668  -7.135 -11.733  1.00  0.00     0.025 C 
BRANCH   8   9
ATOM      9  C   UNL     1      -8.484  -8.551 -11.376  1.00  0.00     0.064 C 
ATOM     10  O   UNL     1      -7.477  -9.199 -11.770  1.00  0.00    -0.545 OA
ATOM     11  O   UNL     1      -9.439  -9.187 -10.592  1.00  0.00    -0.545 OA
ENDBRANCH   8   9
ENDBRANCH   1   7
BRANCH   6  12
ATOM     12  O   UNL     1      -8.668  -1.029 -14.003  1.00  0.00    -0.497 OA
ATOM     13  C   UNL     1      -9.596  -0.195 -13.318  1.00  0.00     0.278 C 
ENDBRANCH   6  12
TORSDOF 3
ENDMDL
MODEL 5
REMARK VINA RESULT:    -3.048     16.198     17.692
REMARK INTER + INTRA:          -3.742
REMARK INTER:                  -3.572
REMARK INTRA:                  -0.170
REMARK UNBOUND:                -0.160
REMARK SMILES COc1ccc(C=CC(=O)[O-])cc1
REMARK SMILES IDX 6 1 5 2 12 3 4 4 13 5 3 6 7 7 8 8 9 9 10 10 11 11 2 12 1 13
REMARK H PARENT
REMARK Flexibility Score: inf
ROOT
ATOM      1  C   UNL     1      -9.723  -5.105   3.330  1.00  0.00    -0.025 A 
ATOM      2  C   UNL     1     -10.043  -5.572   2.040  1.00  0.00     0.012 A 
ATOM      3  C   UNL     1      -9.027  -5.956   4.203  1.00  0.00     0.012 A 
ATOM      4  C   UNL     1      -9.652  -6.851   1.631  1.00  0.00     0.047 A 
ATOM      5  C   UNL     1      -8.635  -7.234   3.792  1.00  0.00     0.047 A 
ATOM      6  C   UNL     1      -8.940  -7.691   2.507  1.00  0.00     0.118 A 
ENDROOT
BRANCH   1   7
ATOM      7  C   UNL     1     -10.125  -3.763   3.817  1.00  0.00     0.010 C 
ATOM      8  C   UNL     1      -9.280  -2.895   4.394  1.00  0.00     0.025 C 
BRANCH   8   9
ATOM      9  C   UNL     1      -9.719  -1.575   4.877  1.00  0.00     0.064 C 
ATOM     10  O   UNL     1      -9.790  -1.321   6.108  1.00  0.00    -0.545 OA
ATOM     11  O   UNL     1     -10.064  -0.592   3.956  1.00  0.00    -0.545 OA
ENDBRANCH   8   9
ENDBRANCH   1   7
BRANCH   6  12
ATOM     12  O   UNL     1      -8.524  -8.980   2.141  1.00  0.00    -0.497 OA
ATOM     13  C   UNL     1      -7.484  -9.704   2.790  1.00  0.00     0.278 C 
ENDBRANCH   6  12
TORSDOF 3
ENDMDL
MODEL 6
REMARK VINA RESULT:    -3.005     24.128     25.764
REMARK INTER + INTRA:          -3.692
REMARK INTER:                  -3.521
REMARK INTRA:                  -0.171
REMARK UNBOUND:                -0.160
REMARK SMILES COc1ccc(C=CC(=O)[O-])cc1
REMARK SMILES IDX 6 1 5 2 12 3 4 4 13 5 3 6 7 7 8 8 9 9 10 10 11 11 2 12 1 13
REMARK H PARENT
REMARK Flexibility Score: inf
ROOT
ATOM      1  C   UNL     1       8.914   8.872  -0.559  1.00  0.00    -0.025 A 
ATOM      2  C   UNL     1       9.688   7.946   0.169  1.00  0.00     0.012 A 
ATOM      3  C   UNL     1       8.143   9.810   0.147  1.00  0.00     0.012 A 
ATOM      4  C   UNL     1       9.706   7.980   1.567  1.00  0.00     0.047 A 
ATOM      5  C   UNL     1       8.163   9.843   1.544  1.00  0.00     0.047 A 
ATOM      6  C   UNL     1       8.943   8.934   2.265  1.00  0.00     0.118 A 
ENDROOT
BRANCH   1   7
ATOM      7  C   UNL     1       8.850   8.871  -2.041  1.00  0.00     0.010 C 
ATOM      8  C   UNL     1       9.032   9.965  -2.795  1.00  0.00     0.025 C 
BRANCH   8   9
ATOM      9  C   UNL     1       8.949   9.928  -4.265  1.00  0.00     0.064 C 
ATOM     10  O   UNL     1       7.858  10.125  -4.862  1.00  0.00    -0.545 OA
ATOM     11  O   UNL     1      10.095   9.670  -5.006  1.00  0.00    -0.545 OA
ENDBRANCH   8   9
ENDBRANCH   1   7
BRANCH   6  12
ATOM     12  O   UNL     1       8.931   9.009   3.667  1.00  0.00    -0.497 OA
ATOM     13  C   UNL     1       8.170   9.951   4.415  1.00  0.00     0.278 C 
ENDBRANCH   6  12
TORSDOF 3
ENDMDL
MODEL 7
REMARK VINA RESULT:    -2.932      1.128      6.341
REMARK INTER + INTRA:          -3.607
REMARK INTER:                  -3.430
REMARK INTRA:                  -0.176
REMARK UNBOUND:                -0.160
REMARK SMILES COc1ccc(C=CC(=O)[O-])cc1
REMARK SMILES IDX 6 1 5 2 12 3 4 4 13 5 3 6 7 7 8 8 9 9 10 10 11 11 2 12 1 13
REMARK H PARENT
REMARK Flexibility Score: inf
ROOT
ATOM      1  C   UNL     1      -8.297  -4.232 -13.321  1.00  0.00    -0.025 A 
ATOM      2  C   UNL     1      -7.014  -4.711 -13.655  1.00  0.00     0.012 A 
ATOM      3  C   UNL     1      -9.277  -5.152 -12.916  1.00  0.00     0.012 A 
ATOM      4  C   UNL     1      -6.718  -6.074 -13.558  1.00  0.00     0.047 A 
ATOM      5  C   UNL     1      -8.979  -6.514 -12.818  1.00  0.00     0.047 A 
ATOM      6  C   UNL     1      -7.702  -6.987 -13.134  1.00  0.00     0.118 A 
ENDROOT
BRANCH   1   7
ATOM      7  C   UNL     1      -8.666  -2.798 -13.419  1.00  0.00     0.010 C 
ATOM      8  C   UNL     1      -9.573  -2.207 -12.628  1.00  0.00     0.025 C 
BRANCH   8   9
ATOM      9  C   UNL     1      -9.922  -0.783 -12.762  1.00  0.00     0.064 C 
ATOM     10  O   UNL     1     -10.124  -0.264 -13.892  1.00  0.00    -0.545 OA
ATOM     11  O   UNL     1     -10.029   0.004 -11.621  1.00  0.00    -0.545 OA
ENDBRANCH   8   9
ENDBRANCH   1   7
BRANCH   6  12
ATOM     12  O   UNL     1      -7.451  -8.363 -13.019  1.00  0.00    -0.497 OA
ATOM     13  C   UNL     1      -8.442  -9.375 -13.166  1.00  0.00     0.278 C 
ENDBRANCH   6  12
TORSDOF 3
ENDMDL
MODEL 8
REMARK VINA RESULT:    -2.920     13.691     14.340
REMARK INTER + INTRA:          -3.592
REMARK INTER:                  -3.421
REMARK INTRA:                  -0.171
REMARK UNBOUND:                -0.160
REMARK SMILES COc1ccc(C=CC(=O)[O-])cc1
REMARK SMILES IDX 6 1 5 2 12 3 4 4 13 5 3 6 7 7 8 8 9 9 10 10 11 11 2 12 1 13
REMARK H PARENT
REMARK Flexibility Score: inf
ROOT
ATOM      1  C   UNL     1      -8.889   8.711  -9.167  1.00  0.00    -0.025 A 
ATOM      2  C   UNL     1      -7.538   8.668  -8.768  1.00  0.00     0.012 A 
ATOM      3  C   UNL     1      -9.874   8.285  -8.263  1.00  0.00     0.012 A 
ATOM      4  C   UNL     1      -7.191   8.233  -7.485  1.00  0.00     0.047 A 
ATOM      5  C   UNL     1      -9.525   7.851  -6.981  1.00  0.00     0.047 A 
ATOM      6  C   UNL     1      -8.187   7.823  -6.580  1.00  0.00     0.118 A 
ENDROOT
BRANCH   1   7
ATOM      7  C   UNL     1      -9.309   9.153 -10.520  1.00  0.00     0.010 C 
ATOM      8  C   UNL     1      -8.459   9.343 -11.539  1.00  0.00     0.025 C 
BRANCH   8   9
ATOM      9  C   UNL     1      -8.911   9.794 -12.866  1.00  0.00     0.064 C 
ATOM     10  O   UNL     1     -10.124  10.048 -13.090  1.00  0.00    -0.545 OA
ATOM     11  O   UNL     1      -7.983   9.941 -13.890  1.00  0.00    -0.545 OA
ENDBRANCH   8   9
ENDBRANCH   1   7
BRANCH   6  12
ATOM     12  O   UNL     1      -7.888   7.380  -5.282  1.00  0.00    -0.497 OA
ATOM     13  C   UNL     1      -8.847   7.238  -4.240  1.00  0.00     0.278 C 
ENDBRANCH   6  12
TORSDOF 3
ENDMDL
MODEL 9
REMARK VINA RESULT:    -2.884      4.490      7.159
REMARK INTER + INTRA:          -3.550
REMARK INTER:                  -3.384
REMARK INTRA:                  -0.166
REMARK UNBOUND:                -0.160
REMARK SMILES COc1ccc(C=CC(=O)[O-])cc1
REMARK SMILES IDX 6 1 5 2 12 3 4 4 13 5 3 6 7 7 8 8 9 9 10 10 11 11 2 12 1 13
REMARK H PARENT
REMARK Flexibility Score: inf
ROOT
ATOM      1  C   UNL     1      -7.521  -9.290  -9.464  1.00  0.00    -0.025 A 
ATOM      2  C   UNL     1      -7.354 -10.125 -10.588  1.00  0.00     0.012 A 
ATOM      3  C   UNL     1      -8.273  -8.113  -9.603  1.00  0.00     0.012 A 
ATOM      4  C   UNL     1      -7.949  -9.796 -11.810  1.00  0.00     0.047 A 
ATOM      5  C   UNL     1      -8.868  -7.787 -10.826  1.00  0.00     0.047 A 
ATOM      6  C   UNL     1      -8.715  -8.622 -11.936  1.00  0.00     0.118 A 
ENDROOT
BRANCH   1   7
ATOM      7  C   UNL     1      -6.902  -9.586  -8.149  1.00  0.00     0.010 C 
ATOM      8  C   UNL     1      -6.039  -8.767  -7.531  1.00  0.00     0.025 C 
BRANCH   8   9
ATOM      9  C   UNL     1      -5.434  -9.101  -6.230  1.00  0.00     0.064 C 
ATOM     10  O   UNL     1      -4.715 -10.125  -6.088  1.00  0.00    -0.545 OA
ATOM     11  O   UNL     1      -5.663  -8.271  -5.139  1.00  0.00    -0.545 OA
ENDBRANCH   8   9
ENDBRANCH   1   7
BRANCH   6  12
ATOM     12  O   UNL     1      -9.333  -8.252 -13.140  1.00  0.00    -0.497 OA
ATOM     13  C   UNL     1      -9.315  -6.936 -13.681  1.00  0.00     0.278 C 
ENDBRANCH   6  12
TORSDOF 3
ENDMDL
