MODEL 1
REMARK VINA RESULT:    -6.658      0.000      0.000
REMARK INTER + INTRA:         -11.980
REMARK INTER:                 -10.161
REMARK INTRA:                  -1.819
REMARK UNBOUND:                -1.819
REMARK SMILES CC(=O)CCC=C(C)CCC=C(C)CCC=C(C)C
REMARK SMILES IDX 10 1 11 2 12 3 13 4 14 5 15 6 16 7 18 8 17 9 19 10 9 11 7 12
REMARK SMILES IDX 6 13 8 14 5 15 4 16 2 17 3 18 1 19
REMARK H PARENT
REMARK Flexibility Score: inf
ROOT
ATOM      1  C   UNL     1      28.442  -9.875  30.033  1.00  0.00     0.032 C 
ENDROOT
BRANCH   1   2
ATOM      2  C   UNL     1      28.817 -10.189  28.607  1.00  0.00    -0.028 C 
ATOM      3  C   UNL     1      28.105 -10.992  27.781  1.00  0.00    -0.077 C 
ATOM      4  C   UNL     1      28.609 -11.201  26.377  1.00  0.00     0.039 C 
BRANCH   3   5
ATOM      5  C   UNL     1      26.866 -11.742  28.227  1.00  0.00     0.034 C 
BRANCH   5   6
ATOM      6  C   UNL     1      27.114 -13.254  28.211  1.00  0.00     0.032 C 
BRANCH   6   7
ATOM      7  C   UNL     1      25.832 -14.004  27.953  1.00  0.00    -0.028 C 
ATOM      8  C   UNL     1      23.914 -15.467  28.507  1.00  0.00     0.039 C 
ATOM      9  C   UNL     1      25.173 -14.732  28.884  1.00  0.00    -0.080 C 
ATOM     10  C   UNL     1      25.633 -14.799  30.320  1.00  0.00     0.039 C 
ENDBRANCH   6   7
ENDBRANCH   5   6
ENDBRANCH   3   5
ENDBRANCH   1   2
BRANCH   1  11
ATOM     11  C   UNL     1      29.412 -10.548  31.012  1.00  0.00     0.034 C 
BRANCH  11  12
ATOM     12  C   UNL     1      28.906 -11.924  31.400  1.00  0.00    -0.077 C 
ATOM     13  C   UNL     1      29.657 -13.044  31.291  1.00  0.00    -0.028 C 
ATOM     14  C   UNL     1      27.475 -12.062  31.852  1.00  0.00     0.039 C 
BRANCH  13  15
ATOM     15  C   UNL     1      31.103 -13.076  30.858  1.00  0.00     0.035 C 
BRANCH  15  16
ATOM     16  C   UNL     1      31.291 -12.528  29.436  1.00  0.00     0.079 C 
BRANCH  16  17
ATOM     17  C   UNL     1      31.374 -13.637  28.418  1.00  0.00     0.130 C 
ATOM     18  O   UNL     1      32.463 -14.103  28.120  1.00  0.00    -0.300 OA
ATOM     19  C   UNL     1      30.144 -14.174  27.746  1.00  0.00     0.087 C 
ENDBRANCH  16  17
ENDBRANCH  15  16
ENDBRANCH  13  15
ENDBRANCH  11  12
ENDBRANCH   1  11
TORSDOF 9
ENDMDL
MODEL 2
REMARK VINA RESULT:    -6.351      1.951      5.373
REMARK INTER + INTRA:         -11.512
REMARK INTER:                  -9.737
REMARK INTRA:                  -1.775
REMARK UNBOUND:                -1.819
REMARK SMILES CC(=O)CCC=C(C)CCC=C(C)CCC=C(C)C
REMARK SMILES IDX 10 1 11 2 12 3 13 4 14 5 15 6 16 7 18 8 17 9 19 10 9 11 7 12
REMARK SMILES IDX 6 13 8 14 5 15 4 16 2 17 3 18 1 19
REMARK H PARENT
REMARK Flexibility Score: inf
ROOT
ATOM      1  C   UNL     1      28.738 -10.270  29.296  1.00  0.00     0.032 C 
ENDROOT
BRANCH   1   2
ATOM      2  C   UNL     1      28.127  -9.875  30.616  1.00  0.00    -0.028 C 
ATOM      3  C   UNL     1      27.653 -10.746  31.537  1.00  0.00    -0.077 C 
ATOM      4  C   UNL     1      27.076 -10.192  32.814  1.00  0.00     0.039 C 
BRANCH   3   5
ATOM      5  C   UNL     1      27.612 -12.244  31.313  1.00  0.00     0.034 C 
BRANCH   5   6
ATOM      6  C   UNL     1      28.975 -12.873  31.616  1.00  0.00     0.032 C 
BRANCH   6   7
ATOM      7  C   UNL     1      29.650 -13.325  30.345  1.00  0.00    -0.028 C 
ATOM      8  C   UNL     1      31.519 -13.590  28.744  1.00  0.00     0.039 C 
ATOM      9  C   UNL     1      30.957 -13.121  30.061  1.00  0.00    -0.080 C 
ATOM     10  C   UNL     1      31.899 -12.474  31.046  1.00  0.00     0.039 C 
ENDBRANCH   6   7
ENDBRANCH   5   6
ENDBRANCH   3   5
ENDBRANCH   1   2
BRANCH   1  11
ATOM     11  C   UNL     1      27.654 -10.462  28.229  1.00  0.00     0.034 C 
BRANCH  11  12
ATOM     12  C   UNL     1      28.079 -11.512  27.222  1.00  0.00    -0.077 C 
ATOM     13  C   UNL     1      27.692 -12.806  27.297  1.00  0.00    -0.028 C 
ATOM     14  C   UNL     1      29.042 -11.116  26.133  1.00  0.00     0.039 C 
BRANCH  13  15
ATOM     15  C   UNL     1      26.732 -13.363  28.322  1.00  0.00     0.035 C 
BRANCH  15  16
ATOM     16  C   UNL     1      25.755 -14.375  27.706  1.00  0.00     0.079 C 
BRANCH  16  17
ATOM     17  C   UNL     1      24.887 -15.021  28.756  1.00  0.00     0.130 C 
ATOM     18  O   UNL     1      25.304 -15.134  29.898  1.00  0.00    -0.300 OA
ATOM     19  C   UNL     1      23.520 -15.546  28.424  1.00  0.00     0.087 C 
ENDBRANCH  16  17
ENDBRANCH  15  16
ENDBRANCH  13  15
ENDBRANCH  11  12
ENDBRANCH   1  11
TORSDOF 9
ENDMDL
MODEL 3
REMARK VINA RESULT:    -6.305      2.474      3.904
REMARK INTER + INTRA:         -11.441
REMARK INTER:                  -9.828
REMARK INTRA:                  -1.613
REMARK UNBOUND:                -1.819
REMARK SMILES CC(=O)CCC=C(C)CCC=C(C)CCC=C(C)C
REMARK SMILES IDX 10 1 11 2 12 3 13 4 14 5 15 6 16 7 18 8 17 9 19 10 9 11 7 12
REMARK SMILES IDX 6 13 8 14 5 15 4 16 2 17 3 18 1 19
REMARK H PARENT
REMARK Flexibility Score: inf
ROOT
ATOM      1  C   UNL     1      28.774 -10.144  29.686  1.00  0.00     0.032 C 
ENDROOT
BRANCH   1   2
ATOM      2  C   UNL     1      28.998 -10.497  28.238  1.00  0.00    -0.028 C 
ATOM      3  C   UNL     1      28.218 -11.338  27.520  1.00  0.00    -0.077 C 
ATOM      4  C   UNL     1      28.571 -11.583  26.076  1.00  0.00     0.039 C 
BRANCH   3   5
ATOM      5  C   UNL     1      27.052 -12.098  28.120  1.00  0.00     0.034 C 
BRANCH   5   6
ATOM      6  C   UNL     1      27.153 -13.591  27.792  1.00  0.00     0.032 C 
BRANCH   6   7
ATOM      7  C   UNL     1      25.781 -14.209  27.687  1.00  0.00    -0.028 C 
ATOM      8  C   UNL     1      23.760 -15.386  28.496  1.00  0.00     0.039 C 
ATOM      9  C   UNL     1      25.116 -14.770  28.723  1.00  0.00    -0.080 C 
ATOM     10  C   UNL     1      25.666 -14.761  30.128  1.00  0.00     0.039 C 
ENDBRANCH   6   7
ENDBRANCH   5   6
ENDBRANCH   3   5
ENDBRANCH   1   2
BRANCH   1  11
ATOM     11  C   UNL     1      29.929 -10.656  30.556  1.00  0.00     0.034 C 
BRANCH  11  12
ATOM     12  C   UNL     1      29.827 -12.156  30.745  1.00  0.00    -0.077 C 
ATOM     13  C   UNL     1      28.798 -12.751  31.391  1.00  0.00    -0.028 C 
ATOM     14  C   UNL     1      30.966 -13.020  30.266  1.00  0.00     0.039 C 
BRANCH  13  15
ATOM     15  C   UNL     1      27.583 -12.031  31.927  1.00  0.00     0.035 C 
BRANCH  15  16
ATOM     16  C   UNL     1      26.869 -12.842  33.019  1.00  0.00     0.079 C 
BRANCH  16  17
ATOM     17  C   UNL     1      26.366 -11.957  34.131  1.00  0.00     0.130 C 
ATOM     18  O   UNL     1      25.946 -12.462  35.161  1.00  0.00    -0.300 OA
ATOM     19  C   UNL     1      26.355 -10.462  33.995  1.00  0.00     0.087 C 
ENDBRANCH  16  17
ENDBRANCH  15  16
ENDBRANCH  13  15
ENDBRANCH  11  12
ENDBRANCH   1  11
TORSDOF 9
ENDMDL
MODEL 4
REMARK VINA RESULT:    -6.302      2.293      5.299
REMARK INTER + INTRA:         -11.437
REMARK INTER:                  -9.949
REMARK INTRA:                  -1.488
REMARK UNBOUND:                -1.819
REMARK SMILES CC(=O)CCC=C(C)CCC=C(C)CCC=C(C)C
REMARK SMILES IDX 10 1 11 2 12 3 13 4 14 5 15 6 16 7 18 8 17 9 19 10 9 11 7 12
REMARK SMILES IDX 6 13 8 14 5 15 4 16 2 17 3 18 1 19
REMARK H PARENT
REMARK Flexibility Score: inf
ROOT
ATOM      1  C   UNL     1      27.225 -14.102  27.426  1.00  0.00     0.032 C 
ENDROOT
BRANCH   1   2
ATOM      2  C   UNL     1      27.859 -13.133  26.460  1.00  0.00    -0.028 C 
ATOM      3  C   UNL     1      28.232 -11.870  26.769  1.00  0.00    -0.077 C 
ATOM      4  C   UNL     1      28.860 -11.026  25.690  1.00  0.00     0.039 C 
BRANCH   3   5
ATOM      5  C   UNL     1      27.984 -11.244  28.126  1.00  0.00     0.034 C 
BRANCH   5   6
ATOM      6  C   UNL     1      29.279 -10.656  28.696  1.00  0.00     0.032 C 
BRANCH   6   7
ATOM      7  C   UNL     1      29.685 -11.378  29.956  1.00  0.00    -0.028 C 
ATOM      8  C   UNL     1      30.787 -13.139  31.301  1.00  0.00     0.039 C 
ATOM      9  C   UNL     1      30.468 -12.481  29.984  1.00  0.00    -0.080 C 
ATOM     10  C   UNL     1      31.083 -13.060  28.734  1.00  0.00     0.039 C 
ENDBRANCH   6   7
ENDBRANCH   5   6
ENDBRANCH   3   5
ENDBRANCH   1   2
BRANCH   1  11
ATOM     11  C   UNL     1      25.946 -13.512  28.030  1.00  0.00     0.034 C 
BRANCH  11  12
ATOM     12  C   UNL     1      25.256 -14.531  28.915  1.00  0.00    -0.077 C 
ATOM     13  C   UNL     1      25.668 -14.816  30.172  1.00  0.00    -0.028 C 
ATOM     14  C   UNL     1      24.109 -15.322  28.341  1.00  0.00     0.039 C 
BRANCH  13  15
ATOM     15  C   UNL     1      26.796 -14.115  30.891  1.00  0.00     0.035 C 
BRANCH  15  16
ATOM     16  C   UNL     1      26.732 -14.330  32.410  1.00  0.00     0.079 C 
BRANCH  16  17
ATOM     17  C   UNL     1      26.731 -13.021  33.159  1.00  0.00     0.130 C 
ATOM     18  O   UNL     1      26.334 -12.987  34.313  1.00  0.00    -0.300 OA
ATOM     19  C   UNL     1      27.196 -11.750  32.510  1.00  0.00     0.087 C 
ENDBRANCH  16  17
ENDBRANCH  15  16
ENDBRANCH  13  15
ENDBRANCH  11  12
ENDBRANCH   1  11
TORSDOF 9
ENDMDL
MODEL 5
REMARK VINA RESULT:    -6.030      3.627      5.637
REMARK INTER + INTRA:         -11.022
REMARK INTER:                  -9.720
REMARK INTRA:                  -1.302
REMARK UNBOUND:                -1.819
REMARK SMILES CC(=O)CCC=C(C)CCC=C(C)CCC=C(C)C
REMARK SMILES IDX 10 1 11 2 12 3 13 4 14 5 15 6 16 7 18 8 17 9 19 10 9 11 7 12
REMARK SMILES IDX 6 13 8 14 5 15 4 16 2 17 3 18 1 19
REMARK H PARENT
REMARK Flexibility Score: inf
ROOT
ATOM      1  C   UNL     1      28.911 -12.709  31.787  1.00  0.00     0.032 C 
ENDROOT
BRANCH   1   2
ATOM      2  C   UNL     1      29.583 -13.266  30.558  1.00  0.00    -0.028 C 
ATOM      3  C   UNL     1      29.606 -12.658  29.349  1.00  0.00    -0.077 C 
ATOM      4  C   UNL     1      30.328 -13.343  28.218  1.00  0.00     0.039 C 
BRANCH   3   5
ATOM      5  C   UNL     1      28.881 -11.358  29.065  1.00  0.00     0.034 C 
BRANCH   5   6
ATOM      6  C   UNL     1      27.837 -11.552  27.962  1.00  0.00     0.032 C 
BRANCH   6   7
ATOM      7  C   UNL     1      26.747 -12.490  28.416  1.00  0.00    -0.028 C 
ATOM      8  C   UNL     1      25.274 -14.475  28.298  1.00  0.00     0.039 C 
ATOM      9  C   UNL     1      26.401 -13.627  27.770  1.00  0.00    -0.080 C 
ATOM     10  C   UNL     1      27.144 -14.112  26.549  1.00  0.00     0.039 C 
ENDBRANCH   6   7
ENDBRANCH   5   6
ENDBRANCH   3   5
ENDBRANCH   1   2
BRANCH   1  11
ATOM     11  C   UNL     1      27.385 -12.764  31.646  1.00  0.00     0.034 C 
BRANCH  11  12
ATOM     12  C   UNL     1      26.791 -13.716  32.665  1.00  0.00    -0.077 C 
ATOM     13  C   UNL     1      26.357 -13.317  33.883  1.00  0.00    -0.028 C 
ATOM     14  C   UNL     1      26.755 -15.187  32.339  1.00  0.00     0.039 C 
BRANCH  13  15
ATOM     15  C   UNL     1      26.323 -11.885  34.361  1.00  0.00     0.035 C 
BRANCH  15  16
ATOM     16  C   UNL     1      25.606 -11.746  35.712  1.00  0.00     0.079 C 
BRANCH  16  17
ATOM     17  C   UNL     1      24.306 -10.993  35.579  1.00  0.00     0.130 C 
ATOM     18  O   UNL     1      24.268  -9.968  34.915  1.00  0.00    -0.300 OA
ATOM     19  C   UNL     1      23.056 -11.467  36.260  1.00  0.00     0.087 C 
ENDBRANCH  16  17
ENDBRANCH  15  16
ENDBRANCH  13  15
ENDBRANCH  11  12
ENDBRANCH   1  11
TORSDOF 9
ENDMDL
MODEL 6
REMARK VINA RESULT:    -6.009      1.307      3.604
REMARK INTER + INTRA:         -10.989
REMARK INTER:                  -9.247
REMARK INTRA:                  -1.742
REMARK UNBOUND:                -1.819
REMARK SMILES CC(=O)CCC=C(C)CCC=C(C)CCC=C(C)C
REMARK SMILES IDX 10 1 11 2 12 3 13 4 14 5 15 6 16 7 18 8 17 9 19 10 9 11 7 12
REMARK SMILES IDX 6 13 8 14 5 15 4 16 2 17 3 18 1 19
REMARK H PARENT
REMARK Flexibility Score: inf
ROOT
ATOM      1  C   UNL     1      28.402 -12.282  31.179  1.00  0.00     0.032 C 
ENDROOT
BRANCH   1   2
ATOM      2  C   UNL     1      27.521 -12.294  32.402  1.00  0.00    -0.028 C 
ATOM      3  C   UNL     1      26.855 -13.379  32.862  1.00  0.00    -0.077 C 
ATOM      4  C   UNL     1      26.018 -13.229  34.105  1.00  0.00     0.039 C 
BRANCH   3   5
ATOM      5  C   UNL     1      26.857 -14.714  32.145  1.00  0.00     0.034 C 
BRANCH   5   6
ATOM      6  C   UNL     1      25.729 -14.775  31.112  1.00  0.00     0.032 C 
BRANCH   6   7
ATOM      7  C   UNL     1      26.209 -14.292  29.766  1.00  0.00    -0.028 C 
ATOM      8  C   UNL     1      26.146 -14.006  27.308  1.00  0.00     0.039 C 
ATOM      9  C   UNL     1      25.557 -14.509  28.601  1.00  0.00    -0.080 C 
ATOM     10  C   UNL     1      24.219 -15.204  28.548  1.00  0.00     0.039 C 
ENDBRANCH   6   7
ENDBRANCH   5   6
ENDBRANCH   3   5
ENDBRANCH   1   2
BRANCH   1  11
ATOM     11  C   UNL     1      28.500 -10.869  30.591  1.00  0.00     0.034 C 
BRANCH  11  12
ATOM     12  C   UNL     1      27.755 -10.789  29.273  1.00  0.00    -0.077 C 
ATOM     13  C   UNL     1      28.321 -11.109  28.086  1.00  0.00    -0.028 C 
ATOM     14  C   UNL     1      26.348 -10.252  29.274  1.00  0.00     0.039 C 
BRANCH  13  15
ATOM     15  C   UNL     1      29.715 -11.662  27.914  1.00  0.00     0.035 C 
BRANCH  15  16
ATOM     16  C   UNL     1      29.755 -13.188  28.087  1.00  0.00     0.079 C 
BRANCH  16  17
ATOM     17  C   UNL     1      31.080 -13.652  28.637  1.00  0.00     0.130 C 
ATOM     18  O   UNL     1      31.788 -14.385  27.964  1.00  0.00    -0.300 OA
ATOM     19  C   UNL     1      31.544 -13.244  30.005  1.00  0.00     0.087 C 
ENDBRANCH  16  17
ENDBRANCH  15  16
ENDBRANCH  13  15
ENDBRANCH  11  12
ENDBRANCH   1  11
TORSDOF 9
ENDMDL
MODEL 7
REMARK VINA RESULT:    -5.979      1.706      4.033
REMARK INTER + INTRA:         -10.944
REMARK INTER:                  -9.778
REMARK INTRA:                  -1.166
REMARK UNBOUND:                -1.819
REMARK SMILES CC(=O)CCC=C(C)CCC=C(C)CCC=C(C)C
REMARK SMILES IDX 10 1 11 2 12 3 13 4 14 5 15 6 16 7 18 8 17 9 19 10 9 11 7 12
REMARK SMILES IDX 6 13 8 14 5 15 4 16 2 17 3 18 1 19
REMARK H PARENT
REMARK Flexibility Score: inf
ROOT
ATOM      1  C   UNL     1      28.382 -12.295  31.287  1.00  0.00     0.032 C 
ENDROOT
BRANCH   1   2
ATOM      2  C   UNL     1      27.495 -12.398  32.501  1.00  0.00    -0.028 C 
ATOM      3  C   UNL     1      26.817 -13.510  32.869  1.00  0.00    -0.077 C 
ATOM      4  C   UNL     1      25.974 -13.453  34.117  1.00  0.00     0.039 C 
BRANCH   3   5
ATOM      5  C   UNL     1      26.811 -14.783  32.047  1.00  0.00     0.034 C 
BRANCH   5   6
ATOM      6  C   UNL     1      25.666 -14.764  31.030  1.00  0.00     0.032 C 
BRANCH   6   7
ATOM      7  C   UNL     1      26.171 -14.369  29.664  1.00  0.00    -0.028 C 
ATOM      8  C   UNL     1      26.120 -14.191  27.196  1.00  0.00     0.039 C 
ATOM      9  C   UNL     1      25.507 -14.603  28.509  1.00  0.00    -0.080 C 
ATOM     10  C   UNL     1      24.133 -15.227  28.486  1.00  0.00     0.039 C 
ENDBRANCH   6   7
ENDBRANCH   5   6
ENDBRANCH   3   5
ENDBRANCH   1   2
BRANCH   1  11
ATOM     11  C   UNL     1      29.506 -13.337  31.344  1.00  0.00     0.034 C 
BRANCH  11  12
ATOM     12  C   UNL     1      30.709 -12.866  30.551  1.00  0.00    -0.077 C 
ATOM     13  C   UNL     1      30.742 -12.851  29.199  1.00  0.00    -0.028 C 
ATOM     14  C   UNL     1      31.955 -12.472  31.302  1.00  0.00     0.039 C 
BRANCH  13  15
ATOM     15  C   UNL     1      29.581 -13.211  28.303  1.00  0.00     0.035 C 
BRANCH  15  16
ATOM     16  C   UNL     1      29.180 -12.048  27.383  1.00  0.00     0.079 C 
BRANCH  16  17
ATOM     17  C   UNL     1      28.516 -10.934  28.151  1.00  0.00     0.130 C 
ATOM     18  O   UNL     1      29.183  -9.986  28.537  1.00  0.00    -0.300 OA
ATOM     19  C   UNL     1      27.050 -10.970  28.468  1.00  0.00     0.087 C 
ENDBRANCH  16  17
ENDBRANCH  15  16
ENDBRANCH  13  15
ENDBRANCH  11  12
ENDBRANCH   1  11
TORSDOF 9
ENDMDL
MODEL 8
REMARK VINA RESULT:    -5.908      2.912      5.612
REMARK INTER + INTRA:         -10.835
REMARK INTER:                  -9.682
REMARK INTRA:                  -1.153
REMARK UNBOUND:                -1.819
REMARK SMILES CC(=O)CCC=C(C)CCC=C(C)CCC=C(C)C
REMARK SMILES IDX 10 1 11 2 12 3 13 4 14 5 15 6 16 7 18 8 17 9 19 10 9 11 7 12
REMARK SMILES IDX 6 13 8 14 5 15 4 16 2 17 3 18 1 19
REMARK H PARENT
REMARK Flexibility Score: inf
ROOT
ATOM      1  C   UNL     1      29.624 -12.848  31.392  1.00  0.00     0.032 C 
ENDROOT
BRANCH   1   2
ATOM      2  C   UNL     1      28.512 -13.864  31.446  1.00  0.00    -0.028 C 
ATOM      3  C   UNL     1      27.324 -13.674  32.065  1.00  0.00    -0.077 C 
ATOM      4  C   UNL     1      26.310 -14.788  32.024  1.00  0.00     0.039 C 
BRANCH   3   5
ATOM      5  C   UNL     1      26.995 -12.423  32.856  1.00  0.00     0.034 C 
BRANCH   5   6
ATOM      6  C   UNL     1      26.363 -12.785  34.203  1.00  0.00     0.032 C 
BRANCH   6   7
ATOM      7  C   UNL     1      25.981 -11.541  34.966  1.00  0.00    -0.028 C 
ATOM      8  C   UNL     1      24.591 -10.135  36.453  1.00  0.00     0.039 C 
ATOM      9  C   UNL     1      24.892 -11.438  35.760  1.00  0.00    -0.080 C 
ATOM     10  C   UNL     1      23.977 -12.610  36.022  1.00  0.00     0.039 C 
ENDBRANCH   6   7
ENDBRANCH   5   6
ENDBRANCH   3   5
ENDBRANCH   1   2
BRANCH   1  11
ATOM     11  C   UNL     1      29.468 -11.933  30.171  1.00  0.00     0.034 C 
BRANCH  11  12
ATOM     12  C   UNL     1      29.946 -12.635  28.916  1.00  0.00    -0.077 C 
ATOM     13  C   UNL     1      29.183 -12.763  27.806  1.00  0.00    -0.028 C 
ATOM     14  C   UNL     1      31.302 -13.291  28.931  1.00  0.00     0.039 C 
BRANCH  13  15
ATOM     15  C   UNL     1      27.808 -12.164  27.629  1.00  0.00     0.035 C 
BRANCH  15  16
ATOM     16  C   UNL     1      26.751 -12.888  28.476  1.00  0.00     0.079 C 
BRANCH  16  17
ATOM     17  C   UNL     1      26.120 -14.031  27.723  1.00  0.00     0.130 C 
ATOM     18  O   UNL     1      26.561 -14.350  26.630  1.00  0.00    -0.300 OA
ATOM     19  C   UNL     1      24.946 -14.780  28.282  1.00  0.00     0.087 C 
ENDBRANCH  16  17
ENDBRANCH  15  16
ENDBRANCH  13  15
ENDBRANCH  11  12
ENDBRANCH   1  11
TORSDOF 9
ENDMDL
MODEL 9
REMARK VINA RESULT:    -5.857      2.046      5.183
REMARK INTER + INTRA:         -10.758
REMARK INTER:                  -9.099
REMARK INTRA:                  -1.659
REMARK UNBOUND:                -1.819
REMARK SMILES CC(=O)CCC=C(C)CCC=C(C)CCC=C(C)C
REMARK SMILES IDX 10 1 11 2 12 3 13 4 14 5 15 6 16 7 18 8 17 9 19 10 9 11 7 12
REMARK SMILES IDX 6 13 8 14 5 15 4 16 2 17 3 18 1 19
REMARK H PARENT
REMARK Flexibility Score: inf
ROOT
ATOM      1  C   UNL     1      30.780 -13.119  27.989  1.00  0.00     0.032 C 
ENDROOT
BRANCH   1   2
ATOM      2  C   UNL     1      31.315 -13.200  29.396  1.00  0.00    -0.028 C 
ATOM      3  C   UNL     1      31.052 -12.302  30.374  1.00  0.00    -0.077 C 
ATOM      4  C   UNL     1      31.659 -12.528  31.734  1.00  0.00     0.039 C 
BRANCH   3   5
ATOM      5  C   UNL     1      30.234 -11.047  30.144  1.00  0.00     0.034 C 
BRANCH   5   6
ATOM      6  C   UNL     1      28.979 -11.051  31.021  1.00  0.00     0.032 C 
BRANCH   6   7
ATOM      7  C   UNL     1      28.472 -12.458  31.222  1.00  0.00    -0.028 C 
ATOM      8  C   UNL     1      27.127 -14.252  32.270  1.00  0.00     0.039 C 
ATOM      9  C   UNL     1      27.538 -12.809  32.136  1.00  0.00    -0.080 C 
ATOM     10  C   UNL     1      26.847 -11.789  33.007  1.00  0.00     0.039 C 
ENDBRANCH   6   7
ENDBRANCH   5   6
ENDBRANCH   3   5
ENDBRANCH   1   2
BRANCH   1  11
ATOM     11  C   UNL     1      29.307 -13.542  27.941  1.00  0.00     0.034 C 
BRANCH  11  12
ATOM     12  C   UNL     1      28.445 -12.408  27.422  1.00  0.00    -0.077 C 
ATOM     13  C   UNL     1      27.124 -12.300  27.696  1.00  0.00    -0.028 C 
ATOM     14  C   UNL     1      29.067 -11.400  26.491  1.00  0.00     0.039 C 
BRANCH  13  15
ATOM     15  C   UNL     1      26.353 -13.223  28.609  1.00  0.00     0.035 C 
BRANCH  15  16
ATOM     16  C   UNL     1      25.680 -14.368  27.838  1.00  0.00     0.079 C 
BRANCH  16  17
ATOM     17  C   UNL     1      24.802 -15.204  28.734  1.00  0.00     0.130 C 
ATOM     18  O   UNL     1      25.259 -15.661  29.770  1.00  0.00    -0.300 OA
ATOM     19  C   UNL     1      23.376 -15.501  28.372  1.00  0.00     0.087 C 
ENDBRANCH  16  17
ENDBRANCH  15  16
ENDBRANCH  13  15
ENDBRANCH  11  12
ENDBRANCH   1  11
TORSDOF 9
ENDMDL
