MODEL 1
REMARK VINA RESULT:    -5.235      0.000      0.000
REMARK INTER + INTRA:          -6.002
REMARK INTER:                  -5.694
REMARK INTRA:                  -0.308
REMARK UNBOUND:                -0.308
REMARK SMILES C=C1C[C@]2(O)O[C@]3(C[C@H]2C(C)C)[C@H](C)CC[C@H]13
REMARK SMILES IDX 14 1 13 2 15 3 16 4 17 5 7 6 8 7 9 8 4 9 6 10 3 11 2 12 1 13
REMARK SMILES IDX 10 14 11 15 12 16 5 17
REMARK H PARENT 5 18
REMARK Flexibility Score: inf
ROOT
ATOM      1  C   UNL     1      -9.350  18.929 -10.877  1.00  0.00     0.011 C 
ATOM      2  C   UNL     1      -9.123  20.275 -10.172  1.00  0.00     0.019 C 
ATOM      3  C   UNL     1      -8.937  21.429 -11.169  1.00  0.00     0.007 C 
ATOM      4  C   UNL     1      -7.865  22.356 -10.587  1.00  0.00     0.011 C 
ATOM      5  C   UNL     1      -7.532  21.812  -9.196  1.00  0.00     0.047 C 
ATOM      6  C   UNL     1      -7.878  20.313  -9.272  1.00  0.00     0.081 C 
ATOM      7  C   UNL     1      -8.080  19.702  -7.883  1.00  0.00     0.046 C 
ATOM      8  C   UNL     1      -6.683  19.195  -7.524  1.00  0.00     0.054 C 
ATOM      9  C   UNL     1      -5.858  19.516  -8.807  1.00  0.00     0.173 C 
ATOM     10  O   UNL     1      -6.795  19.622  -9.856  1.00  0.00    -0.342 OA
ATOM     11  C   UNL     1      -5.121  20.876  -8.681  1.00  0.00     0.096 C 
ATOM     12  C   UNL     1      -6.081  22.045  -8.805  1.00  0.00    -0.066 C 
ATOM     13  C   UNL     1      -5.639  23.289  -8.577  1.00  0.00     0.008 C 
ENDROOT
BRANCH   8  14
ATOM     14  C   UNL     1      -6.710  17.709  -7.033  1.00  0.00    -0.009 C 
ATOM     15  C   UNL     1      -6.385  17.512  -5.538  1.00  0.00     0.008 C 
ATOM     16  C   UNL     1      -8.028  17.009  -7.397  1.00  0.00     0.008 C 
ENDBRANCH   8  14
BRANCH   9  17
ATOM     17  O   UNL     1      -4.918  18.514  -9.094  1.00  0.00    -0.365 OA
ATOM     18  H   UNL     1      -5.118  18.169 -10.003  1.00  0.00     0.214 HD
ENDBRANCH   9  17
TORSDOF 2
ENDMDL
MODEL 2
REMARK VINA RESULT:    -5.208      1.999      2.529
REMARK INTER + INTRA:          -5.973
REMARK INTER:                  -5.681
REMARK INTRA:                  -0.292
REMARK UNBOUND:                -0.308
REMARK SMILES C=C1C[C@]2(O)O[C@]3(C[C@H]2C(C)C)[C@H](C)CC[C@H]13
REMARK SMILES IDX 14 1 13 2 15 3 16 4 17 5 7 6 8 7 9 8 4 9 6 10 3 11 2 12 1 13
REMARK SMILES IDX 10 14 11 15 12 16 5 17
REMARK H PARENT 5 18
REMARK Flexibility Score: inf
ROOT
ATOM      1  C   UNL     1     -11.277  20.479 -11.603  1.00  0.00     0.011 C 
ATOM      2  C   UNL     1     -10.422  21.165 -10.528  1.00  0.00     0.019 C 
ATOM      3  C   UNL     1      -9.646  22.369 -11.084  1.00  0.00     0.007 C 
ATOM      4  C   UNL     1      -8.272  22.367 -10.407  1.00  0.00     0.011 C 
ATOM      5  C   UNL     1      -8.304  21.247  -9.365  1.00  0.00     0.047 C 
ATOM      6  C   UNL     1      -9.359  20.257  -9.892  1.00  0.00     0.081 C 
ATOM      7  C   UNL     1      -9.887  19.341  -8.784  1.00  0.00     0.046 C 
ATOM      8  C   UNL     1      -8.951  18.134  -8.862  1.00  0.00     0.054 C 
ATOM      9  C   UNL     1      -8.037  18.482 -10.075  1.00  0.00     0.173 C 
ATOM     10  O   UNL     1      -8.757  19.414 -10.851  1.00  0.00    -0.342 OA
ATOM     11  C   UNL     1      -6.717  19.156  -9.615  1.00  0.00     0.096 C 
ATOM     12  C   UNL     1      -6.948  20.587  -9.167  1.00  0.00    -0.066 C 
ATOM     13  C   UNL     1      -5.945  21.273  -8.603  1.00  0.00     0.008 C 
ENDROOT
BRANCH   8  14
ATOM     14  C   UNL     1      -9.743  16.784  -8.913  1.00  0.00    -0.009 C 
ATOM     15  C   UNL     1      -9.443  15.810  -7.756  1.00  0.00     0.008 C 
ATOM     16  C   UNL     1     -11.256  17.013  -9.051  1.00  0.00     0.008 C 
ENDBRANCH   8  14
BRANCH   9  17
ATOM     17  O   UNL     1      -7.726  17.348 -10.842  1.00  0.00    -0.365 OA
ATOM     18  H   UNL     1      -7.727  16.565 -10.231  1.00  0.00     0.214 HD
ENDBRANCH   9  17
TORSDOF 2
ENDMDL
MODEL 3
REMARK VINA RESULT:    -4.942      1.625      3.424
REMARK INTER + INTRA:          -5.683
REMARK INTER:                  -5.382
REMARK INTRA:                  -0.301
REMARK UNBOUND:                -0.308
REMARK SMILES C=C1C[C@]2(O)O[C@]3(C[C@H]2C(C)C)[C@H](C)CC[C@H]13
REMARK SMILES IDX 14 1 13 2 15 3 16 4 17 5 7 6 8 7 9 8 4 9 6 10 3 11 2 12 1 13
REMARK SMILES IDX 10 14 11 15 12 16 5 17
REMARK H PARENT 5 18
REMARK Flexibility Score: inf
ROOT
ATOM      1  C   UNL     1      -8.983  21.995 -11.479  1.00  0.00     0.011 C 
ATOM      2  C   UNL     1      -8.611  21.907  -9.992  1.00  0.00     0.019 C 
ATOM      3  C   UNL     1      -7.270  22.592  -9.686  1.00  0.00     0.007 C 
ATOM      4  C   UNL     1      -6.557  21.733  -8.638  1.00  0.00     0.011 C 
ATOM      5  C   UNL     1      -7.540  20.631  -8.238  1.00  0.00     0.047 C 
ATOM      6  C   UNL     1      -8.462  20.472  -9.462  1.00  0.00     0.081 C 
ATOM      7  C   UNL     1      -9.784  19.791  -9.097  1.00  0.00     0.046 C 
ATOM      8  C   UNL     1      -9.483  18.310  -9.335  1.00  0.00     0.054 C 
ATOM      9  C   UNL     1      -8.027  18.337  -9.889  1.00  0.00     0.173 C 
ATOM     10  O   UNL     1      -7.830  19.635 -10.406  1.00  0.00    -0.342 OA
ATOM     11  C   UNL     1      -6.987  18.107  -8.760  1.00  0.00     0.096 C 
ATOM     12  C   UNL     1      -6.848  19.328  -7.871  1.00  0.00    -0.066 C 
ATOM     13  C   UNL     1      -6.101  19.256  -6.761  1.00  0.00     0.008 C 
ENDROOT
BRANCH   8  14
ATOM     14  C   UNL     1     -10.582  17.626 -10.216  1.00  0.00    -0.009 C 
ATOM     15  C   UNL     1     -11.394  16.524  -9.504  1.00  0.00     0.008 C 
ATOM     16  C   UNL     1     -11.519  18.656 -10.865  1.00  0.00     0.008 C 
ENDBRANCH   8  14
BRANCH   9  17
ATOM     17  O   UNL     1      -7.828  17.378 -10.894  1.00  0.00    -0.365 OA
ATOM     18  H   UNL     1      -8.467  17.577 -11.627  1.00  0.00     0.214 HD
ENDBRANCH   9  17
TORSDOF 2
ENDMDL
MODEL 4
REMARK VINA RESULT:    -4.849      2.020      4.020
REMARK INTER + INTRA:          -5.582
REMARK INTER:                  -5.335
REMARK INTRA:                  -0.246
REMARK UNBOUND:                -0.308
REMARK SMILES C=C1C[C@]2(O)O[C@]3(C[C@H]2C(C)C)[C@H](C)CC[C@H]13
REMARK SMILES IDX 14 1 13 2 15 3 16 4 17 5 7 6 8 7 9 8 4 9 6 10 3 11 2 12 1 13
REMARK SMILES IDX 10 14 11 15 12 16 5 17
REMARK H PARENT 5 18
REMARK Flexibility Score: inf
ROOT
ATOM      1  C   UNL     1      -8.719  22.071  -9.456  1.00  0.00     0.011 C 
ATOM      2  C   UNL     1      -9.141  20.941 -10.406  1.00  0.00     0.019 C 
ATOM      3  C   UNL     1     -10.656  20.926 -10.657  1.00  0.00     0.007 C 
ATOM      4  C   UNL     1     -11.086  19.458 -10.720  1.00  0.00     0.011 C 
ATOM      5  C   UNL     1      -9.803  18.628 -10.643  1.00  0.00     0.047 C 
ATOM      6  C   UNL     1      -8.801  19.530  -9.900  1.00  0.00     0.081 C 
ATOM      7  C   UNL     1      -7.352  19.100 -10.146  1.00  0.00     0.046 C 
ATOM      8  C   UNL     1      -7.082  18.130  -8.996  1.00  0.00     0.054 C 
ATOM      9  C   UNL     1      -8.407  18.186  -8.178  1.00  0.00     0.173 C 
ATOM     10  O   UNL     1      -9.020  19.412  -8.511  1.00  0.00    -0.342 OA
ATOM     11  C   UNL     1      -9.373  17.040  -8.582  1.00  0.00     0.096 C 
ATOM     12  C   UNL     1     -10.005  17.296  -9.938  1.00  0.00    -0.066 C 
ATOM     13  C   UNL     1     -10.753  16.342 -10.508  1.00  0.00     0.008 C 
ENDROOT
BRANCH   8  14
ATOM     14  C   UNL     1      -5.751  18.470  -8.245  1.00  0.00    -0.009 C 
ATOM     15  C   UNL     1      -4.879  17.251  -7.881  1.00  0.00     0.008 C 
ATOM     16  C   UNL     1      -4.923  19.523  -8.998  1.00  0.00     0.008 C 
ENDBRANCH   8  14
BRANCH   9  17
ATOM     17  O   UNL     1      -8.175  18.119  -6.795  1.00  0.00    -0.365 OA
ATOM     18  H   UNL     1      -7.601  18.892  -6.551  1.00  0.00     0.214 HD
ENDBRANCH   9  17
TORSDOF 2
ENDMDL
MODEL 5
REMARK VINA RESULT:    -4.818      1.720      4.559
REMARK INTER + INTRA:          -5.548
REMARK INTER:                  -5.354
REMARK INTRA:                  -0.194
REMARK UNBOUND:                -0.308
REMARK SMILES C=C1C[C@]2(O)O[C@]3(C[C@H]2C(C)C)[C@H](C)CC[C@H]13
REMARK SMILES IDX 14 1 13 2 15 3 16 4 17 5 7 6 8 7 9 8 4 9 6 10 3 11 2 12 1 13
REMARK SMILES IDX 10 14 11 15 12 16 5 17
REMARK H PARENT 5 18
REMARK Flexibility Score: inf
ROOT
ATOM      1  C   UNL     1      -6.190  16.985  -5.515  1.00  0.00     0.011 C 
ATOM      2  C   UNL     1      -7.517  17.314  -6.214  1.00  0.00     0.019 C 
ATOM      3  C   UNL     1      -8.242  16.053  -6.710  1.00  0.00     0.007 C 
ATOM      4  C   UNL     1      -8.877  16.403  -8.058  1.00  0.00     0.011 C 
ATOM      5  C   UNL     1      -8.637  17.898  -8.276  1.00  0.00     0.047 C 
ATOM      6  C   UNL     1      -7.373  18.211  -7.453  1.00  0.00     0.081 C 
ATOM      7  C   UNL     1      -7.249  19.706  -7.142  1.00  0.00     0.046 C 
ATOM      8  C   UNL     1      -6.419  20.232  -8.314  1.00  0.00     0.054 C 
ATOM      9  C   UNL     1      -6.101  18.937  -9.121  1.00  0.00     0.173 C 
ATOM     10  O   UNL     1      -6.235  17.867  -8.212  1.00  0.00    -0.342 OA
ATOM     11  C   UNL     1      -7.122  18.721 -10.271  1.00  0.00     0.096 C 
ATOM     12  C   UNL     1      -8.467  18.260  -9.743  1.00  0.00    -0.066 C 
ATOM     13  C   UNL     1      -9.508  18.163 -10.582  1.00  0.00     0.008 C 
ENDROOT
BRANCH   8  14
ATOM     14  C   UNL     1      -5.209  21.099  -7.829  1.00  0.00    -0.009 C 
ATOM     15  C   UNL     1      -4.823  22.260  -8.769  1.00  0.00     0.008 C 
ATOM     16  C   UNL     1      -5.409  21.608  -6.393  1.00  0.00     0.008 C 
ENDBRANCH   8  14
BRANCH   9  17
ATOM     17  O   UNL     1      -4.805  18.957  -9.661  1.00  0.00    -0.365 OA
ATOM     18  H   UNL     1      -4.598  19.898  -9.903  1.00  0.00     0.214 HD
ENDBRANCH   9  17
TORSDOF 2
ENDMDL
MODEL 6
REMARK VINA RESULT:    -4.817      2.396      4.586
REMARK INTER + INTRA:          -5.548
REMARK INTER:                  -5.324
REMARK INTRA:                  -0.223
REMARK UNBOUND:                -0.308
REMARK SMILES C=C1C[C@]2(O)O[C@]3(C[C@H]2C(C)C)[C@H](C)CC[C@H]13
REMARK SMILES IDX 14 1 13 2 15 3 16 4 17 5 7 6 8 7 9 8 4 9 6 10 3 11 2 12 1 13
REMARK SMILES IDX 10 14 11 15 12 16 5 17
REMARK H PARENT 5 18
REMARK Flexibility Score: inf
ROOT
ATOM      1  C   UNL     1      -7.529  17.687  -7.219  1.00  0.00     0.011 C 
ATOM      2  C   UNL     1      -7.236  18.475  -8.504  1.00  0.00     0.019 C 
ATOM      3  C   UNL     1      -6.562  19.826  -8.217  1.00  0.00     0.007 C 
ATOM      4  C   UNL     1      -7.144  20.837  -9.209  1.00  0.00     0.011 C 
ATOM      5  C   UNL     1      -8.049  20.044 -10.154  1.00  0.00     0.047 C 
ATOM      6  C   UNL     1      -8.483  18.815  -9.335  1.00  0.00     0.081 C 
ATOM      7  C   UNL     1      -8.977  17.675 -10.231  1.00  0.00     0.046 C 
ATOM      8  C   UNL     1     -10.480  17.940 -10.326  1.00  0.00     0.054 C 
ATOM      9  C   UNL     1     -10.673  19.173  -9.393  1.00  0.00     0.173 C 
ATOM     10  O   UNL     1      -9.572  19.173  -8.512  1.00  0.00    -0.342 OA
ATOM     11  C   UNL     1     -10.646  20.501 -10.196  1.00  0.00     0.096 C 
ATOM     12  C   UNL     1      -9.240  20.853 -10.645  1.00  0.00    -0.066 C 
ATOM     13  C   UNL     1      -9.051  21.890 -11.472  1.00  0.00     0.008 C 
ENDROOT
BRANCH   8  14
ATOM     14  C   UNL     1     -11.319  16.656 -10.013  1.00  0.00    -0.009 C 
ATOM     15  C   UNL     1     -12.592  16.486 -10.869  1.00  0.00     0.008 C 
ATOM     16  C   UNL     1     -10.459  15.384 -10.063  1.00  0.00     0.008 C 
ENDBRANCH   8  14
BRANCH   9  17
ATOM     17  O   UNL     1     -11.875  19.104  -8.670  1.00  0.00    -0.365 OA
ATOM     18  H   UNL     1     -11.655  19.249  -7.712  1.00  0.00     0.214 HD
ENDBRANCH   9  17
TORSDOF 2
ENDMDL
MODEL 7
REMARK VINA RESULT:    -4.736      2.678      4.653
REMARK INTER + INTRA:          -5.460
REMARK INTER:                  -5.203
REMARK INTRA:                  -0.256
REMARK UNBOUND:                -0.308
REMARK SMILES C=C1C[C@]2(O)O[C@]3(C[C@H]2C(C)C)[C@H](C)CC[C@H]13
REMARK SMILES IDX 14 1 13 2 15 3 16 4 17 5 7 6 8 7 9 8 4 9 6 10 3 11 2 12 1 13
REMARK SMILES IDX 10 14 11 15 12 16 5 17
REMARK H PARENT 5 18
REMARK Flexibility Score: inf
ROOT
ATOM      1  C   UNL     1     -10.664  14.457  -9.416  1.00  0.00     0.011 C 
ATOM      2  C   UNL     1     -11.475  15.761  -9.412  1.00  0.00     0.019 C 
ATOM      3  C   UNL     1     -12.490  15.818 -10.564  1.00  0.00     0.007 C 
ATOM      4  C   UNL     1     -12.512  17.264 -11.070  1.00  0.00     0.011 C 
ATOM      5  C   UNL     1     -11.616  18.067 -10.126  1.00  0.00     0.047 C 
ATOM      6  C   UNL     1     -10.625  17.033  -9.559  1.00  0.00     0.081 C 
ATOM      7  C   UNL     1      -9.977  17.516  -8.258  1.00  0.00     0.046 C 
ATOM      8  C   UNL     1      -8.711  18.220  -8.746  1.00  0.00     0.054 C 
ATOM      9  C   UNL     1      -8.754  17.981 -10.286  1.00  0.00     0.173 C 
ATOM     10  O   UNL     1      -9.574  16.850 -10.482  1.00  0.00    -0.342 OA
ATOM     11  C   UNL     1      -9.402  19.180 -11.028  1.00  0.00     0.096 C 
ATOM     12  C   UNL     1     -10.905  19.216 -10.825  1.00  0.00    -0.066 C 
ATOM     13  C   UNL     1     -11.608  20.265 -11.275  1.00  0.00     0.008 C 
ENDROOT
BRANCH   8  14
ATOM     14  C   UNL     1      -7.439  17.736  -7.972  1.00  0.00    -0.009 C 
ATOM     15  C   UNL     1      -6.500  18.863  -7.495  1.00  0.00     0.008 C 
ATOM     16  C   UNL     1      -7.799  16.802  -6.807  1.00  0.00     0.008 C 
ENDBRANCH   8  14
BRANCH   9  17
ATOM     17  O   UNL     1      -7.475  17.752 -10.819  1.00  0.00    -0.365 OA
ATOM     18  H   UNL     1      -7.593  17.451 -11.758  1.00  0.00     0.214 HD
ENDBRANCH   9  17
TORSDOF 2
ENDMDL
MODEL 8
REMARK VINA RESULT:    -4.646      1.802      5.369
REMARK INTER + INTRA:          -5.362
REMARK INTER:                  -5.068
REMARK INTRA:                  -0.294
REMARK UNBOUND:                -0.308
REMARK SMILES C=C1C[C@]2(O)O[C@]3(C[C@H]2C(C)C)[C@H](C)CC[C@H]13
REMARK SMILES IDX 14 1 13 2 15 3 16 4 17 5 7 6 8 7 9 8 4 9 6 10 3 11 2 12 1 13
REMARK SMILES IDX 10 14 11 15 12 16 5 17
REMARK H PARENT 5 18
REMARK Flexibility Score: inf
ROOT
ATOM      1  C   UNL     1      -6.323  20.469  -9.111  1.00  0.00     0.011 C 
ATOM      2  C   UNL     1      -7.111  19.594  -8.125  1.00  0.00     0.019 C 
ATOM      3  C   UNL     1      -6.264  18.443  -7.563  1.00  0.00     0.007 C 
ATOM      4  C   UNL     1      -7.183  17.223  -7.452  1.00  0.00     0.011 C 
ATOM      5  C   UNL     1      -8.588  17.703  -7.820  1.00  0.00     0.047 C 
ATOM      6  C   UNL     1      -8.354  18.923  -8.731  1.00  0.00     0.081 C 
ATOM      7  C   UNL     1      -9.589  19.826  -8.807  1.00  0.00     0.046 C 
ATOM      8  C   UNL     1     -10.345  19.272 -10.016  1.00  0.00     0.054 C 
ATOM      9  C   UNL     1      -9.393  18.152 -10.536  1.00  0.00     0.173 C 
ATOM     10  O   UNL     1      -8.110  18.473 -10.046  1.00  0.00    -0.342 OA
ATOM     11  C   UNL     1      -9.791  16.763  -9.970  1.00  0.00     0.096 C 
ATOM     12  C   UNL     1      -9.418  16.629  -8.505  1.00  0.00    -0.066 C 
ATOM     13  C   UNL     1      -9.816  15.550  -7.818  1.00  0.00     0.008 C 
ENDROOT
BRANCH   8  14
ATOM     14  C   UNL     1     -10.749  20.403 -11.019  1.00  0.00    -0.009 C 
ATOM     15  C   UNL     1     -12.102  21.083 -10.722  1.00  0.00     0.008 C 
ATOM     16  C   UNL     1      -9.639  21.453 -11.176  1.00  0.00     0.008 C 
ENDBRANCH   8  14
BRANCH   9  17
ATOM     17  O   UNL     1      -9.376  18.085 -11.937  1.00  0.00    -0.365 OA
ATOM     18  H   UNL     1      -8.512  18.466 -12.244  1.00  0.00     0.214 HD
ENDBRANCH   9  17
TORSDOF 2
ENDMDL
