MODEL 1
REMARK VINA RESULT:    -6.147      0.000      0.000
REMARK INTER + INTRA:         -11.485
REMARK INTER:                 -10.459
REMARK INTRA:                  -1.026
REMARK UNBOUND:                -1.026
REMARK SMILES CCCCCCCCCCCCCC(=O)[O-]
REMARK SMILES IDX 8 1 9 2 10 3 11 4 12 5 13 6 14 7 15 8 16 9 7 10 6 11 5 12
REMARK SMILES IDX 4 13 3 14 2 15 1 16
REMARK H PARENT
REMARK Flexibility Score: inf
ROOT
ATOM      1  C   UNL     1     -22.606  37.956   5.860  1.00  0.00     0.000 C 
ENDROOT
BRANCH   1   2
ATOM      2  C   UNL     1     -21.295  38.074   5.061  1.00  0.00     0.000 C 
BRANCH   2   3
ATOM      3  C   UNL     1     -20.473  39.349   5.339  1.00  0.00     0.000 C 
BRANCH   3   4
ATOM      4  C   UNL     1     -21.210  40.674   5.076  1.00  0.00     0.000 C 
BRANCH   4   5
ATOM      5  C   UNL     1     -20.563  41.505   3.955  1.00  0.00     0.006 C 
BRANCH   5   6
ATOM      6  C   UNL     1     -19.152  41.980   4.327  1.00  0.00     0.053 C 
BRANCH   6   7
ATOM      7  C   UNL     1     -18.997  43.459   4.154  1.00  0.00     0.041 C 
ATOM      8  O   UNL     1     -18.518  44.160   5.085  1.00  0.00    -0.550 OA
ATOM      9  O   UNL     1     -19.353  44.062   2.954  1.00  0.00    -0.550 OA
ENDBRANCH   6   7
ENDBRANCH   5   6
ENDBRANCH   4   5
ENDBRANCH   3   4
ENDBRANCH   2   3
ENDBRANCH   1   2
BRANCH   1  10
ATOM     10  C   UNL     1     -23.048  36.500   6.070  1.00  0.00     0.000 C 
BRANCH  10  11
ATOM     11  C   UNL     1     -23.658  36.309   7.467  1.00  0.00    -0.000 C 
BRANCH  11  12
ATOM     12  C   UNL     1     -23.337  37.472   8.418  1.00  0.00    -0.000 C 
BRANCH  12  13
ATOM     13  C   UNL     1     -22.236  37.122   9.431  1.00  0.00    -0.000 C 
BRANCH  13  14
ATOM     14  C   UNL     1     -21.436  35.897   8.971  1.00  0.00    -0.000 C 
BRANCH  14  15
ATOM     15  C   UNL     1     -19.933  36.198   8.948  1.00  0.00    -0.003 C 
ATOM     16  C   UNL     1     -19.384  36.155   7.526  1.00  0.00     0.004 C 
ENDBRANCH  14  15
ENDBRANCH  13  14
ENDBRANCH  12  13
ENDBRANCH  11  12
ENDBRANCH  10  11
ENDBRANCH   1  10
TORSDOF 12
ENDMDL
MODEL 2
REMARK VINA RESULT:    -6.132      0.834      2.417
REMARK INTER + INTRA:         -11.459
REMARK INTER:                  -9.979
REMARK INTRA:                  -1.480
REMARK UNBOUND:                -1.026
REMARK SMILES CCCCCCCCCCCCCC(=O)[O-]
REMARK SMILES IDX 8 1 9 2 10 3 11 4 12 5 13 6 14 7 15 8 16 9 7 10 6 11 5 12
REMARK SMILES IDX 4 13 3 14 2 15 1 16
REMARK H PARENT
REMARK Flexibility Score: inf
ROOT
ATOM      1  C   UNL     1     -19.790  38.104   5.903  1.00  0.00     0.000 C 
ENDROOT
BRANCH   1   2
ATOM      2  C   UNL     1     -21.205  37.782   5.386  1.00  0.00     0.000 C 
BRANCH   2   3
ATOM      3  C   UNL     1     -22.147  38.997   5.263  1.00  0.00     0.000 C 
BRANCH   3   4
ATOM      4  C   UNL     1     -21.518  40.355   5.621  1.00  0.00     0.000 C 
BRANCH   4   5
ATOM      5  C   UNL     1     -21.050  41.140   4.383  1.00  0.00     0.006 C 
BRANCH   5   6
ATOM      6  C   UNL     1     -19.589  41.592   4.502  1.00  0.00     0.053 C 
BRANCH   6   7
ATOM      7  C   UNL     1     -19.414  43.025   4.103  1.00  0.00     0.041 C 
ATOM      8  O   UNL     1     -19.084  43.887   4.960  1.00  0.00    -0.550 OA
ATOM      9  O   UNL     1     -19.587  43.405   2.778  1.00  0.00    -0.550 OA
ENDBRANCH   6   7
ENDBRANCH   5   6
ENDBRANCH   4   5
ENDBRANCH   3   4
ENDBRANCH   2   3
ENDBRANCH   1   2
BRANCH   1  10
ATOM     10  C   UNL     1     -19.130  36.915   6.617  1.00  0.00     0.000 C 
BRANCH  10  11
ATOM     11  C   UNL     1     -20.185  36.035   7.304  1.00  0.00    -0.000 C 
BRANCH  11  12
ATOM     12  C   UNL     1     -20.142  36.147   8.837  1.00  0.00    -0.000 C 
BRANCH  12  13
ATOM     13  C   UNL     1     -21.528  36.389   9.452  1.00  0.00    -0.000 C 
BRANCH  13  14
ATOM     14  C   UNL     1     -22.164  37.666   8.888  1.00  0.00    -0.000 C 
BRANCH  14  15
ATOM     15  C   UNL     1     -23.637  37.436   8.532  1.00  0.00    -0.003 C 
ATOM     16  C   UNL     1     -23.782  36.384   7.437  1.00  0.00     0.004 C 
ENDBRANCH  14  15
ENDBRANCH  13  14
ENDBRANCH  12  13
ENDBRANCH  11  12
ENDBRANCH  10  11
ENDBRANCH   1  10
TORSDOF 12
ENDMDL
MODEL 3
REMARK VINA RESULT:    -6.113      3.016      6.501
REMARK INTER + INTRA:         -11.428
REMARK INTER:                 -10.403
REMARK INTRA:                  -1.025
REMARK UNBOUND:                -1.026
REMARK SMILES CCCCCCCCCCCCCC(=O)[O-]
REMARK SMILES IDX 8 1 9 2 10 3 11 4 12 5 13 6 14 7 15 8 16 9 7 10 6 11 5 12
REMARK SMILES IDX 4 13 3 14 2 15 1 16
REMARK H PARENT
REMARK Flexibility Score: inf
ROOT
ATOM      1  C   UNL     1     -22.952  37.791   6.423  1.00  0.00     0.000 C 
ENDROOT
BRANCH   1   2
ATOM      2  C   UNL     1     -23.487  36.866   7.531  1.00  0.00     0.000 C 
BRANCH   2   3
ATOM      3  C   UNL     1     -23.307  37.396   8.968  1.00  0.00     0.000 C 
BRANCH   3   4
ATOM      4  C   UNL     1     -22.051  36.890   9.700  1.00  0.00     0.000 C 
BRANCH   4   5
ATOM      5  C   UNL     1     -21.348  35.742   8.957  1.00  0.00     0.006 C 
BRANCH   5   6
ATOM      6  C   UNL     1     -19.919  36.113   8.537  1.00  0.00     0.053 C 
BRANCH   6   7
ATOM      7  C   UNL     1     -19.780  36.202   7.049  1.00  0.00     0.041 C 
ATOM      8  O   UNL     1     -18.960  37.010   6.536  1.00  0.00    -0.550 OA
ATOM      9  O   UNL     1     -20.534  35.374   6.227  1.00  0.00    -0.550 OA
ENDBRANCH   6   7
ENDBRANCH   5   6
ENDBRANCH   4   5
ENDBRANCH   3   4
ENDBRANCH   2   3
ENDBRANCH   1   2
BRANCH   1  10
ATOM     10  C   UNL     1     -22.368  39.103   6.970  1.00  0.00     0.000 C 
BRANCH  10  11
ATOM     11  C   UNL     1     -21.401  39.736   5.959  1.00  0.00    -0.000 C 
BRANCH  11  12
ATOM     12  C   UNL     1     -22.121  40.307   4.727  1.00  0.00    -0.000 C 
BRANCH  12  13
ATOM     13  C   UNL     1     -21.177  41.080   3.794  1.00  0.00    -0.000 C 
BRANCH  13  14
ATOM     14  C   UNL     1     -19.916  41.533   4.542  1.00  0.00    -0.000 C 
BRANCH  14  15
ATOM     15  C   UNL     1     -19.218  42.678   3.800  1.00  0.00    -0.003 C 
ATOM     16  C   UNL     1     -18.784  43.777   4.765  1.00  0.00     0.004 C 
ENDBRANCH  14  15
ENDBRANCH  13  14
ENDBRANCH  12  13
ENDBRANCH  11  12
ENDBRANCH  10  11
ENDBRANCH   1  10
TORSDOF 12
ENDMDL
MODEL 4
REMARK VINA RESULT:    -5.986      1.039      1.693
REMARK INTER + INTRA:         -11.211
REMARK INTER:                  -9.894
REMARK INTRA:                  -1.318
REMARK UNBOUND:                -1.026
REMARK SMILES CCCCCCCCCCCCCC(=O)[O-]
REMARK SMILES IDX 8 1 9 2 10 3 11 4 12 5 13 6 14 7 15 8 16 9 7 10 6 11 5 12
REMARK SMILES IDX 4 13 3 14 2 15 1 16
REMARK H PARENT
REMARK Flexibility Score: inf
ROOT
ATOM      1  C   UNL     1     -22.683  38.902   7.534  1.00  0.00     0.000 C 
ENDROOT
BRANCH   1   2
ATOM      2  C   UNL     1     -21.975  39.958   6.665  1.00  0.00     0.000 C 
BRANCH   2   3
ATOM      3  C   UNL     1     -22.370  39.949   5.175  1.00  0.00     0.000 C 
BRANCH   3   4
ATOM      4  C   UNL     1     -21.194  40.020   4.184  1.00  0.00     0.000 C 
BRANCH   4   5
ATOM      5  C   UNL     1     -20.820  41.463   3.803  1.00  0.00     0.006 C 
BRANCH   5   6
ATOM      6  C   UNL     1     -19.460  41.880   4.377  1.00  0.00     0.053 C 
BRANCH   6   7
ATOM      7  C   UNL     1     -19.142  43.312   4.075  1.00  0.00     0.041 C 
ATOM      8  O   UNL     1     -19.342  43.776   2.921  1.00  0.00    -0.550 OA
ATOM      9  O   UNL     1     -18.655  44.143   5.076  1.00  0.00    -0.550 OA
ENDBRANCH   6   7
ENDBRANCH   5   6
ENDBRANCH   4   5
ENDBRANCH   3   4
ENDBRANCH   2   3
ENDBRANCH   1   2
BRANCH   1  10
ATOM     10  C   UNL     1     -23.079  37.646   6.743  1.00  0.00     0.000 C 
BRANCH  10  11
ATOM     11  C   UNL     1     -23.399  36.481   7.691  1.00  0.00    -0.000 C 
BRANCH  11  12
ATOM     12  C   UNL     1     -22.229  35.495   7.834  1.00  0.00    -0.000 C 
BRANCH  12  13
ATOM     13  C   UNL     1     -21.297  35.847   9.003  1.00  0.00    -0.000 C 
BRANCH  13  14
ATOM     14  C   UNL     1     -19.901  36.230   8.497  1.00  0.00    -0.000 C 
BRANCH  14  15
ATOM     15  C   UNL     1     -19.794  36.040   6.980  1.00  0.00    -0.003 C 
ATOM     16  C   UNL     1     -19.377  37.335   6.290  1.00  0.00     0.004 C 
ENDBRANCH  14  15
ENDBRANCH  13  14
ENDBRANCH  12  13
ENDBRANCH  11  12
ENDBRANCH  10  11
ENDBRANCH   1  10
TORSDOF 12
ENDMDL
MODEL 5
REMARK VINA RESULT:    -5.960      3.585      6.813
REMARK INTER + INTRA:         -11.167
REMARK INTER:                 -10.012
REMARK INTRA:                  -1.156
REMARK UNBOUND:                -1.026
REMARK SMILES CCCCCCCCCCCCCC(=O)[O-]
REMARK SMILES IDX 8 1 9 2 10 3 11 4 12 5 13 6 14 7 15 8 16 9 7 10 6 11 5 12
REMARK SMILES IDX 4 13 3 14 2 15 1 16
REMARK H PARENT
REMARK Flexibility Score: inf
ROOT
ATOM      1  C   UNL     1     -19.664  38.031   5.931  1.00  0.00     0.000 C 
ENDROOT
BRANCH   1   2
ATOM      2  C   UNL     1     -19.250  36.695   6.575  1.00  0.00     0.000 C 
BRANCH   2   3
ATOM      3  C   UNL     1     -20.357  35.990   7.384  1.00  0.00     0.000 C 
BRANCH   3   4
ATOM      4  C   UNL     1     -20.324  36.245   8.902  1.00  0.00     0.000 C 
BRANCH   4   5
ATOM      5  C   UNL     1     -21.727  36.293   9.530  1.00  0.00     0.006 C 
BRANCH   5   6
ATOM      6  C   UNL     1     -22.491  37.567   9.146  1.00  0.00     0.053 C 
BRANCH   6   7
ATOM      7  C   UNL     1     -23.827  37.257   8.546  1.00  0.00     0.041 C 
ATOM      8  O   UNL     1     -23.902  36.694   7.422  1.00  0.00    -0.550 OA
ATOM      9  O   UNL     1     -24.991  37.563   9.240  1.00  0.00    -0.550 OA
ENDBRANCH   6   7
ENDBRANCH   5   6
ENDBRANCH   4   5
ENDBRANCH   3   4
ENDBRANCH   2   3
ENDBRANCH   1   2
BRANCH   1  10
ATOM     10  C   UNL     1     -21.187  38.187   5.805  1.00  0.00     0.000 C 
BRANCH  10  11
ATOM     11  C   UNL     1     -21.610  39.644   6.044  1.00  0.00    -0.000 C 
BRANCH  11  12
ATOM     12  C   UNL     1     -22.288  40.273   4.815  1.00  0.00    -0.000 C 
BRANCH  12  13
ATOM     13  C   UNL     1     -21.286  40.951   3.869  1.00  0.00    -0.000 C 
BRANCH  13  14
ATOM     14  C   UNL     1     -20.103  41.537   4.650  1.00  0.00    -0.000 C 
BRANCH  14  15
ATOM     15  C   UNL     1     -19.360  42.588   3.817  1.00  0.00    -0.003 C 
ATOM     16  C   UNL     1     -18.784  43.688   4.705  1.00  0.00     0.004 C 
ENDBRANCH  14  15
ENDBRANCH  13  14
ENDBRANCH  12  13
ENDBRANCH  11  12
ENDBRANCH  10  11
ENDBRANCH   1  10
TORSDOF 12
ENDMDL
MODEL 6
REMARK VINA RESULT:    -5.799     11.633     13.256
REMARK INTER + INTRA:         -10.892
REMARK INTER:                  -9.392
REMARK INTRA:                  -1.501
REMARK UNBOUND:                -1.026
REMARK SMILES CCCCCCCCCCCCCC(=O)[O-]
REMARK SMILES IDX 8 1 9 2 10 3 11 4 12 5 13 6 14 7 15 8 16 9 7 10 6 11 5 12
REMARK SMILES IDX 4 13 3 14 2 15 1 16
REMARK H PARENT
REMARK Flexibility Score: inf
ROOT
ATOM      1  C   UNL     1     -18.722  42.168  -7.292  1.00  0.00     0.000 C 
ENDROOT
BRANCH   1   2
ATOM      2  C   UNL     1     -19.304  40.803  -6.880  1.00  0.00     0.000 C 
BRANCH   2   3
ATOM      3  C   UNL     1     -20.392  40.859  -5.789  1.00  0.00     0.000 C 
BRANCH   3   4
ATOM      4  C   UNL     1     -21.766  40.301  -6.203  1.00  0.00     0.000 C 
BRANCH   4   5
ATOM      5  C   UNL     1     -22.531  41.242  -7.149  1.00  0.00     0.006 C 
BRANCH   5   6
ATOM      6  C   UNL     1     -23.798  41.813  -6.498  1.00  0.00     0.053 C 
BRANCH   6   7
ATOM      7  C   UNL     1     -23.634  43.255  -6.130  1.00  0.00     0.041 C 
ATOM      8  O   UNL     1     -22.722  43.608  -5.336  1.00  0.00    -0.550 OA
ATOM      9  O   UNL     1     -24.469  44.216  -6.687  1.00  0.00    -0.550 OA
ENDBRANCH   6   7
ENDBRANCH   5   6
ENDBRANCH   4   5
ENDBRANCH   3   4
ENDBRANCH   2   3
ENDBRANCH   1   2
BRANCH   1  10
ATOM     10  C   UNL     1     -19.483  43.351  -6.676  1.00  0.00     0.000 C 
BRANCH  10  11
ATOM     11  C   UNL     1     -18.528  44.274  -5.904  1.00  0.00    -0.000 C 
BRANCH  11  12
ATOM     12  C   UNL     1     -17.383  43.506  -5.224  1.00  0.00    -0.000 C 
BRANCH  12  13
ATOM     13  C   UNL     1     -17.787  42.925  -3.861  1.00  0.00    -0.000 C 
BRANCH  13  14
ATOM     14  C   UNL     1     -16.585  42.276  -3.163  1.00  0.00    -0.000 C 
BRANCH  14  15
ATOM     15  C   UNL     1     -15.927  41.225  -4.064  1.00  0.00    -0.003 C 
ATOM     16  C   UNL     1     -16.794  39.974  -4.175  1.00  0.00     0.004 C 
ENDBRANCH  14  15
ENDBRANCH  13  14
ENDBRANCH  12  13
ENDBRANCH  11  12
ENDBRANCH  10  11
ENDBRANCH   1  10
TORSDOF 12
ENDMDL
MODEL 7
REMARK VINA RESULT:    -5.711     11.684     13.062
REMARK INTER + INTRA:         -10.743
REMARK INTER:                  -9.232
REMARK INTRA:                  -1.511
REMARK UNBOUND:                -1.026
REMARK SMILES CCCCCCCCCCCCCC(=O)[O-]
REMARK SMILES IDX 8 1 9 2 10 3 11 4 12 5 13 6 14 7 15 8 16 9 7 10 6 11 5 12
REMARK SMILES IDX 4 13 3 14 2 15 1 16
REMARK H PARENT
REMARK Flexibility Score: inf
ROOT
ATOM      1  C   UNL     1     -19.281  40.730  -6.701  1.00  0.00     0.000 C 
ENDROOT
BRANCH   1   2
ATOM      2  C   UNL     1     -20.331  41.030  -5.616  1.00  0.00     0.000 C 
BRANCH   2   3
ATOM      3  C   UNL     1     -21.798  40.925  -6.080  1.00  0.00     0.000 C 
BRANCH   3   4
ATOM      4  C   UNL     1     -22.383  42.206  -6.701  1.00  0.00     0.000 C 
BRANCH   4   5
ATOM      5  C   UNL     1     -22.689  43.291  -5.654  1.00  0.00     0.006 C 
BRANCH   5   6
ATOM      6  C   UNL     1     -22.608  44.705  -6.245  1.00  0.00     0.053 C 
BRANCH   6   7
ATOM      7  C   UNL     1     -23.771  45.551  -5.827  1.00  0.00     0.041 C 
ATOM      8  O   UNL     1     -23.579  46.644  -5.232  1.00  0.00    -0.550 OA
ATOM      9  O   UNL     1     -25.068  45.148  -6.122  1.00  0.00    -0.550 OA
ENDBRANCH   6   7
ENDBRANCH   5   6
ENDBRANCH   4   5
ENDBRANCH   3   4
ENDBRANCH   2   3
ENDBRANCH   1   2
BRANCH   1  10
ATOM     10  C   UNL     1     -18.384  41.937  -7.015  1.00  0.00     0.000 C 
BRANCH  10  11
ATOM     11  C   UNL     1     -18.725  43.124  -6.101  1.00  0.00    -0.000 C 
BRANCH  11  12
ATOM     12  C   UNL     1     -17.579  43.481  -5.141  1.00  0.00    -0.000 C 
BRANCH  12  13
ATOM     13  C   UNL     1     -17.837  42.999  -3.706  1.00  0.00    -0.000 C 
BRANCH  13  14
ATOM     14  C   UNL     1     -16.600  42.298  -3.131  1.00  0.00    -0.000 C 
BRANCH  14  15
ATOM     15  C   UNL     1     -15.971  41.358  -4.165  1.00  0.00    -0.003 C 
ATOM     16  C   UNL     1     -16.625  39.980  -4.128  1.00  0.00     0.004 C 
ENDBRANCH  14  15
ENDBRANCH  13  14
ENDBRANCH  12  13
ENDBRANCH  11  12
ENDBRANCH  10  11
ENDBRANCH   1  10
TORSDOF 12
ENDMDL
MODEL 8
REMARK VINA RESULT:    -5.504     12.098     13.815
REMARK INTER + INTRA:         -10.391
REMARK INTER:                  -8.904
REMARK INTRA:                  -1.487
REMARK UNBOUND:                -1.026
REMARK SMILES CCCCCCCCCCCCCC(=O)[O-]
REMARK SMILES IDX 8 1 9 2 10 3 11 4 12 5 13 6 14 7 15 8 16 9 7 10 6 11 5 12
REMARK SMILES IDX 4 13 3 14 2 15 1 16
REMARK H PARENT
REMARK Flexibility Score: inf
ROOT
ATOM      1  C   UNL     1     -20.005  44.422  -6.972  1.00  0.00     0.000 C 
ENDROOT
BRANCH   1   2
ATOM      2  C   UNL     1     -21.339  44.580  -7.725  1.00  0.00     0.000 C 
BRANCH   2   3
ATOM      3  C   UNL     1     -22.602  44.430  -6.853  1.00  0.00     0.000 C 
BRANCH   3   4
ATOM      4  C   UNL     1     -22.473  43.452  -5.672  1.00  0.00     0.000 C 
BRANCH   4   5
ATOM      5  C   UNL     1     -22.934  42.027  -6.024  1.00  0.00     0.006 C 
BRANCH   5   6
ATOM      6  C   UNL     1     -21.752  41.073  -6.241  1.00  0.00     0.053 C 
BRANCH   6   7
ATOM      7  C   UNL     1     -21.598  40.694  -7.682  1.00  0.00     0.041 C 
ATOM      8  O   UNL     1     -20.715  39.865  -8.028  1.00  0.00    -0.550 OA
ATOM      9  O   UNL     1     -22.448  41.233  -8.639  1.00  0.00    -0.550 OA
ENDBRANCH   6   7
ENDBRANCH   5   6
ENDBRANCH   4   5
ENDBRANCH   3   4
ENDBRANCH   2   3
ENDBRANCH   1   2
BRANCH   1  10
ATOM     10  C   UNL     1     -19.056  43.417  -7.642  1.00  0.00     0.000 C 
BRANCH  10  11
ATOM     11  C   UNL     1     -18.282  42.609  -6.589  1.00  0.00    -0.000 C 
BRANCH  11  12
ATOM     12  C   UNL     1     -17.885  43.454  -5.369  1.00  0.00    -0.000 C 
BRANCH  12  13
ATOM     13  C   UNL     1     -17.780  42.622  -4.081  1.00  0.00    -0.000 C 
BRANCH  13  14
ATOM     14  C   UNL     1     -16.316  42.450  -3.657  1.00  0.00    -0.000 C 
BRANCH  14  15
ATOM     15  C   UNL     1     -15.769  41.091  -4.107  1.00  0.00    -0.003 C 
ATOM     16  C   UNL     1     -16.874  40.041  -4.156  1.00  0.00     0.004 C 
ENDBRANCH  14  15
ENDBRANCH  13  14
ENDBRANCH  12  13
ENDBRANCH  11  12
ENDBRANCH  10  11
ENDBRANCH   1  10
TORSDOF 12
ENDMDL
MODEL 9
REMARK VINA RESULT:    -5.476     11.421     13.568
REMARK INTER + INTRA:         -10.342
REMARK INTER:                  -8.932
REMARK INTRA:                  -1.410
REMARK UNBOUND:                -1.026
REMARK SMILES CCCCCCCCCCCCCC(=O)[O-]
REMARK SMILES IDX 8 1 9 2 10 3 11 4 12 5 13 6 14 7 15 8 16 9 7 10 6 11 5 12
REMARK SMILES IDX 4 13 3 14 2 15 1 16
REMARK H PARENT
REMARK Flexibility Score: inf
ROOT
ATOM      1  C   UNL     1     -18.607  43.496  -6.346  1.00  0.00     0.000 C 
ENDROOT
BRANCH   1   2
ATOM      2  C   UNL     1     -18.198  42.147  -6.966  1.00  0.00     0.000 C 
BRANCH   2   3
ATOM      3  C   UNL     1     -18.601  40.903  -6.149  1.00  0.00     0.000 C 
BRANCH   3   4
ATOM      4  C   UNL     1     -17.433  40.005  -5.703  1.00  0.00     0.000 C 
BRANCH   4   5
ATOM      5  C   UNL     1     -17.225  40.010  -4.178  1.00  0.00     0.006 C 
BRANCH   5   6
ATOM      6  C   UNL     1     -16.056  40.909  -3.756  1.00  0.00     0.053 C 
BRANCH   6   7
ATOM      7  C   UNL     1     -16.472  42.341  -3.627  1.00  0.00     0.041 C 
ATOM      8  O   UNL     1     -17.537  42.641  -3.024  1.00  0.00    -0.550 OA
ATOM      9  O   UNL     1     -15.669  43.350  -4.145  1.00  0.00    -0.550 OA
ENDBRANCH   6   7
ENDBRANCH   5   6
ENDBRANCH   4   5
ENDBRANCH   3   4
ENDBRANCH   2   3
ENDBRANCH   1   2
BRANCH   1  10
ATOM     10  C   UNL     1     -19.435  44.367  -7.303  1.00  0.00     0.000 C 
BRANCH  10  11
ATOM     11  C   UNL     1     -20.007  43.524  -8.453  1.00  0.00    -0.000 C 
BRANCH  11  12
ATOM     12  C   UNL     1     -21.476  43.133  -8.226  1.00  0.00    -0.000 C 
BRANCH  12  13
ATOM     13  C   UNL     1     -22.031  43.662  -6.895  1.00  0.00    -0.000 C 
BRANCH  13  14
ATOM     14  C   UNL     1     -22.234  42.519  -5.892  1.00  0.00    -0.000 C 
BRANCH  14  15
ATOM     15  C   UNL     1     -23.052  41.381  -6.514  1.00  0.00    -0.003 C 
ATOM     16  C   UNL     1     -22.324  40.046  -6.386  1.00  0.00     0.004 C 
ENDBRANCH  14  15
ENDBRANCH  13  14
ENDBRANCH  12  13
ENDBRANCH  11  12
ENDBRANCH  10  11
ENDBRANCH   1  10
TORSDOF 12
ENDMDL
