MODEL 1
REMARK VINA RESULT:    -7.391      0.000      0.000
REMARK INTER + INTRA:          -9.046
REMARK INTER:                  -9.119
REMARK INTRA:                   0.073
REMARK UNBOUND:                 0.073
REMARK SMILES O=c1c(O)c(-c2cc(O)c(O)c(O)c2)oc2cc(O)cc(O)c12
REMARK SMILES IDX 5 1 3 2 2 3 1 4 23 5 21 6 20 7 18 8 17 9 16 10 15 11 6 12
REMARK SMILES IDX 7 13 8 14 14 15 10 16 12 17 9 18 11 20 13 22 4 24 22 26
REMARK SMILES IDX 19 28
REMARK H PARENT 9 19 11 21 13 23 4 25 22 27 19 29
REMARK Flexibility Score: inf
ROOT
ATOM      1  C   UNL     1      28.267  23.603  49.907  1.00  0.00     0.180 A 
ATOM      2  C   UNL     1      27.244  23.968  50.798  1.00  0.00     0.208 A 
ATOM      3  C   UNL     1      27.382  23.652  52.159  1.00  0.00     0.238 A 
ATOM      4  O   UNL     1      26.438  23.933  52.943  1.00  0.00    -0.285 OA
ATOM      5  C   UNL     1      28.546  22.988  52.614  1.00  0.00     0.111 A 
ATOM      6  C   UNL     1      28.808  22.654  53.977  1.00  0.00     0.134 A 
ATOM      7  C   UNL     1      29.932  21.882  54.295  1.00  0.00     0.093 A 
ATOM      8  C   UNL     1      30.839  21.489  53.307  1.00  0.00     0.123 A 
ATOM      9  C   UNL     1      30.623  21.860  51.983  1.00  0.00     0.094 A 
ATOM     10  C   UNL     1      29.491  22.599  51.629  1.00  0.00     0.146 A 
ATOM     11  O   UNL     1      29.318  22.923  50.353  1.00  0.00    -0.452 OA
ENDROOT
BRANCH   1  12
ATOM     12  C   UNL     1      28.207  23.924  48.462  1.00  0.00     0.029 A 
ATOM     13  C   UNL     1      27.029  23.665  47.747  1.00  0.00     0.062 A 
ATOM     14  C   UNL     1      26.949  23.939  46.378  1.00  0.00     0.162 A 
ATOM     15  C   UNL     1      29.325  24.431  47.779  1.00  0.00     0.062 A 
ATOM     16  C   UNL     1      28.064  24.466  45.702  1.00  0.00     0.200 A 
ATOM     17  C   UNL     1      29.256  24.708  46.406  1.00  0.00     0.162 A 
BRANCH  14  18
ATOM     18  O   UNL     1      25.755  23.681  45.705  1.00  0.00    -0.504 OA
ATOM     19  H   UNL     1      25.524  24.129  44.825  1.00  0.00     0.293 HD
ENDBRANCH  14  18
BRANCH  16  20
ATOM     20  O   UNL     1      27.976  24.740  44.336  1.00  0.00    -0.502 OA
ATOM     21  H   UNL     1      28.713  24.492  43.687  1.00  0.00     0.293 HD
ENDBRANCH  16  20
BRANCH  17  22
ATOM     22  O   UNL     1      30.369  25.217  45.740  1.00  0.00    -0.504 OA
ATOM     23  H   UNL     1      31.071  24.607  45.338  1.00  0.00     0.293 HD
ENDBRANCH  17  22
ENDBRANCH   1  12
BRANCH   2  24
ATOM     24  O   UNL     1      26.093  24.602  50.324  1.00  0.00    -0.502 OA
ATOM     25  H   UNL     1      25.279  24.759  50.906  1.00  0.00     0.293 HD
ENDBRANCH   2  24
BRANCH   6  26
ATOM     26  O   UNL     1      28.018  23.077  55.049  1.00  0.00    -0.507 OA
ATOM     27  H   UNL     1      28.200  23.894  55.612  1.00  0.00     0.293 HD
ENDBRANCH   6  26
BRANCH   8  28
ATOM     28  O   UNL     1      31.963  20.733  53.635  1.00  0.00    -0.508 OA
ATOM     29  H   UNL     1      32.837  20.839  53.135  1.00  0.00     0.293 HD
ENDBRANCH   8  28
TORSDOF 7
ENDMDL
MODEL 2
REMARK VINA RESULT:    -7.380      0.081      1.756
REMARK INTER + INTRA:          -9.033
REMARK INTER:                  -9.091
REMARK INTRA:                   0.059
REMARK UNBOUND:                 0.073
REMARK SMILES O=c1c(O)c(-c2cc(O)c(O)c(O)c2)oc2cc(O)cc(O)c12
REMARK SMILES IDX 5 1 3 2 2 3 1 4 23 5 21 6 20 7 18 8 17 9 16 10 15 11 6 12
REMARK SMILES IDX 7 13 8 14 14 15 10 16 12 17 9 18 11 20 13 22 4 24 22 26
REMARK SMILES IDX 19 28
REMARK H PARENT 9 19 11 21 13 23 4 25 22 27 19 29
REMARK Flexibility Score: inf
ROOT
ATOM      1  C   UNL     1      28.245  23.524  49.955  1.00  0.00     0.180 A 
ATOM      2  C   UNL     1      27.229  23.904  50.847  1.00  0.00     0.208 A 
ATOM      3  C   UNL     1      27.378  23.614  52.213  1.00  0.00     0.238 A 
ATOM      4  O   UNL     1      26.441  23.909  52.999  1.00  0.00    -0.285 OA
ATOM      5  C   UNL     1      28.548  22.961  52.671  1.00  0.00     0.111 A 
ATOM      6  C   UNL     1      28.822  22.653  54.038  1.00  0.00     0.134 A 
ATOM      7  C   UNL     1      29.949  21.889  54.360  1.00  0.00     0.093 A 
ATOM      8  C   UNL     1      30.848  21.477  53.373  1.00  0.00     0.123 A 
ATOM      9  C   UNL     1      30.621  21.824  52.043  1.00  0.00     0.094 A 
ATOM     10  C   UNL     1      29.485  22.555  51.685  1.00  0.00     0.146 A 
ATOM     11  O   UNL     1      29.301  22.854  50.405  1.00  0.00    -0.452 OA
ENDROOT
BRANCH   1  12
ATOM     12  C   UNL     1      28.172  23.818  48.505  1.00  0.00     0.029 A 
ATOM     13  C   UNL     1      29.282  24.381  47.858  1.00  0.00     0.062 A 
ATOM     14  C   UNL     1      29.235  24.688  46.495  1.00  0.00     0.162 A 
ATOM     15  C   UNL     1      26.994  23.597  47.773  1.00  0.00     0.062 A 
ATOM     16  C   UNL     1      28.060  24.445  45.761  1.00  0.00     0.200 A 
ATOM     17  C   UNL     1      26.936  23.902  46.406  1.00  0.00     0.162 A 
BRANCH  14  18
ATOM     18  O   UNL     1      30.365  25.233  45.885  1.00  0.00    -0.504 OA
ATOM     19  H   UNL     1      31.301  24.901  46.088  1.00  0.00     0.293 HD
ENDBRANCH  14  18
BRANCH  16  20
ATOM     20  O   UNL     1      28.022  24.751  44.400  1.00  0.00    -0.502 OA
ATOM     21  H   UNL     1      28.167  25.692  44.054  1.00  0.00     0.293 HD
ENDBRANCH  16  20
BRANCH  17  22
ATOM     22  O   UNL     1      25.763  23.673  45.688  1.00  0.00    -0.504 OA
ATOM     23  H   UNL     1      24.943  23.269  46.126  1.00  0.00     0.293 HD
ENDBRANCH  17  22
ENDBRANCH   1  12
BRANCH   2  24
ATOM     24  O   UNL     1      26.073  24.529  50.371  1.00  0.00    -0.502 OA
ATOM     25  H   UNL     1      25.386  24.945  50.988  1.00  0.00     0.293 HD
ENDBRANCH   2  24
BRANCH   6  26
ATOM     26  O   UNL     1      28.040  23.095  55.108  1.00  0.00    -0.507 OA
ATOM     27  H   UNL     1      27.316  22.552  55.556  1.00  0.00     0.293 HD
ENDBRANCH   6  26
BRANCH   8  28
ATOM     28  O   UNL     1      31.976  20.730  53.705  1.00  0.00    -0.508 OA
ATOM     29  H   UNL     1      32.016  19.731  53.547  1.00  0.00     0.293 HD
ENDBRANCH   8  28
TORSDOF 7
ENDMDL
MODEL 3
REMARK VINA RESULT:    -7.253     11.989     13.844
REMARK INTER + INTRA:          -8.876
REMARK INTER:                  -8.593
REMARK INTRA:                  -0.283
REMARK UNBOUND:                 0.073
REMARK SMILES O=c1c(O)c(-c2cc(O)c(O)c(O)c2)oc2cc(O)cc(O)c12
REMARK SMILES IDX 5 1 3 2 2 3 1 4 23 5 21 6 20 7 18 8 17 9 16 10 15 11 6 12
REMARK SMILES IDX 7 13 8 14 14 15 10 16 12 17 9 18 11 20 13 22 4 24 22 26
REMARK SMILES IDX 19 28
REMARK H PARENT 9 19 11 21 13 23 4 25 22 27 19 29
REMARK Flexibility Score: inf
ROOT
ATOM      1  C   UNL     1      18.913  25.080  40.930  1.00  0.00     0.180 A 
ATOM      2  C   UNL     1      19.914  26.059  41.051  1.00  0.00     0.208 A 
ATOM      3  C   UNL     1      19.966  26.839  42.218  1.00  0.00     0.238 A 
ATOM      4  O   UNL     1      20.831  27.750  42.297  1.00  0.00    -0.285 OA
ATOM      5  C   UNL     1      19.027  26.620  43.254  1.00  0.00     0.111 A 
ATOM      6  C   UNL     1      19.011  27.324  44.496  1.00  0.00     0.134 A 
ATOM      7  C   UNL     1      17.958  27.116  45.394  1.00  0.00     0.093 A 
ATOM      8  C   UNL     1      16.955  26.181  45.125  1.00  0.00     0.123 A 
ATOM      9  C   UNL     1      16.994  25.446  43.943  1.00  0.00     0.094 A 
ATOM     10  C   UNL     1      18.013  25.658  43.010  1.00  0.00     0.146 A 
ATOM     11  O   UNL     1      18.006  24.943  41.891  1.00  0.00    -0.452 OA
ENDROOT
BRANCH   1  12
ATOM     12  C   UNL     1      18.809  24.202  39.742  1.00  0.00     0.029 A 
ATOM     13  C   UNL     1      17.719  24.347  38.870  1.00  0.00     0.062 A 
ATOM     14  C   UNL     1      17.584  23.518  37.751  1.00  0.00     0.162 A 
ATOM     15  C   UNL     1      19.748  23.187  39.499  1.00  0.00     0.062 A 
ATOM     16  C   UNL     1      18.539  22.517  37.500  1.00  0.00     0.200 A 
ATOM     17  C   UNL     1      19.622  22.350  38.381  1.00  0.00     0.162 A 
BRANCH  14  18
ATOM     18  O   UNL     1      16.495  23.704  36.900  1.00  0.00    -0.504 OA
ATOM     19  H   UNL     1      16.524  23.440  35.922  1.00  0.00     0.293 HD
ENDBRANCH  14  18
BRANCH  16  20
ATOM     20  O   UNL     1      18.399  21.696  36.380  1.00  0.00    -0.502 OA
ATOM     21  H   UNL     1      18.804  20.769  36.337  1.00  0.00     0.293 HD
ENDBRANCH  16  20
BRANCH  17  22
ATOM     22  O   UNL     1      20.564  21.350  38.146  1.00  0.00    -0.504 OA
ATOM     23  H   UNL     1      20.374  20.380  38.367  1.00  0.00     0.293 HD
ENDBRANCH  17  22
ENDBRANCH   1  12
BRANCH   2  24
ATOM     24  O   UNL     1      20.817  26.274  40.006  1.00  0.00    -0.502 OA
ATOM     25  H   UNL     1      20.660  26.967  39.285  1.00  0.00     0.293 HD
ENDBRANCH   2  24
BRANCH   6  26
ATOM     26  O   UNL     1      20.013  28.210  44.902  1.00  0.00    -0.507 OA
ATOM     27  H   UNL     1      20.188  29.113  44.486  1.00  0.00     0.293 HD
ENDBRANCH   6  26
BRANCH   8  28
ATOM     28  O   UNL     1      15.919  25.970  46.032  1.00  0.00    -0.508 OA
ATOM     29  H   UNL     1      14.951  25.949  45.736  1.00  0.00     0.293 HD
ENDBRANCH   8  28
TORSDOF 7
ENDMDL
MODEL 4
REMARK VINA RESULT:    -7.043     12.586     13.484
REMARK INTER + INTRA:          -8.616
REMARK INTER:                  -8.280
REMARK INTRA:                  -0.337
REMARK UNBOUND:                 0.073
REMARK SMILES O=c1c(O)c(-c2cc(O)c(O)c(O)c2)oc2cc(O)cc(O)c12
REMARK SMILES IDX 5 1 3 2 2 3 1 4 23 5 21 6 20 7 18 8 17 9 16 10 15 11 6 12
REMARK SMILES IDX 7 13 8 14 14 15 10 16 12 17 9 18 11 20 13 22 4 24 22 26
REMARK SMILES IDX 19 28
REMARK H PARENT 9 19 11 21 13 23 4 25 22 27 19 29
REMARK Flexibility Score: inf
ROOT
ATOM      1  C   UNL     1      17.837  24.332  42.564  1.00  0.00     0.180 A 
ATOM      2  C   UNL     1      16.975  23.533  43.333  1.00  0.00     0.208 A 
ATOM      3  C   UNL     1      16.465  24.045  44.537  1.00  0.00     0.238 A 
ATOM      4  O   UNL     1      15.736  23.304  45.248  1.00  0.00    -0.285 OA
ATOM      5  C   UNL     1      16.811  25.354  44.949  1.00  0.00     0.111 A 
ATOM      6  C   UNL     1      16.322  25.988  46.131  1.00  0.00     0.134 A 
ATOM      7  C   UNL     1      16.834  27.235  46.508  1.00  0.00     0.093 A 
ATOM      8  C   UNL     1      17.769  27.901  45.711  1.00  0.00     0.123 A 
ATOM      9  C   UNL     1      18.208  27.317  44.526  1.00  0.00     0.094 A 
ATOM     10  C   UNL     1      17.743  26.056  44.142  1.00  0.00     0.146 A 
ATOM     11  O   UNL     1      18.196  25.531  43.010  1.00  0.00    -0.452 OA
ENDROOT
BRANCH   1  12
ATOM     12  C   UNL     1      18.395  23.873  41.271  1.00  0.00     0.029 A 
ATOM     13  C   UNL     1      19.544  23.069  41.262  1.00  0.00     0.062 A 
ATOM     14  C   UNL     1      20.104  22.637  40.055  1.00  0.00     0.162 A 
ATOM     15  C   UNL     1      17.830  24.273  40.048  1.00  0.00     0.062 A 
ATOM     16  C   UNL     1      19.523  23.022  38.834  1.00  0.00     0.200 A 
ATOM     17  C   UNL     1      18.385  23.846  38.834  1.00  0.00     0.162 A 
BRANCH  14  18
ATOM     18  O   UNL     1      21.238  21.826  40.089  1.00  0.00    -0.504 OA
ATOM     19  H   UNL     1      21.966  21.887  39.386  1.00  0.00     0.293 HD
ENDBRANCH  14  18
BRANCH  16  20
ATOM     20  O   UNL     1      20.086  22.584  37.634  1.00  0.00    -0.502 OA
ATOM     21  H   UNL     1      19.901  21.663  37.256  1.00  0.00     0.293 HD
ENDBRANCH  16  20
BRANCH  17  22
ATOM     22  O   UNL     1      17.812  24.243  37.626  1.00  0.00    -0.504 OA
ATOM     23  H   UNL     1      16.937  23.850  37.299  1.00  0.00     0.293 HD
ENDBRANCH  17  22
ENDBRANCH   1  12
BRANCH   2  24
ATOM     24  O   UNL     1      16.663  22.235  42.918  1.00  0.00    -0.502 OA
ATOM     25  H   UNL     1      16.073  21.617  43.462  1.00  0.00     0.293 HD
ENDBRANCH   2  24
BRANCH   6  26
ATOM     26  O   UNL     1      15.321  25.451  46.946  1.00  0.00    -0.507 OA
ATOM     27  H   UNL     1      15.441  24.657  47.557  1.00  0.00     0.293 HD
ENDBRANCH   6  26
BRANCH   8  28
ATOM     28  O   UNL     1      18.261  29.149  46.087  1.00  0.00    -0.508 OA
ATOM     29  H   UNL     1      18.074  29.540  47.002  1.00  0.00     0.293 HD
ENDBRANCH   8  28
TORSDOF 7
ENDMDL
MODEL 5
REMARK VINA RESULT:    -6.997      1.151      3.281
REMARK INTER + INTRA:          -8.560
REMARK INTER:                  -8.790
REMARK INTRA:                   0.229
REMARK UNBOUND:                 0.073
REMARK SMILES O=c1c(O)c(-c2cc(O)c(O)c(O)c2)oc2cc(O)cc(O)c12
REMARK SMILES IDX 5 1 3 2 2 3 1 4 23 5 21 6 20 7 18 8 17 9 16 10 15 11 6 12
REMARK SMILES IDX 7 13 8 14 14 15 10 16 12 17 9 18 11 20 13 22 4 24 22 26
REMARK SMILES IDX 19 28
REMARK H PARENT 9 19 11 21 13 23 4 25 22 27 19 29
REMARK Flexibility Score: inf
ROOT
ATOM      1  C   UNL     1      28.949  23.341  49.813  1.00  0.00     0.180 A 
ATOM      2  C   UNL     1      30.223  22.903  50.212  1.00  0.00     0.208 A 
ATOM      3  C   UNL     1      30.435  22.560  51.558  1.00  0.00     0.238 A 
ATOM      4  O   UNL     1      31.591  22.220  51.920  1.00  0.00    -0.285 OA
ATOM      5  C   UNL     1      29.367  22.644  52.483  1.00  0.00     0.111 A 
ATOM      6  C   UNL     1      29.458  22.284  53.861  1.00  0.00     0.134 A 
ATOM      7  C   UNL     1      28.375  22.531  54.712  1.00  0.00     0.093 A 
ATOM      8  C   UNL     1      27.180  23.065  54.223  1.00  0.00     0.123 A 
ATOM      9  C   UNL     1      27.061  23.364  52.868  1.00  0.00     0.094 A 
ATOM     10  C   UNL     1      28.138  23.162  52.000  1.00  0.00     0.146 A 
ATOM     11  O   UNL     1      27.985  23.472  50.718  1.00  0.00    -0.452 OA
ENDROOT
BRANCH   1  12
ATOM     12  C   UNL     1      28.641  23.696  48.409  1.00  0.00     0.029 A 
ATOM     13  C   UNL     1      29.617  24.334  47.629  1.00  0.00     0.062 A 
ATOM     14  C   UNL     1      29.348  24.700  46.306  1.00  0.00     0.162 A 
ATOM     15  C   UNL     1      27.372  23.459  47.856  1.00  0.00     0.062 A 
ATOM     16  C   UNL     1      28.083  24.441  45.750  1.00  0.00     0.200 A 
ATOM     17  C   UNL     1      27.092  23.822  46.532  1.00  0.00     0.162 A 
BRANCH  14  18
ATOM     18  O   UNL     1      30.349  25.319  45.559  1.00  0.00    -0.504 OA
ATOM     19  H   UNL     1      31.204  25.663  45.982  1.00  0.00     0.293 HD
ENDBRANCH  14  18
BRANCH  16  20
ATOM     20  O   UNL     1      27.823  24.805  44.428  1.00  0.00    -0.502 OA
ATOM     21  H   UNL     1      27.815  25.772  44.127  1.00  0.00     0.293 HD
ENDBRANCH  16  20
BRANCH  17  22
ATOM     22  O   UNL     1      25.831  23.575  45.991  1.00  0.00    -0.504 OA
ATOM     23  H   UNL     1      25.007  23.507  46.577  1.00  0.00     0.293 HD
ENDBRANCH  17  22
ENDBRANCH   1  12
BRANCH   2  24
ATOM     24  O   UNL     1      31.269  22.849  49.287  1.00  0.00    -0.502 OA
ATOM     25  H   UNL     1      31.347  23.500  48.515  1.00  0.00     0.293 HD
ENDBRANCH   2  24
BRANCH   6  26
ATOM     26  O   UNL     1      30.571  21.659  54.432  1.00  0.00    -0.507 OA
ATOM     27  H   UNL     1      30.982  21.913  55.318  1.00  0.00     0.293 HD
ENDBRANCH   6  26
BRANCH   8  28
ATOM     28  O   UNL     1      26.102  23.293  55.075  1.00  0.00    -0.508 OA
ATOM     29  H   UNL     1      25.967  24.186  55.532  1.00  0.00     0.293 HD
ENDBRANCH   8  28
TORSDOF 7
ENDMDL
MODEL 6
REMARK VINA RESULT:    -6.985      1.151      2.773
REMARK INTER + INTRA:          -8.545
REMARK INTER:                  -8.779
REMARK INTRA:                   0.234
REMARK UNBOUND:                 0.073
REMARK SMILES O=c1c(O)c(-c2cc(O)c(O)c(O)c2)oc2cc(O)cc(O)c12
REMARK SMILES IDX 5 1 3 2 2 3 1 4 23 5 21 6 20 7 18 8 17 9 16 10 15 11 6 12
REMARK SMILES IDX 7 13 8 14 14 15 10 16 12 17 9 18 11 20 13 22 4 24 22 26
REMARK SMILES IDX 19 28
REMARK H PARENT 9 19 11 21 13 23 4 25 22 27 19 29
REMARK Flexibility Score: inf
ROOT
ATOM      1  C   UNL     1      28.973  23.371  49.822  1.00  0.00     0.180 A 
ATOM      2  C   UNL     1      30.252  22.942  50.215  1.00  0.00     0.208 A 
ATOM      3  C   UNL     1      30.466  22.575  51.554  1.00  0.00     0.238 A 
ATOM      4  O   UNL     1      31.626  22.244  51.911  1.00  0.00    -0.285 OA
ATOM      5  C   UNL     1      29.395  22.626  52.478  1.00  0.00     0.111 A 
ATOM      6  C   UNL     1      29.489  22.240  53.849  1.00  0.00     0.134 A 
ATOM      7  C   UNL     1      28.401  22.455  54.703  1.00  0.00     0.093 A 
ATOM      8  C   UNL     1      27.200  22.983  54.221  1.00  0.00     0.123 A 
ATOM      9  C   UNL     1      27.079  23.307  52.872  1.00  0.00     0.094 A 
ATOM     10  C   UNL     1      28.160  23.138  52.002  1.00  0.00     0.146 A 
ATOM     11  O   UNL     1      28.005  23.471  50.727  1.00  0.00    -0.452 OA
ENDROOT
BRANCH   1  12
ATOM     12  C   UNL     1      28.663  23.749  48.424  1.00  0.00     0.029 A 
ATOM     13  C   UNL     1      27.390  23.478  47.901  1.00  0.00     0.062 A 
ATOM     14  C   UNL     1      27.076  23.806  46.579  1.00  0.00     0.162 A 
ATOM     15  C   UNL     1      29.636  24.325  47.590  1.00  0.00     0.062 A 
ATOM     16  C   UNL     1      28.047  24.401  45.754  1.00  0.00     0.200 A 
ATOM     17  C   UNL     1      29.332  24.656  46.263  1.00  0.00     0.162 A 
BRANCH  14  18
ATOM     18  O   UNL     1      25.795  23.533  46.101  1.00  0.00    -0.504 OA
ATOM     19  H   UNL     1      25.380  22.610  46.166  1.00  0.00     0.293 HD
ENDBRANCH  14  18
BRANCH  16  20
ATOM     20  O   UNL     1      27.725  24.728  44.436  1.00  0.00    -0.502 OA
ATOM     21  H   UNL     1      27.509  24.023  43.742  1.00  0.00     0.293 HD
ENDBRANCH  16  20
BRANCH  17  22
ATOM     22  O   UNL     1      30.303  25.233  45.446  1.00  0.00    -0.504 OA
ATOM     23  H   UNL     1      30.063  25.916  44.737  1.00  0.00     0.293 HD
ENDBRANCH  17  22
ENDBRANCH   1  12
BRANCH   2  24
ATOM     24  O   UNL     1      31.301  22.920  49.291  1.00  0.00    -0.502 OA
ATOM     25  H   UNL     1      31.244  22.414  48.415  1.00  0.00     0.293 HD
ENDBRANCH   2  24
BRANCH   6  26
ATOM     26  O   UNL     1      30.609  21.619  54.409  1.00  0.00    -0.507 OA
ATOM     27  H   UNL     1      31.511  22.056  54.528  1.00  0.00     0.293 HD
ENDBRANCH   6  26
BRANCH   8  28
ATOM     28  O   UNL     1      26.117  23.179  55.075  1.00  0.00    -0.508 OA
ATOM     29  H   UNL     1      26.000  24.041  55.594  1.00  0.00     0.293 HD
ENDBRANCH   8  28
TORSDOF 7
ENDMDL
MODEL 7
REMARK VINA RESULT:    -6.860     11.906     14.106
REMARK INTER + INTRA:          -8.391
REMARK INTER:                  -8.052
REMARK INTRA:                  -0.340
REMARK UNBOUND:                 0.073
REMARK SMILES O=c1c(O)c(-c2cc(O)c(O)c(O)c2)oc2cc(O)cc(O)c12
REMARK SMILES IDX 5 1 3 2 2 3 1 4 23 5 21 6 20 7 18 8 17 9 16 10 15 11 6 12
REMARK SMILES IDX 7 13 8 14 14 15 10 16 12 17 9 18 11 20 13 22 4 24 22 26
REMARK SMILES IDX 19 28
REMARK H PARENT 9 19 11 21 13 23 4 25 22 27 19 29
REMARK Flexibility Score: inf
ROOT
ATOM      1  C   UNL     1      17.187  24.325  42.744  1.00  0.00     0.180 A 
ATOM      2  C   UNL     1      15.871  24.570  42.317  1.00  0.00     0.208 A 
ATOM      3  C   UNL     1      14.906  23.560  42.471  1.00  0.00     0.238 A 
ATOM      4  O   UNL     1      13.743  23.765  42.037  1.00  0.00    -0.285 OA
ATOM      5  C   UNL     1      15.266  22.326  43.064  1.00  0.00     0.111 A 
ATOM      6  C   UNL     1      14.362  21.248  43.305  1.00  0.00     0.134 A 
ATOM      7  C   UNL     1      14.855  20.027  43.778  1.00  0.00     0.093 A 
ATOM      8  C   UNL     1      16.209  19.864  44.080  1.00  0.00     0.123 A 
ATOM      9  C   UNL     1      17.090  20.929  43.904  1.00  0.00     0.094 A 
ATOM     10  C   UNL     1      16.634  22.149  43.399  1.00  0.00     0.146 A 
ATOM     11  O   UNL     1      17.509  23.134  43.236  1.00  0.00    -0.452 OA
ENDROOT
BRANCH   1  12
ATOM     12  C   UNL     1      18.252  25.348  42.639  1.00  0.00     0.029 A 
ATOM     13  C   UNL     1      18.953  25.493  41.432  1.00  0.00     0.062 A 
ATOM     14  C   UNL     1      19.978  26.437  41.310  1.00  0.00     0.162 A 
ATOM     15  C   UNL     1      18.617  26.141  43.740  1.00  0.00     0.062 A 
ATOM     16  C   UNL     1      20.325  27.242  42.408  1.00  0.00     0.200 A 
ATOM     17  C   UNL     1      19.643  27.088  43.628  1.00  0.00     0.162 A 
BRANCH  14  18
ATOM     18  O   UNL     1      20.640  26.560  40.089  1.00  0.00    -0.504 OA
ATOM     19  H   UNL     1      21.604  26.271  39.966  1.00  0.00     0.293 HD
ENDBRANCH  14  18
BRANCH  16  20
ATOM     20  O   UNL     1      21.347  28.184  42.278  1.00  0.00    -0.502 OA
ATOM     21  H   UNL     1      21.957  28.428  43.048  1.00  0.00     0.293 HD
ENDBRANCH  16  20
BRANCH  17  22
ATOM     22  O   UNL     1      19.992  27.874  44.725  1.00  0.00    -0.504 OA
ATOM     23  H   UNL     1      20.933  27.871  45.102  1.00  0.00     0.293 HD
ENDBRANCH  17  22
ENDBRANCH   1  12
BRANCH   2  24
ATOM     24  O   UNL     1      15.542  25.787  41.714  1.00  0.00    -0.502 OA
ATOM     25  H   UNL     1      14.806  25.871  41.023  1.00  0.00     0.293 HD
ENDBRANCH   2  24
BRANCH   6  26
ATOM     26  O   UNL     1      12.979  21.337  43.126  1.00  0.00    -0.507 OA
ATOM     27  H   UNL     1      12.522  21.512  42.243  1.00  0.00     0.293 HD
ENDBRANCH   6  26
BRANCH   8  28
ATOM     28  O   UNL     1      16.688  18.648  44.564  1.00  0.00    -0.508 OA
ATOM     29  H   UNL     1      16.129  17.805  44.525  1.00  0.00     0.293 HD
ENDBRANCH   8  28
TORSDOF 7
ENDMDL
MODEL 8
REMARK VINA RESULT:    -6.818      2.172      3.078
REMARK INTER + INTRA:          -8.339
REMARK INTER:                  -8.457
REMARK INTRA:                   0.118
REMARK UNBOUND:                 0.073
REMARK SMILES O=c1c(O)c(-c2cc(O)c(O)c(O)c2)oc2cc(O)cc(O)c12
REMARK SMILES IDX 5 1 3 2 2 3 1 4 23 5 21 6 20 7 18 8 17 9 16 10 15 11 6 12
REMARK SMILES IDX 7 13 8 14 14 15 10 16 12 17 9 18 11 20 13 22 4 24 22 26
REMARK SMILES IDX 19 28
REMARK H PARENT 9 19 11 21 13 23 4 25 22 27 19 29
REMARK Flexibility Score: inf
ROOT
ATOM      1  C   UNL     1      27.285  23.490  49.891  1.00  0.00     0.180 A 
ATOM      2  C   UNL     1      27.795  24.144  51.026  1.00  0.00     0.208 A 
ATOM      3  C   UNL     1      27.410  23.696  52.300  1.00  0.00     0.238 A 
ATOM      4  O   UNL     1      27.827  24.319  53.311  1.00  0.00    -0.285 OA
ATOM      5  C   UNL     1      26.533  22.592  52.424  1.00  0.00     0.111 A 
ATOM      6  C   UNL     1      26.107  22.029  53.665  1.00  0.00     0.134 A 
ATOM      7  C   UNL     1      25.136  21.022  53.669  1.00  0.00     0.093 A 
ATOM      8  C   UNL     1      24.622  20.510  52.475  1.00  0.00     0.123 A 
ATOM      9  C   UNL     1      25.075  21.012  51.257  1.00  0.00     0.094 A 
ATOM     10  C   UNL     1      26.017  22.043  51.221  1.00  0.00     0.146 A 
ATOM     11  O   UNL     1      26.412  22.500  50.038  1.00  0.00    -0.452 OA
ENDROOT
BRANCH   1  12
ATOM     12  C   UNL     1      27.665  23.887  48.516  1.00  0.00     0.029 A 
ATOM     13  C   UNL     1      26.718  23.793  47.485  1.00  0.00     0.062 A 
ATOM     14  C   UNL     1      27.054  24.142  46.173  1.00  0.00     0.162 A 
ATOM     15  C   UNL     1      28.971  24.304  48.209  1.00  0.00     0.062 A 
ATOM     16  C   UNL     1      28.357  24.578  45.874  1.00  0.00     0.200 A 
ATOM     17  C   UNL     1      29.318  24.654  46.897  1.00  0.00     0.162 A 
BRANCH  14  18
ATOM     18  O   UNL     1      26.081  24.048  45.178  1.00  0.00    -0.504 OA
ATOM     19  H   UNL     1      25.728  24.864  44.691  1.00  0.00     0.293 HD
ENDBRANCH  14  18
BRANCH  16  20
ATOM     20  O   UNL     1      28.684  24.928  44.563  1.00  0.00    -0.502 OA
ATOM     21  H   UNL     1      29.103  24.269  43.918  1.00  0.00     0.293 HD
ENDBRANCH  16  20
BRANCH  17  22
ATOM     22  O   UNL     1      30.615  25.073  46.606  1.00  0.00    -0.504 OA
ATOM     23  H   UNL     1      31.296  24.443  46.198  1.00  0.00     0.293 HD
ENDBRANCH  17  22
ENDBRANCH   1  12
BRANCH   2  24
ATOM     24  O   UNL     1      28.643  25.245  50.881  1.00  0.00    -0.502 OA
ATOM     25  H   UNL     1      28.302  26.199  50.889  1.00  0.00     0.293 HD
ENDBRANCH   2  24
BRANCH   6  26
ATOM     26  O   UNL     1      26.626  22.403  54.908  1.00  0.00    -0.507 OA
ATOM     27  H   UNL     1      26.632  21.816  55.729  1.00  0.00     0.293 HD
ENDBRANCH   6  26
BRANCH   8  28
ATOM     28  O   UNL     1      23.667  19.496  52.488  1.00  0.00    -0.508 OA
ATOM     29  H   UNL     1      23.708  18.738  53.159  1.00  0.00     0.293 HD
ENDBRANCH   8  28
TORSDOF 7
ENDMDL
MODEL 9
REMARK VINA RESULT:    -6.817     11.923     14.078
REMARK INTER + INTRA:          -8.337
REMARK INTER:                  -7.998
REMARK INTRA:                  -0.339
REMARK UNBOUND:                 0.073
REMARK SMILES O=c1c(O)c(-c2cc(O)c(O)c(O)c2)oc2cc(O)cc(O)c12
REMARK SMILES IDX 5 1 3 2 2 3 1 4 23 5 21 6 20 7 18 8 17 9 16 10 15 11 6 12
REMARK SMILES IDX 7 13 8 14 14 15 10 16 12 17 9 18 11 20 13 22 4 24 22 26
REMARK SMILES IDX 19 28
REMARK H PARENT 9 19 11 21 13 23 4 25 22 27 19 29
REMARK Flexibility Score: inf
ROOT
ATOM      1  C   UNL     1      17.208  24.250  42.771  1.00  0.00     0.180 A 
ATOM      2  C   UNL     1      15.882  24.515  42.389  1.00  0.00     0.208 A 
ATOM      3  C   UNL     1      14.909  23.517  42.567  1.00  0.00     0.238 A 
ATOM      4  O   UNL     1      13.735  23.741  42.174  1.00  0.00    -0.285 OA
ATOM      5  C   UNL     1      15.272  22.274  43.138  1.00  0.00     0.111 A 
ATOM      6  C   UNL     1      14.362  21.206  43.401  1.00  0.00     0.134 A 
ATOM      7  C   UNL     1      14.854  19.974  43.848  1.00  0.00     0.093 A 
ATOM      8  C   UNL     1      16.215  19.791  44.104  1.00  0.00     0.123 A 
ATOM      9  C   UNL     1      17.104  20.846  43.907  1.00  0.00     0.094 A 
ATOM     10  C   UNL     1      16.648  22.076  43.427  1.00  0.00     0.146 A 
ATOM     11  O   UNL     1      17.530  23.051  43.243  1.00  0.00    -0.452 OA
ENDROOT
BRANCH   1  12
ATOM     12  C   UNL     1      18.283  25.260  42.638  1.00  0.00     0.029 A 
ATOM     13  C   UNL     1      18.608  26.070  43.736  1.00  0.00     0.062 A 
ATOM     14  C   UNL     1      19.605  27.045  43.634  1.00  0.00     0.162 A 
ATOM     15  C   UNL     1      18.947  25.465  41.417  1.00  0.00     0.062 A 
ATOM     16  C   UNL     1      20.282  27.232  42.416  1.00  0.00     0.200 A 
ATOM     17  C   UNL     1      19.946  26.440  41.304  1.00  0.00     0.162 A 
BRANCH  14  18
ATOM     18  O   UNL     1      19.910  27.820  44.753  1.00  0.00    -0.504 OA
ATOM     19  H   UNL     1      19.369  28.639  45.006  1.00  0.00     0.293 HD
ENDBRANCH  14  18
BRANCH  16  20
ATOM     20  O   UNL     1      21.278  28.206  42.323  1.00  0.00    -0.502 OA
ATOM     21  H   UNL     1      21.558  28.607  41.436  1.00  0.00     0.293 HD
ENDBRANCH  16  20
BRANCH  17  22
ATOM     22  O   UNL     1      20.603  26.630  40.089  1.00  0.00    -0.504 OA
ATOM     23  H   UNL     1      21.121  27.479  39.893  1.00  0.00     0.293 HD
ENDBRANCH  17  22
ENDBRANCH   1  12
BRANCH   2  24
ATOM     24  O   UNL     1      15.549  25.741  41.807  1.00  0.00    -0.502 OA
ATOM     25  H   UNL     1      15.993  26.081  40.962  1.00  0.00     0.293 HD
ENDBRANCH   2  24
BRANCH   6  26
ATOM     26  O   UNL     1      12.975  21.314  43.268  1.00  0.00    -0.507 OA
ATOM     27  H   UNL     1      12.500  22.045  42.761  1.00  0.00     0.293 HD
ENDBRANCH   6  26
BRANCH   8  28
ATOM     28  O   UNL     1      16.694  18.565  44.563  1.00  0.00    -0.508 OA
ATOM     29  H   UNL     1      17.482  18.106  44.123  1.00  0.00     0.293 HD
ENDBRANCH   8  28
TORSDOF 7
ENDMDL
