MODEL 1
REMARK VINA RESULT:    -6.025      0.000      0.000
REMARK INTER + INTRA:          -6.202
REMARK INTER:                  -6.202
REMARK INTRA:                   0.000
REMARK UNBOUND:                 0.000
REMARK SMILES C[C@H]1CC[C@]2(OC1)O[C@H]1C[C@@H]3[C@H]4CC=C5C[C@H](O)CC[C@@]5(C)[C@@H]4CC[C@@]3(C)[C@H]1[C@H]2C
REMARK SMILES IDX 1 1 2 2 3 3 4 4 5 5 29 6 28 7 9 8 8 9 10 10 11 11 26 12
REMARK SMILES IDX 25 13 24 14 23 15 12 16 13 17 14 18 15 19 21 20 20 21 19 22
REMARK SMILES IDX 17 23 16 24 22 25 27 26 30 27 6 28 7 29 18 30
REMARK H PARENT 18 31
REMARK Flexibility Score: inf
ROOT
ATOM      1  C   UNL     1      32.375 -32.960  -5.746  1.00  0.00     0.010 C 
ATOM      2  C   UNL     1      33.554 -32.116  -6.245  1.00  0.00     0.012 C 
ATOM      3  C   UNL     1      33.470 -31.869  -7.767  1.00  0.00     0.011 C 
ATOM      4  C   UNL     1      32.756 -30.552  -8.075  1.00  0.00     0.066 C 
ATOM      5  C   UNL     1      33.431 -29.354  -7.325  1.00  0.00     0.171 C 
ATOM      6  C   UNL     1      34.260 -28.493  -8.282  1.00  0.00     0.052 C 
ATOM      7  C   UNL     1      34.171 -27.091  -7.692  1.00  0.00     0.033 C 
ATOM      8  C   UNL     1      32.801 -27.152  -6.995  1.00  0.00     0.126 C 
ATOM      9  O   UNL     1      32.420 -28.506  -6.802  1.00  0.00    -0.346 OA
ATOM     10  C   UNL     1      32.942 -26.456  -5.637  1.00  0.00     0.037 C 
ATOM     11  C   UNL     1      34.393 -26.698  -5.284  1.00  0.00     0.002 C 
ATOM     12  C   UNL     1      35.160 -26.510  -6.605  1.00  0.00    -0.024 C 
ATOM     13  C   UNL     1      36.543 -27.173  -6.394  1.00  0.00     0.008 C 
ATOM     14  C   UNL     1      37.311 -26.533  -5.210  1.00  0.00     0.005 C 
ATOM     15  C   UNL     1      36.475 -26.453  -3.886  1.00  0.00     0.003 C 
ATOM     16  C   UNL     1      35.019 -25.932  -4.101  1.00  0.00     0.000 C 
ATOM     17  C   UNL     1      34.207 -26.162  -2.816  1.00  0.00     0.031 C 
ATOM     18  C   UNL     1      34.925 -25.691  -1.582  1.00  0.00    -0.027 C 
ATOM     19  C   UNL     1      36.270 -25.594  -1.486  1.00  0.00    -0.065 C 
ATOM     20  C   UNL     1      37.193 -25.681  -2.714  1.00  0.00    -0.008 C 
ATOM     21  C   UNL     1      38.486 -26.458  -2.315  1.00  0.00     0.014 C 
ATOM     22  C   UNL     1      39.117 -25.977  -1.000  1.00  0.00     0.033 C 
ATOM     23  C   UNL     1      38.110 -26.066   0.155  1.00  0.00     0.118 C 
ATOM     24  C   UNL     1      36.872 -25.217  -0.145  1.00  0.00     0.063 C 
ATOM     25  C   UNL     1      37.573 -24.233  -3.136  1.00  0.00     0.016 C 
ATOM     26  C   UNL     1      35.369 -25.004  -6.976  1.00  0.00     0.012 C 
ATOM     27  C   UNL     1      35.634 -29.044  -8.695  1.00  0.00     0.014 C 
ATOM     28  O   UNL     1      34.272 -29.797  -6.262  1.00  0.00    -0.349 OA
ATOM     29  C   UNL     1      33.632 -30.781  -5.474  1.00  0.00     0.167 C 
ENDROOT
BRANCH  23  30
ATOM     30  O   UNL     1      38.704 -25.607   1.341  1.00  0.00    -0.393 OA
ATOM     31  H   UNL     1      39.676 -25.795   1.266  1.00  0.00     0.210 HD
ENDBRANCH  23  30
TORSDOF 1
ENDMDL
MODEL 2
REMARK VINA RESULT:    -5.853      2.281      7.545
REMARK INTER + INTRA:          -6.024
REMARK INTER:                  -6.024
REMARK INTRA:                   0.000
REMARK UNBOUND:                 0.000
REMARK SMILES C[C@H]1CC[C@]2(OC1)O[C@H]1C[C@@H]3[C@H]4CC=C5C[C@H](O)CC[C@@]5(C)[C@@H]4CC[C@@]3(C)[C@H]1[C@H]2C
REMARK SMILES IDX 1 1 2 2 3 3 4 4 5 5 29 6 28 7 9 8 8 9 10 10 11 11 26 12
REMARK SMILES IDX 25 13 24 14 23 15 12 16 13 17 14 18 15 19 21 20 20 21 19 22
REMARK SMILES IDX 17 23 16 24 22 25 27 26 30 27 6 28 7 29 18 30
REMARK H PARENT 18 31
REMARK Flexibility Score: inf
ROOT
ATOM      1  C   UNL     1      33.946 -27.473   1.125  1.00  0.00     0.010 C 
ATOM      2  C   UNL     1      34.326 -26.642  -0.107  1.00  0.00     0.012 C 
ATOM      3  C   UNL     1      35.725 -26.007   0.048  1.00  0.00     0.011 C 
ATOM      4  C   UNL     1      36.808 -26.898  -0.563  1.00  0.00     0.066 C 
ATOM      5  C   UNL     1      36.483 -27.239  -2.057  1.00  0.00     0.171 C 
ATOM      6  C   UNL     1      37.370 -26.441  -3.016  1.00  0.00     0.052 C 
ATOM      7  C   UNL     1      37.531 -27.357  -4.222  1.00  0.00     0.033 C 
ATOM      8  C   UNL     1      37.398 -28.740  -3.561  1.00  0.00     0.126 C 
ATOM      9  O   UNL     1      36.771 -28.608  -2.294  1.00  0.00    -0.346 OA
ATOM     10  C   UNL     1      36.532 -29.610  -4.478  1.00  0.00     0.037 C 
ATOM     11  C   UNL     1      35.633 -28.596  -5.152  1.00  0.00     0.002 C 
ATOM     12  C   UNL     1      36.546 -27.397  -5.458  1.00  0.00    -0.024 C 
ATOM     13  C   UNL     1      35.603 -26.199  -5.725  1.00  0.00     0.008 C 
ATOM     14  C   UNL     1      34.640 -26.480  -6.906  1.00  0.00     0.005 C 
ATOM     15  C   UNL     1      33.866 -27.837  -6.779  1.00  0.00     0.003 C 
ATOM     16  C   UNL     1      34.775 -29.034  -6.357  1.00  0.00     0.000 C 
ATOM     17  C   UNL     1      33.888 -30.233  -5.984  1.00  0.00     0.031 C 
ATOM     18  C   UNL     1      32.826 -30.513  -7.011  1.00  0.00    -0.027 C 
ATOM     19  C   UNL     1      32.327 -29.577  -7.850  1.00  0.00    -0.065 C 
ATOM     20  C   UNL     1      32.989 -28.201  -8.037  1.00  0.00    -0.008 C 
ATOM     21  C   UNL     1      31.869 -27.125  -8.201  1.00  0.00     0.014 C 
ATOM     22  C   UNL     1      30.775 -27.517  -9.204  1.00  0.00     0.033 C 
ATOM     23  C   UNL     1      30.125 -28.851  -8.813  1.00  0.00     0.118 C 
ATOM     24  C   UNL     1      31.175 -29.964  -8.758  1.00  0.00     0.063 C 
ATOM     25  C   UNL     1      33.846 -28.250  -9.333  1.00  0.00     0.016 C 
ATOM     26  C   UNL     1      37.447 -27.626  -6.717  1.00  0.00     0.012 C 
ATOM     27  C   UNL     1      36.996 -24.967  -3.242  1.00  0.00     0.014 C 
ATOM     28  O   UNL     1      35.116 -26.983  -2.376  1.00  0.00    -0.349 OA
ATOM     29  C   UNL     1      34.250 -27.500  -1.387  1.00  0.00     0.167 C 
ENDROOT
BRANCH  23  30
ATOM     30  O   UNL     1      29.141 -29.195  -9.751  1.00  0.00    -0.393 OA
ATOM     31  H   UNL     1      28.708 -28.348 -10.037  1.00  0.00     0.210 HD
ENDBRANCH  23  30
TORSDOF 1
ENDMDL
MODEL 3
REMARK VINA RESULT:    -5.789      2.435      3.504
REMARK INTER + INTRA:          -5.958
REMARK INTER:                  -5.958
REMARK INTRA:                   0.000
REMARK UNBOUND:                 0.000
REMARK SMILES C[C@H]1CC[C@]2(OC1)O[C@H]1C[C@@H]3[C@H]4CC=C5C[C@H](O)CC[C@@]5(C)[C@@H]4CC[C@@]3(C)[C@H]1[C@H]2C
REMARK SMILES IDX 1 1 2 2 3 3 4 4 5 5 29 6 28 7 9 8 8 9 10 10 11 11 26 12
REMARK SMILES IDX 25 13 24 14 23 15 12 16 13 17 14 18 15 19 21 20 20 21 19 22
REMARK SMILES IDX 17 23 16 24 22 25 27 26 30 27 6 28 7 29 18 30
REMARK H PARENT 18 31
REMARK Flexibility Score: inf
ROOT
ATOM      1  C   UNL     1      34.572 -30.598  -9.490  1.00  0.00     0.010 C 
ATOM      2  C   UNL     1      35.723 -30.152  -8.579  1.00  0.00     0.012 C 
ATOM      3  C   UNL     1      36.908 -29.596  -9.397  1.00  0.00     0.011 C 
ATOM      4  C   UNL     1      36.809 -28.076  -9.551  1.00  0.00     0.066 C 
ATOM      5  C   UNL     1      36.680 -27.374  -8.156  1.00  0.00     0.171 C 
ATOM      6  C   UNL     1      37.992 -26.697  -7.750  1.00  0.00     0.052 C 
ATOM      7  C   UNL     1      37.549 -25.503  -6.913  1.00  0.00     0.033 C 
ATOM      8  C   UNL     1      36.172 -25.206  -7.531  1.00  0.00     0.126 C 
ATOM      9  O   UNL     1      35.710 -26.342  -8.245  1.00  0.00    -0.346 OA
ATOM     10  C   UNL     1      35.208 -24.890  -6.382  1.00  0.00     0.037 C 
ATOM     11  C   UNL     1      35.773 -25.702  -5.237  1.00  0.00     0.002 C 
ATOM     12  C   UNL     1      37.299 -25.543  -5.353  1.00  0.00    -0.024 C 
ATOM     13  C   UNL     1      37.913 -26.686  -4.507  1.00  0.00     0.008 C 
ATOM     14  C   UNL     1      37.458 -26.612  -3.028  1.00  0.00     0.005 C 
ATOM     15  C   UNL     1      35.903 -26.502  -2.852  1.00  0.00     0.003 C 
ATOM     16  C   UNL     1      35.241 -25.462  -3.809  1.00  0.00     0.000 C 
ATOM     17  C   UNL     1      33.715 -25.636  -3.763  1.00  0.00     0.031 C 
ATOM     18  C   UNL     1      33.179 -25.708  -2.360  1.00  0.00    -0.027 C 
ATOM     19  C   UNL     1      33.908 -26.121  -1.298  1.00  0.00    -0.065 C 
ATOM     20  C   UNL     1      35.436 -26.288  -1.362  1.00  0.00    -0.008 C 
ATOM     21  C   UNL     1      35.838 -27.540  -0.521  1.00  0.00     0.014 C 
ATOM     22  C   UNL     1      35.187 -27.588   0.869  1.00  0.00     0.033 C 
ATOM     23  C   UNL     1      33.657 -27.537   0.759  1.00  0.00     0.118 C 
ATOM     24  C   UNL     1      33.213 -26.259   0.043  1.00  0.00     0.063 C 
ATOM     25  C   UNL     1      36.087 -25.020  -0.739  1.00  0.00     0.016 C 
ATOM     26  C   UNL     1      37.811 -24.171  -4.801  1.00  0.00     0.012 C 
ATOM     27  C   UNL     1      39.107 -27.611  -7.217  1.00  0.00     0.014 C 
ATOM     28  O   UNL     1      36.301 -28.291  -7.132  1.00  0.00    -0.349 OA
ATOM     29  C   UNL     1      35.231 -29.115  -7.548  1.00  0.00     0.167 C 
ENDROOT
BRANCH  23  30
ATOM     30  O   UNL     1      33.087 -27.567   2.041  1.00  0.00    -0.393 OA
ATOM     31  H   UNL     1      33.284 -26.690   2.463  1.00  0.00     0.210 HD
ENDBRANCH  23  30
TORSDOF 1
ENDMDL
MODEL 4
REMARK VINA RESULT:    -5.778      1.945      7.521
REMARK INTER + INTRA:          -5.947
REMARK INTER:                  -5.947
REMARK INTRA:                   0.000
REMARK UNBOUND:                 0.000
REMARK SMILES C[C@H]1CC[C@]2(OC1)O[C@H]1C[C@@H]3[C@H]4CC=C5C[C@H](O)CC[C@@]5(C)[C@@H]4CC[C@@]3(C)[C@H]1[C@H]2C
REMARK SMILES IDX 1 1 2 2 3 3 4 4 5 5 29 6 28 7 9 8 8 9 10 10 11 11 26 12
REMARK SMILES IDX 25 13 24 14 23 15 12 16 13 17 14 18 15 19 21 20 20 21 19 22
REMARK SMILES IDX 17 23 16 24 22 25 27 26 30 27 6 28 7 29 18 30
REMARK H PARENT 18 31
REMARK Flexibility Score: inf
ROOT
ATOM      1  C   UNL     1      36.578 -27.072   1.422  1.00  0.00     0.010 C 
ATOM      2  C   UNL     1      36.051 -26.169   0.299  1.00  0.00     0.012 C 
ATOM      3  C   UNL     1      36.867 -24.863   0.192  1.00  0.00     0.011 C 
ATOM      4  C   UNL     1      38.000 -25.000  -0.828  1.00  0.00     0.066 C 
ATOM      5  C   UNL     1      37.452 -25.464  -2.221  1.00  0.00     0.171 C 
ATOM      6  C   UNL     1      37.429 -24.307  -3.223  1.00  0.00     0.052 C 
ATOM      7  C   UNL     1      37.660 -24.979  -4.571  1.00  0.00     0.033 C 
ATOM      8  C   UNL     1      38.494 -26.202  -4.150  1.00  0.00     0.126 C 
ATOM      9  O   UNL     1      38.329 -26.441  -2.761  1.00  0.00    -0.346 OA
ATOM     10  C   UNL     1      37.982 -27.407  -4.947  1.00  0.00     0.037 C 
ATOM     11  C   UNL     1      36.526 -27.065  -5.174  1.00  0.00     0.002 C 
ATOM     12  C   UNL     1      36.516 -25.560  -5.493  1.00  0.00    -0.024 C 
ATOM     13  C   UNL     1      35.055 -25.089  -5.290  1.00  0.00     0.008 C 
ATOM     14  C   UNL     1      34.073 -25.858  -6.208  1.00  0.00     0.005 C 
ATOM     15  C   UNL     1      34.219 -27.417  -6.123  1.00  0.00     0.003 C 
ATOM     16  C   UNL     1      35.701 -27.906  -6.170  1.00  0.00     0.000 C 
ATOM     17  C   UNL     1      35.752 -29.395  -5.795  1.00  0.00     0.031 C 
ATOM     18  C   UNL     1      34.740 -30.219  -6.541  1.00  0.00    -0.027 C 
ATOM     19  C   UNL     1      33.588 -29.719  -7.042  1.00  0.00    -0.065 C 
ATOM     20  C   UNL     1      33.323 -28.207  -7.152  1.00  0.00    -0.008 C 
ATOM     21  C   UNL     1      31.821 -27.937  -6.826  1.00  0.00     0.014 C 
ATOM     22  C   UNL     1      30.849 -28.871  -7.561  1.00  0.00     0.033 C 
ATOM     23  C   UNL     1      31.164 -30.341  -7.253  1.00  0.00     0.118 C 
ATOM     24  C   UNL     1      32.597 -30.682  -7.671  1.00  0.00     0.063 C 
ATOM     25  C   UNL     1      33.618 -27.771  -8.615  1.00  0.00     0.016 C 
ATOM     26  C   UNL     1      36.951 -25.249  -6.964  1.00  0.00     0.012 C 
ATOM     27  C   UNL     1      36.285 -23.291  -3.081  1.00  0.00     0.014 C 
ATOM     28  O   UNL     1      36.139 -26.012  -2.121  1.00  0.00    -0.349 OA
ATOM     29  C   UNL     1      36.041 -26.924  -1.047  1.00  0.00     0.167 C 
ENDROOT
BRANCH  23  30
ATOM     30  O   UNL     1      30.275 -31.175  -7.948  1.00  0.00    -0.393 OA
ATOM     31  H   UNL     1      29.668 -31.574  -7.271  1.00  0.00     0.210 HD
ENDBRANCH  23  30
TORSDOF 1
ENDMDL
MODEL 5
REMARK VINA RESULT:    -5.754      2.335      3.862
REMARK INTER + INTRA:          -5.923
REMARK INTER:                  -5.923
REMARK INTRA:                   0.000
REMARK UNBOUND:                 0.000
REMARK SMILES C[C@H]1CC[C@]2(OC1)O[C@H]1C[C@@H]3[C@H]4CC=C5C[C@H](O)CC[C@@]5(C)[C@@H]4CC[C@@]3(C)[C@H]1[C@H]2C
REMARK SMILES IDX 1 1 2 2 3 3 4 4 5 5 29 6 28 7 9 8 8 9 10 10 11 11 26 12
REMARK SMILES IDX 25 13 24 14 23 15 12 16 13 17 14 18 15 19 21 20 20 21 19 22
REMARK SMILES IDX 17 23 16 24 22 25 27 26 30 27 6 28 7 29 18 30
REMARK H PARENT 18 31
REMARK Flexibility Score: inf
ROOT
ATOM      1  C   UNL     1      30.005 -27.538  -8.210  1.00  0.00     0.010 C 
ATOM      2  C   UNL     1      30.947 -27.963  -7.076  1.00  0.00     0.012 C 
ATOM      3  C   UNL     1      31.296 -29.465  -7.162  1.00  0.00     0.011 C 
ATOM      4  C   UNL     1      32.591 -29.687  -7.947  1.00  0.00     0.066 C 
ATOM      5  C   UNL     1      33.768 -28.847  -7.345  1.00  0.00     0.171 C 
ATOM      6  C   UNL     1      34.738 -29.732  -6.558  1.00  0.00     0.052 C 
ATOM      7  C   UNL     1      36.088 -29.046  -6.729  1.00  0.00     0.033 C 
ATOM      8  C   UNL     1      35.902 -28.369  -8.099  1.00  0.00     0.126 C 
ATOM      9  O   UNL     1      34.519 -28.276  -8.405  1.00  0.00    -0.346 OA
ATOM     10  C   UNL     1      36.507 -26.964  -8.007  1.00  0.00     0.037 C 
ATOM     11  C   UNL     1      36.320 -26.614  -6.546  1.00  0.00     0.002 C 
ATOM     12  C   UNL     1      36.644 -27.909  -5.782  1.00  0.00    -0.024 C 
ATOM     13  C   UNL     1      36.045 -27.730  -4.366  1.00  0.00     0.008 C 
ATOM     14  C   UNL     1      36.640 -26.496  -3.644  1.00  0.00     0.005 C 
ATOM     15  C   UNL     1      36.580 -25.179  -4.492  1.00  0.00     0.003 C 
ATOM     16  C   UNL     1      37.034 -25.372  -5.973  1.00  0.00     0.000 C 
ATOM     17  C   UNL     1      36.669 -24.116  -6.780  1.00  0.00     0.031 C 
ATOM     18  C   UNL     1      37.089 -22.843  -6.098  1.00  0.00    -0.027 C 
ATOM     19  C   UNL     1      37.254 -22.726  -4.761  1.00  0.00    -0.065 C 
ATOM     20  C   UNL     1      37.305 -23.948  -3.827  1.00  0.00    -0.008 C 
ATOM     21  C   UNL     1      36.574 -23.590  -2.495  1.00  0.00     0.014 C 
ATOM     22  C   UNL     1      36.994 -22.237  -1.901  1.00  0.00     0.033 C 
ATOM     23  C   UNL     1      36.768 -21.103  -2.909  1.00  0.00     0.118 C 
ATOM     24  C   UNL     1      37.566 -21.356  -4.190  1.00  0.00     0.063 C 
ATOM     25  C   UNL     1      38.797 -24.262  -3.524  1.00  0.00     0.016 C 
ATOM     26  C   UNL     1      38.182 -28.171  -5.655  1.00  0.00     0.012 C 
ATOM     27  C   UNL     1      34.294 -30.168  -5.153  1.00  0.00     0.014 C 
ATOM     28  O   UNL     1      33.297 -27.809  -6.489  1.00  0.00    -0.349 OA
ATOM     29  C   UNL     1      32.226 -27.100  -7.078  1.00  0.00     0.167 C 
ENDROOT
BRANCH  23  30
ATOM     30  O   UNL     1      37.173 -19.881  -2.350  1.00  0.00    -0.393 OA
ATOM     31  H   UNL     1      36.736 -19.165  -2.879  1.00  0.00     0.210 HD
ENDBRANCH  23  30
TORSDOF 1
ENDMDL
MODEL 6
REMARK VINA RESULT:    -5.701      4.495      9.656
REMARK INTER + INTRA:          -5.868
REMARK INTER:                  -5.868
REMARK INTRA:                   0.000
REMARK UNBOUND:                 0.000
REMARK SMILES C[C@H]1CC[C@]2(OC1)O[C@H]1C[C@@H]3[C@H]4CC=C5C[C@H](O)CC[C@@]5(C)[C@@H]4CC[C@@]3(C)[C@H]1[C@H]2C
REMARK SMILES IDX 1 1 2 2 3 3 4 4 5 5 29 6 28 7 9 8 8 9 10 10 11 11 26 12
REMARK SMILES IDX 25 13 24 14 23 15 12 16 13 17 14 18 15 19 21 20 20 21 19 22
REMARK SMILES IDX 17 23 16 24 22 25 27 26 30 27 6 28 7 29 18 30
REMARK H PARENT 18 31
REMARK Flexibility Score: inf
ROOT
ATOM      1  C   UNL     1      34.337 -31.717  -4.574  1.00  0.00     0.010 C 
ATOM      2  C   UNL     1      33.898 -30.429  -5.282  1.00  0.00     0.012 C 
ATOM      3  C   UNL     1      35.111 -29.569  -5.696  1.00  0.00     0.011 C 
ATOM      4  C   UNL     1      35.546 -29.880  -7.130  1.00  0.00     0.066 C 
ATOM      5  C   UNL     1      34.350 -29.723  -8.129  1.00  0.00     0.171 C 
ATOM      6  C   UNL     1      34.477 -28.438  -8.953  1.00  0.00     0.052 C 
ATOM      7  C   UNL     1      33.819 -28.784 -10.283  1.00  0.00     0.033 C 
ATOM      8  C   UNL     1      34.076 -30.299 -10.353  1.00  0.00     0.126 C 
ATOM      9  O   UNL     1      34.379 -30.795  -9.058  1.00  0.00    -0.346 OA
ATOM     10  C   UNL     1      32.797 -30.961 -10.875  1.00  0.00     0.037 C 
ATOM     11  C   UNL     1      31.712 -30.028 -10.384  1.00  0.00     0.002 C 
ATOM     12  C   UNL     1      32.279 -28.614 -10.594  1.00  0.00    -0.024 C 
ATOM     13  C   UNL     1      31.418 -27.674  -9.715  1.00  0.00     0.008 C 
ATOM     14  C   UNL     1      29.921 -27.735 -10.107  1.00  0.00     0.005 C 
ATOM     15  C   UNL     1      29.345 -29.192 -10.170  1.00  0.00     0.003 C 
ATOM     16  C   UNL     1      30.275 -30.196 -10.922  1.00  0.00     0.000 C 
ATOM     17  C   UNL     1      29.770 -31.627 -10.681  1.00  0.00     0.031 C 
ATOM     18  C   UNL     1      28.290 -31.768 -10.909  1.00  0.00    -0.027 C 
ATOM     19  C   UNL     1      27.412 -30.747 -10.795  1.00  0.00    -0.065 C 
ATOM     20  C   UNL     1      27.863 -29.278 -10.701  1.00  0.00    -0.008 C 
ATOM     21  C   UNL     1      26.924 -28.530  -9.703  1.00  0.00     0.014 C 
ATOM     22  C   UNL     1      25.430 -28.788  -9.945  1.00  0.00     0.033 C 
ATOM     23  C   UNL     1      25.117 -30.289  -9.886  1.00  0.00     0.118 C 
ATOM     24  C   UNL     1      25.932 -31.049 -10.936  1.00  0.00     0.063 C 
ATOM     25  C   UNL     1      27.726 -28.640 -12.112  1.00  0.00     0.016 C 
ATOM     26  C   UNL     1      32.192 -28.139 -12.083  1.00  0.00     0.012 C 
ATOM     27  C   UNL     1      34.097 -27.125  -8.250  1.00  0.00     0.014 C 
ATOM     28  O   UNL     1      33.092 -29.715  -7.457  1.00  0.00    -0.349 OA
ATOM     29  C   UNL     1      33.011 -30.753  -6.503  1.00  0.00     0.167 C 
ENDROOT
BRANCH  23  30
ATOM     30  O   UNL     1      23.751 -30.500 -10.125  1.00  0.00    -0.393 OA
ATOM     31  H   UNL     1      23.623 -31.480 -10.211  1.00  0.00     0.210 HD
ENDBRANCH  23  30
TORSDOF 1
ENDMDL
MODEL 7
REMARK VINA RESULT:    -5.654      3.936      7.023
REMARK INTER + INTRA:          -5.819
REMARK INTER:                  -5.819
REMARK INTRA:                   0.000
REMARK UNBOUND:                 0.000
REMARK SMILES C[C@H]1CC[C@]2(OC1)O[C@H]1C[C@@H]3[C@H]4CC=C5C[C@H](O)CC[C@@]5(C)[C@@H]4CC[C@@]3(C)[C@H]1[C@H]2C
REMARK SMILES IDX 1 1 2 2 3 3 4 4 5 5 29 6 28 7 9 8 8 9 10 10 11 11 26 12
REMARK SMILES IDX 25 13 24 14 23 15 12 16 13 17 14 18 15 19 21 20 20 21 19 22
REMARK SMILES IDX 17 23 16 24 22 25 27 26 30 27 6 28 7 29 18 30
REMARK H PARENT 18 31
REMARK Flexibility Score: inf
ROOT
ATOM      1  C   UNL     1      27.111 -27.459 -13.119  1.00  0.00     0.010 C 
ATOM      2  C   UNL     1      27.285 -28.160 -11.766  1.00  0.00     0.012 C 
ATOM      3  C   UNL     1      26.687 -29.584 -11.785  1.00  0.00     0.011 C 
ATOM      4  C   UNL     1      27.749 -30.625 -12.148  1.00  0.00     0.066 C 
ATOM      5  C   UNL     1      28.988 -30.523 -11.195  1.00  0.00     0.171 C 
ATOM      6  C   UNL     1      29.003 -31.667 -10.177  1.00  0.00     0.052 C 
ATOM      7  C   UNL     1      30.484 -31.910  -9.914  1.00  0.00     0.033 C 
ATOM      8  C   UNL     1      31.097 -31.473 -11.256  1.00  0.00     0.126 C 
ATOM      9  O   UNL     1      30.174 -30.658 -11.963  1.00  0.00    -0.346 OA
ATOM     10  C   UNL     1      32.365 -30.671 -10.946  1.00  0.00     0.037 C 
ATOM     11  C   UNL     1      32.051 -30.052  -9.601  1.00  0.00     0.002 C 
ATOM     12  C   UNL     1      31.335 -31.161  -8.811  1.00  0.00    -0.024 C 
ATOM     13  C   UNL     1      30.615 -30.453  -7.638  1.00  0.00     0.008 C 
ATOM     14  C   UNL     1      31.612 -29.684  -6.735  1.00  0.00     0.005 C 
ATOM     15  C   UNL     1      32.564 -28.720  -7.525  1.00  0.00     0.003 C 
ATOM     16  C   UNL     1      33.181 -29.368  -8.805  1.00  0.00     0.000 C 
ATOM     17  C   UNL     1      33.853 -28.273  -9.649  1.00  0.00     0.031 C 
ATOM     18  C   UNL     1      34.749 -27.380  -8.837  1.00  0.00    -0.027 C 
ATOM     19  C   UNL     1      34.597 -27.169  -7.510  1.00  0.00    -0.065 C 
ATOM     20  C   UNL     1      33.672 -28.036  -6.638  1.00  0.00    -0.008 C 
ATOM     21  C   UNL     1      32.980 -27.121  -5.580  1.00  0.00     0.014 C 
ATOM     22  C   UNL     1      33.946 -26.177  -4.849  1.00  0.00     0.033 C 
ATOM     23  C   UNL     1      34.704 -25.292  -5.847  1.00  0.00     0.118 C 
ATOM     24  C   UNL     1      35.497 -26.152  -6.834  1.00  0.00     0.063 C 
ATOM     25  C   UNL     1      34.549 -29.093  -5.908  1.00  0.00     0.016 C 
ATOM     26  C   UNL     1      32.322 -32.229  -8.233  1.00  0.00     0.012 C 
ATOM     27  C   UNL     1      28.042 -31.544  -8.984  1.00  0.00     0.014 C 
ATOM     28  O   UNL     1      29.020 -29.283 -10.493  1.00  0.00    -0.349 OA
ATOM     29  C   UNL     1      28.773 -28.194 -11.358  1.00  0.00     0.167 C 
ENDROOT
BRANCH  23  30
ATOM     30  O   UNL     1      35.591 -24.450  -5.158  1.00  0.00    -0.393 OA
ATOM     31  H   UNL     1      35.122 -23.584  -5.028  1.00  0.00     0.210 HD
ENDBRANCH  23  30
TORSDOF 1
ENDMDL
MODEL 8
REMARK VINA RESULT:    -5.569      1.789      3.456
REMARK INTER + INTRA:          -5.732
REMARK INTER:                  -5.732
REMARK INTRA:                   0.000
REMARK UNBOUND:                 0.000
REMARK SMILES C[C@H]1CC[C@]2(OC1)O[C@H]1C[C@@H]3[C@H]4CC=C5C[C@H](O)CC[C@@]5(C)[C@@H]4CC[C@@]3(C)[C@H]1[C@H]2C
REMARK SMILES IDX 1 1 2 2 3 3 4 4 5 5 29 6 28 7 9 8 8 9 10 10 11 11 26 12
REMARK SMILES IDX 25 13 24 14 23 15 12 16 13 17 14 18 15 19 21 20 20 21 19 22
REMARK SMILES IDX 17 23 16 24 22 25 27 26 30 27 6 28 7 29 18 30
REMARK H PARENT 18 31
REMARK Flexibility Score: inf
ROOT
ATOM      1  C   UNL     1      30.238 -27.715  -8.543  1.00  0.00     0.010 C 
ATOM      2  C   UNL     1      30.856 -28.470  -7.359  1.00  0.00     0.012 C 
ATOM      3  C   UNL     1      30.957 -29.984  -7.643  1.00  0.00     0.011 C 
ATOM      4  C   UNL     1      32.324 -30.346  -8.229  1.00  0.00     0.066 C 
ATOM      5  C   UNL     1      33.486 -29.845  -7.304  1.00  0.00     0.171 C 
ATOM      6  C   UNL     1      34.121 -31.004  -6.532  1.00  0.00     0.052 C 
ATOM      7  C   UNL     1      35.574 -30.580  -6.356  1.00  0.00     0.033 C 
ATOM      8  C   UNL     1      35.775 -29.697  -7.600  1.00  0.00     0.126 C 
ATOM      9  O   UNL     1      34.514 -29.292  -8.111  1.00  0.00    -0.346 OA
ATOM     10  C   UNL     1      36.578 -28.465  -7.168  1.00  0.00     0.037 C 
ATOM     11  C   UNL     1      36.172 -28.290  -5.721  1.00  0.00     0.002 C 
ATOM     12  C   UNL     1      36.118 -29.717  -5.148  1.00  0.00    -0.024 C 
ATOM     13  C   UNL     1      35.293 -29.622  -3.841  1.00  0.00     0.008 C 
ATOM     14  C   UNL     1      35.936 -28.641  -2.829  1.00  0.00     0.005 C 
ATOM     15  C   UNL     1      36.263 -27.233  -3.436  1.00  0.00     0.003 C 
ATOM     16  C   UNL     1      36.959 -27.305  -4.832  1.00  0.00     0.000 C 
ATOM     17  C   UNL     1      36.974 -25.902  -5.460  1.00  0.00     0.031 C 
ATOM     18  C   UNL     1      37.461 -24.844  -4.510  1.00  0.00    -0.027 C 
ATOM     19  C   UNL     1      37.380 -24.948  -3.164  1.00  0.00    -0.065 C 
ATOM     20  C   UNL     1      37.042 -26.272  -2.458  1.00  0.00    -0.008 C 
ATOM     21  C   UNL     1      36.136 -25.965  -1.224  1.00  0.00     0.014 C 
ATOM     22  C   UNL     1      36.654 -24.818  -0.345  1.00  0.00     0.033 C 
ATOM     23  C   UNL     1      36.822 -23.532  -1.167  1.00  0.00     0.118 C 
ATOM     24  C   UNL     1      37.801 -23.758  -2.322  1.00  0.00     0.063 C 
ATOM     25  C   UNL     1      38.372 -26.913  -1.971  1.00  0.00     0.016 C 
ATOM     26  C   UNL     1      37.535 -30.291  -4.815  1.00  0.00     0.012 C 
ATOM     27  C   UNL     1      33.346 -31.534  -5.315  1.00  0.00     0.014 C 
ATOM     28  O   UNL     1      33.038 -28.863  -6.372  1.00  0.00    -0.349 OA
ATOM     29  C   UNL     1      32.237 -27.883  -7.000  1.00  0.00     0.167 C 
ENDROOT
BRANCH  23  30
ATOM     30  O   UNL     1      37.310 -22.504  -0.347  1.00  0.00    -0.393 OA
ATOM     31  H   UNL     1      36.632 -22.357   0.363  1.00  0.00     0.210 HD
ENDBRANCH  23  30
TORSDOF 1
ENDMDL
MODEL 9
REMARK VINA RESULT:    -5.557      4.390      6.981
REMARK INTER + INTRA:          -5.719
REMARK INTER:                  -5.719
REMARK INTRA:                   0.000
REMARK UNBOUND:                 0.000
REMARK SMILES C[C@H]1CC[C@]2(OC1)O[C@H]1C[C@@H]3[C@H]4CC=C5C[C@H](O)CC[C@@]5(C)[C@@H]4CC[C@@]3(C)[C@H]1[C@H]2C
REMARK SMILES IDX 1 1 2 2 3 3 4 4 5 5 29 6 28 7 9 8 8 9 10 10 11 11 26 12
REMARK SMILES IDX 25 13 24 14 23 15 12 16 13 17 14 18 15 19 21 20 20 21 19 22
REMARK SMILES IDX 17 23 16 24 22 25 27 26 30 27 6 28 7 29 18 30
REMARK H PARENT 18 31
REMARK Flexibility Score: inf
ROOT
ATOM      1  C   UNL     1      25.075 -29.512  -9.793  1.00  0.00     0.010 C 
ATOM      2  C   UNL     1      26.344 -30.195 -10.319  1.00  0.00     0.012 C 
ATOM      3  C   UNL     1      26.357 -30.256 -11.861  1.00  0.00     0.011 C 
ATOM      4  C   UNL     1      27.093 -29.053 -12.456  1.00  0.00     0.066 C 
ATOM      5  C   UNL     1      28.537 -28.925 -11.863  1.00  0.00     0.171 C 
ATOM      6  C   UNL     1      29.595 -29.377 -12.873  1.00  0.00     0.052 C 
ATOM      7  C   UNL     1      30.812 -28.520 -12.544  1.00  0.00     0.033 C 
ATOM      8  C   UNL     1      30.139 -27.259 -11.975  1.00  0.00     0.126 C 
ATOM      9  O   UNL     1      28.806 -27.559 -11.589  1.00  0.00    -0.346 OA
ATOM     10  C   UNL     1      30.946 -26.816 -10.750  1.00  0.00     0.037 C 
ATOM     11  C   UNL     1      31.508 -28.121 -10.229  1.00  0.00     0.002 C 
ATOM     12  C   UNL     1      31.922 -28.906 -11.486  1.00  0.00    -0.024 C 
ATOM     13  C   UNL     1      32.074 -30.380 -11.038  1.00  0.00     0.008 C 
ATOM     14  C   UNL     1      33.132 -30.531  -9.916  1.00  0.00     0.005 C 
ATOM     15  C   UNL     1      32.913 -29.556  -8.708  1.00  0.00     0.003 C 
ATOM     16  C   UNL     1      32.602 -28.089  -9.142  1.00  0.00     0.000 C 
ATOM     17  C   UNL     1      32.126 -27.292  -7.917  1.00  0.00     0.031 C 
ATOM     18  C   UNL     1      33.018 -27.474  -6.721  1.00  0.00    -0.027 C 
ATOM     19  C   UNL     1      33.792 -28.565  -6.520  1.00  0.00    -0.065 C 
ATOM     20  C   UNL     1      34.058 -29.602  -7.625  1.00  0.00    -0.008 C 
ATOM     21  C   UNL     1      34.087 -31.024  -6.980  1.00  0.00     0.014 C 
ATOM     22  C   UNL     1      34.952 -31.113  -5.715  1.00  0.00     0.033 C 
ATOM     23  C   UNL     1      34.485 -30.101  -4.660  1.00  0.00     0.118 C 
ATOM     24  C   UNL     1      34.556 -28.676  -5.214  1.00  0.00     0.063 C 
ATOM     25  C   UNL     1      35.447 -29.294  -8.252  1.00  0.00     0.016 C 
ATOM     26  C   UNL     1      33.279 -28.414 -12.089  1.00  0.00     0.012 C 
ATOM     27  C   UNL     1      29.776 -30.892 -13.058  1.00  0.00     0.014 C 
ATOM     28  O   UNL     1      28.691 -29.686 -10.667  1.00  0.00    -0.349 OA
ATOM     29  C   UNL     1      27.606 -29.486  -9.785  1.00  0.00     0.167 C 
ENDROOT
BRANCH  23  30
ATOM     30  O   UNL     1      35.300 -30.191  -3.521  1.00  0.00    -0.393 OA
ATOM     31  H   UNL     1      34.916 -30.906  -2.949  1.00  0.00     0.210 HD
ENDBRANCH  23  30
TORSDOF 1
ENDMDL
