MODEL 1
REMARK VINA RESULT:    -3.129      0.000      0.000
REMARK INTER + INTRA:          -3.667
REMARK INTER:                  -3.586
REMARK INTRA:                  -0.081
REMARK UNBOUND:                -0.081
REMARK SMILES C=Cc1ccc(O)c(OC)c1
REMARK SMILES IDX 8 1 6 2 5 3 4 4 3 5 11 6 9 7 10 8 7 9 2 11 1 12
REMARK H PARENT 7 10
REMARK Flexibility Score: inf
ROOT
ATOM      1  C   UNL     1     132.652 142.909 140.939  1.00  0.00     0.161 A 
ATOM      2  C   UNL     1     132.208 141.621 140.611  1.00  0.00     0.157 A 
ATOM      3  C   UNL     1     132.937 140.501 141.025  1.00  0.00     0.051 A 
ATOM      4  C   UNL     1     134.113 140.656 141.763  1.00  0.00     0.012 A 
ATOM      5  C   UNL     1     134.582 141.941 142.091  1.00  0.00    -0.022 A 
ATOM      6  C   UNL     1     133.838 143.061 141.684  1.00  0.00     0.058 A 
ENDROOT
BRANCH   1   7
ATOM      7  O   UNL     1     131.891 144.008 140.509  1.00  0.00    -0.493 OA
ATOM      8  C   UNL     1     132.092 144.696 139.279  1.00  0.00     0.278 C 
ENDBRANCH   1   7
BRANCH   2   9
ATOM      9  O   UNL     1     131.036 141.464 139.874  1.00  0.00    -0.504 OA
ATOM     10  H   UNL     1     130.496 142.262 139.558  1.00  0.00     0.293 HD
ENDBRANCH   2   9
BRANCH   5  11
ATOM     11  C   UNL     1     135.820 142.162 142.882  1.00  0.00     0.000 C 
ATOM     12  C   UNL     1     135.965 141.811 144.160  1.00  0.00     0.009 C 
ENDBRANCH   5  11
TORSDOF 3
ENDMDL
MODEL 2
REMARK VINA RESULT:    -3.118      9.740     11.087
REMARK INTER + INTRA:          -3.654
REMARK INTER:                  -3.571
REMARK INTRA:                  -0.083
REMARK UNBOUND:                -0.081
REMARK SMILES C=Cc1ccc(O)c(OC)c1
REMARK SMILES IDX 8 1 6 2 5 3 4 4 3 5 11 6 9 7 10 8 7 9 2 11 1 12
REMARK H PARENT 7 10
REMARK Flexibility Score: inf
ROOT
ATOM      1  C   UNL     1     142.944 148.937 140.932  1.00  0.00     0.161 A 
ATOM      2  C   UNL     1     141.658 149.394 140.613  1.00  0.00     0.157 A 
ATOM      3  C   UNL     1     140.534 148.679 141.040  1.00  0.00     0.051 A 
ATOM      4  C   UNL     1     140.683 147.505 141.781  1.00  0.00     0.012 A 
ATOM      5  C   UNL     1     141.966 147.022 142.101  1.00  0.00    -0.022 A 
ATOM      6  C   UNL     1     143.090 147.753 141.681  1.00  0.00     0.058 A 
ENDROOT
BRANCH   1   7
ATOM      7  O   UNL     1     144.048 149.684 140.489  1.00  0.00    -0.493 OA
ATOM      8  C   UNL     1     144.733 149.461 139.261  1.00  0.00     0.278 C 
ENDBRANCH   1   7
BRANCH   2   9
ATOM      9  O   UNL     1     141.508 150.564 139.872  1.00  0.00    -0.504 OA
ATOM     10  H   UNL     1     140.734 151.199 140.034  1.00  0.00     0.293 HD
ENDBRANCH   2   9
BRANCH   5  11
ATOM     11  C   UNL     1     142.180 145.786 142.895  1.00  0.00     0.000 C 
ATOM     12  C   UNL     1     141.814 145.641 144.170  1.00  0.00     0.009 C 
ENDBRANCH   5  11
TORSDOF 3
ENDMDL
MODEL 3
REMARK VINA RESULT:    -3.099      9.692     11.044
REMARK INTER + INTRA:          -3.633
REMARK INTER:                  -3.536
REMARK INTRA:                  -0.097
REMARK UNBOUND:                -0.081
REMARK SMILES C=Cc1ccc(O)c(OC)c1
REMARK SMILES IDX 8 1 6 2 5 3 4 4 3 5 11 6 9 7 10 8 7 9 2 11 1 12
REMARK H PARENT 7 10
REMARK Flexibility Score: inf
ROOT
ATOM      1  C   UNL     1     138.679 132.647 140.925  1.00  0.00     0.161 A 
ATOM      2  C   UNL     1     139.974 132.219 140.602  1.00  0.00     0.157 A 
ATOM      3  C   UNL     1     141.083 132.965 141.017  1.00  0.00     0.051 A 
ATOM      4  C   UNL     1     140.910 134.141 141.750  1.00  0.00     0.012 A 
ATOM      5  C   UNL     1     139.617 134.594 142.073  1.00  0.00    -0.022 A 
ATOM      6  C   UNL     1     138.509 133.834 141.665  1.00  0.00     0.058 A 
ENDROOT
BRANCH   1   7
ATOM      7  O   UNL     1     137.592 131.870 140.495  1.00  0.00    -0.493 OA
ATOM      8  C   UNL     1     136.844 132.115 139.308  1.00  0.00     0.278 C 
ENDBRANCH   1   7
BRANCH   2   9
ATOM      9  O   UNL     1     140.149 131.047 139.870  1.00  0.00    -0.504 OA
ATOM     10  H   UNL     1     140.999 130.500 139.939  1.00  0.00     0.293 HD
ENDBRANCH   2   9
BRANCH   5  11
ATOM     11  C   UNL     1     139.377 135.832 142.858  1.00  0.00     0.000 C 
ATOM     12  C   UNL     1     139.806 136.021 144.107  1.00  0.00     0.009 C 
ENDBRANCH   5  11
TORSDOF 3
ENDMDL
MODEL 4
REMARK VINA RESULT:    -3.098     13.897     15.604
REMARK INTER + INTRA:          -3.632
REMARK INTER:                  -3.543
REMARK INTRA:                  -0.089
REMARK UNBOUND:                -0.081
REMARK SMILES C=Cc1ccc(O)c(OC)c1
REMARK SMILES IDX 8 1 6 2 5 3 4 4 3 5 11 6 9 7 10 8 7 9 2 11 1 12
REMARK H PARENT 7 10
REMARK Flexibility Score: inf
ROOT
ATOM      1  C   UNL     1     148.912 138.738 140.971  1.00  0.00     0.161 A 
ATOM      2  C   UNL     1     149.361 140.027 140.654  1.00  0.00     0.157 A 
ATOM      3  C   UNL     1     148.644 141.147 141.088  1.00  0.00     0.051 A 
ATOM      4  C   UNL     1     147.475 140.991 141.836  1.00  0.00     0.012 A 
ATOM      5  C   UNL     1     147.000 139.704 142.154  1.00  0.00    -0.022 A 
ATOM      6  C   UNL     1     147.733 138.585 141.726  1.00  0.00     0.058 A 
ENDROOT
BRANCH   1   7
ATOM      7  O   UNL     1     149.662 137.640 140.520  1.00  0.00    -0.493 OA
ATOM      8  C   UNL     1     149.414 136.938 139.306  1.00  0.00     0.278 C 
ENDBRANCH   1   7
BRANCH   2   9
ATOM      9  O   UNL     1     150.527 140.186 139.906  1.00  0.00    -0.504 OA
ATOM     10  H   UNL     1     151.027 141.068 139.884  1.00  0.00     0.293 HD
ENDBRANCH   2   9
BRANCH   5  11
ATOM     11  C   UNL     1     145.769 139.482 142.955  1.00  0.00     0.000 C 
ATOM     12  C   UNL     1     145.635 139.831 144.235  1.00  0.00     0.009 C 
ENDBRANCH   5  11
TORSDOF 3
ENDMDL
MODEL 5
REMARK VINA RESULT:    -3.000      3.487      4.660
REMARK INTER + INTRA:          -3.519
REMARK INTER:                  -3.417
REMARK INTRA:                  -0.102
REMARK UNBOUND:                -0.081
REMARK SMILES C=Cc1ccc(O)c(OC)c1
REMARK SMILES IDX 8 1 6 2 5 3 4 4 3 5 11 6 9 7 10 8 7 9 2 11 1 12
REMARK H PARENT 7 10
REMARK Flexibility Score: inf
ROOT
ATOM      1  C   UNL     1     136.584 141.814 142.093  1.00  0.00     0.161 A 
ATOM      2  C   UNL     1     135.622 141.786 143.112  1.00  0.00     0.157 A 
ATOM      3  C   UNL     1     135.973 142.143 144.418  1.00  0.00     0.051 A 
ATOM      4  C   UNL     1     137.282 142.526 144.719  1.00  0.00     0.012 A 
ATOM      5  C   UNL     1     138.266 142.548 143.713  1.00  0.00    -0.022 A 
ATOM      6  C   UNL     1     137.903 142.201 142.400  1.00  0.00     0.058 A 
ENDROOT
BRANCH   1   7
ATOM      7  O   UNL     1     136.192 141.452 140.794  1.00  0.00    -0.493 OA
ATOM      8  C   UNL     1     136.871 140.500 139.982  1.00  0.00     0.278 C 
ENDBRANCH   1   7
BRANCH   2   9
ATOM      9  O   UNL     1     134.315 141.403 142.814  1.00  0.00    -0.504 OA
ATOM     10  H   UNL     1     133.727 140.944 143.501  1.00  0.00     0.293 HD
ENDBRANCH   2   9
BRANCH   5  11
ATOM     11  C   UNL     1     139.669 142.956 143.975  1.00  0.00     0.000 C 
ATOM     12  C   UNL     1     140.090 143.498 145.119  1.00  0.00     0.009 C 
ENDBRANCH   5  11
TORSDOF 3
ENDMDL
MODEL 6
REMARK VINA RESULT:    -2.978      9.403     10.374
REMARK INTER + INTRA:          -3.494
REMARK INTER:                  -3.400
REMARK INTRA:                  -0.094
REMARK UNBOUND:                -0.081
REMARK SMILES C=Cc1ccc(O)c(OC)c1
REMARK SMILES IDX 8 1 6 2 5 3 4 4 3 5 11 6 9 7 10 8 7 9 2 11 1 12
REMARK H PARENT 7 10
REMARK Flexibility Score: inf
ROOT
ATOM      1  C   UNL     1     142.499 143.134 143.020  1.00  0.00     0.161 A 
ATOM      2  C   UNL     1     142.862 143.109 144.373  1.00  0.00     0.157 A 
ATOM      3  C   UNL     1     142.848 144.289 145.125  1.00  0.00     0.051 A 
ATOM      4  C   UNL     1     142.476 145.499 144.535  1.00  0.00     0.012 A 
ATOM      5  C   UNL     1     142.121 145.547 143.174  1.00  0.00    -0.022 A 
ATOM      6  C   UNL     1     142.125 144.356 142.428  1.00  0.00     0.058 A 
ENDROOT
BRANCH   1   7
ATOM      7  O   UNL     1     142.522 141.929 142.300  1.00  0.00    -0.493 OA
ATOM      8  C   UNL     1     143.577 141.528 141.431  1.00  0.00     0.278 C 
ENDBRANCH   1   7
BRANCH   2   9
ATOM      9  O   UNL     1     143.234 141.903 144.964  1.00  0.00    -0.504 OA
ATOM     10  H   UNL     1     143.683 141.874 145.873  1.00  0.00     0.293 HD
ENDBRANCH   2   9
BRANCH   5  11
ATOM     11  C   UNL     1     141.709 146.804 142.499  1.00  0.00     0.000 C 
ATOM     12  C   UNL     1     142.520 147.554 141.752  1.00  0.00     0.009 C 
ENDBRANCH   5  11
TORSDOF 3
ENDMDL
MODEL 7
REMARK VINA RESULT:    -2.962      6.553      8.053
REMARK INTER + INTRA:          -3.476
REMARK INTER:                  -3.384
REMARK INTRA:                  -0.092
REMARK UNBOUND:                -0.081
REMARK SMILES C=Cc1ccc(O)c(OC)c1
REMARK SMILES IDX 8 1 6 2 5 3 4 4 3 5 11 6 9 7 10 8 7 9 2 11 1 12
REMARK H PARENT 7 10
REMARK Flexibility Score: inf
ROOT
ATOM      1  C   UNL     1     139.137 138.704 142.964  1.00  0.00     0.161 A 
ATOM      2  C   UNL     1     138.771 138.799 144.314  1.00  0.00     0.157 A 
ATOM      3  C   UNL     1     138.781 137.659 145.125  1.00  0.00     0.051 A 
ATOM      4  C   UNL     1     139.149 136.420 144.598  1.00  0.00     0.012 A 
ATOM      5  C   UNL     1     139.507 136.301 143.242  1.00  0.00    -0.022 A 
ATOM      6  C   UNL     1     139.508 137.452 142.436  1.00  0.00     0.058 A 
ENDROOT
BRANCH   1   7
ATOM      7  O   UNL     1     139.119 139.871 142.184  1.00  0.00    -0.493 OA
ATOM      8  C   UNL     1     138.052 140.247 141.318  1.00  0.00     0.278 C 
ENDBRANCH   1   7
BRANCH   2   9
ATOM      9  O   UNL     1     138.402 140.035 144.842  1.00  0.00    -0.504 OA
ATOM     10  H   UNL     1     137.446 140.369 144.793  1.00  0.00     0.293 HD
ENDBRANCH   2   9
BRANCH   5  11
ATOM     11  C   UNL     1     139.916 135.010 142.633  1.00  0.00     0.000 C 
ATOM     12  C   UNL     1     139.117 134.249 141.882  1.00  0.00     0.009 C 
ENDBRANCH   5  11
TORSDOF 3
ENDMDL
MODEL 8
REMARK VINA RESULT:    -2.959      2.039      2.922
REMARK INTER + INTRA:          -3.472
REMARK INTER:                  -3.365
REMARK INTRA:                  -0.107
REMARK UNBOUND:                -0.081
REMARK SMILES C=Cc1ccc(O)c(OC)c1
REMARK SMILES IDX 8 1 6 2 5 3 4 4 3 5 11 6 9 7 10 8 7 9 2 11 1 12
REMARK H PARENT 7 10
REMARK Flexibility Score: inf
ROOT
ATOM      1  C   UNL     1     134.636 141.590 141.639  1.00  0.00     0.161 A 
ATOM      2  C   UNL     1     135.571 140.836 140.916  1.00  0.00     0.157 A 
ATOM      3  C   UNL     1     136.848 140.612 141.441  1.00  0.00     0.051 A 
ATOM      4  C   UNL     1     137.204 141.141 142.684  1.00  0.00     0.012 A 
ATOM      5  C   UNL     1     136.284 141.912 143.419  1.00  0.00    -0.022 A 
ATOM      6  C   UNL     1     134.999 142.120 142.892  1.00  0.00     0.058 A 
ENDROOT
BRANCH   1   7
ATOM      7  O   UNL     1     133.363 141.788 141.080  1.00  0.00    -0.493 OA
ATOM      8  C   UNL     1     132.855 143.050 140.659  1.00  0.00     0.278 C 
ENDBRANCH   1   7
BRANCH   2   9
ATOM      9  O   UNL     1     135.219 140.308 139.675  1.00  0.00    -0.504 OA
ATOM     10  H   UNL     1     134.451 139.654 139.575  1.00  0.00     0.293 HD
ENDBRANCH   2   9
BRANCH   5  11
ATOM     11  C   UNL     1     136.607 142.488 144.749  1.00  0.00     0.000 C 
ATOM     12  C   UNL     1     137.829 142.867 145.125  1.00  0.00     0.009 C 
ENDBRANCH   5  11
TORSDOF 3
ENDMDL
MODEL 9
REMARK VINA RESULT:    -2.950      4.335      6.315
REMARK INTER + INTRA:          -3.462
REMARK INTER:                  -3.370
REMARK INTRA:                  -0.092
REMARK UNBOUND:                -0.081
REMARK SMILES C=Cc1ccc(O)c(OC)c1
REMARK SMILES IDX 8 1 6 2 5 3 4 4 3 5 11 6 9 7 10 8 7 9 2 11 1 12
REMARK H PARENT 7 10
REMARK Flexibility Score: inf
ROOT
ATOM      1  C   UNL     1     138.715 142.498 142.885  1.00  0.00     0.161 A 
ATOM      2  C   UNL     1     138.922 142.867 144.221  1.00  0.00     0.157 A 
ATOM      3  C   UNL     1     137.854 142.855 145.125  1.00  0.00     0.051 A 
ATOM      4  C   UNL     1     136.576 142.481 144.704  1.00  0.00     0.012 A 
ATOM      5  C   UNL     1     136.345 142.120 143.363  1.00  0.00    -0.022 A 
ATOM      6  C   UNL     1     137.425 142.121 142.464  1.00  0.00     0.058 A 
ENDROOT
BRANCH   1   7
ATOM      7  O   UNL     1     139.813 142.518 142.010  1.00  0.00    -0.493 OA
ATOM      8  C   UNL     1     140.088 143.565 141.084  1.00  0.00     0.278 C 
ENDBRANCH   1   7
BRANCH   2   9
ATOM      9  O   UNL     1     140.196 143.241 144.643  1.00  0.00    -0.504 OA
ATOM     10  H   UNL     1     141.022 142.723 144.363  1.00  0.00     0.293 HD
ENDBRANCH   2   9
BRANCH   5  11
ATOM     11  C   UNL     1     135.009 141.705 142.866  1.00  0.00     0.000 C 
ATOM     12  C   UNL     1     134.402 142.248 141.809  1.00  0.00     0.009 C 
ENDBRANCH   5  11
TORSDOF 3
ENDMDL
