MODEL 1
REMARK VINA RESULT:    -4.636      0.000      0.000
REMARK INTER + INTRA:          -7.387
REMARK INTER:                  -6.533
REMARK INTRA:                  -0.854
REMARK UNBOUND:                -0.854
REMARK SMILES C=CCCCCCCC(=O)[O-]
REMARK SMILES IDX 6 1 7 2 8 3 9 4 10 5 11 6 5 7 4 8 3 9 2 10 1 11
REMARK H PARENT
REMARK Flexibility Score: inf
ROOT
ATOM      1  C   UNL     1     -27.647  -0.360  21.788  1.00  0.00     0.000 C 
ENDROOT
BRANCH   1   2
ATOM      2  C   UNL     1     -27.028   0.149  23.101  1.00  0.00     0.006 C 
BRANCH   2   3
ATOM      3  C   UNL     1     -26.581  -1.001  24.013  1.00  0.00     0.053 C 
BRANCH   3   4
ATOM      4  C   UNL     1     -27.738  -1.627  24.729  1.00  0.00     0.041 C 
ATOM      5  O   UNL     1     -28.357  -0.984  25.617  1.00  0.00    -0.550 OA
ATOM      6  O   UNL     1     -28.156  -2.908  24.389  1.00  0.00    -0.550 OA
ENDBRANCH   3   4
ENDBRANCH   2   3
ENDBRANCH   1   2
BRANCH   1   7
ATOM      7  C   UNL     1     -29.131   0.014  21.649  1.00  0.00     0.000 C 
BRANCH   7   8
ATOM      8  C   UNL     1     -29.604   0.975  22.751  1.00  0.00     0.004 C 
BRANCH   8   9
ATOM      9  C   UNL     1     -30.894   0.467  23.404  1.00  0.00     0.027 C 
BRANCH   9  10
ATOM     10  C   UNL     1     -31.166  -0.966  23.036  1.00  0.00    -0.035 C 
ATOM     11  C   UNL     1     -31.355  -1.907  23.965  1.00  0.00     0.004 C 
ENDBRANCH   9  10
ENDBRANCH   8   9
ENDBRANCH   7   8
ENDBRANCH   1   7
TORSDOF 7
ENDMDL
MODEL 2
REMARK VINA RESULT:    -4.571      1.479      2.829
REMARK INTER + INTRA:          -7.296
REMARK INTER:                  -6.408
REMARK INTRA:                  -0.888
REMARK UNBOUND:                -0.854
REMARK SMILES C=CCCCCCCC(=O)[O-]
REMARK SMILES IDX 6 1 7 2 8 3 9 4 10 5 11 6 5 7 4 8 3 9 2 10 1 11
REMARK H PARENT
REMARK Flexibility Score: inf
ROOT
ATOM      1  C   UNL     1     -29.876   0.860  22.891  1.00  0.00     0.000 C 
ENDROOT
BRANCH   1   2
ATOM      2  C   UNL     1     -29.080   0.767  24.204  1.00  0.00     0.006 C 
BRANCH   2   3
ATOM      3  C   UNL     1     -27.610   0.399  23.964  1.00  0.00     0.053 C 
BRANCH   3   4
ATOM      4  C   UNL     1     -27.319  -1.018  24.355  1.00  0.00     0.041 C 
ATOM      5  O   UNL     1     -26.236  -1.560  24.014  1.00  0.00    -0.550 OA
ATOM      6  O   UNL     1     -28.229  -1.727  25.129  1.00  0.00    -0.550 OA
ENDBRANCH   3   4
ENDBRANCH   2   3
ENDBRANCH   1   2
BRANCH   1   7
ATOM      7  C   UNL     1     -31.012  -0.173  22.814  1.00  0.00     0.000 C 
BRANCH   7   8
ATOM      8  C   UNL     1     -30.507  -1.581  22.461  1.00  0.00     0.004 C 
BRANCH   8   9
ATOM      9  C   UNL     1     -29.987  -1.631  21.019  1.00  0.00     0.027 C 
BRANCH   9  10
ATOM     10  C   UNL     1     -28.602  -2.213  20.958  1.00  0.00    -0.035 C 
ATOM     11  C   UNL     1     -27.540  -1.468  20.641  1.00  0.00     0.004 C 
ENDBRANCH   9  10
ENDBRANCH   8   9
ENDBRANCH   7   8
ENDBRANCH   1   7
TORSDOF 7
ENDMDL
MODEL 3
REMARK VINA RESULT:    -4.561      2.535      3.702
REMARK INTER + INTRA:          -7.281
REMARK INTER:                  -6.370
REMARK INTRA:                  -0.911
REMARK UNBOUND:                -0.854
REMARK SMILES C=CCCCCCCC(=O)[O-]
REMARK SMILES IDX 6 1 7 2 8 3 9 4 10 5 11 6 5 7 4 8 3 9 2 10 1 11
REMARK H PARENT
REMARK Flexibility Score: inf
ROOT
ATOM      1  C   UNL     1     -28.263  -2.229  24.335  1.00  0.00     0.000 C 
ENDROOT
BRANCH   1   2
ATOM      2  C   UNL     1     -28.954  -2.225  22.961  1.00  0.00     0.006 C 
BRANCH   2   3
ATOM      3  C   UNL     1     -30.408  -1.741  23.046  1.00  0.00     0.053 C 
BRANCH   3   4
ATOM      4  C   UNL     1     -30.540  -0.300  22.657  1.00  0.00     0.041 C 
ATOM      5  O   UNL     1     -31.554   0.360  23.005  1.00  0.00    -0.550 OA
ATOM      6  O   UNL     1     -29.525   0.323  21.942  1.00  0.00    -0.550 OA
ENDBRANCH   3   4
ENDBRANCH   2   3
ENDBRANCH   1   2
BRANCH   1   7
ATOM      7  C   UNL     1     -27.049  -1.288  24.389  1.00  0.00     0.000 C 
BRANCH   7   8
ATOM      8  C   UNL     1     -27.431   0.148  24.780  1.00  0.00     0.004 C 
BRANCH   8   9
ATOM      9  C   UNL     1     -28.085   0.183  26.166  1.00  0.00     0.027 C 
BRANCH   9  10
ATOM     10  C   UNL     1     -29.492   0.708  26.094  1.00  0.00    -0.035 C 
ATOM     11  C   UNL     1     -30.542  -0.046  26.431  1.00  0.00     0.004 C 
ENDBRANCH   9  10
ENDBRANCH   8   9
ENDBRANCH   7   8
ENDBRANCH   1   7
TORSDOF 7
ENDMDL
MODEL 4
REMARK VINA RESULT:    -4.539      1.737      2.925
REMARK INTER + INTRA:          -7.251
REMARK INTER:                  -6.365
REMARK INTRA:                  -0.886
REMARK UNBOUND:                -0.854
REMARK SMILES C=CCCCCCCC(=O)[O-]
REMARK SMILES IDX 6 1 7 2 8 3 9 4 10 5 11 6 5 7 4 8 3 9 2 10 1 11
REMARK H PARENT
REMARK Flexibility Score: inf
ROOT
ATOM      1  C   UNL     1     -29.852   1.117  23.030  1.00  0.00     0.000 C 
ENDROOT
BRANCH   1   2
ATOM      2  C   UNL     1     -28.930   0.362  22.057  1.00  0.00     0.006 C 
BRANCH   2   3
ATOM      3  C   UNL     1     -27.512   0.191  22.618  1.00  0.00     0.053 C 
BRANCH   3   4
ATOM      4  C   UNL     1     -27.301  -1.176  23.193  1.00  0.00     0.041 C 
ATOM      5  O   UNL     1     -28.072  -2.121  22.879  1.00  0.00    -0.550 OA
ATOM      6  O   UNL     1     -26.231  -1.415  24.046  1.00  0.00    -0.550 OA
ENDBRANCH   3   4
ENDBRANCH   2   3
ENDBRANCH   1   2
BRANCH   1   7
ATOM      7  C   UNL     1     -31.097   0.304  23.417  1.00  0.00     0.000 C 
BRANCH   7   8
ATOM      8  C   UNL     1     -30.811  -0.727  24.519  1.00  0.00     0.004 C 
BRANCH   8   9
ATOM      9  C   UNL     1     -30.467  -0.034  25.842  1.00  0.00     0.027 C 
BRANCH   9  10
ATOM     10  C   UNL     1     -29.114  -0.456  26.344  1.00  0.00    -0.035 C 
ATOM     11  C   UNL     1     -28.136   0.428  26.558  1.00  0.00     0.004 C 
ENDBRANCH   9  10
ENDBRANCH   8   9
ENDBRANCH   7   8
ENDBRANCH   1   7
TORSDOF 7
ENDMDL
MODEL 5
REMARK VINA RESULT:    -4.533      1.474      2.073
REMARK INTER + INTRA:          -7.243
REMARK INTER:                  -6.361
REMARK INTRA:                  -0.882
REMARK UNBOUND:                -0.854
REMARK SMILES C=CCCCCCCC(=O)[O-]
REMARK SMILES IDX 6 1 7 2 8 3 9 4 10 5 11 6 5 7 4 8 3 9 2 10 1 11
REMARK H PARENT
REMARK Flexibility Score: inf
ROOT
ATOM      1  C   UNL     1     -27.145  -0.946  23.106  1.00  0.00     0.000 C 
ENDROOT
BRANCH   1   2
ATOM      2  C   UNL     1     -27.146  -0.981  24.644  1.00  0.00     0.006 C 
BRANCH   2   3
ATOM      3  C   UNL     1     -27.549   0.368  25.253  1.00  0.00     0.053 C 
BRANCH   3   4
ATOM      4  C   UNL     1     -28.645   0.218  26.263  1.00  0.00     0.041 C 
ATOM      5  O   UNL     1     -28.632  -0.745  27.074  1.00  0.00    -0.550 OA
ATOM      6  O   UNL     1     -29.661   1.163  26.334  1.00  0.00    -0.550 OA
ENDBRANCH   3   4
ENDBRANCH   2   3
ENDBRANCH   1   2
BRANCH   1   7
ATOM      7  C   UNL     1     -27.822   0.313  22.542  1.00  0.00     0.000 C 
BRANCH   7   8
ATOM      8  C   UNL     1     -29.189   0.015  21.907  1.00  0.00     0.004 C 
BRANCH   8   9
ATOM      9  C   UNL     1     -30.330   0.454  22.832  1.00  0.00     0.027 C 
BRANCH   9  10
ATOM     10  C   UNL     1     -31.241  -0.696  23.159  1.00  0.00    -0.035 C 
ATOM     11  C   UNL     1     -30.827  -1.735  23.890  1.00  0.00     0.004 C 
ENDBRANCH   9  10
ENDBRANCH   8   9
ENDBRANCH   7   8
ENDBRANCH   1   7
TORSDOF 7
ENDMDL
MODEL 6
REMARK VINA RESULT:    -4.513      1.607      3.542
REMARK INTER + INTRA:          -7.214
REMARK INTER:                  -6.373
REMARK INTRA:                  -0.842
REMARK UNBOUND:                -0.854
REMARK SMILES C=CCCCCCCC(=O)[O-]
REMARK SMILES IDX 6 1 7 2 8 3 9 4 10 5 11 6 5 7 4 8 3 9 2 10 1 11
REMARK H PARENT
REMARK Flexibility Score: inf
ROOT
ATOM      1  C   UNL     1     -29.195   1.130  22.444  1.00  0.00     0.000 C 
ENDROOT
BRANCH   1   2
ATOM      2  C   UNL     1     -30.398   0.762  23.329  1.00  0.00     0.006 C 
BRANCH   2   3
ATOM      3  C   UNL     1     -31.279  -0.319  22.689  1.00  0.00     0.053 C 
BRANCH   3   4
ATOM      4  C   UNL     1     -30.622  -1.664  22.722  1.00  0.00     0.041 C 
ATOM      5  O   UNL     1     -30.703  -2.385  23.752  1.00  0.00    -0.550 OA
ATOM      6  O   UNL     1     -29.950  -2.139  21.602  1.00  0.00    -0.550 OA
ENDBRANCH   3   4
ENDBRANCH   2   3
ENDBRANCH   1   2
BRANCH   1   7
ATOM      7  C   UNL     1     -27.853   0.972  23.174  1.00  0.00     0.000 C 
BRANCH   7   8
ATOM      8  C   UNL     1     -27.203  -0.398  22.927  1.00  0.00     0.004 C 
BRANCH   8   9
ATOM      9  C   UNL     1     -27.168  -1.229  24.215  1.00  0.00     0.027 C 
BRANCH   9  10
ATOM     10  C   UNL     1     -27.625  -0.421  25.398  1.00  0.00    -0.035 C 
ATOM     11  C   UNL     1     -28.613  -0.838  26.196  1.00  0.00     0.004 C 
ENDBRANCH   9  10
ENDBRANCH   8   9
ENDBRANCH   7   8
ENDBRANCH   1   7
TORSDOF 7
ENDMDL
MODEL 7
REMARK VINA RESULT:    -4.513      1.867      3.870
REMARK INTER + INTRA:          -7.214
REMARK INTER:                  -6.470
REMARK INTRA:                  -0.744
REMARK UNBOUND:                -0.854
REMARK SMILES C=CCCCCCCC(=O)[O-]
REMARK SMILES IDX 6 1 7 2 8 3 9 4 10 5 11 6 5 7 4 8 3 9 2 10 1 11
REMARK H PARENT
REMARK Flexibility Score: inf
ROOT
ATOM      1  C   UNL     1     -30.617  -1.319  23.245  1.00  0.00     0.000 C 
ENDROOT
BRANCH   1   2
ATOM      2  C   UNL     1     -30.668  -1.124  24.770  1.00  0.00     0.006 C 
BRANCH   2   3
ATOM      3  C   UNL     1     -30.279   0.302  25.185  1.00  0.00     0.053 C 
BRANCH   3   4
ATOM      4  C   UNL     1     -29.717   0.345  26.572  1.00  0.00     0.041 C 
ATOM      5  O   UNL     1     -30.143   1.189  27.403  1.00  0.00    -0.550 OA
ATOM      6  O   UNL     1     -28.747  -0.572  26.959  1.00  0.00    -0.550 OA
ENDBRANCH   3   4
ENDBRANCH   2   3
ENDBRANCH   1   2
BRANCH   1   7
ATOM      7  C   UNL     1     -29.273  -1.888  22.766  1.00  0.00     0.000 C 
BRANCH   7   8
ATOM      8  C   UNL     1     -28.424  -2.449  23.918  1.00  0.00     0.004 C 
BRANCH   8   9
ATOM      9  C   UNL     1     -27.110  -1.671  24.059  1.00  0.00     0.027 C 
BRANCH   9  10
ATOM     10  C   UNL     1     -27.089  -0.466  23.160  1.00  0.00    -0.035 C 
ATOM     11  C   UNL     1     -26.772   0.748  23.618  1.00  0.00     0.004 C 
ENDBRANCH   9  10
ENDBRANCH   8   9
ENDBRANCH   7   8
ENDBRANCH   1   7
TORSDOF 7
ENDMDL
MODEL 8
REMARK VINA RESULT:    -4.509      2.124      4.148
REMARK INTER + INTRA:          -7.208
REMARK INTER:                  -6.262
REMARK INTRA:                  -0.947
REMARK UNBOUND:                -0.854
REMARK SMILES C=CCCCCCCC(=O)[O-]
REMARK SMILES IDX 6 1 7 2 8 3 9 4 10 5 11 6 5 7 4 8 3 9 2 10 1 11
REMARK H PARENT
REMARK Flexibility Score: inf
ROOT
ATOM      1  C   UNL     1     -30.552   0.149  24.247  1.00  0.00     0.000 C 
ENDROOT
BRANCH   1   2
ATOM      2  C   UNL     1     -30.470   0.222  22.713  1.00  0.00     0.006 C 
BRANCH   2   3
ATOM      3  C   UNL     1     -30.465  -1.170  22.067  1.00  0.00     0.053 C 
BRANCH   3   4
ATOM      4  C   UNL     1     -29.337  -1.329  21.095  1.00  0.00     0.041 C 
ATOM      5  O   UNL     1     -28.957  -0.350  20.401  1.00  0.00    -0.550 OA
ATOM      6  O   UNL     1     -28.682  -2.549  20.981  1.00  0.00    -0.550 OA
ENDBRANCH   3   4
ENDBRANCH   2   3
ENDBRANCH   1   2
BRANCH   1   7
ATOM      7  C   UNL     1     -29.988  -1.166  24.808  1.00  0.00     0.000 C 
BRANCH   7   8
ATOM      8  C   UNL     1     -28.523  -1.038  25.255  1.00  0.00     0.004 C 
BRANCH   8   9
ATOM      9  C   UNL     1     -27.601  -1.869  24.355  1.00  0.00     0.027 C 
BRANCH   9  10
ATOM     10  C   UNL     1     -26.617  -0.997  23.626  1.00  0.00    -0.035 C 
ATOM     11  C   UNL     1     -26.796   0.322  23.512  1.00  0.00     0.004 C 
ENDBRANCH   9  10
ENDBRANCH   8   9
ENDBRANCH   7   8
ENDBRANCH   1   7
TORSDOF 7
ENDMDL
MODEL 9
REMARK VINA RESULT:    -4.469      1.492      3.458
REMARK INTER + INTRA:          -7.152
REMARK INTER:                  -6.298
REMARK INTRA:                  -0.854
REMARK UNBOUND:                -0.854
REMARK SMILES C=CCCCCCCC(=O)[O-]
REMARK SMILES IDX 6 1 7 2 8 3 9 4 10 5 11 6 5 7 4 8 3 9 2 10 1 11
REMARK H PARENT
REMARK Flexibility Score: inf
ROOT
ATOM      1  C   UNL     1     -30.309  -1.704  22.858  1.00  0.00     0.000 C 
ENDROOT
BRANCH   1   2
ATOM      2  C   UNL     1     -30.651  -1.546  24.349  1.00  0.00     0.006 C 
BRANCH   2   3
ATOM      3  C   UNL     1     -30.594  -0.082  24.804  1.00  0.00     0.053 C 
BRANCH   3   4
ATOM      4  C   UNL     1     -29.717   0.095  26.005  1.00  0.00     0.041 C 
ATOM      5  O   UNL     1     -29.801   1.139  26.704  1.00  0.00    -0.550 OA
ATOM      6  O   UNL     1     -28.832  -0.910  26.375  1.00  0.00    -0.550 OA
ENDBRANCH   3   4
ENDBRANCH   2   3
ENDBRANCH   1   2
BRANCH   1   7
ATOM      7  C   UNL     1     -29.895  -0.377  22.202  1.00  0.00     0.000 C 
BRANCH   7   8
ATOM      8  C   UNL     1     -28.400  -0.331  21.852  1.00  0.00     0.004 C 
BRANCH   8   9
ATOM      9  C   UNL     1     -27.690   0.786  22.625  1.00  0.00     0.027 C 
BRANCH   9  10
ATOM     10  C   UNL     1     -26.776   0.226  23.679  1.00  0.00    -0.035 C 
ATOM     11  C   UNL     1     -26.472  -1.074  23.728  1.00  0.00     0.004 C 
ENDBRANCH   9  10
ENDBRANCH   8   9
ENDBRANCH   7   8
ENDBRANCH   1   7
TORSDOF 7
ENDMDL
