MODEL 1
REMARK VINA RESULT:    -5.625      0.000      0.000
REMARK INTER + INTRA:          -7.629
REMARK INTER:                  -7.269
REMARK INTRA:                  -0.360
REMARK UNBOUND:                -0.360
REMARK SMILES CCOC(=O)C=Cc1ccc(O)c(O)c1
REMARK SMILES IDX 6 1 7 2 4 3 5 4 3 5 2 6 1 7 8 8 15 9 9 10 13 11 10 12 11 13
REMARK SMILES IDX 14 14 12 16
REMARK H PARENT 14 15 12 17
REMARK Flexibility Score: inf
ROOT
ATOM      1  C   UNL     1      12.338   9.868  10.226  1.00  0.00     0.094 C 
ATOM      2  C   UNL     1      11.633   9.257  11.189  1.00  0.00     0.016 C 
ENDROOT
BRANCH   1   3
ATOM      3  C   UNL     1      12.436  11.334  10.130  1.00  0.00     0.330 C 
ATOM      4  O   UNL     1      12.404  11.911   9.008  1.00  0.00    -0.247 OA
BRANCH   3   5
ATOM      5  O   UNL     1      12.566  12.080  11.304  1.00  0.00    -0.463 OA
BRANCH   5   6
ATOM      6  C   UNL     1      11.538  12.938  11.787  1.00  0.00     0.230 C 
ATOM      7  C   UNL     1      11.031  12.422  13.125  1.00  0.00     0.049 C 
ENDBRANCH   5   6
ENDBRANCH   3   5
ENDBRANCH   1   3
BRANCH   2   8
ATOM      8  C   UNL     1      11.522   7.783  11.322  1.00  0.00    -0.021 A 
ATOM      9  C   UNL     1      12.149   6.971  10.363  1.00  0.00     0.058 A 
ATOM     10  C   UNL     1      10.841   7.168  12.392  1.00  0.00     0.012 A 
ATOM     11  C   UNL     1      12.080   5.574  10.451  1.00  0.00     0.157 A 
ATOM     12  C   UNL     1      10.772   5.775  12.480  1.00  0.00     0.051 A 
ATOM     13  C   UNL     1      11.388   4.975  11.510  1.00  0.00     0.157 A 
BRANCH  11  14
ATOM     14  O   UNL     1      12.697   4.775   9.490  1.00  0.00    -0.504 OA
ATOM     15  H   UNL     1      13.449   4.140   9.731  1.00  0.00     0.293 HD
ENDBRANCH  11  14
BRANCH  13  16
ATOM     16  O   UNL     1      11.321   3.585  11.594  1.00  0.00    -0.504 OA
ATOM     17  H   UNL     1      11.298   3.109  12.488  1.00  0.00     0.293 HD
ENDBRANCH  13  16
ENDBRANCH   2   8
TORSDOF 6
ENDMDL
MODEL 2
REMARK VINA RESULT:    -5.513      1.227      1.973
REMARK INTER + INTRA:          -7.484
REMARK INTER:                  -7.094
REMARK INTRA:                  -0.390
REMARK UNBOUND:                -0.360
REMARK SMILES CCOC(=O)C=Cc1ccc(O)c(O)c1
REMARK SMILES IDX 6 1 7 2 4 3 5 4 3 5 2 6 1 7 8 8 15 9 9 10 13 11 10 12 11 13
REMARK SMILES IDX 14 14 12 16
REMARK H PARENT 14 15 12 17
REMARK Flexibility Score: inf
ROOT
ATOM      1  C   UNL     1      12.020  10.812  11.735  1.00  0.00     0.094 C 
ATOM      2  C   UNL     1      11.912   9.872  10.786  1.00  0.00     0.016 C 
ENDROOT
BRANCH   1   3
ATOM      3  C   UNL     1      12.219  12.236  11.416  1.00  0.00     0.330 C 
ATOM      4  O   UNL     1      12.901  12.979  12.175  1.00  0.00    -0.247 OA
BRANCH   3   5
ATOM      5  O   UNL     1      11.637  12.755  10.256  1.00  0.00    -0.463 OA
BRANCH   5   6
ATOM      6  C   UNL     1      12.371  13.518   9.304  1.00  0.00     0.230 C 
ATOM      7  C   UNL     1      13.056  12.580   8.321  1.00  0.00     0.049 C 
ENDBRANCH   5   6
ENDBRANCH   3   5
ENDBRANCH   1   3
BRANCH   2   8
ATOM      8  C   UNL     1      11.701   8.431  11.071  1.00  0.00    -0.021 A 
ATOM      9  C   UNL     1      12.253   7.483  10.193  1.00  0.00     0.058 A 
ATOM     10  C   UNL     1      10.998   7.979  12.206  1.00  0.00     0.012 A 
ATOM     11  C   UNL     1      12.088   6.111  10.426  1.00  0.00     0.157 A 
ATOM     12  C   UNL     1      10.834   6.610  12.437  1.00  0.00     0.051 A 
ATOM     13  C   UNL     1      11.375   5.674  11.548  1.00  0.00     0.157 A 
BRANCH  11  14
ATOM     14  O   UNL     1      12.630   5.176   9.546  1.00  0.00    -0.504 OA
ATOM     15  H   UNL     1      13.262   5.451   8.802  1.00  0.00     0.293 HD
ENDBRANCH  11  14
BRANCH  13  16
ATOM     16  O   UNL     1      11.213   4.308  11.775  1.00  0.00    -0.504 OA
ATOM     17  H   UNL     1      10.500   3.772  11.294  1.00  0.00     0.293 HD
ENDBRANCH  13  16
ENDBRANCH   2   8
TORSDOF 6
ENDMDL
MODEL 3
REMARK VINA RESULT:    -5.392      1.498      6.409
REMARK INTER + INTRA:          -7.329
REMARK INTER:                  -7.068
REMARK INTRA:                  -0.261
REMARK UNBOUND:                -0.360
REMARK SMILES CCOC(=O)C=Cc1ccc(O)c(O)c1
REMARK SMILES IDX 6 1 7 2 4 3 5 4 3 5 2 6 1 7 8 8 15 9 9 10 13 11 10 12 11 13
REMARK SMILES IDX 14 14 12 16
REMARK H PARENT 14 15 12 17
REMARK Flexibility Score: inf
ROOT
ATOM      1  C   UNL     1      11.856   7.191  10.725  1.00  0.00     0.094 C 
ATOM      2  C   UNL     1      11.293   8.189  11.421  1.00  0.00     0.016 C 
ENDROOT
BRANCH   1   3
ATOM      3  C   UNL     1      11.452   5.786  10.896  1.00  0.00     0.330 C 
ATOM      4  O   UNL     1      12.319   4.875  11.013  1.00  0.00    -0.247 OA
BRANCH   3   5
ATOM      5  O   UNL     1      10.091   5.472  10.925  1.00  0.00    -0.463 OA
BRANCH   5   6
ATOM      6  C   UNL     1       9.555   4.316  10.291  1.00  0.00     0.230 C 
ATOM      7  C   UNL     1       9.794   4.401   8.791  1.00  0.00     0.049 C 
ENDBRANCH   5   6
ENDBRANCH   3   5
ENDBRANCH   1   3
BRANCH   2   8
ATOM      8  C   UNL     1      11.667   9.617  11.266  1.00  0.00    -0.021 A 
ATOM      9  C   UNL     1      12.380  10.005  10.119  1.00  0.00     0.058 A 
ATOM     10  C   UNL     1      11.304  10.601  12.206  1.00  0.00     0.012 A 
ATOM     11  C   UNL     1      12.747  11.344   9.924  1.00  0.00     0.157 A 
ATOM     12  C   UNL     1      11.671  11.936  12.011  1.00  0.00     0.051 A 
ATOM     13  C   UNL     1      12.394  12.310  10.873  1.00  0.00     0.157 A 
BRANCH  11  14
ATOM     14  O   UNL     1      13.463  11.721   8.788  1.00  0.00    -0.504 OA
ATOM     15  H   UNL     1      14.027  12.563   8.771  1.00  0.00     0.293 HD
ENDBRANCH  11  14
BRANCH  13  16
ATOM     16  O   UNL     1      12.762  13.641  10.675  1.00  0.00    -0.504 OA
ATOM     17  H   UNL     1      13.723  13.901  10.485  1.00  0.00     0.293 HD
ENDBRANCH  13  16
ENDBRANCH   2   8
TORSDOF 6
ENDMDL
MODEL 4
REMARK VINA RESULT:    -5.276      1.497      6.382
REMARK INTER + INTRA:          -7.179
REMARK INTER:                  -6.803
REMARK INTRA:                  -0.376
REMARK UNBOUND:                -0.360
REMARK SMILES CCOC(=O)C=Cc1ccc(O)c(O)c1
REMARK SMILES IDX 6 1 7 2 4 3 5 4 3 5 2 6 1 7 8 8 15 9 9 10 13 11 10 12 11 13
REMARK SMILES IDX 14 14 12 16
REMARK H PARENT 14 15 12 17
REMARK Flexibility Score: inf
ROOT
ATOM      1  C   UNL     1      11.567   7.257  11.108  1.00  0.00     0.094 C 
ATOM      2  C   UNL     1      11.323   8.386  11.786  1.00  0.00     0.016 C 
ENDROOT
BRANCH   1   3
ATOM      3  C   UNL     1      11.154   5.934  11.604  1.00  0.00     0.330 C 
ATOM      4  O   UNL     1      11.727   4.884  11.199  1.00  0.00    -0.247 OA
BRANCH   3   5
ATOM      5  O   UNL     1      10.113   5.856  12.533  1.00  0.00    -0.463 OA
BRANCH   5   6
ATOM      6  C   UNL     1      10.304   5.387  13.864  1.00  0.00     0.230 C 
ATOM      7  C   UNL     1      10.293   6.565  14.826  1.00  0.00     0.049 C 
ENDBRANCH   5   6
ENDBRANCH   3   5
ENDBRANCH   1   3
BRANCH   2   8
ATOM      8  C   UNL     1      11.715   9.737  11.310  1.00  0.00    -0.021 A 
ATOM      9  C   UNL     1      11.564  10.827  12.182  1.00  0.00     0.058 A 
ATOM     10  C   UNL     1      12.265   9.959  10.032  1.00  0.00     0.012 A 
ATOM     11  C   UNL     1      11.929  12.120  11.782  1.00  0.00     0.157 A 
ATOM     12  C   UNL     1      12.629  11.248   9.633  1.00  0.00     0.051 A 
ATOM     13  C   UNL     1      12.460  12.331  10.504  1.00  0.00     0.157 A 
BRANCH  11  14
ATOM     14  O   UNL     1      11.768  13.200  12.649  1.00  0.00    -0.504 OA
ATOM     15  H   UNL     1      11.044  13.894  12.503  1.00  0.00     0.293 HD
ENDBRANCH  11  14
BRANCH  13  16
ATOM     16  O   UNL     1      12.821  13.619  10.109  1.00  0.00    -0.504 OA
ATOM     17  H   UNL     1      13.313  14.246  10.734  1.00  0.00     0.293 HD
ENDBRANCH  13  16
ENDBRANCH   2   8
TORSDOF 6
ENDMDL
MODEL 5
REMARK VINA RESULT:    -5.273      1.857      2.769
REMARK INTER + INTRA:          -7.174
REMARK INTER:                  -6.980
REMARK INTRA:                  -0.194
REMARK UNBOUND:                -0.360
REMARK SMILES CCOC(=O)C=Cc1ccc(O)c(O)c1
REMARK SMILES IDX 6 1 7 2 4 3 5 4 3 5 2 6 1 7 8 8 15 9 9 10 13 11 10 12 11 13
REMARK SMILES IDX 14 14 12 16
REMARK H PARENT 14 15 12 17
REMARK Flexibility Score: inf
ROOT
ATOM      1  C   UNL     1      12.037   8.224  10.195  1.00  0.00     0.094 C 
ATOM      2  C   UNL     1      11.637   7.218  10.986  1.00  0.00     0.016 C 
ENDROOT
BRANCH   1   3
ATOM      3  C   UNL     1      12.007   9.630  10.631  1.00  0.00     0.330 C 
ATOM      4  O   UNL     1      11.333   9.979  11.640  1.00  0.00    -0.247 OA
BRANCH   3   5
ATOM      5  O   UNL     1      12.736  10.577   9.907  1.00  0.00    -0.463 OA
BRANCH   5   6
ATOM      6  C   UNL     1      12.362  11.949   9.843  1.00  0.00     0.230 C 
ATOM      7  C   UNL     1      12.836  12.545   8.526  1.00  0.00     0.049 C 
ENDBRANCH   5   6
ENDBRANCH   3   5
ENDBRANCH   1   3
BRANCH   2   8
ATOM      8  C   UNL     1      11.664   5.790  10.583  1.00  0.00    -0.021 A 
ATOM      9  C   UNL     1      12.744   4.994  11.001  1.00  0.00     0.058 A 
ATOM     10  C   UNL     1      10.633   5.196   9.829  1.00  0.00     0.012 A 
ATOM     11  C   UNL     1      12.809   3.637  10.654  1.00  0.00     0.157 A 
ATOM     12  C   UNL     1      10.699   3.844   9.483  1.00  0.00     0.051 A 
ATOM     13  C   UNL     1      11.786   3.062   9.891  1.00  0.00     0.157 A 
BRANCH  11  14
ATOM     14  O   UNL     1      13.888   2.855  11.064  1.00  0.00    -0.504 OA
ATOM     15  H   UNL     1      14.090   2.703  12.045  1.00  0.00     0.293 HD
ENDBRANCH  11  14
BRANCH  13  16
ATOM     16  O   UNL     1      11.856   1.713   9.547  1.00  0.00    -0.504 OA
ATOM     17  H   UNL     1      12.425   1.060  10.074  1.00  0.00     0.293 HD
ENDBRANCH  13  16
ENDBRANCH   2   8
TORSDOF 6
ENDMDL
MODEL 6
REMARK VINA RESULT:    -5.255      1.456      6.723
REMARK INTER + INTRA:          -7.151
REMARK INTER:                  -6.893
REMARK INTRA:                  -0.258
REMARK UNBOUND:                -0.360
REMARK SMILES CCOC(=O)C=Cc1ccc(O)c(O)c1
REMARK SMILES IDX 6 1 7 2 4 3 5 4 3 5 2 6 1 7 8 8 15 9 9 10 13 11 10 12 11 13
REMARK SMILES IDX 14 14 12 16
REMARK H PARENT 14 15 12 17
REMARK Flexibility Score: inf
ROOT
ATOM      1  C   UNL     1      11.747   6.917  10.640  1.00  0.00     0.094 C 
ATOM      2  C   UNL     1      11.285   7.941  11.371  1.00  0.00     0.016 C 
ENDROOT
BRANCH   1   3
ATOM      3  C   UNL     1      11.337   5.524  10.886  1.00  0.00     0.330 C 
ATOM      4  O   UNL     1      10.320   5.040  10.316  1.00  0.00    -0.247 OA
BRANCH   3   5
ATOM      5  O   UNL     1      12.094   4.743  11.764  1.00  0.00    -0.463 OA
BRANCH   5   6
ATOM      6  C   UNL     1      13.243   4.014  11.347  1.00  0.00     0.230 C 
ATOM      7  C   UNL     1      12.839   2.596  10.975  1.00  0.00     0.049 C 
ENDBRANCH   5   6
ENDBRANCH   3   5
ENDBRANCH   1   3
BRANCH   2   8
ATOM      8  C   UNL     1      11.668   9.357  11.144  1.00  0.00    -0.021 A 
ATOM      9  C   UNL     1      11.379  10.300  12.144  1.00  0.00     0.058 A 
ATOM     10  C   UNL     1      12.339   9.782   9.981  1.00  0.00     0.012 A 
ATOM     11  C   UNL     1      11.729  11.648  11.979  1.00  0.00     0.157 A 
ATOM     12  C   UNL     1      12.688  11.126   9.817  1.00  0.00     0.051 A 
ATOM     13  C   UNL     1      12.382  12.061  10.813  1.00  0.00     0.157 A 
BRANCH  11  14
ATOM     14  O   UNL     1      11.431  12.580  12.971  1.00  0.00    -0.504 OA
ATOM     15  H   UNL     1      11.584  13.572  12.830  1.00  0.00     0.293 HD
ENDBRANCH  11  14
BRANCH  13  16
ATOM     16  O   UNL     1      12.728  13.403  10.652  1.00  0.00    -0.504 OA
ATOM     17  H   UNL     1      13.467  13.828  11.200  1.00  0.00     0.293 HD
ENDBRANCH  13  16
ENDBRANCH   2   8
TORSDOF 6
ENDMDL
MODEL 7
REMARK VINA RESULT:    -5.253      1.678      6.688
REMARK INTER + INTRA:          -7.149
REMARK INTER:                  -6.927
REMARK INTRA:                  -0.222
REMARK UNBOUND:                -0.360
REMARK SMILES CCOC(=O)C=Cc1ccc(O)c(O)c1
REMARK SMILES IDX 6 1 7 2 4 3 5 4 3 5 2 6 1 7 8 8 15 9 9 10 13 11 10 12 11 13
REMARK SMILES IDX 14 14 12 16
REMARK H PARENT 14 15 12 17
REMARK Flexibility Score: inf
ROOT
ATOM      1  C   UNL     1      11.618   7.230  10.942  1.00  0.00     0.094 C 
ATOM      2  C   UNL     1      12.013   8.265  10.189  1.00  0.00     0.016 C 
ENDROOT
BRANCH   1   3
ATOM      3  C   UNL     1      11.685   5.838  10.466  1.00  0.00     0.330 C 
ATOM      4  O   UNL     1      12.799   5.274  10.278  1.00  0.00    -0.247 OA
BRANCH   3   5
ATOM      5  O   UNL     1      10.494   5.148  10.224  1.00  0.00    -0.463 OA
BRANCH   5   6
ATOM      6  C   UNL     1      10.249   4.441   9.013  1.00  0.00     0.230 C 
ATOM      7  C   UNL     1      10.396   2.947   9.257  1.00  0.00     0.049 C 
ENDBRANCH   5   6
ENDBRANCH   3   5
ENDBRANCH   1   3
BRANCH   2   8
ATOM      8  C   UNL     1      11.969   9.679  10.640  1.00  0.00    -0.021 A 
ATOM      9  C   UNL     1      11.461   9.962  11.918  1.00  0.00     0.058 A 
ATOM     10  C   UNL     1      12.449  10.742   9.848  1.00  0.00     0.012 A 
ATOM     11  C   UNL     1      11.407  11.280  12.392  1.00  0.00     0.157 A 
ATOM     12  C   UNL     1      12.396  12.056  10.321  1.00  0.00     0.051 A 
ATOM     13  C   UNL     1      11.873  12.329  11.591  1.00  0.00     0.157 A 
BRANCH  11  14
ATOM     14  O   UNL     1      10.893  11.554  13.658  1.00  0.00    -0.504 OA
ATOM     15  H   UNL     1      11.471  11.498  14.489  1.00  0.00     0.293 HD
ENDBRANCH  11  14
BRANCH  13  16
ATOM     16  O   UNL     1      11.818  13.639  12.066  1.00  0.00    -0.504 OA
ATOM     17  H   UNL     1      12.641  14.108  12.423  1.00  0.00     0.293 HD
ENDBRANCH  13  16
ENDBRANCH   2   8
TORSDOF 6
ENDMDL
MODEL 8
REMARK VINA RESULT:    -4.969      0.976      1.886
REMARK INTER + INTRA:          -6.782
REMARK INTER:                  -6.548
REMARK INTRA:                  -0.234
REMARK UNBOUND:                -0.360
REMARK SMILES CCOC(=O)C=Cc1ccc(O)c(O)c1
REMARK SMILES IDX 6 1 7 2 4 3 5 4 3 5 2 6 1 7 8 8 15 9 9 10 13 11 10 12 11 13
REMARK SMILES IDX 14 14 12 16
REMARK H PARENT 14 15 12 17
REMARK Flexibility Score: inf
ROOT
ATOM      1  C   UNL     1      12.254   9.778  10.165  1.00  0.00     0.094 C 
ATOM      2  C   UNL     1      11.654   9.172  11.200  1.00  0.00     0.016 C 
ENDROOT
BRANCH   1   3
ATOM      3  C   UNL     1      12.380  11.242  10.074  1.00  0.00     0.330 C 
ATOM      4  O   UNL     1      12.556  11.807   8.959  1.00  0.00    -0.247 OA
BRANCH   3   5
ATOM      5  O   UNL     1      12.303  12.000  11.246  1.00  0.00    -0.463 OA
BRANCH   5   6
ATOM      6  C   UNL     1      11.903  13.366  11.252  1.00  0.00     0.230 C 
ATOM      7  C   UNL     1      12.039  13.930  12.658  1.00  0.00     0.049 C 
ENDBRANCH   5   6
ENDBRANCH   3   5
ENDBRANCH   1   3
BRANCH   2   8
ATOM      8  C   UNL     1      11.519   7.699  11.329  1.00  0.00    -0.021 A 
ATOM      9  C   UNL     1      10.819   7.182  12.432  1.00  0.00     0.058 A 
ATOM     10  C   UNL     1      12.035   6.805  10.370  1.00  0.00     0.012 A 
ATOM     11  C   UNL     1      10.658   5.799  12.592  1.00  0.00     0.157 A 
ATOM     12  C   UNL     1      11.873   5.426  10.531  1.00  0.00     0.051 A 
ATOM     13  C   UNL     1      11.188   4.919  11.641  1.00  0.00     0.157 A 
BRANCH  11  14
ATOM     14  O   UNL     1       9.970   5.292  13.694  1.00  0.00    -0.504 OA
ATOM     15  H   UNL     1      10.144   5.636  14.631  1.00  0.00     0.293 HD
ENDBRANCH  11  14
BRANCH  13  16
ATOM     16  O   UNL     1      11.025   3.544  11.805  1.00  0.00    -0.504 OA
ATOM     17  H   UNL     1      11.290   3.078  12.665  1.00  0.00     0.293 HD
ENDBRANCH  13  16
ENDBRANCH   2   8
TORSDOF 6
ENDMDL
MODEL 9
REMARK VINA RESULT:    -4.881      3.194      7.545
REMARK INTER + INTRA:          -6.668
REMARK INTER:                  -6.324
REMARK INTRA:                  -0.344
REMARK UNBOUND:                -0.360
REMARK SMILES CCOC(=O)C=Cc1ccc(O)c(O)c1
REMARK SMILES IDX 6 1 7 2 4 3 5 4 3 5 2 6 1 7 8 8 15 9 9 10 13 11 10 12 11 13
REMARK SMILES IDX 14 14 12 16
REMARK H PARENT 14 15 12 17
REMARK Flexibility Score: inf
ROOT
ATOM      1  C   UNL     1      12.825   2.599  12.097  1.00  0.00     0.094 C 
ATOM      2  C   UNL     1      11.704   3.333  12.141  1.00  0.00     0.016 C 
ENDROOT
BRANCH   1   3
ATOM      3  C   UNL     1      12.850   1.175  12.473  1.00  0.00     0.330 C 
ATOM      4  O   UNL     1      12.263   0.310  11.765  1.00  0.00    -0.247 OA
BRANCH   3   5
ATOM      5  O   UNL     1      13.534   0.795  13.631  1.00  0.00    -0.463 OA
BRANCH   5   6
ATOM      6  C   UNL     1      13.098   1.160  14.936  1.00  0.00     0.230 C 
ATOM      7  C   UNL     1      14.076   2.158  15.538  1.00  0.00     0.049 C 
ENDBRANCH   5   6
ENDBRANCH   3   5
ENDBRANCH   1   3
BRANCH   2   8
ATOM      8  C   UNL     1      11.641   4.766  11.759  1.00  0.00    -0.021 A 
ATOM      9  C   UNL     1      11.108   5.684  12.679  1.00  0.00     0.058 A 
ATOM     10  C   UNL     1      12.126   5.243  10.525  1.00  0.00     0.012 A 
ATOM     11  C   UNL     1      11.035   7.049  12.367  1.00  0.00     0.157 A 
ATOM     12  C   UNL     1      12.053   6.604  10.215  1.00  0.00     0.051 A 
ATOM     13  C   UNL     1      11.506   7.509  11.132  1.00  0.00     0.157 A 
BRANCH  11  14
ATOM     14  O   UNL     1      10.497   7.954  13.281  1.00  0.00    -0.504 OA
ATOM     15  H   UNL     1      11.077   8.426  13.965  1.00  0.00     0.293 HD
ENDBRANCH  11  14
BRANCH  13  16
ATOM     16  O   UNL     1      11.432   8.867  10.825  1.00  0.00    -0.504 OA
ATOM     17  H   UNL     1      10.569   9.291  10.505  1.00  0.00     0.293 HD
ENDBRANCH  13  16
ENDBRANCH   2   8
TORSDOF 6
ENDMDL
