MODEL 1
REMARK VINA RESULT:    -5.042      0.000      0.000
REMARK INTER + INTRA:          -8.902
REMARK INTER:                  -7.695
REMARK INTRA:                  -1.207
REMARK UNBOUND:                -1.207
REMARK SMILES CCCCCCCCCCC(=O)[O-]
REMARK SMILES IDX 7 1 8 2 9 3 10 4 11 5 12 6 13 7 6 8 5 9 4 10 3 11 2 12 1 13
REMARK H PARENT
REMARK Flexibility Score: inf
ROOT
ATOM      1  C   UNL     1     -98.401 -61.889 -64.116  1.00  0.00     0.000 C 
ENDROOT
BRANCH   1   2
ATOM      2  C   UNL     1     -97.270 -60.902 -64.445  1.00  0.00     0.000 C 
BRANCH   2   3
ATOM      3  C   UNL     1     -96.135 -61.551 -65.255  1.00  0.00     0.006 C 
BRANCH   3   4
ATOM      4  C   UNL     1     -96.161 -61.126 -66.729  1.00  0.00     0.053 C 
BRANCH   4   5
ATOM      5  C   UNL     1     -94.814 -61.260 -67.371  1.00  0.00     0.041 C 
ATOM      6  O   UNL     1     -93.775 -60.925 -66.742  1.00  0.00    -0.550 OA
ATOM      7  O   UNL     1     -94.704 -61.781 -68.654  1.00  0.00    -0.550 OA
ENDBRANCH   4   5
ENDBRANCH   3   4
ENDBRANCH   2   3
ENDBRANCH   1   2
BRANCH   1   8
ATOM      8  C   UNL     1     -99.756 -61.454 -64.695  1.00  0.00     0.000 C 
BRANCH   8   9
ATOM      9  C   UNL     1     -99.957 -62.019 -66.106  1.00  0.00    -0.000 C 
BRANCH   9  10
ATOM     10  C   UNL     1    -100.375 -60.913 -67.087  1.00  0.00    -0.000 C 
BRANCH  10  11
ATOM     11  C   UNL     1    -100.044 -59.506 -66.568  1.00  0.00    -0.000 C 
BRANCH  11  12
ATOM     12  C   UNL     1     -98.960 -58.806 -67.403  1.00  0.00    -0.003 C 
ATOM     13  C   UNL     1     -98.067 -57.935 -66.525  1.00  0.00     0.004 C 
ENDBRANCH  11  12
ENDBRANCH  10  11
ENDBRANCH   9  10
ENDBRANCH   8   9
ENDBRANCH   1   8
TORSDOF 9
ENDMDL
MODEL 2
REMARK VINA RESULT:    -4.974      2.789      4.153
REMARK INTER + INTRA:          -8.798
REMARK INTER:                  -7.484
REMARK INTRA:                  -1.314
REMARK UNBOUND:                -1.207
REMARK SMILES CCCCCCCCCCC(=O)[O-]
REMARK SMILES IDX 7 1 8 2 9 3 10 4 11 5 12 6 13 7 6 8 5 9 4 10 3 11 2 12 1 13
REMARK H PARENT
REMARK Flexibility Score: inf
ROOT
ATOM      1  C   UNL     1     -97.375 -61.038 -64.215  1.00  0.00     0.000 C 
ENDROOT
BRANCH   1   2
ATOM      2  C   UNL     1     -98.652 -61.887 -64.105  1.00  0.00     0.000 C 
BRANCH   2   3
ATOM      3  C   UNL     1     -99.725 -61.477 -65.128  1.00  0.00     0.006 C 
BRANCH   3   4
ATOM      4  C   UNL     1     -99.826 -62.474 -66.290  1.00  0.00     0.053 C 
BRANCH   4   5
ATOM      5  C   UNL     1    -100.705 -61.960 -67.389  1.00  0.00     0.041 C 
ATOM      6  O   UNL     1    -101.399 -60.924 -67.214  1.00  0.00    -0.550 OA
ATOM      7  O   UNL     1    -100.737 -62.611 -68.616  1.00  0.00    -0.550 OA
ENDBRANCH   4   5
ENDBRANCH   3   4
ENDBRANCH   2   3
ENDBRANCH   1   2
BRANCH   1   8
ATOM      8  C   UNL     1     -96.269 -61.731 -65.024  1.00  0.00     0.000 C 
BRANCH   8   9
ATOM      9  C   UNL     1     -95.770 -60.828 -66.158  1.00  0.00    -0.000 C 
BRANCH   9  10
ATOM     10  C   UNL     1     -96.379 -61.247 -67.505  1.00  0.00    -0.000 C 
BRANCH  10  11
ATOM     11  C   UNL     1     -97.457 -60.270 -67.997  1.00  0.00    -0.000 C 
BRANCH  11  12
ATOM     12  C   UNL     1     -97.554 -59.008 -67.127  1.00  0.00    -0.003 C 
ATOM     13  C   UNL     1     -98.977 -58.458 -67.111  1.00  0.00     0.004 C 
ENDBRANCH  11  12
ENDBRANCH  10  11
ENDBRANCH   9  10
ENDBRANCH   8   9
ENDBRANCH   1   8
TORSDOF 9
ENDMDL
MODEL 3
REMARK VINA RESULT:    -4.795      3.102      4.651
REMARK INTER + INTRA:          -8.525
REMARK INTER:                  -7.579
REMARK INTRA:                  -0.946
REMARK UNBOUND:                -1.207
REMARK SMILES CCCCCCCCCCC(=O)[O-]
REMARK SMILES IDX 7 1 8 2 9 3 10 4 11 5 12 6 13 7 6 8 5 9 4 10 3 11 2 12 1 13
REMARK H PARENT
REMARK Flexibility Score: inf
ROOT
ATOM      1  C   UNL     1     -97.990 -61.744 -64.136  1.00  0.00     0.000 C 
ENDROOT
BRANCH   1   2
ATOM      2  C   UNL     1     -99.463 -61.847 -64.563  1.00  0.00     0.000 C 
BRANCH   2   3
ATOM      3  C   UNL     1     -99.626 -62.303 -66.023  1.00  0.00     0.006 C 
BRANCH   3   4
ATOM      4  C   UNL     1    -100.747 -61.543 -66.744  1.00  0.00     0.053 C 
BRANCH   4   5
ATOM      5  C   UNL     1    -100.827 -60.115 -66.298  1.00  0.00     0.041 C 
ATOM      6  O   UNL     1    -100.006 -59.266 -66.736  1.00  0.00    -0.550 OA
ATOM      7  O   UNL     1    -101.825 -59.715 -65.418  1.00  0.00    -0.550 OA
ENDBRANCH   4   5
ENDBRANCH   3   4
ENDBRANCH   2   3
ENDBRANCH   1   2
BRANCH   1   8
ATOM      8  C   UNL     1     -97.189 -60.758 -65.000  1.00  0.00     0.000 C 
BRANCH   8   9
ATOM      9  C   UNL     1     -95.903 -61.407 -65.525  1.00  0.00    -0.000 C 
BRANCH   9  10
ATOM     10  C   UNL     1     -95.661 -61.039 -66.997  1.00  0.00    -0.000 C 
BRANCH  10  11
ATOM     11  C   UNL     1     -96.924 -60.499 -67.686  1.00  0.00    -0.000 C 
BRANCH  11  12
ATOM     12  C   UNL     1     -97.389 -61.386 -68.850  1.00  0.00    -0.003 C 
ATOM     13  C   UNL     1     -96.541 -61.147 -70.097  1.00  0.00     0.004 C 
ENDBRANCH  11  12
ENDBRANCH  10  11
ENDBRANCH   9  10
ENDBRANCH   8   9
ENDBRANCH   1   8
TORSDOF 9
ENDMDL
MODEL 4
REMARK VINA RESULT:    -4.781      2.994      4.938
REMARK INTER + INTRA:          -8.503
REMARK INTER:                  -7.428
REMARK INTRA:                  -1.076
REMARK UNBOUND:                -1.207
REMARK SMILES CCCCCCCCCCC(=O)[O-]
REMARK SMILES IDX 7 1 8 2 9 3 10 4 11 5 12 6 13 7 6 8 5 9 4 10 3 11 2 12 1 13
REMARK H PARENT
REMARK Flexibility Score: inf
ROOT
ATOM      1  C   UNL     1     -97.506 -61.658 -64.806  1.00  0.00     0.000 C 
ENDROOT
BRANCH   1   2
ATOM      2  C   UNL     1     -98.857 -61.656 -64.071  1.00  0.00     0.000 C 
BRANCH   2   3
ATOM      3  C   UNL     1     -99.983 -62.292 -64.903  1.00  0.00     0.006 C 
BRANCH   3   4
ATOM      4  C   UNL     1    -100.169 -61.590 -66.255  1.00  0.00     0.053 C 
BRANCH   4   5
ATOM      5  C   UNL     1    -100.687 -60.194 -66.090  1.00  0.00     0.041 C 
ATOM      6  O   UNL     1    -100.078 -59.225 -66.616  1.00  0.00    -0.550 OA
ATOM      7  O   UNL     1    -101.858 -59.966 -65.378  1.00  0.00    -0.550 OA
ENDBRANCH   4   5
ENDBRANCH   3   4
ENDBRANCH   2   3
ENDBRANCH   1   2
BRANCH   1   8
ATOM      8  C   UNL     1     -96.888 -60.256 -64.916  1.00  0.00     0.000 C 
BRANCH   8   9
ATOM      9  C   UNL     1     -96.669 -59.866 -66.383  1.00  0.00    -0.000 C 
BRANCH   9  10
ATOM     10  C   UNL     1     -96.604 -61.112 -67.279  1.00  0.00    -0.000 C 
BRANCH  10  11
ATOM     11  C   UNL     1     -95.199 -61.359 -67.850  1.00  0.00    -0.000 C 
BRANCH  11  12
ATOM     12  C   UNL     1     -94.256 -62.023 -66.836  1.00  0.00    -0.003 C 
ATOM     13  C   UNL     1     -93.110 -61.090 -66.457  1.00  0.00     0.004 C 
ENDBRANCH  11  12
ENDBRANCH  10  11
ENDBRANCH   9  10
ENDBRANCH   8   9
ENDBRANCH   1   8
TORSDOF 9
ENDMDL
MODEL 5
REMARK VINA RESULT:    -4.723      1.107      2.674
REMARK INTER + INTRA:          -8.415
REMARK INTER:                  -7.212
REMARK INTRA:                  -1.204
REMARK UNBOUND:                -1.207
REMARK SMILES CCCCCCCCCCC(=O)[O-]
REMARK SMILES IDX 7 1 8 2 9 3 10 4 11 5 12 6 13 7 6 8 5 9 4 10 3 11 2 12 1 13
REMARK H PARENT
REMARK Flexibility Score: inf
ROOT
ATOM      1  C   UNL     1     -97.056 -59.011 -66.360  1.00  0.00     0.000 C 
ENDROOT
BRANCH   1   2
ATOM      2  C   UNL     1     -96.824 -60.047 -65.248  1.00  0.00     0.000 C 
BRANCH   2   3
ATOM      3  C   UNL     1     -96.116 -61.314 -65.759  1.00  0.00     0.006 C 
BRANCH   3   4
ATOM      4  C   UNL     1     -94.806 -60.989 -66.490  1.00  0.00     0.053 C 
BRANCH   4   5
ATOM      5  C   UNL     1     -94.669 -61.771 -67.760  1.00  0.00     0.041 C 
ATOM      6  O   UNL     1     -93.861 -62.734 -67.829  1.00  0.00    -0.550 OA
ATOM      7  O   UNL     1     -95.455 -61.453 -68.861  1.00  0.00    -0.550 OA
ENDBRANCH   4   5
ENDBRANCH   3   4
ENDBRANCH   2   3
ENDBRANCH   1   2
BRANCH   1   8
ATOM      8  C   UNL     1     -98.079 -59.481 -67.405  1.00  0.00     0.000 C 
BRANCH   8   9
ATOM      9  C   UNL     1     -99.486 -58.979 -67.062  1.00  0.00    -0.000 C 
BRANCH   9  10
ATOM     10  C   UNL     1    -100.407 -60.145 -66.672  1.00  0.00    -0.000 C 
BRANCH  10  11
ATOM     11  C   UNL     1     -99.788 -61.517 -66.983  1.00  0.00    -0.000 C 
BRANCH  11  12
ATOM     12  C   UNL     1     -99.771 -62.448 -65.762  1.00  0.00    -0.003 C 
ATOM     13  C   UNL     1    -100.086 -61.682 -64.481  1.00  0.00     0.004 C 
ENDBRANCH  11  12
ENDBRANCH  10  11
ENDBRANCH   9  10
ENDBRANCH   8   9
ENDBRANCH   1   8
TORSDOF 9
ENDMDL
MODEL 6
REMARK VINA RESULT:    -4.715      2.642      4.777
REMARK INTER + INTRA:          -8.403
REMARK INTER:                  -7.397
REMARK INTRA:                  -1.005
REMARK UNBOUND:                -1.207
REMARK SMILES CCCCCCCCCCC(=O)[O-]
REMARK SMILES IDX 7 1 8 2 9 3 10 4 11 5 12 6 13 7 6 8 5 9 4 10 3 11 2 12 1 13
REMARK H PARENT
REMARK Flexibility Score: inf
ROOT
ATOM      1  C   UNL     1     -99.427 -58.932 -67.369  1.00  0.00     0.000 C 
ENDROOT
BRANCH   1   2
ATOM      2  C   UNL     1    -100.383 -59.622 -66.382  1.00  0.00     0.000 C 
BRANCH   2   3
ATOM      3  C   UNL     1    -100.793 -61.031 -66.843  1.00  0.00     0.006 C 
BRANCH   3   4
ATOM      4  C   UNL     1     -99.724 -62.081 -66.510  1.00  0.00     0.053 C 
BRANCH   4   5
ATOM      5  C   UNL     1     -99.433 -62.131 -65.041  1.00  0.00     0.041 C 
ATOM      6  O   UNL     1     -98.275 -61.877 -64.615  1.00  0.00    -0.550 OA
ATOM      7  O   UNL     1    -100.447 -62.432 -64.140  1.00  0.00    -0.550 OA
ENDBRANCH   4   5
ENDBRANCH   3   4
ENDBRANCH   2   3
ENDBRANCH   1   2
BRANCH   1   8
ATOM      8  C   UNL     1     -98.208 -58.306 -66.676  1.00  0.00     0.000 C 
BRANCH   8   9
ATOM      9  C   UNL     1     -97.038 -59.296 -66.624  1.00  0.00    -0.000 C 
BRANCH   9  10
ATOM     10  C   UNL     1     -97.051 -60.228 -67.845  1.00  0.00    -0.000 C 
BRANCH  10  11
ATOM     11  C   UNL     1     -95.950 -61.298 -67.785  1.00  0.00    -0.000 C 
BRANCH  11  12
ATOM     12  C   UNL     1     -95.220 -61.321 -66.434  1.00  0.00    -0.003 C 
ATOM     13  C   UNL     1     -93.723 -61.087 -66.614  1.00  0.00     0.004 C 
ENDBRANCH  11  12
ENDBRANCH  10  11
ENDBRANCH   9  10
ENDBRANCH   8   9
ENDBRANCH   1   8
TORSDOF 9
ENDMDL
MODEL 7
REMARK VINA RESULT:    -4.709      2.307      3.347
REMARK INTER + INTRA:          -8.393
REMARK INTER:                  -7.407
REMARK INTRA:                  -0.987
REMARK UNBOUND:                -1.207
REMARK SMILES CCCCCCCCCCC(=O)[O-]
REMARK SMILES IDX 7 1 8 2 9 3 10 4 11 5 12 6 13 7 6 8 5 9 4 10 3 11 2 12 1 13
REMARK H PARENT
REMARK Flexibility Score: inf
ROOT
ATOM      1  C   UNL     1     -96.967 -60.901 -64.486  1.00  0.00     0.000 C 
ENDROOT
BRANCH   1   2
ATOM      2  C   UNL     1     -96.102 -61.364 -65.670  1.00  0.00     0.000 C 
BRANCH   2   3
ATOM      3  C   UNL     1     -96.051 -60.327 -66.806  1.00  0.00     0.006 C 
BRANCH   3   4
ATOM      4  C   UNL     1     -97.429 -60.098 -67.441  1.00  0.00     0.053 C 
BRANCH   4   5
ATOM      5  C   UNL     1     -97.997 -58.763 -67.069  1.00  0.00     0.041 C 
ATOM      6  O   UNL     1     -97.310 -57.944 -66.403  1.00  0.00    -0.550 OA
ATOM      7  O   UNL     1     -99.277 -58.412 -67.482  1.00  0.00    -0.550 OA
ENDBRANCH   4   5
ENDBRANCH   3   4
ENDBRANCH   2   3
ENDBRANCH   1   2
BRANCH   1   8
ATOM      8  C   UNL     1     -97.850 -62.025 -63.923  1.00  0.00     0.000 C 
BRANCH   8   9
ATOM      9  C   UNL     1     -99.330 -61.769 -64.235  1.00  0.00    -0.000 C 
BRANCH   9  10
ATOM     10  C   UNL     1     -99.696 -62.297 -65.630  1.00  0.00    -0.000 C 
BRANCH  10  11
ATOM     11  C   UNL     1    -100.778 -61.450 -66.319  1.00  0.00    -0.000 C 
BRANCH  11  12
ATOM     12  C   UNL     1    -100.776 -61.614 -67.846  1.00  0.00    -0.003 C 
ATOM     13  C   UNL     1    -100.096 -62.917 -68.258  1.00  0.00     0.004 C 
ENDBRANCH  11  12
ENDBRANCH  10  11
ENDBRANCH   9  10
ENDBRANCH   8   9
ENDBRANCH   1   8
TORSDOF 9
ENDMDL
MODEL 8
REMARK VINA RESULT:    -4.694      1.497      2.584
REMARK INTER + INTRA:          -8.370
REMARK INTER:                  -7.204
REMARK INTRA:                  -1.166
REMARK UNBOUND:                -1.207
REMARK SMILES CCCCCCCCCCC(=O)[O-]
REMARK SMILES IDX 7 1 8 2 9 3 10 4 11 5 12 6 13 7 6 8 5 9 4 10 3 11 2 12 1 13
REMARK H PARENT
REMARK Flexibility Score: inf
ROOT
ATOM      1  C   UNL     1     -96.954 -60.322 -64.791  1.00  0.00     0.000 C 
ENDROOT
BRANCH   1   2
ATOM      2  C   UNL     1     -96.694 -59.837 -66.227  1.00  0.00     0.000 C 
BRANCH   2   3
ATOM      3  C   UNL     1     -96.439 -60.996 -67.205  1.00  0.00     0.006 C 
BRANCH   3   4
ATOM      4  C   UNL     1     -97.155 -60.788 -68.547  1.00  0.00     0.053 C 
BRANCH   4   5
ATOM      5  C   UNL     1     -96.334 -61.283 -69.698  1.00  0.00     0.041 C 
ATOM      6  O   UNL     1     -95.180 -61.747 -69.501  1.00  0.00    -0.550 OA
ATOM      7  O   UNL     1     -96.855 -61.256 -70.986  1.00  0.00    -0.550 OA
ENDBRANCH   4   5
ENDBRANCH   3   4
ENDBRANCH   2   3
ENDBRANCH   1   2
BRANCH   1   8
ATOM      8  C   UNL     1     -97.552 -61.736 -64.741  1.00  0.00     0.000 C 
BRANCH   8   9
ATOM      9  C   UNL     1     -98.923 -61.728 -64.053  1.00  0.00    -0.000 C 
BRANCH   9  10
ATOM     10  C   UNL     1     -99.979 -62.428 -64.922  1.00  0.00    -0.000 C 
BRANCH  10  11
ATOM     11  C   UNL     1     -99.822 -62.107 -66.417  1.00  0.00    -0.000 C 
BRANCH  11  12
ATOM     12  C   UNL     1    -100.796 -61.019 -66.894  1.00  0.00    -0.003 C 
ATOM     13  C   UNL     1    -100.192 -59.628 -66.723  1.00  0.00     0.004 C 
ENDBRANCH  11  12
ENDBRANCH  10  11
ENDBRANCH   9  10
ENDBRANCH   8   9
ENDBRANCH   1   8
TORSDOF 9
ENDMDL
MODEL 9
REMARK VINA RESULT:    -4.642      2.341      3.795
REMARK INTER + INTRA:          -8.292
REMARK INTER:                  -7.177
REMARK INTRA:                  -1.115
REMARK UNBOUND:                -1.207
REMARK SMILES CCCCCCCCCCC(=O)[O-]
REMARK SMILES IDX 7 1 8 2 9 3 10 4 11 5 12 6 13 7 6 8 5 9 4 10 3 11 2 12 1 13
REMARK H PARENT
REMARK Flexibility Score: inf
ROOT
ATOM      1  C   UNL     1     -98.463 -58.944 -66.761  1.00  0.00     0.000 C 
ENDROOT
BRANCH   1   2
ATOM      2  C   UNL     1     -97.535 -59.938 -67.477  1.00  0.00     0.000 C 
BRANCH   2   3
ATOM      3  C   UNL     1     -96.567 -60.644 -66.512  1.00  0.00     0.006 C 
BRANCH   3   4
ATOM      4  C   UNL     1     -96.885 -60.332 -65.044  1.00  0.00     0.053 C 
BRANCH   4   5
ATOM      5  C   UNL     1     -97.261 -61.566 -64.283  1.00  0.00     0.041 C 
ATOM      6  O   UNL     1     -96.417 -62.485 -64.106  1.00  0.00    -0.550 OA
ATOM      7  O   UNL     1     -98.536 -61.690 -63.744  1.00  0.00    -0.550 OA
ENDBRANCH   4   5
ENDBRANCH   3   4
ENDBRANCH   2   3
ENDBRANCH   1   2
BRANCH   1   8
ATOM      8  C   UNL     1     -99.935 -59.106 -67.169  1.00  0.00     0.000 C 
BRANCH   8   9
ATOM      9  C   UNL     1    -100.674 -60.039 -66.202  1.00  0.00    -0.000 C 
BRANCH   9  10
ATOM     10  C   UNL     1    -101.076 -61.348 -66.899  1.00  0.00    -0.000 C 
BRANCH  10  11
ATOM     11  C   UNL     1     -99.955 -62.398 -66.878  1.00  0.00    -0.000 C 
BRANCH  11  12
ATOM     12  C   UNL     1     -99.722 -63.042 -68.253  1.00  0.00    -0.003 C 
ATOM     13  C   UNL     1    -100.939 -62.868 -69.156  1.00  0.00     0.004 C 
ENDBRANCH  11  12
ENDBRANCH  10  11
ENDBRANCH   9  10
ENDBRANCH   8   9
ENDBRANCH   1   8
TORSDOF 9
ENDMDL
