MODEL 1
REMARK VINA RESULT:    -3.551      0.000      0.000
REMARK INTER + INTRA:          -5.101
REMARK INTER:                  -4.796
REMARK INTRA:                  -0.305
REMARK UNBOUND:                -0.305
REMARK SMILES CCCCCCCC(=O)[O-]
REMARK SMILES IDX 5 1 6 2 7 3 8 4 9 5 10 6 4 7 3 8 2 9 1 10
REMARK H PARENT
REMARK Flexibility Score: inf
ROOT
ATOM      1  C   UNL     1     120.288 110.187 107.482  1.00  0.00     0.000 C 
ENDROOT
BRANCH   1   2
ATOM      2  C   UNL     1     119.839 108.767 107.120  1.00  0.00     0.006 C 
BRANCH   2   3
ATOM      3  C   UNL     1     120.864 108.079 106.215  1.00  0.00     0.053 C 
BRANCH   3   4
ATOM      4  C   UNL     1     120.194 107.077 105.330  1.00  0.00     0.041 C 
ATOM      5  O   UNL     1     120.468 107.032 104.101  1.00  0.00    -0.550 OA
ATOM      6  O   UNL     1     119.302 106.158 105.870  1.00  0.00    -0.550 OA
ENDBRANCH   3   4
ENDBRANCH   2   3
ENDBRANCH   1   2
BRANCH   1   7
ATOM      7  C   UNL     1     121.257 110.174 108.670  1.00  0.00     0.000 C 
BRANCH   7   8
ATOM      8  C   UNL     1     120.793 109.180 109.746  1.00  0.00    -0.000 C 
BRANCH   8   9
ATOM      9  C   UNL     1     120.371 109.876 111.050  1.00  0.00    -0.003 C 
ATOM     10  C   UNL     1     118.901 110.294 111.048  1.00  0.00     0.004 C 
ENDBRANCH   8   9
ENDBRANCH   7   8
ENDBRANCH   1   7
TORSDOF 6
ENDMDL
MODEL 2
REMARK VINA RESULT:    -3.449     10.922     11.592
REMARK INTER + INTRA:          -4.964
REMARK INTER:                  -4.710
REMARK INTRA:                  -0.253
REMARK UNBOUND:                -0.305
REMARK SMILES CCCCCCCC(=O)[O-]
REMARK SMILES IDX 5 1 6 2 7 3 8 4 9 5 10 6 4 7 3 8 2 9 1 10
REMARK H PARENT
REMARK Flexibility Score: inf
ROOT
ATOM      1  C   UNL     1     119.675 112.803 117.232  1.00  0.00     0.000 C 
ENDROOT
BRANCH   1   2
ATOM      2  C   UNL     1     119.974 111.336 117.559  1.00  0.00     0.006 C 
BRANCH   2   3
ATOM      3  C   UNL     1     121.477 111.110 117.745  1.00  0.00     0.053 C 
BRANCH   3   4
ATOM      4  C   UNL     1     121.787 110.803 119.176  1.00  0.00     0.041 C 
ATOM      5  O   UNL     1     121.386 111.570 120.091  1.00  0.00    -0.550 OA
ATOM      6  O   UNL     1     122.477 109.642 119.505  1.00  0.00    -0.550 OA
ENDBRANCH   3   4
ENDBRANCH   2   3
ENDBRANCH   1   2
BRANCH   1   7
ATOM      7  C   UNL     1     118.358 113.254 117.874  1.00  0.00     0.000 C 
BRANCH   7   8
ATOM      8  C   UNL     1     117.618 114.251 116.969  1.00  0.00    -0.000 C 
BRANCH   8   9
ATOM      9  C   UNL     1     118.423 114.618 115.712  1.00  0.00    -0.003 C 
ATOM     10  C   UNL     1     118.179 116.056 115.252  1.00  0.00     0.004 C 
ENDBRANCH   8   9
ENDBRANCH   7   8
ENDBRANCH   1   7
TORSDOF 6
ENDMDL
MODEL 3
REMARK VINA RESULT:    -3.387      1.420      2.229
REMARK INTER + INTRA:          -4.880
REMARK INTER:                  -4.611
REMARK INTRA:                  -0.269
REMARK UNBOUND:                -0.305
REMARK SMILES CCCCCCCC(=O)[O-]
REMARK SMILES IDX 5 1 6 2 7 3 8 4 9 5 10 6 4 7 3 8 2 9 1 10
REMARK H PARENT
REMARK Flexibility Score: inf
ROOT
ATOM      1  C   UNL     1     120.588 109.442 109.768  1.00  0.00     0.000 C 
ENDROOT
BRANCH   1   2
ATOM      2  C   UNL     1     121.012 109.731 108.323  1.00  0.00     0.006 C 
BRANCH   2   3
ATOM      3  C   UNL     1     119.950 109.248 107.332  1.00  0.00     0.053 C 
BRANCH   3   4
ATOM      4  C   UNL     1     120.492 108.145 106.479  1.00  0.00     0.041 C 
ATOM      5  O   UNL     1     121.735 107.978 106.373  1.00  0.00    -0.550 OA
ATOM      6  O   UNL     1     119.622 107.269 105.840  1.00  0.00    -0.550 OA
ENDBRANCH   3   4
ENDBRANCH   2   3
ENDBRANCH   1   2
BRANCH   1   7
ATOM      7  C   UNL     1     119.255 110.122 110.099  1.00  0.00     0.000 C 
BRANCH   7   8
ATOM      8  C   UNL     1     119.097 110.315 111.615  1.00  0.00    -0.000 C 
BRANCH   8   9
ATOM      9  C   UNL     1     120.384 109.988 112.389  1.00  0.00    -0.003 C 
ATOM     10  C   UNL     1     120.806 111.112 113.336  1.00  0.00     0.004 C 
ENDBRANCH   8   9
ENDBRANCH   7   8
ENDBRANCH   1   7
TORSDOF 6
ENDMDL
MODEL 4
REMARK VINA RESULT:    -3.341      4.132      5.903
REMARK INTER + INTRA:          -4.818
REMARK INTER:                  -4.512
REMARK INTRA:                  -0.306
REMARK UNBOUND:                -0.305
REMARK SMILES CCCCCCCC(=O)[O-]
REMARK SMILES IDX 5 1 6 2 7 3 8 4 9 5 10 6 4 7 3 8 2 9 1 10
REMARK H PARENT
REMARK Flexibility Score: inf
ROOT
ATOM      1  C   UNL     1     120.703 109.256 109.851  1.00  0.00     0.000 C 
ENDROOT
BRANCH   1   2
ATOM      2  C   UNL     1     119.445 110.119 110.006  1.00  0.00     0.006 C 
BRANCH   2   3
ATOM      3  C   UNL     1     119.009 110.196 111.471  1.00  0.00     0.053 C 
BRANCH   3   4
ATOM      4  C   UNL     1     120.028 110.929 112.284  1.00  0.00     0.041 C 
ATOM      5  O   UNL     1     120.149 112.178 112.173  1.00  0.00    -0.550 OA
ATOM      6  O   UNL     1     120.813 110.240 113.201  1.00  0.00    -0.550 OA
ENDBRANCH   3   4
ENDBRANCH   2   3
ENDBRANCH   1   2
BRANCH   1   7
ATOM      7  C   UNL     1     121.146 109.184 108.385  1.00  0.00     0.000 C 
BRANCH   7   8
ATOM      8  C   UNL     1     119.948 109.362 107.439  1.00  0.00    -0.000 C 
BRANCH   8   9
ATOM      9  C   UNL     1     119.729 108.145 106.528  1.00  0.00    -0.003 C 
ATOM     10  C   UNL     1     121.039 107.515 106.056  1.00  0.00     0.004 C 
ENDBRANCH   8   9
ENDBRANCH   7   8
ENDBRANCH   1   7
TORSDOF 6
ENDMDL
MODEL 5
REMARK VINA RESULT:    -3.302      4.547      6.326
REMARK INTER + INTRA:          -4.765
REMARK INTER:                  -4.465
REMARK INTRA:                  -0.301
REMARK UNBOUND:                -0.305
REMARK SMILES CCCCCCCC(=O)[O-]
REMARK SMILES IDX 5 1 6 2 7 3 8 4 9 5 10 6 4 7 3 8 2 9 1 10
REMARK H PARENT
REMARK Flexibility Score: inf
ROOT
ATOM      1  C   UNL     1     119.403 110.009 109.863  1.00  0.00     0.000 C 
ENDROOT
BRANCH   1   2
ATOM      2  C   UNL     1     119.068 110.305 111.330  1.00  0.00     0.006 C 
BRANCH   2   3
ATOM      3  C   UNL     1     120.274 110.041 112.234  1.00  0.00     0.053 C 
BRANCH   3   4
ATOM      4  C   UNL     1     120.539 111.223 113.112  1.00  0.00     0.041 C 
ATOM      5  O   UNL     1     120.153 112.370 112.765  1.00  0.00    -0.550 OA
ATOM      6  O   UNL     1     121.171 111.051 114.338  1.00  0.00    -0.550 OA
ENDBRANCH   3   4
ENDBRANCH   2   3
ENDBRANCH   1   2
BRANCH   1   7
ATOM      7  C   UNL     1     119.721 111.298 109.099  1.00  0.00     0.000 C 
BRANCH   7   8
ATOM      8  C   UNL     1     120.115 110.993 107.645  1.00  0.00    -0.000 C 
BRANCH   8   9
ATOM      9  C   UNL     1     119.971 109.504 107.295  1.00  0.00    -0.003 C 
ATOM     10  C   UNL     1     121.284 108.877 106.824  1.00  0.00     0.004 C 
ENDBRANCH   8   9
ENDBRANCH   7   8
ENDBRANCH   1   7
TORSDOF 6
ENDMDL
MODEL 6
REMARK VINA RESULT:    -3.281      4.811      5.670
REMARK INTER + INTRA:          -4.737
REMARK INTER:                  -4.563
REMARK INTRA:                  -0.174
REMARK UNBOUND:                -0.305
REMARK SMILES CCCCCCCC(=O)[O-]
REMARK SMILES IDX 5 1 6 2 7 3 8 4 9 5 10 6 4 7 3 8 2 9 1 10
REMARK H PARENT
REMARK Flexibility Score: inf
ROOT
ATOM      1  C   UNL     1     121.191 111.736 107.099  1.00  0.00     0.000 C 
ENDROOT
BRANCH   1   2
ATOM      2  C   UNL     1     121.203 113.269 107.107  1.00  0.00     0.006 C 
BRANCH   2   3
ATOM      3  C   UNL     1     120.872 113.829 105.721  1.00  0.00     0.053 C 
BRANCH   3   4
ATOM      4  C   UNL     1     120.676 115.311 105.788  1.00  0.00     0.041 C 
ATOM      5  O   UNL     1     119.523 115.804 105.669  1.00  0.00    -0.550 OA
ATOM      6  O   UNL     1     121.760 116.146 106.033  1.00  0.00    -0.550 OA
ENDBRANCH   3   4
ENDBRANCH   2   3
ENDBRANCH   1   2
BRANCH   1   7
ATOM      7  C   UNL     1     119.951 111.190 107.816  1.00  0.00     0.000 C 
BRANCH   7   8
ATOM      8  C   UNL     1     120.171 109.738 108.267  1.00  0.00    -0.000 C 
BRANCH   8   9
ATOM      9  C   UNL     1     120.210 109.594 109.796  1.00  0.00    -0.003 C 
ATOM     10  C   UNL     1     119.044 110.301 110.487  1.00  0.00     0.004 C 
ENDBRANCH   8   9
ENDBRANCH   7   8
ENDBRANCH   1   7
TORSDOF 6
ENDMDL
MODEL 7
REMARK VINA RESULT:    -3.261      2.996      3.909
REMARK INTER + INTRA:          -4.710
REMARK INTER:                  -4.406
REMARK INTRA:                  -0.304
REMARK UNBOUND:                -0.305
REMARK SMILES CCCCCCCC(=O)[O-]
REMARK SMILES IDX 5 1 6 2 7 3 8 4 9 5 10 6 4 7 3 8 2 9 1 10
REMARK H PARENT
REMARK Flexibility Score: inf
ROOT
ATOM      1  C   UNL     1     120.233 109.535 109.617  1.00  0.00     0.000 C 
ENDROOT
BRANCH   1   2
ATOM      2  C   UNL     1     120.294 109.697 108.093  1.00  0.00     0.006 C 
BRANCH   2   3
ATOM      3  C   UNL     1     119.965 111.134 107.680  1.00  0.00     0.053 C 
BRANCH   3   4
ATOM      4  C   UNL     1     121.163 111.792 107.071  1.00  0.00     0.041 C 
ATOM      5  O   UNL     1     122.224 111.137 106.893  1.00  0.00    -0.550 OA
ATOM      6  O   UNL     1     121.092 113.116 106.654  1.00  0.00    -0.550 OA
ENDBRANCH   3   4
ENDBRANCH   2   3
ENDBRANCH   1   2
BRANCH   1   7
ATOM      7  C   UNL     1     119.067 110.333 110.210  1.00  0.00     0.000 C 
BRANCH   7   8
ATOM      8  C   UNL     1     119.143 110.361 111.744  1.00  0.00    -0.000 C 
BRANCH   8   9
ATOM      9  C   UNL     1     120.542 110.006 112.272  1.00  0.00    -0.003 C 
ATOM     10  C   UNL     1     120.902 110.763 113.551  1.00  0.00     0.004 C 
ENDBRANCH   8   9
ENDBRANCH   7   8
ENDBRANCH   1   7
TORSDOF 6
ENDMDL
MODEL 8
REMARK VINA RESULT:    -3.238      3.815      5.862
REMARK INTER + INTRA:          -4.678
REMARK INTER:                  -4.548
REMARK INTRA:                  -0.130
REMARK UNBOUND:                -0.305
REMARK SMILES CCCCCCCC(=O)[O-]
REMARK SMILES IDX 5 1 6 2 7 3 8 4 9 5 10 6 4 7 3 8 2 9 1 10
REMARK H PARENT
REMARK Flexibility Score: inf
ROOT
ATOM      1  C   UNL     1     120.045 110.101 108.071  1.00  0.00     0.000 C 
ENDROOT
BRANCH   1   2
ATOM      2  C   UNL     1     120.169 109.550 109.497  1.00  0.00     0.006 C 
BRANCH   2   3
ATOM      3  C   UNL     1     119.153 110.211 110.432  1.00  0.00     0.053 C 
BRANCH   3   4
ATOM      4  C   UNL     1     119.833 110.742 111.654  1.00  0.00     0.041 C 
ATOM      5  O   UNL     1     119.792 111.973 111.918  1.00  0.00    -0.550 OA
ATOM      6  O   UNL     1     120.470 109.871 112.529  1.00  0.00    -0.550 OA
ENDBRANCH   3   4
ENDBRANCH   2   3
ENDBRANCH   1   2
BRANCH   1   7
ATOM      7  C   UNL     1     120.929 109.314 107.097  1.00  0.00     0.000 C 
BRANCH   7   8
ATOM      8  C   UNL     1     120.145 108.160 106.452  1.00  0.00    -0.000 C 
BRANCH   8   9
ATOM      9  C   UNL     1     121.032 107.258 105.581  1.00  0.00    -0.003 C 
ATOM     10  C   UNL     1     120.317 106.760 104.324  1.00  0.00     0.004 C 
ENDBRANCH   8   9
ENDBRANCH   7   8
ENDBRANCH   1   7
TORSDOF 6
ENDMDL
MODEL 9
REMARK VINA RESULT:    -3.185      7.598      9.872
REMARK INTER + INTRA:          -4.607
REMARK INTER:                  -4.387
REMARK INTRA:                  -0.221
REMARK UNBOUND:                -0.305
REMARK SMILES CCCCCCCC(=O)[O-]
REMARK SMILES IDX 5 1 6 2 7 3 8 4 9 5 10 6 4 7 3 8 2 9 1 10
REMARK H PARENT
REMARK Flexibility Score: inf
ROOT
ATOM      1  C   UNL     1     120.813 111.657 115.017  1.00  0.00     0.000 C 
ENDROOT
BRANCH   1   2
ATOM      2  C   UNL     1     121.265 111.470 116.470  1.00  0.00     0.006 C 
BRANCH   2   3
ATOM      3  C   UNL     1     120.094 111.044 117.360  1.00  0.00     0.053 C 
BRANCH   3   4
ATOM      4  C   UNL     1     119.633 112.190 118.203  1.00  0.00     0.041 C 
ATOM      5  O   UNL     1     120.303 112.549 119.207  1.00  0.00    -0.550 OA
ATOM      6  O   UNL     1     118.488 112.895 117.852  1.00  0.00    -0.550 OA
ENDBRANCH   3   4
ENDBRANCH   2   3
ENDBRANCH   1   2
BRANCH   1   7
ATOM      7  C   UNL     1     121.769 110.955 114.047  1.00  0.00     0.000 C 
BRANCH   7   8
ATOM      8  C   UNL     1     120.992 110.205 112.954  1.00  0.00    -0.000 C 
BRANCH   8   9
ATOM      9  C   UNL     1     119.955 111.094 112.251  1.00  0.00    -0.003 C 
ATOM     10  C   UNL     1     118.903 110.288 111.490  1.00  0.00     0.004 C 
ENDBRANCH   8   9
ENDBRANCH   7   8
ENDBRANCH   1   7
TORSDOF 6
ENDMDL
