MODEL 1
REMARK VINA RESULT:    -5.274      0.000      0.000
REMARK INTER + INTRA:          -6.111
REMARK INTER:                  -5.891
REMARK INTRA:                  -0.220
REMARK UNBOUND:                -0.220
REMARK SMILES O=C([O-])c1ccccc1C(=O)[O-]
REMARK SMILES IDX 4 1 9 2 5 3 8 4 6 5 7 6 2 7 1 8 3 9 10 10 11 11 12 12
REMARK H PARENT
REMARK Flexibility Score: inf
ROOT
ATOM      1  C   UNL     1      -1.649  -5.915  16.472  1.00  0.00     0.006 A 
ATOM      2  C   UNL     1      -0.409  -6.183  17.120  1.00  0.00     0.006 A 
ATOM      3  C   UNL     1      -2.679  -6.869  16.550  1.00  0.00     0.010 A 
ATOM      4  C   UNL     1      -0.272  -7.362  17.874  1.00  0.00     0.010 A 
ATOM      5  C   UNL     1      -2.514  -8.043  17.285  1.00  0.00     0.001 A 
ATOM      6  C   UNL     1      -1.316  -8.283  17.955  1.00  0.00     0.001 A 
ENDROOT
BRANCH   1   7
ATOM      7  C   UNL     1      -1.935  -4.642  15.772  1.00  0.00     0.072 C 
ATOM      8  O   UNL     1      -2.545  -3.707  16.355  1.00  0.00    -0.545 OA
ATOM      9  O   UNL     1      -1.592  -4.491  14.433  1.00  0.00    -0.545 OA
ENDBRANCH   1   7
BRANCH   2  10
ATOM     10  C   UNL     1       0.778  -5.306  16.984  1.00  0.00     0.072 C 
ATOM     11  O   UNL     1       0.977  -4.360  17.791  1.00  0.00    -0.545 OA
ATOM     12  O   UNL     1       1.652  -5.478  15.917  1.00  0.00    -0.545 OA
ENDBRANCH   2  10
TORSDOF 2
ENDMDL
MODEL 2
REMARK VINA RESULT:    -5.272      0.067      2.876
REMARK INTER + INTRA:          -6.109
REMARK INTER:                  -5.887
REMARK INTRA:                  -0.222
REMARK UNBOUND:                -0.220
REMARK SMILES O=C([O-])c1ccccc1C(=O)[O-]
REMARK SMILES IDX 4 1 9 2 5 3 8 4 6 5 7 6 2 7 1 8 3 9 10 10 11 11 12 12
REMARK H PARENT
REMARK Flexibility Score: inf
ROOT
ATOM      1  C   UNL     1      -0.373  -6.160  17.117  1.00  0.00     0.006 A 
ATOM      2  C   UNL     1      -1.618  -5.865  16.490  1.00  0.00     0.006 A 
ATOM      3  C   UNL     1      -0.245  -7.353  17.851  1.00  0.00     0.010 A 
ATOM      4  C   UNL     1      -2.661  -6.806  16.565  1.00  0.00     0.010 A 
ATOM      5  C   UNL     1      -1.301  -8.262  17.931  1.00  0.00     0.001 A 
ATOM      6  C   UNL     1      -2.502  -7.993  17.279  1.00  0.00     0.001 A 
ENDROOT
BRANCH   1   7
ATOM      7  C   UNL     1       0.824  -5.299  16.980  1.00  0.00     0.072 C 
ATOM      8  O   UNL     1       1.055  -4.379  17.809  1.00  0.00    -0.545 OA
ATOM      9  O   UNL     1       1.673  -5.455  15.890  1.00  0.00    -0.545 OA
ENDBRANCH   1   7
BRANCH   2  10
ATOM     10  C   UNL     1      -1.894  -4.577  15.812  1.00  0.00     0.072 C 
ATOM     11  O   UNL     1      -2.478  -3.641  16.418  1.00  0.00    -0.545 OA
ATOM     12  O   UNL     1      -1.571  -4.413  14.469  1.00  0.00    -0.545 OA
ENDBRANCH   2  10
TORSDOF 2
ENDMDL
MODEL 3
REMARK VINA RESULT:    -4.683      4.029      6.450
REMARK INTER + INTRA:          -5.451
REMARK INTER:                  -5.259
REMARK INTRA:                  -0.192
REMARK UNBOUND:                -0.220
REMARK SMILES O=C([O-])c1ccccc1C(=O)[O-]
REMARK SMILES IDX 4 1 9 2 5 3 8 4 6 5 7 6 2 7 1 8 3 9 10 10 11 11 12 12
REMARK H PARENT
REMARK Flexibility Score: inf
ROOT
ATOM      1  C   UNL     1       4.883  -5.777  17.503  1.00  0.00     0.006 A 
ATOM      2  C   UNL     1       3.616  -6.078  16.927  1.00  0.00     0.006 A 
ATOM      3  C   UNL     1       6.050  -6.060  16.770  1.00  0.00     0.010 A 
ATOM      4  C   UNL     1       3.563  -6.586  15.616  1.00  0.00     0.010 A 
ATOM      5  C   UNL     1       5.975  -6.586  15.480  1.00  0.00     0.001 A 
ATOM      6  C   UNL     1       4.734  -6.837  14.900  1.00  0.00     0.001 A 
ENDROOT
BRANCH   1   7
ATOM      7  C   UNL     1       5.035  -5.115  18.818  1.00  0.00     0.072 C 
ATOM      8  O   UNL     1       5.342  -3.896  18.895  1.00  0.00    -0.545 OA
ATOM      9  O   UNL     1       4.907  -5.853  19.989  1.00  0.00    -0.545 OA
ENDBRANCH   1   7
BRANCH   2  10
ATOM     10  C   UNL     1       2.340  -5.943  17.668  1.00  0.00     0.072 C 
ATOM     11  O   UNL     1       1.798  -6.944  18.206  1.00  0.00    -0.545 OA
ATOM     12  O   UNL     1       1.690  -4.715  17.719  1.00  0.00    -0.545 OA
ENDBRANCH   2  10
TORSDOF 2
ENDMDL
MODEL 4
REMARK VINA RESULT:    -4.678      4.027      5.818
REMARK INTER + INTRA:          -5.446
REMARK INTER:                  -5.247
REMARK INTRA:                  -0.198
REMARK UNBOUND:                -0.220
REMARK SMILES O=C([O-])c1ccccc1C(=O)[O-]
REMARK SMILES IDX 4 1 9 2 5 3 8 4 6 5 7 6 2 7 1 8 3 9 10 10 11 11 12 12
REMARK H PARENT
REMARK Flexibility Score: inf
ROOT
ATOM      1  C   UNL     1       3.600  -6.092  16.916  1.00  0.00     0.006 A 
ATOM      2  C   UNL     1       4.876  -5.818  17.487  1.00  0.00     0.006 A 
ATOM      3  C   UNL     1       3.533  -6.592  15.603  1.00  0.00     0.010 A 
ATOM      4  C   UNL     1       6.035  -6.117  16.747  1.00  0.00     0.010 A 
ATOM      5  C   UNL     1       4.696  -6.861  14.879  1.00  0.00     0.001 A 
ATOM      6  C   UNL     1       5.944  -6.634  15.455  1.00  0.00     0.001 A 
ENDROOT
BRANCH   1   7
ATOM      7  C   UNL     1       2.332  -5.940  17.664  1.00  0.00     0.072 C 
ATOM      8  O   UNL     1       1.766  -6.938  18.184  1.00  0.00    -0.545 OA
ATOM      9  O   UNL     1       1.714  -4.697  17.743  1.00  0.00    -0.545 OA
ENDBRANCH   1   7
BRANCH   2  10
ATOM     10  C   UNL     1       5.046  -5.166  18.806  1.00  0.00     0.072 C 
ATOM     11  O   UNL     1       5.330  -3.941  18.889  1.00  0.00    -0.545 OA
ATOM     12  O   UNL     1       4.962  -5.919  19.972  1.00  0.00    -0.545 OA
ENDBRANCH   2  10
TORSDOF 2
ENDMDL
MODEL 5
REMARK VINA RESULT:    -4.663      4.779      5.987
REMARK INTER + INTRA:          -5.428
REMARK INTER:                  -5.256
REMARK INTRA:                  -0.172
REMARK UNBOUND:                -0.220
REMARK SMILES O=C([O-])c1ccccc1C(=O)[O-]
REMARK SMILES IDX 4 1 9 2 5 3 8 4 6 5 7 6 2 7 1 8 3 9 10 10 11 11 12 12
REMARK H PARENT
REMARK Flexibility Score: inf
ROOT
ATOM      1  C   UNL     1       3.852  -5.366  17.868  1.00  0.00     0.006 A 
ATOM      2  C   UNL     1       4.087  -6.235  16.764  1.00  0.00     0.006 A 
ATOM      3  C   UNL     1       2.557  -4.857  18.072  1.00  0.00     0.010 A 
ATOM      4  C   UNL     1       3.005  -6.613  15.949  1.00  0.00     0.010 A 
ATOM      5  C   UNL     1       1.502  -5.227  17.236  1.00  0.00     0.001 A 
ATOM      6  C   UNL     1       1.724  -6.113  16.184  1.00  0.00     0.001 A 
ENDROOT
BRANCH   1   7
ATOM      7  C   UNL     1       4.895  -5.022  18.860  1.00  0.00     0.072 C 
ATOM      8  O   UNL     1       5.167  -5.804  19.809  1.00  0.00    -0.545 OA
ATOM      9  O   UNL     1       5.541  -3.792  18.794  1.00  0.00    -0.545 OA
ENDBRANCH   1   7
BRANCH   2  10
ATOM     10  C   UNL     1       5.437  -6.714  16.388  1.00  0.00     0.072 C 
ATOM     11  O   UNL     1       6.017  -6.269  15.363  1.00  0.00    -0.545 OA
ATOM     12  O   UNL     1       6.053  -7.716  17.130  1.00  0.00    -0.545 OA
ENDBRANCH   2  10
TORSDOF 2
ENDMDL
MODEL 6
REMARK VINA RESULT:    -4.662      4.836      6.017
REMARK INTER + INTRA:          -5.427
REMARK INTER:                  -5.239
REMARK INTRA:                  -0.188
REMARK UNBOUND:                -0.220
REMARK SMILES O=C([O-])c1ccccc1C(=O)[O-]
REMARK SMILES IDX 4 1 9 2 5 3 8 4 6 5 7 6 2 7 1 8 3 9 10 10 11 11 12 12
REMARK H PARENT
REMARK Flexibility Score: inf
ROOT
ATOM      1  C   UNL     1       4.163  -6.236  16.765  1.00  0.00     0.006 A 
ATOM      2  C   UNL     1       3.869  -5.370  17.856  1.00  0.00     0.006 A 
ATOM      3  C   UNL     1       3.122  -6.626  15.903  1.00  0.00     0.010 A 
ATOM      4  C   UNL     1       2.560  -4.876  18.004  1.00  0.00     0.010 A 
ATOM      5  C   UNL     1       1.825  -6.141  16.082  1.00  0.00     0.001 A 
ATOM      6  C   UNL     1       1.548  -5.259  17.124  1.00  0.00     0.001 A 
ENDROOT
BRANCH   1   7
ATOM      7  C   UNL     1       5.533  -6.697  16.447  1.00  0.00     0.072 C 
ATOM      8  O   UNL     1       6.167  -6.215  15.472  1.00  0.00    -0.545 OA
ATOM      9  O   UNL     1       6.112  -7.723  17.186  1.00  0.00    -0.545 OA
ENDBRANCH   1   7
BRANCH   2  10
ATOM     10  C   UNL     1       4.865  -5.012  18.893  1.00  0.00     0.072 C 
ATOM     11  O   UNL     1       5.070  -5.768  19.879  1.00  0.00    -0.545 OA
ATOM     12  O   UNL     1       5.537  -3.797  18.823  1.00  0.00    -0.545 OA
ENDBRANCH   2  10
TORSDOF 2
ENDMDL
MODEL 7
REMARK VINA RESULT:    -4.624      4.895      6.068
REMARK INTER + INTRA:          -5.385
REMARK INTER:                  -5.172
REMARK INTRA:                  -0.213
REMARK UNBOUND:                -0.220
REMARK SMILES O=C([O-])c1ccccc1C(=O)[O-]
REMARK SMILES IDX 4 1 9 2 5 3 8 4 6 5 7 6 2 7 1 8 3 9 10 10 11 11 12 12
REMARK H PARENT
REMARK Flexibility Score: inf
ROOT
ATOM      1  C   UNL     1       3.518  -6.537  18.977  1.00  0.00     0.006 A 
ATOM      2  C   UNL     1       4.255  -5.796  18.010  1.00  0.00     0.006 A 
ATOM      3  C   UNL     1       2.314  -7.154  18.592  1.00  0.00     0.010 A 
ATOM      4  C   UNL     1       3.794  -5.759  16.681  1.00  0.00     0.010 A 
ATOM      5  C   UNL     1       1.864  -7.085  17.273  1.00  0.00     0.001 A 
ATOM      6  C   UNL     1       2.610  -6.398  16.318  1.00  0.00     0.001 A 
ENDROOT
BRANCH   1   7
ATOM      7  C   UNL     1       3.992  -6.749  20.364  1.00  0.00     0.072 C 
ATOM      8  O   UNL     1       3.654  -5.963  21.288  1.00  0.00    -0.545 OA
ATOM      9  O   UNL     1       4.874  -7.785  20.648  1.00  0.00    -0.545 OA
ENDBRANCH   1   7
BRANCH   2  10
ATOM     10  C   UNL     1       5.459  -5.001  18.348  1.00  0.00     0.072 C 
ATOM     11  O   UNL     1       5.352  -3.861  18.872  1.00  0.00    -0.545 OA
ATOM     12  O   UNL     1       6.723  -5.480  18.025  1.00  0.00    -0.545 OA
ENDBRANCH   2  10
TORSDOF 2
ENDMDL
MODEL 8
REMARK VINA RESULT:    -4.609      4.819      6.038
REMARK INTER + INTRA:          -5.368
REMARK INTER:                  -5.149
REMARK INTRA:                  -0.220
REMARK UNBOUND:                -0.220
REMARK SMILES O=C([O-])c1ccccc1C(=O)[O-]
REMARK SMILES IDX 4 1 9 2 5 3 8 4 6 5 7 6 2 7 1 8 3 9 10 10 11 11 12 12
REMARK H PARENT
REMARK Flexibility Score: inf
ROOT
ATOM      1  C   UNL     1       4.161  -5.728  18.031  1.00  0.00     0.006 A 
ATOM      2  C   UNL     1       3.408  -6.484  18.975  1.00  0.00     0.006 A 
ATOM      3  C   UNL     1       3.685  -5.615  16.712  1.00  0.00     0.010 A 
ATOM      4  C   UNL     1       2.177  -7.040  18.580  1.00  0.00     0.010 A 
ATOM      5  C   UNL     1       2.472  -6.194  16.336  1.00  0.00     0.001 A 
ATOM      6  C   UNL     1       1.715  -6.895  17.272  1.00  0.00     0.001 A 
ENDROOT
BRANCH   1   7
ATOM      7  C   UNL     1       5.396  -4.993  18.387  1.00  0.00     0.072 C 
ATOM      8  O   UNL     1       5.338  -3.833  18.874  1.00  0.00    -0.545 OA
ATOM      9  O   UNL     1       6.641  -5.553  18.122  1.00  0.00    -0.545 OA
ENDBRANCH   1   7
BRANCH   2  10
ATOM     10  C   UNL     1       3.890  -6.773  20.345  1.00  0.00     0.072 C 
ATOM     11  O   UNL     1       3.614  -6.003  21.302  1.00  0.00    -0.545 OA
ATOM     12  O   UNL     1       4.715  -7.868  20.577  1.00  0.00    -0.545 OA
ENDBRANCH   2  10
TORSDOF 2
ENDMDL
MODEL 9
REMARK VINA RESULT:    -4.601      3.331      5.553
REMARK INTER + INTRA:          -5.359
REMARK INTER:                  -5.163
REMARK INTRA:                  -0.196
REMARK UNBOUND:                -0.220
REMARK SMILES O=C([O-])c1ccccc1C(=O)[O-]
REMARK SMILES IDX 4 1 9 2 5 3 8 4 6 5 7 6 2 7 1 8 3 9 10 10 11 11 12 12
REMARK H PARENT
REMARK Flexibility Score: inf
ROOT
ATOM      1  C   UNL     1       3.968  -5.875  16.662  1.00  0.00     0.006 A 
ATOM      2  C   UNL     1       3.042  -5.663  17.723  1.00  0.00     0.006 A 
ATOM      3  C   UNL     1       5.346  -5.781  16.929  1.00  0.00     0.010 A 
ATOM      4  C   UNL     1       3.531  -5.432  19.021  1.00  0.00     0.010 A 
ATOM      5  C   UNL     1       5.808  -5.529  18.222  1.00  0.00     0.001 A 
ATOM      6  C   UNL     1       4.902  -5.366  19.267  1.00  0.00     0.001 A 
ENDROOT
BRANCH   1   7
ATOM      7  C   UNL     1       3.554  -6.258  15.293  1.00  0.00     0.072 C 
ATOM      8  O   UNL     1       3.265  -7.452  15.017  1.00  0.00    -0.545 OA
ATOM      9  O   UNL     1       3.545  -5.309  14.276  1.00  0.00    -0.545 OA
ENDBRANCH   1   7
BRANCH   2  10
ATOM     10  C   UNL     1       1.576  -5.606  17.515  1.00  0.00     0.072 C 
ATOM     11  O   UNL     1       0.971  -4.502  17.481  1.00  0.00    -0.545 OA
ATOM     12  O   UNL     1       0.840  -6.782  17.423  1.00  0.00    -0.545 OA
ENDBRANCH   2  10
TORSDOF 2
ENDMDL
