MODEL 1
REMARK VINA RESULT:    -3.110      0.000      0.000
REMARK INTER + INTRA:          -8.081
REMARK INTER:                  -5.656
REMARK INTRA:                  -2.425
REMARK UNBOUND:                -2.425
REMARK SMILES CCCCCCCCCCCCCCCC(=O)[O-]
REMARK SMILES IDX 9 1 10 2 11 3 12 4 13 5 14 6 15 7 16 8 17 9 18 10 8 11 7 12
REMARK SMILES IDX 6 13 5 14 4 15 3 16 2 17 1 18
REMARK H PARENT
REMARK Flexibility Score: inf
ROOT
ATOM      1  C   UNL     1      21.966   6.251  39.455  1.00  0.00     0.000 C 
ENDROOT
BRANCH   1   2
ATOM      2  C   UNL     1      22.004   5.564  38.085  1.00  0.00     0.000 C 
BRANCH   2   3
ATOM      3  C   UNL     1      20.612   5.070  37.678  1.00  0.00     0.000 C 
BRANCH   3   4
ATOM      4  C   UNL     1      20.612   4.548  36.236  1.00  0.00     0.000 C 
BRANCH   4   5
ATOM      5  C   UNL     1      22.020   4.598  35.631  1.00  0.00     0.000 C 
BRANCH   5   6
ATOM      6  C   UNL     1      22.052   3.925  34.254  1.00  0.00     0.006 C 
BRANCH   6   7
ATOM      7  C   UNL     1      21.071   4.599  33.290  1.00  0.00     0.053 C 
BRANCH   7   8
ATOM      8  C   UNL     1      21.808   5.253  32.164  1.00  0.00     0.041 C 
ATOM      9  O   UNL     1      21.840   4.710  31.028  1.00  0.00    -0.550 OA
ATOM     10  O   UNL     1      22.501   6.437  32.381  1.00  0.00    -0.550 OA
ENDBRANCH   7   8
ENDBRANCH   6   7
ENDBRANCH   5   6
ENDBRANCH   4   5
ENDBRANCH   3   4
ENDBRANCH   2   3
ENDBRANCH   1   2
BRANCH   1  11
ATOM     11  C   UNL     1      20.600   6.898  39.709  1.00  0.00     0.000 C 
BRANCH  11  12
ATOM     12  C   UNL     1      20.632   8.398  39.387  1.00  0.00    -0.000 C 
BRANCH  12  13
ATOM     13  C   UNL     1      22.046   8.968  39.565  1.00  0.00    -0.000 C 
BRANCH  13  14
ATOM     14  C   UNL     1      22.622   9.555  38.263  1.00  0.00    -0.000 C 
BRANCH  14  15
ATOM     15  C   UNL     1      21.656   9.548  37.062  1.00  0.00    -0.000 C 
BRANCH  15  16
ATOM     16  C   UNL     1      21.959   8.490  35.982  1.00  0.00    -0.000 C 
BRANCH  16  17
ATOM     17  C   UNL     1      20.766   8.126  35.082  1.00  0.00    -0.003 C 
ATOM     18  C   UNL     1      19.442   8.067  35.843  1.00  0.00     0.004 C 
ENDBRANCH  16  17
ENDBRANCH  15  16
ENDBRANCH  14  15
ENDBRANCH  13  14
ENDBRANCH  12  13
ENDBRANCH  11  12
ENDBRANCH   1  11
TORSDOF 14
ENDMDL
MODEL 2
REMARK VINA RESULT:    -3.073      1.870      2.945
REMARK INTER + INTRA:          -8.013
REMARK INTER:                  -6.029
REMARK INTRA:                  -1.984
REMARK UNBOUND:                -2.425
REMARK SMILES CCCCCCCCCCCCCCCC(=O)[O-]
REMARK SMILES IDX 9 1 10 2 11 3 12 4 13 5 14 6 15 7 16 8 17 9 18 10 8 11 7 12
REMARK SMILES IDX 6 13 5 14 4 15 3 16 2 17 1 18
REMARK H PARENT
REMARK Flexibility Score: inf
ROOT
ATOM      1  C   UNL     1      21.352   5.837  36.321  1.00  0.00     0.000 C 
ENDROOT
BRANCH   1   2
ATOM      2  C   UNL     1      20.153   5.561  35.406  1.00  0.00     0.000 C 
BRANCH   2   3
ATOM      3  C   UNL     1      20.258   6.361  34.104  1.00  0.00     0.000 C 
BRANCH   3   4
ATOM      4  C   UNL     1      21.670   6.273  33.513  1.00  0.00     0.000 C 
BRANCH   4   5
ATOM      5  C   UNL     1      21.630   5.801  32.055  1.00  0.00     0.000 C 
BRANCH   5   6
ATOM      6  C   UNL     1      22.222   4.394  31.915  1.00  0.00     0.006 C 
BRANCH   6   7
ATOM      7  C   UNL     1      22.947   3.972  33.196  1.00  0.00     0.053 C 
BRANCH   7   8
ATOM      8  C   UNL     1      22.473   2.628  33.650  1.00  0.00     0.041 C 
ATOM      9  O   UNL     1      21.675   2.532  34.619  1.00  0.00    -0.550 OA
ATOM     10  O   UNL     1      22.950   1.478  33.034  1.00  0.00    -0.550 OA
ENDBRANCH   7   8
ENDBRANCH   6   7
ENDBRANCH   5   6
ENDBRANCH   4   5
ENDBRANCH   3   4
ENDBRANCH   2   3
ENDBRANCH   1   2
BRANCH   1  11
ATOM     11  C   UNL     1      20.910   5.962  37.784  1.00  0.00     0.000 C 
BRANCH  11  12
ATOM     12  C   UNL     1      22.047   6.505  38.658  1.00  0.00    -0.000 C 
BRANCH  12  13
ATOM     13  C   UNL     1      21.611   7.778  39.397  1.00  0.00    -0.000 C 
BRANCH  13  14
ATOM     14  C   UNL     1      22.588   8.951  39.195  1.00  0.00    -0.000 C 
BRANCH  14  15
ATOM     15  C   UNL     1      22.428   9.708  37.862  1.00  0.00    -0.000 C 
BRANCH  15  16
ATOM     16  C   UNL     1      21.005   9.699  37.268  1.00  0.00    -0.000 C 
BRANCH  16  17
ATOM     17  C   UNL     1      20.946   9.590  35.736  1.00  0.00    -0.003 C 
ATOM     18  C   UNL     1      22.329   9.553  35.087  1.00  0.00     0.004 C 
ENDBRANCH  16  17
ENDBRANCH  15  16
ENDBRANCH  14  15
ENDBRANCH  13  14
ENDBRANCH  12  13
ENDBRANCH  11  12
ENDBRANCH   1  11
TORSDOF 14
ENDMDL
MODEL 3
REMARK VINA RESULT:    -3.072      1.364      3.307
REMARK INTER + INTRA:          -8.011
REMARK INTER:                  -5.783
REMARK INTRA:                  -2.228
REMARK UNBOUND:                -2.425
REMARK SMILES CCCCCCCCCCCCCCCC(=O)[O-]
REMARK SMILES IDX 9 1 10 2 11 3 12 4 13 5 14 6 15 7 16 8 17 9 18 10 8 11 7 12
REMARK SMILES IDX 6 13 5 14 4 15 3 16 2 17 1 18
REMARK H PARENT
REMARK Flexibility Score: inf
ROOT
ATOM      1  C   UNL     1      20.980   9.751  37.354  1.00  0.00     0.000 C 
ENDROOT
BRANCH   1   2
ATOM      2  C   UNL     1      20.765   8.918  36.086  1.00  0.00     0.000 C 
BRANCH   2   3
ATOM      3  C   UNL     1      19.472   8.101  36.176  1.00  0.00     0.000 C 
BRANCH   3   4
ATOM      4  C   UNL     1      19.395   7.062  35.050  1.00  0.00     0.000 C 
BRANCH   4   5
ATOM      5  C   UNL     1      20.743   6.928  34.331  1.00  0.00     0.000 C 
BRANCH   5   6
ATOM      6  C   UNL     1      20.721   5.764  33.333  1.00  0.00     0.006 C 
BRANCH   6   7
ATOM      7  C   UNL     1      22.135   5.236  33.073  1.00  0.00     0.053 C 
BRANCH   7   8
ATOM      8  C   UNL     1      22.151   3.741  33.114  1.00  0.00     0.041 C 
ATOM      9  O   UNL     1      23.197   3.128  33.458  1.00  0.00    -0.550 OA
ATOM     10  O   UNL     1      21.028   3.022  32.725  1.00  0.00    -0.550 OA
ENDBRANCH   7   8
ENDBRANCH   6   7
ENDBRANCH   5   6
ENDBRANCH   4   5
ENDBRANCH   3   4
ENDBRANCH   2   3
ENDBRANCH   1   2
BRANCH   1  11
ATOM     11  C   UNL     1      22.452   9.730  37.783  1.00  0.00     0.000 C 
BRANCH  11  12
ATOM     12  C   UNL     1      22.629   8.983  39.111  1.00  0.00    -0.000 C 
BRANCH  12  13
ATOM     13  C   UNL     1      21.279   8.485  39.645  1.00  0.00    -0.000 C 
BRANCH  13  14
ATOM     14  C   UNL     1      21.163   6.950  39.638  1.00  0.00    -0.000 C 
BRANCH  14  15
ATOM     15  C   UNL     1      22.360   6.209  39.012  1.00  0.00    -0.000 C 
BRANCH  15  16
ATOM     16  C   UNL     1      22.044   5.422  37.724  1.00  0.00    -0.000 C 
BRANCH  16  17
ATOM     17  C   UNL     1      20.635   4.809  37.672  1.00  0.00    -0.003 C 
ATOM     18  C   UNL     1      20.470   3.790  36.545  1.00  0.00     0.004 C 
ENDBRANCH  16  17
ENDBRANCH  15  16
ENDBRANCH  14  15
ENDBRANCH  13  14
ENDBRANCH  12  13
ENDBRANCH  11  12
ENDBRANCH   1  11
TORSDOF 14
ENDMDL
MODEL 4
REMARK VINA RESULT:    -2.986      5.362      9.154
REMARK INTER + INTRA:          -7.855
REMARK INTER:                  -6.537
REMARK INTRA:                  -1.318
REMARK UNBOUND:                -2.425
REMARK SMILES CCCCCCCCCCCCCCCC(=O)[O-]
REMARK SMILES IDX 9 1 10 2 11 3 12 4 13 5 14 6 15 7 16 8 17 9 18 10 8 11 7 12
REMARK SMILES IDX 6 13 5 14 4 15 3 16 2 17 1 18
REMARK H PARENT
REMARK Flexibility Score: inf
ROOT
ATOM      1  C   UNL     1      22.278   3.878  28.077  1.00  0.00     0.000 C 
ENDROOT
BRANCH   1   2
ATOM      2  C   UNL     1      23.428   3.391  27.188  1.00  0.00     0.000 C 
BRANCH   2   3
ATOM      3  C   UNL     1      23.791   4.441  26.132  1.00  0.00     0.000 C 
BRANCH   3   4
ATOM      4  C   UNL     1      24.464   5.660  26.775  1.00  0.00     0.000 C 
BRANCH   4   5
ATOM      5  C   UNL     1      23.850   6.966  26.255  1.00  0.00     0.000 C 
BRANCH   5   6
ATOM      6  C   UNL     1      23.484   7.901  27.414  1.00  0.00     0.006 C 
BRANCH   6   7
ATOM      7  C   UNL     1      24.534   9.003  27.584  1.00  0.00     0.053 C 
BRANCH   7   8
ATOM      8  C   UNL     1      25.323   8.787  28.835  1.00  0.00     0.041 C 
ATOM      9  O   UNL     1      26.217   7.901  28.875  1.00  0.00    -0.550 OA
ATOM     10  O   UNL     1      25.040   9.531  29.974  1.00  0.00    -0.550 OA
ENDBRANCH   7   8
ENDBRANCH   6   7
ENDBRANCH   5   6
ENDBRANCH   4   5
ENDBRANCH   3   4
ENDBRANCH   2   3
ENDBRANCH   1   2
BRANCH   1  11
ATOM     11  C   UNL     1      21.785   2.758  29.002  1.00  0.00     0.000 C 
BRANCH  11  12
ATOM     12  C   UNL     1      22.823   1.634  29.108  1.00  0.00    -0.000 C 
BRANCH  12  13
ATOM     13  C   UNL     1      23.060   1.242  30.573  1.00  0.00    -0.000 C 
BRANCH  13  14
ATOM     14  C   UNL     1      22.093   1.945  31.544  1.00  0.00    -0.000 C 
BRANCH  14  15
ATOM     15  C   UNL     1      22.768   2.670  32.724  1.00  0.00    -0.000 C 
BRANCH  15  16
ATOM     16  C   UNL     1      22.235   4.088  33.014  1.00  0.00    -0.000 C 
BRANCH  16  17
ATOM     17  C   UNL     1      22.019   4.964  31.769  1.00  0.00    -0.003 C 
ATOM     18  C   UNL     1      22.634   6.356  31.906  1.00  0.00     0.004 C 
ENDBRANCH  16  17
ENDBRANCH  15  16
ENDBRANCH  14  15
ENDBRANCH  13  14
ENDBRANCH  12  13
ENDBRANCH  11  12
ENDBRANCH   1  11
TORSDOF 14
ENDMDL
MODEL 5
REMARK VINA RESULT:    -2.922      0.992      3.164
REMARK INTER + INTRA:          -7.739
REMARK INTER:                  -5.352
REMARK INTRA:                  -2.387
REMARK UNBOUND:                -2.425
REMARK SMILES CCCCCCCCCCCCCCCC(=O)[O-]
REMARK SMILES IDX 9 1 10 2 11 3 12 4 13 5 14 6 15 7 16 8 17 9 18 10 8 11 7 12
REMARK SMILES IDX 6 13 5 14 4 15 3 16 2 17 1 18
REMARK H PARENT
REMARK Flexibility Score: inf
ROOT
ATOM      1  C   UNL     1      20.446   8.475  35.360  1.00  0.00     0.000 C 
ENDROOT
BRANCH   1   2
ATOM      2  C   UNL     1      19.705   7.138  35.250  1.00  0.00     0.000 C 
BRANCH   2   3
ATOM      3  C   UNL     1      20.620   5.968  35.625  1.00  0.00     0.000 C 
BRANCH   3   4
ATOM      4  C   UNL     1      19.948   4.623  35.324  1.00  0.00     0.000 C 
BRANCH   4   5
ATOM      5  C   UNL     1      20.922   3.663  34.631  1.00  0.00     0.000 C 
BRANCH   5   6
ATOM      6  C   UNL     1      22.317   4.287  34.510  1.00  0.00     0.006 C 
BRANCH   6   7
ATOM      7  C   UNL     1      22.850   4.171  33.079  1.00  0.00     0.053 C 
BRANCH   7   8
ATOM      8  C   UNL     1      22.156   5.146  32.181  1.00  0.00     0.041 C 
ATOM      9  O   UNL     1      22.135   6.371  32.471  1.00  0.00    -0.550 OA
ATOM     10  O   UNL     1      21.490   4.695  31.047  1.00  0.00    -0.550 OA
ENDBRANCH   7   8
ENDBRANCH   6   7
ENDBRANCH   5   6
ENDBRANCH   4   5
ENDBRANCH   3   4
ENDBRANCH   2   3
ENDBRANCH   1   2
BRANCH   1  11
ATOM     11  C   UNL     1      21.874   8.272  35.880  1.00  0.00     0.000 C 
BRANCH  11  12
ATOM     12  C   UNL     1      22.205   9.278  36.989  1.00  0.00    -0.000 C 
BRANCH  12  13
ATOM     13  C   UNL     1      20.952   9.634  37.800  1.00  0.00    -0.000 C 
BRANCH  13  14
ATOM     14  C   UNL     1      20.855   8.854  39.124  1.00  0.00    -0.000 C 
BRANCH  14  15
ATOM     15  C   UNL     1      20.047   7.544  39.051  1.00  0.00    -0.000 C 
BRANCH  15  16
ATOM     16  C   UNL     1      20.759   6.301  39.623  1.00  0.00    -0.000 C 
BRANCH  16  17
ATOM     17  C   UNL     1      22.134   6.002  39.003  1.00  0.00    -0.003 C 
ATOM     18  C   UNL     1      22.307   4.533  38.618  1.00  0.00     0.004 C 
ENDBRANCH  16  17
ENDBRANCH  15  16
ENDBRANCH  14  15
ENDBRANCH  13  14
ENDBRANCH  12  13
ENDBRANCH  11  12
ENDBRANCH   1  11
TORSDOF 14
ENDMDL
MODEL 6
REMARK VINA RESULT:    -2.869      1.204      2.891
REMARK INTER + INTRA:          -7.641
REMARK INTER:                  -5.638
REMARK INTRA:                  -2.004
REMARK UNBOUND:                -2.425
REMARK SMILES CCCCCCCCCCCCCCCC(=O)[O-]
REMARK SMILES IDX 9 1 10 2 11 3 12 4 13 5 14 6 15 7 16 8 17 9 18 10 8 11 7 12
REMARK SMILES IDX 6 13 5 14 4 15 3 16 2 17 1 18
REMARK H PARENT
REMARK Flexibility Score: inf
ROOT
ATOM      1  C   UNL     1      21.160   6.416  35.610  1.00  0.00     0.000 C 
ENDROOT
BRANCH   1   2
ATOM      2  C   UNL     1      21.061   5.108  36.403  1.00  0.00     0.000 C 
BRANCH   2   3
ATOM      3  C   UNL     1      22.264   4.201  36.124  1.00  0.00     0.000 C 
BRANCH   3   4
ATOM      4  C   UNL     1      21.813   2.818  35.638  1.00  0.00     0.000 C 
BRANCH   4   5
ATOM      5  C   UNL     1      21.631   2.802  34.116  1.00  0.00     0.000 C 
BRANCH   5   6
ATOM      6  C   UNL     1      22.795   3.510  33.414  1.00  0.00     0.006 C 
BRANCH   6   7
ATOM      7  C   UNL     1      22.382   4.006  32.026  1.00  0.00     0.053 C 
BRANCH   7   8
ATOM      8  C   UNL     1      21.672   5.319  32.128  1.00  0.00     0.041 C 
ATOM      9  O   UNL     1      22.328   6.384  32.271  1.00  0.00    -0.550 OA
ATOM     10  O   UNL     1      20.284   5.362  32.115  1.00  0.00    -0.550 OA
ENDBRANCH   7   8
ENDBRANCH   6   7
ENDBRANCH   5   6
ENDBRANCH   4   5
ENDBRANCH   3   4
ENDBRANCH   2   3
ENDBRANCH   1   2
BRANCH   1  11
ATOM     11  C   UNL     1      19.768   6.949  35.251  1.00  0.00     0.000 C 
BRANCH  11  12
ATOM     12  C   UNL     1      19.725   8.480  35.339  1.00  0.00    -0.000 C 
BRANCH  12  13
ATOM     13  C   UNL     1      21.141   9.073  35.299  1.00  0.00    -0.000 C 
BRANCH  13  14
ATOM     14  C   UNL     1      21.441   9.986  36.502  1.00  0.00    -0.000 C 
BRANCH  14  15
ATOM     15  C   UNL     1      22.522   9.460  37.465  1.00  0.00    -0.000 C 
BRANCH  15  16
ATOM     16  C   UNL     1      22.034   9.159  38.897  1.00  0.00    -0.000 C 
BRANCH  16  17
ATOM     17  C   UNL     1      20.514   8.977  39.037  1.00  0.00    -0.003 C 
ATOM     18  C   UNL     1      20.089   7.509  39.051  1.00  0.00     0.004 C 
ENDBRANCH  16  17
ENDBRANCH  15  16
ENDBRANCH  14  15
ENDBRANCH  13  14
ENDBRANCH  12  13
ENDBRANCH  11  12
ENDBRANCH   1  11
TORSDOF 14
ENDMDL
MODEL 7
REMARK VINA RESULT:    -2.868      1.915      3.924
REMARK INTER + INTRA:          -7.641
REMARK INTER:                  -5.703
REMARK INTRA:                  -1.938
REMARK UNBOUND:                -2.425
REMARK SMILES CCCCCCCCCCCCCCCC(=O)[O-]
REMARK SMILES IDX 9 1 10 2 11 3 12 4 13 5 14 6 15 7 16 8 17 9 18 10 8 11 7 12
REMARK SMILES IDX 6 13 5 14 4 15 3 16 2 17 1 18
REMARK H PARENT
REMARK Flexibility Score: inf
ROOT
ATOM      1  C   UNL     1      20.826   9.917  37.242  1.00  0.00     0.000 C 
ENDROOT
BRANCH   1   2
ATOM      2  C   UNL     1      20.577   9.687  35.747  1.00  0.00     0.000 C 
BRANCH   2   3
ATOM      3  C   UNL     1      21.843   9.182  35.048  1.00  0.00     0.000 C 
BRANCH   3   4
ATOM      4  C   UNL     1      21.673   7.733  34.576  1.00  0.00     0.000 C 
BRANCH   4   5
ATOM      5  C   UNL     1      20.241   7.239  34.818  1.00  0.00     0.000 C 
BRANCH   5   6
ATOM      6  C   UNL     1      20.241   5.858  35.483  1.00  0.00     0.006 C 
BRANCH   6   7
ATOM      7  C   UNL     1      21.662   5.299  35.592  1.00  0.00     0.053 C 
BRANCH   7   8
ATOM      8  C   UNL     1      21.821   4.095  34.718  1.00  0.00     0.041 C 
ATOM      9  O   UNL     1      22.964   3.610  34.509  1.00  0.00    -0.550 OA
ATOM     10  O   UNL     1      20.712   3.537  34.095  1.00  0.00    -0.550 OA
ENDBRANCH   7   8
ENDBRANCH   6   7
ENDBRANCH   5   6
ENDBRANCH   4   5
ENDBRANCH   3   4
ENDBRANCH   2   3
ENDBRANCH   1   2
BRANCH   1  11
ATOM     11  C   UNL     1      22.314   9.765  37.581  1.00  0.00     0.000 C 
BRANCH  11  12
ATOM     12  C   UNL     1      22.513   8.826  38.777  1.00  0.00    -0.000 C 
BRANCH  12  13
ATOM     13  C   UNL     1      21.882   7.452  38.508  1.00  0.00    -0.000 C 
BRANCH  13  14
ATOM     14  C   UNL     1      21.215   6.846  39.756  1.00  0.00    -0.000 C 
BRANCH  14  15
ATOM     15  C   UNL     1      20.251   7.789  40.502  1.00  0.00    -0.000 C 
BRANCH  15  16
ATOM     16  C   UNL     1      18.981   8.182  39.720  1.00  0.00    -0.000 C 
BRANCH  16  17
ATOM     17  C   UNL     1      18.506   9.627  39.944  1.00  0.00    -0.003 C 
ATOM     18  C   UNL     1      16.984   9.762  39.934  1.00  0.00     0.004 C 
ENDBRANCH  16  17
ENDBRANCH  15  16
ENDBRANCH  14  15
ENDBRANCH  13  14
ENDBRANCH  12  13
ENDBRANCH  11  12
ENDBRANCH   1  11
TORSDOF 14
ENDMDL
MODEL 8
REMARK VINA RESULT:    -2.867      9.884     12.021
REMARK INTER + INTRA:          -7.639
REMARK INTER:                  -4.873
REMARK INTRA:                  -2.765
REMARK UNBOUND:                -2.425
REMARK SMILES CCCCCCCCCCCCCCCC(=O)[O-]
REMARK SMILES IDX 9 1 10 2 11 3 12 4 13 5 14 6 15 7 16 8 17 9 18 10 8 11 7 12
REMARK SMILES IDX 6 13 5 14 4 15 3 16 2 17 1 18
REMARK H PARENT
REMARK Flexibility Score: inf
ROOT
ATOM      1  C   UNL     1      10.475   7.425  33.194  1.00  0.00     0.000 C 
ENDROOT
BRANCH   1   2
ATOM      2  C   UNL     1      10.370   6.461  34.381  1.00  0.00     0.000 C 
BRANCH   2   3
ATOM      3  C   UNL     1       9.612   5.188  33.992  1.00  0.00     0.000 C 
BRANCH   3   4
ATOM      4  C   UNL     1      10.460   3.937  34.256  1.00  0.00     0.000 C 
BRANCH   4   5
ATOM      5  C   UNL     1      11.950   4.290  34.340  1.00  0.00     0.000 C 
BRANCH   5   6
ATOM      6  C   UNL     1      12.692   3.849  33.073  1.00  0.00     0.006 C 
BRANCH   6   7
ATOM      7  C   UNL     1      13.152   5.059  32.255  1.00  0.00     0.053 C 
BRANCH   7   8
ATOM      8  C   UNL     1      14.115   4.637  31.190  1.00  0.00     0.041 C 
ATOM      9  O   UNL     1      13.712   4.446  30.012  1.00  0.00    -0.550 OA
ATOM     10  O   UNL     1      15.447   4.407  31.509  1.00  0.00    -0.550 OA
ENDBRANCH   7   8
ENDBRANCH   6   7
ENDBRANCH   5   6
ENDBRANCH   4   5
ENDBRANCH   3   4
ENDBRANCH   2   3
ENDBRANCH   1   2
BRANCH   1  11
ATOM     11  C   UNL     1       9.716   6.884  31.977  1.00  0.00     0.000 C 
BRANCH  11  12
ATOM     12  C   UNL     1      10.467   7.196  30.676  1.00  0.00    -0.000 C 
BRANCH  12  13
ATOM     13  C   UNL     1      10.523   5.961  29.765  1.00  0.00    -0.000 C 
BRANCH  13  14
ATOM     14  C   UNL     1       9.676   4.789  30.293  1.00  0.00    -0.000 C 
BRANCH  14  15
ATOM     15  C   UNL     1      10.364   3.412  30.239  1.00  0.00    -0.000 C 
BRANCH  15  16
ATOM     16  C   UNL     1       9.637   2.285  31.000  1.00  0.00    -0.000 C 
BRANCH  16  17
ATOM     17  C   UNL     1      10.556   1.187  31.561  1.00  0.00    -0.003 C 
ATOM     18  C   UNL     1       9.980   0.504  32.800  1.00  0.00     0.004 C 
ENDBRANCH  16  17
ENDBRANCH  15  16
ENDBRANCH  14  15
ENDBRANCH  13  14
ENDBRANCH  12  13
ENDBRANCH  11  12
ENDBRANCH   1  11
TORSDOF 14
ENDMDL
MODEL 9
REMARK VINA RESULT:    -2.809     10.087     12.039
REMARK INTER + INTRA:          -7.533
REMARK INTER:                  -4.843
REMARK INTRA:                  -2.690
REMARK UNBOUND:                -2.425
REMARK SMILES CCCCCCCCCCCCCCCC(=O)[O-]
REMARK SMILES IDX 9 1 10 2 11 3 12 4 13 5 14 6 15 7 16 8 17 9 18 10 8 11 7 12
REMARK SMILES IDX 6 13 5 14 4 15 3 16 2 17 1 18
REMARK H PARENT
REMARK Flexibility Score: inf
ROOT
ATOM      1  C   UNL     1      10.718   6.430  33.912  1.00  0.00     0.000 C 
ENDROOT
BRANCH   1   2
ATOM      2  C   UNL     1       9.944   6.367  35.234  1.00  0.00     0.000 C 
BRANCH   2   3
ATOM      3  C   UNL     1       9.080   5.103  35.306  1.00  0.00     0.000 C 
BRANCH   3   4
ATOM      4  C   UNL     1       9.142   4.315  33.992  1.00  0.00     0.000 C 
BRANCH   4   5
ATOM      5  C   UNL     1       9.583   2.868  34.238  1.00  0.00     0.000 C 
BRANCH   5   6
ATOM      6  C   UNL     1      10.594   2.788  35.387  1.00  0.00     0.006 C 
BRANCH   6   7
ATOM      7  C   UNL     1      12.031   2.786  34.857  1.00  0.00     0.053 C 
BRANCH   7   8
ATOM      8  C   UNL     1      12.811   3.916  35.451  1.00  0.00     0.041 C 
ATOM      9  O   UNL     1      13.681   4.514  34.765  1.00  0.00    -0.550 OA
ATOM     10  O   UNL     1      12.612   4.277  36.777  1.00  0.00    -0.550 OA
ENDBRANCH   7   8
ENDBRANCH   6   7
ENDBRANCH   5   6
ENDBRANCH   4   5
ENDBRANCH   3   4
ENDBRANCH   2   3
ENDBRANCH   1   2
BRANCH   1  11
ATOM     11  C   UNL     1      10.707   7.851  33.335  1.00  0.00     0.000 C 
BRANCH  11  12
ATOM     12  C   UNL     1      10.482   7.828  31.818  1.00  0.00    -0.000 C 
BRANCH  12  13
ATOM     13  C   UNL     1       9.204   7.056  31.464  1.00  0.00    -0.000 C 
BRANCH  13  14
ATOM     14  C   UNL     1       9.278   6.378  30.083  1.00  0.00    -0.000 C 
BRANCH  14  15
ATOM     15  C   UNL     1      10.510   5.477  29.866  1.00  0.00    -0.000 C 
BRANCH  15  16
ATOM     16  C   UNL     1      10.510   4.161  30.670  1.00  0.00    -0.000 C 
BRANCH  16  17
ATOM     17  C   UNL     1      11.853   3.809  31.332  1.00  0.00    -0.003 C 
ATOM     18  C   UNL     1      12.840   4.976  31.334  1.00  0.00     0.004 C 
ENDBRANCH  16  17
ENDBRANCH  15  16
ENDBRANCH  14  15
ENDBRANCH  13  14
ENDBRANCH  12  13
ENDBRANCH  11  12
ENDBRANCH   1  11
TORSDOF 14
ENDMDL
