MODEL 1
REMARK VINA RESULT:    -5.310      0.000      0.000
REMARK INTER + INTRA:          -6.427
REMARK INTER:                  -6.086
REMARK INTRA:                  -0.341
REMARK UNBOUND:                -0.341
REMARK SMILES COc1ccc(C(C)=O)c(O)c1
REMARK SMILES IDX 6 1 10 2 12 3 3 4 4 5 5 6 7 7 8 8 9 9 11 10 2 12 1 13
REMARK H PARENT 11 11
REMARK Flexibility Score: inf
ROOT
ATOM      1  C   UNL     1      25.171  61.580   3.838  1.00  0.00     0.059 A 
ATOM      2  C   UNL     1      24.521  62.540   3.029  1.00  0.00     0.130 A 
ATOM      3  C   UNL     1      24.442  62.348   1.641  1.00  0.00     0.093 A 
ATOM      4  C   UNL     1      24.983  61.208   1.041  1.00  0.00     0.122 A 
ATOM      5  C   UNL     1      25.614  60.245   1.846  1.00  0.00     0.047 A 
ATOM      6  C   UNL     1      25.702  60.429   3.228  1.00  0.00     0.019 A 
ENDROOT
BRANCH   1   7
ATOM      7  C   UNL     1      25.303  61.735   5.312  1.00  0.00     0.163 C 
ATOM      8  C   UNL     1      26.599  61.511   6.031  1.00  0.00     0.093 C 
ATOM      9  O   UNL     1      24.294  62.066   5.992  1.00  0.00    -0.294 OA
ENDBRANCH   1   7
BRANCH   2  10
ATOM     10  O   UNL     1      23.933  63.673   3.593  1.00  0.00    -0.507 OA
ATOM     11  H   UNL     1      22.928  63.802   3.605  1.00  0.00     0.293 HD
ENDBRANCH   2  10
BRANCH   4  12
ATOM     12  O   UNL     1      24.873  61.070  -0.350  1.00  0.00    -0.497 OA
ATOM     13  C   UNL     1      25.254  59.906  -1.076  1.00  0.00     0.278 C 
ENDBRANCH   4  12
TORSDOF 3
ENDMDL
MODEL 2
REMARK VINA RESULT:    -5.276      1.449      4.491
REMARK INTER + INTRA:          -6.388
REMARK INTER:                  -6.059
REMARK INTRA:                  -0.329
REMARK UNBOUND:                -0.341
REMARK SMILES COc1ccc(C(C)=O)c(O)c1
REMARK SMILES IDX 6 1 10 2 12 3 3 4 4 5 5 6 7 7 8 8 9 9 11 10 2 12 1 13
REMARK H PARENT 11 11
REMARK Flexibility Score: inf
ROOT
ATOM      1  C   UNL     1      24.497  61.903   2.213  1.00  0.00     0.059 A 
ATOM      2  C   UNL     1      24.345  62.803   3.293  1.00  0.00     0.130 A 
ATOM      3  C   UNL     1      24.903  62.498   4.543  1.00  0.00     0.093 A 
ATOM      4  C   UNL     1      25.628  61.319   4.739  1.00  0.00     0.122 A 
ATOM      5  C   UNL     1      25.796  60.432   3.662  1.00  0.00     0.047 A 
ATOM      6  C   UNL     1      25.239  60.725   2.415  1.00  0.00     0.019 A 
ENDROOT
BRANCH   1   7
ATOM      7  C   UNL     1      23.914  62.160   0.869  1.00  0.00     0.163 C 
ATOM      8  C   UNL     1      24.602  61.751  -0.398  1.00  0.00     0.093 C 
ATOM      9  O   UNL     1      22.799  62.743   0.780  1.00  0.00    -0.294 OA
ENDBRANCH   1   7
BRANCH   2  10
ATOM     10  O   UNL     1      23.662  64.009   3.129  1.00  0.00    -0.507 OA
ATOM     11  H   UNL     1      23.082  64.187   2.318  1.00  0.00     0.293 HD
ENDBRANCH   2  10
BRANCH   4  12
ATOM     12  O   UNL     1      26.164  61.069   6.010  1.00  0.00    -0.497 OA
ATOM     13  C   UNL     1      25.670  61.640   7.218  1.00  0.00     0.278 C 
ENDBRANCH   4  12
TORSDOF 3
ENDMDL
MODEL 3
REMARK VINA RESULT:    -5.153      1.610      1.956
REMARK INTER + INTRA:          -6.247
REMARK INTER:                  -5.907
REMARK INTRA:                  -0.339
REMARK UNBOUND:                -0.341
REMARK SMILES COc1ccc(C(C)=O)c(O)c1
REMARK SMILES IDX 6 1 10 2 12 3 3 4 4 5 5 6 7 7 8 8 9 9 11 10 2 12 1 13
REMARK H PARENT 11 11
REMARK Flexibility Score: inf
ROOT
ATOM      1  C   UNL     1      25.132  61.455   5.484  1.00  0.00     0.059 A 
ATOM      2  C   UNL     1      23.825  61.635   4.976  1.00  0.00     0.130 A 
ATOM      3  C   UNL     1      23.546  61.328   3.636  1.00  0.00     0.093 A 
ATOM      4  C   UNL     1      24.539  60.827   2.791  1.00  0.00     0.122 A 
ATOM      5  C   UNL     1      25.834  60.630   3.298  1.00  0.00     0.047 A 
ATOM      6  C   UNL     1      26.124  60.937   4.630  1.00  0.00     0.019 A 
ENDROOT
BRANCH   1   7
ATOM      7  C   UNL     1      25.496  61.779   6.889  1.00  0.00     0.163 C 
ATOM      8  C   UNL     1      26.356  60.880   7.726  1.00  0.00     0.093 C 
ATOM      9  O   UNL     1      25.071  62.848   7.407  1.00  0.00    -0.294 OA
ENDBRANCH   1   7
BRANCH   2  10
ATOM     10  O   UNL     1      22.795  62.096   5.797  1.00  0.00    -0.507 OA
ATOM     11  H   UNL     1      22.026  61.498   6.075  1.00  0.00     0.293 HD
ENDBRANCH   2  10
BRANCH   4  12
ATOM     12  O   UNL     1      24.200  60.537   1.461  1.00  0.00    -0.497 OA
ATOM     13  C   UNL     1      25.145  60.363   0.410  1.00  0.00     0.278 C 
ENDBRANCH   4  12
TORSDOF 3
ENDMDL
MODEL 4
REMARK VINA RESULT:    -5.151      3.561      5.979
REMARK INTER + INTRA:          -6.245
REMARK INTER:                  -5.909
REMARK INTRA:                  -0.336
REMARK UNBOUND:                -0.341
REMARK SMILES COc1ccc(C(C)=O)c(O)c1
REMARK SMILES IDX 6 1 10 2 12 3 3 4 4 5 5 6 7 7 8 8 9 9 11 10 2 12 1 13
REMARK H PARENT 11 11
REMARK Flexibility Score: inf
ROOT
ATOM      1  C   UNL     1      21.336  61.160   0.563  1.00  0.00     0.059 A 
ATOM      2  C   UNL     1      22.005  62.253   1.161  1.00  0.00     0.130 A 
ATOM      3  C   UNL     1      22.144  62.312   2.556  1.00  0.00     0.093 A 
ATOM      4  C   UNL     1      21.645  61.292   3.372  1.00  0.00     0.122 A 
ATOM      5  C   UNL     1      20.996  60.196   2.778  1.00  0.00     0.047 A 
ATOM      6  C   UNL     1      20.848  60.132   1.390  1.00  0.00     0.019 A 
ENDROOT
BRANCH   1   7
ATOM      7  C   UNL     1      21.141  61.050  -0.907  1.00  0.00     0.163 C 
ATOM      8  C   UNL     1      19.800  60.787  -1.523  1.00  0.00     0.093 C 
ATOM      9  O   UNL     1      22.134  61.180  -1.674  1.00  0.00    -0.294 OA
ENDBRANCH   1   7
BRANCH   2  10
ATOM     10  O   UNL     1      22.553  63.272   0.381  1.00  0.00    -0.507 OA
ATOM     11  H   UNL     1      22.032  63.705  -0.373  1.00  0.00     0.293 HD
ENDBRANCH   2  10
BRANCH   4  12
ATOM     12  O   UNL     1      21.815  61.404   4.759  1.00  0.00    -0.497 OA
ATOM     13  C   UNL     1      23.076  61.381   5.420  1.00  0.00     0.278 C 
ENDBRANCH   4  12
TORSDOF 3
ENDMDL
MODEL 5
REMARK VINA RESULT:    -5.046      2.840      4.965
REMARK INTER + INTRA:          -6.124
REMARK INTER:                  -5.796
REMARK INTRA:                  -0.328
REMARK UNBOUND:                -0.341
REMARK SMILES COc1ccc(C(C)=O)c(O)c1
REMARK SMILES IDX 6 1 10 2 12 3 3 4 4 5 5 6 7 7 8 8 9 9 11 10 2 12 1 13
REMARK H PARENT 11 11
REMARK Flexibility Score: inf
ROOT
ATOM      1  C   UNL     1      22.375  61.039   2.435  1.00  0.00     0.059 A 
ATOM      2  C   UNL     1      22.070  61.328   3.785  1.00  0.00     0.130 A 
ATOM      3  C   UNL     1      23.086  61.743   4.659  1.00  0.00     0.093 A 
ATOM      4  C   UNL     1      24.402  61.894   4.212  1.00  0.00     0.122 A 
ATOM      5  C   UNL     1      24.703  61.625   2.867  1.00  0.00     0.047 A 
ATOM      6  C   UNL     1      23.699  61.207   1.990  1.00  0.00     0.019 A 
ENDROOT
BRANCH   1   7
ATOM      7  C   UNL     1      21.347  60.578   1.464  1.00  0.00     0.163 C 
ATOM      8  C   UNL     1      21.384  60.952   0.013  1.00  0.00     0.093 C 
ATOM      9  O   UNL     1      20.402  59.844   1.865  1.00  0.00    -0.294 OA
ENDBRANCH   1   7
BRANCH   2  10
ATOM     10  O   UNL     1      20.762  61.228   4.262  1.00  0.00    -0.507 OA
ATOM     11  H   UNL     1      20.246  62.040   4.578  1.00  0.00     0.293 HD
ENDBRANCH   2  10
BRANCH   4  12
ATOM     12  O   UNL     1      25.374  62.313   5.132  1.00  0.00    -0.497 OA
ATOM     13  C   UNL     1      25.130  62.531   6.517  1.00  0.00     0.278 C 
ENDBRANCH   4  12
TORSDOF 3
ENDMDL
MODEL 6
REMARK VINA RESULT:    -4.995      2.527      3.343
REMARK INTER + INTRA:          -6.066
REMARK INTER:                  -5.733
REMARK INTRA:                  -0.333
REMARK UNBOUND:                -0.341
REMARK SMILES COc1ccc(C(C)=O)c(O)c1
REMARK SMILES IDX 6 1 10 2 12 3 3 4 4 5 5 6 7 7 8 8 9 9 11 10 2 12 1 13
REMARK H PARENT 11 11
REMARK Flexibility Score: inf
ROOT
ATOM      1  C   UNL     1      25.320  61.279   5.259  1.00  0.00     0.059 A 
ATOM      2  C   UNL     1      25.416  60.738   3.956  1.00  0.00     0.130 A 
ATOM      3  C   UNL     1      24.294  60.736   3.114  1.00  0.00     0.093 A 
ATOM      4  C   UNL     1      23.078  61.280   3.535  1.00  0.00     0.122 A 
ATOM      5  C   UNL     1      22.985  61.834   4.823  1.00  0.00     0.047 A 
ATOM      6  C   UNL     1      24.095  61.836   5.671  1.00  0.00     0.019 A 
ENDROOT
BRANCH   1   7
ATOM      7  C   UNL     1      26.467  61.294   6.206  1.00  0.00     0.163 C 
ATOM      8  C   UNL     1      26.330  60.892   7.643  1.00  0.00     0.093 C 
ATOM      9  O   UNL     1      27.604  61.657   5.795  1.00  0.00    -0.294 OA
ENDBRANCH   1   7
BRANCH   2  10
ATOM     10  O   UNL     1      26.623  60.222   3.483  1.00  0.00    -0.507 OA
ATOM     11  H   UNL     1      27.380  59.975   4.109  1.00  0.00     0.293 HD
ENDBRANCH   2  10
BRANCH   4  12
ATOM     12  O   UNL     1      21.992  61.251   2.649  1.00  0.00    -0.497 OA
ATOM     13  C   UNL     1      21.075  60.168   2.535  1.00  0.00     0.278 C 
ENDBRANCH   4  12
TORSDOF 3
ENDMDL
MODEL 7
REMARK VINA RESULT:    -4.983      2.521      4.961
REMARK INTER + INTRA:          -6.052
REMARK INTER:                  -5.721
REMARK INTRA:                  -0.331
REMARK UNBOUND:                -0.341
REMARK SMILES COc1ccc(C(C)=O)c(O)c1
REMARK SMILES IDX 6 1 10 2 12 3 3 4 4 5 5 6 7 7 8 8 9 9 11 10 2 12 1 13
REMARK H PARENT 11 11
REMARK Flexibility Score: inf
ROOT
ATOM      1  C   UNL     1      22.465  61.452   1.585  1.00  0.00     0.059 A 
ATOM      2  C   UNL     1      22.941  62.784   1.587  1.00  0.00     0.130 A 
ATOM      3  C   UNL     1      23.774  63.229   2.624  1.00  0.00     0.093 A 
ATOM      4  C   UNL     1      24.161  62.368   3.655  1.00  0.00     0.122 A 
ATOM      5  C   UNL     1      23.703  61.040   3.646  1.00  0.00     0.047 A 
ATOM      6  C   UNL     1      22.869  60.589   2.620  1.00  0.00     0.019 A 
ENDROOT
BRANCH   1   7
ATOM      7  C   UNL     1      21.564  60.926   0.524  1.00  0.00     0.163 C 
ATOM      8  C   UNL     1      20.425  60.000   0.823  1.00  0.00     0.093 C 
ATOM      9  O   UNL     1      21.758  61.265  -0.675  1.00  0.00    -0.294 OA
ENDBRANCH   1   7
BRANCH   2  10
ATOM     10  O   UNL     1      22.611  63.664   0.555  1.00  0.00    -0.507 OA
ATOM     11  H   UNL     1      21.858  64.335   0.648  1.00  0.00     0.293 HD
ENDBRANCH   2  10
BRANCH   4  12
ATOM     12  O   UNL     1      24.996  62.869   4.664  1.00  0.00    -0.497 OA
ATOM     13  C   UNL     1      25.112  62.304   5.966  1.00  0.00     0.278 C 
ENDBRANCH   4  12
TORSDOF 3
ENDMDL
MODEL 8
REMARK VINA RESULT:    -4.943      2.824      3.811
REMARK INTER + INTRA:          -6.007
REMARK INTER:                  -5.669
REMARK INTRA:                  -0.338
REMARK UNBOUND:                -0.341
REMARK SMILES COc1ccc(C(C)=O)c(O)c1
REMARK SMILES IDX 6 1 10 2 12 3 3 4 4 5 5 6 7 7 8 8 9 9 11 10 2 12 1 13
REMARK H PARENT 11 11
REMARK Flexibility Score: inf
ROOT
ATOM      1  C   UNL     1      23.763  61.351   1.414  1.00  0.00     0.059 A 
ATOM      2  C   UNL     1      24.289  61.322   0.102  1.00  0.00     0.130 A 
ATOM      3  C   UNL     1      23.437  61.093  -0.990  1.00  0.00     0.093 A 
ATOM      4  C   UNL     1      22.064  60.910  -0.804  1.00  0.00     0.122 A 
ATOM      5  C   UNL     1      21.537  60.957   0.498  1.00  0.00     0.047 A 
ATOM      6  C   UNL     1      22.378  61.179   1.591  1.00  0.00     0.019 A 
ENDROOT
BRANCH   1   7
ATOM      7  C   UNL     1      24.616  61.570   2.613  1.00  0.00     0.163 C 
ATOM      8  C   UNL     1      24.329  62.643   3.619  1.00  0.00     0.093 C 
ATOM      9  O   UNL     1      25.622  60.832   2.799  1.00  0.00    -0.294 OA
ENDBRANCH   1   7
BRANCH   2  10
ATOM     10  O   UNL     1      25.647  61.540  -0.131  1.00  0.00    -0.507 OA
ATOM     11  H   UNL     1      26.349  61.322   0.567  1.00  0.00     0.293 HD
ENDBRANCH   2  10
BRANCH   4  12
ATOM     12  O   UNL     1      21.262  60.687  -1.932  1.00  0.00    -0.497 OA
ATOM     13  C   UNL     1      19.852  60.884  -1.969  1.00  0.00     0.278 C 
ENDBRANCH   4  12
TORSDOF 3
ENDMDL
MODEL 9
REMARK VINA RESULT:    -4.876      4.034      6.410
REMARK INTER + INTRA:          -5.929
REMARK INTER:                  -5.593
REMARK INTRA:                  -0.336
REMARK UNBOUND:                -0.341
REMARK SMILES COc1ccc(C(C)=O)c(O)c1
REMARK SMILES IDX 6 1 10 2 12 3 3 4 4 5 5 6 7 7 8 8 9 9 11 10 2 12 1 13
REMARK H PARENT 11 11
REMARK Flexibility Score: inf
ROOT
ATOM      1  C   UNL     1      21.006  60.737  -0.619  1.00  0.00     0.059 A 
ATOM      2  C   UNL     1      22.404  60.943  -0.605  1.00  0.00     0.130 A 
ATOM      3  C   UNL     1      23.138  60.693   0.564  1.00  0.00     0.093 A 
ATOM      4  C   UNL     1      22.510  60.221   1.720  1.00  0.00     0.122 A 
ATOM      5  C   UNL     1      21.123  59.998   1.703  1.00  0.00     0.047 A 
ATOM      6  C   UNL     1      20.383  60.250   0.545  1.00  0.00     0.019 A 
ENDROOT
BRANCH   1   7
ATOM      7  C   UNL     1      20.169  61.002  -1.820  1.00  0.00     0.163 C 
ATOM      8  C   UNL     1      18.873  61.750  -1.750  1.00  0.00     0.093 C 
ATOM      9  O   UNL     1      20.556  60.586  -2.947  1.00  0.00    -0.294 OA
ENDBRANCH   1   7
BRANCH   2  10
ATOM     10  O   UNL     1      23.076  61.375  -1.750  1.00  0.00    -0.507 OA
ATOM     11  H   UNL     1      22.655  61.315  -2.669  1.00  0.00     0.293 HD
ENDBRANCH   2  10
BRANCH   4  12
ATOM     12  O   UNL     1      23.295  59.987   2.858  1.00  0.00    -0.497 OA
ATOM     13  C   UNL     1      24.108  60.970   3.491  1.00  0.00     0.278 C 
ENDBRANCH   4  12
TORSDOF 3
ENDMDL
