MODEL 1
REMARK VINA RESULT:    -3.794      0.000      0.000
REMARK INTER + INTRA:          -5.422
REMARK INTER:                  -5.346
REMARK INTRA:                  -0.076
REMARK UNBOUND:                -0.076
REMARK SMILES CC1=CCC(=C(C)C)C(=O)CC(C)=CCC1
REMARK SMILES IDX 12 1 14 2 13 3 15 4 16 5 2 6 1 7 3 8 11 10 9 11 10 12 5 13
REMARK SMILES IDX 6 14 7 15 8 16 4 17
REMARK H PARENT
REMARK Flexibility Score: 60.00
ROOT
ATOM      1  C   UNL     1      31.604  70.851 106.462  1.00  0.00    -0.070 C 
ATOM      2  C   UNL     1      32.450  71.857 106.783  1.00  0.00    -0.027 C 
ATOM      3  C   UNL     1      30.121  71.109 106.547  1.00  0.00     0.039 C 
ENDROOT
BRANCH   2   4
ATOM      4  C   UNL     1      33.952  71.747 106.876  1.00  0.00     0.032 C 
BRANCH   4   5
ATOM      5  C   UNL     1      34.716  72.082 105.588  1.00  0.00     0.034 C 
BRANCH   5   6
ATOM      6  C   UNL     1      35.717  71.021 105.170  1.00  0.00    -0.077 C 
ATOM      7  C   UNL     1      37.050  70.995 105.876  1.00  0.00     0.039 C 
ATOM      8  C   UNL     1      35.475  70.049 104.254  1.00  0.00    -0.023 CG0
ATOM      9  G   UNL     1      34.299  69.917 103.305  1.00  0.00     0.000 G0
ENDBRANCH   5   6
ENDBRANCH   4   5
ENDBRANCH   2   4
BRANCH   1  10
ATOM     10  C   UNL     1      32.068  69.508 105.942  1.00  0.00     0.111 C 
BRANCH  10  11
ATOM     11  C   UNL     1      32.064  69.478 104.434  1.00  0.00     0.163 C 
ATOM     12  O   UNL     1      31.058  69.925 103.819  1.00  0.00    -0.294 OA
BRANCH  11  13
ATOM     13  C   UNL     1      33.210  68.951 103.649  1.00  0.00    -0.002 C 
ATOM     14  C   UNL     1      33.174  67.688 103.143  1.00  0.00    -0.069 C 
ATOM     15  C   UNL     1      32.047  66.748 103.501  1.00  0.00     0.039 C 
ATOM     16  C   UNL     1      34.263  67.168 102.233  1.00  0.00     0.039 C 
BRANCH  13  17
ATOM     17  C   UNL     1      34.313  69.934 103.299  1.00  0.00     0.066 CG0
ATOM     18  G   UNL     1      35.467  70.056 104.275  1.00  0.00     0.000 G0
ENDBRANCH  13  17
ENDBRANCH  11  13
ENDBRANCH  10  11
ENDBRANCH   1  10
TORSDOF 0
ENDMDL
MODEL 2
REMARK VINA RESULT:    -3.444      1.684      4.208
REMARK INTER + INTRA:          -4.930
REMARK INTER:                  -4.747
REMARK INTRA:                  -0.183
REMARK UNBOUND:                -0.076
REMARK SMILES CC1=CCC(=C(C)C)C(=O)CC(C)=CCC1
REMARK SMILES IDX 12 1 14 2 13 3 15 4 16 5 2 6 1 7 3 8 11 10 9 11 10 12 5 13
REMARK SMILES IDX 6 14 7 15 8 16 4 17
REMARK H PARENT
REMARK Flexibility Score: 60.00
ROOT
ATOM      1  C   UNL     1      30.825  67.180 104.737  1.00  0.00    -0.070 C 
ATOM      2  C   UNL     1      31.701  66.624 103.869  1.00  0.00    -0.027 C 
ATOM      3  C   UNL     1      29.832  66.278 105.426  1.00  0.00     0.039 C 
ENDROOT
BRANCH   2   4
ATOM      4  C   UNL     1      32.677  67.380 103.000  1.00  0.00     0.032 C 
BRANCH   4   5
ATOM      5  C   UNL     1      34.145  67.308 103.446  1.00  0.00     0.034 C 
BRANCH   5   6
ATOM      6  C   UNL     1      34.862  68.644 103.424  1.00  0.00    -0.077 C 
ATOM      7  C   UNL     1      35.595  69.028 102.162  1.00  0.00     0.039 C 
ATOM      8  C   UNL     1      34.836  69.553 104.432  1.00  0.00    -0.023 CG0
ATOM      9  G   UNL     1      34.306  69.382 105.843  1.00  0.00     0.000 G0
ENDBRANCH   5   6
ENDBRANCH   4   5
ENDBRANCH   2   4
BRANCH   1  10
ATOM     10  C   UNL     1      30.844  68.645 105.116  1.00  0.00     0.111 C 
BRANCH  10  11
ATOM     11  C   UNL     1      31.809  68.901 106.246  1.00  0.00     0.163 C 
ATOM     12  O   UNL     1      31.701  68.224 107.305  1.00  0.00    -0.294 OA
BRANCH  11  13
ATOM     13  C   UNL     1      32.890  69.916 106.150  1.00  0.00    -0.002 C 
ATOM     14  C   UNL     1      32.640  71.218 106.460  1.00  0.00    -0.069 C 
ATOM     15  C   UNL     1      31.232  71.683 106.750  1.00  0.00     0.039 C 
ATOM     16  C   UNL     1      33.744  72.249 106.499  1.00  0.00     0.039 C 
BRANCH  13  17
ATOM     17  C   UNL     1      34.291  69.403 105.872  1.00  0.00     0.066 CG0
ATOM     18  G   UNL     1      34.822  69.571 104.461  1.00  0.00     0.000 G0
ENDBRANCH  13  17
ENDBRANCH  11  13
ENDBRANCH  10  11
ENDBRANCH   1  10
TORSDOF 0
ENDMDL
MODEL 3
REMARK VINA RESULT:    -3.428      2.611      5.425
REMARK INTER + INTRA:          -4.908
REMARK INTER:                  -5.069
REMARK INTRA:                   0.161
REMARK UNBOUND:                -0.076
REMARK SMILES CC1=CCC(=C(C)C)C(=O)CC(C)=CCC1
REMARK SMILES IDX 12 1 14 2 13 3 15 4 16 5 2 6 1 7 3 8 11 10 9 11 10 12 5 13
REMARK SMILES IDX 6 14 7 15 8 16 4 17
REMARK H PARENT
REMARK Flexibility Score: 60.00
ROOT
ATOM      1  C   UNL     1      32.204  69.003 103.763  1.00  0.00    -0.070 C 
ATOM      2  C   UNL     1      31.747  67.737 103.621  1.00  0.00    -0.027 C 
ATOM      3  C   UNL     1      33.602  69.315 103.292  1.00  0.00     0.039 C 
ENDROOT
BRANCH   2   4
ATOM      4  C   UNL     1      30.431  67.214 104.143  1.00  0.00     0.032 C 
BRANCH   4   5
ATOM      5  C   UNL     1      30.531  66.294 105.368  1.00  0.00     0.034 C 
BRANCH   5   6
ATOM      6  C   UNL     1      30.153  66.964 106.676  1.00  0.00    -0.077 C 
ATOM      7  C   UNL     1      28.760  66.732 107.207  1.00  0.00     0.039 C 
ATOM      8  C   UNL     1      30.999  67.702 107.439  1.00  0.00    -0.023 CG0
ATOM      9  G   UNL     1      32.386  68.206 107.092  1.00  0.00     0.000 G0
ENDBRANCH   5   6
ENDBRANCH   4   5
ENDBRANCH   2   4
BRANCH   1  10
ATOM     10  C   UNL     1      31.356  70.139 104.293  1.00  0.00     0.111 C 
BRANCH  10  11
ATOM     11  C   UNL     1      31.403  70.196 105.799  1.00  0.00     0.163 C 
ATOM     12  O   UNL     1      30.441  70.724 106.419  1.00  0.00    -0.294 OA
BRANCH  11  13
ATOM     13  C   UNL     1      32.542  69.641 106.577  1.00  0.00    -0.002 C 
ATOM     14  C   UNL     1      33.581  70.441 106.941  1.00  0.00    -0.069 C 
ATOM     15  C   UNL     1      33.676  71.859 106.427  1.00  0.00     0.039 C 
ATOM     16  C   UNL     1      34.688  69.942 107.840  1.00  0.00     0.039 C 
BRANCH  13  17
ATOM     17  C   UNL     1      32.397  68.218 107.085  1.00  0.00     0.066 CG0
ATOM     18  G   UNL     1      30.997  67.743 107.422  1.00  0.00     0.000 G0
ENDBRANCH  13  17
ENDBRANCH  11  13
ENDBRANCH  10  11
ENDBRANCH   1  10
TORSDOF 0
ENDMDL
MODEL 4
REMARK VINA RESULT:    -3.422      1.771      2.177
REMARK INTER + INTRA:          -4.898
REMARK INTER:                  -5.205
REMARK INTRA:                   0.307
REMARK UNBOUND:                -0.076
REMARK SMILES CC1=CCC(=C(C)C)C(=O)CC(C)=CCC1
REMARK SMILES IDX 12 1 14 2 13 3 15 4 16 5 2 6 1 7 3 8 11 10 9 11 10 12 5 13
REMARK SMILES IDX 6 14 7 15 8 16 4 17
REMARK H PARENT
REMARK Flexibility Score: 60.00
ROOT
ATOM      1  C   UNL     1      30.968  70.873 106.272  1.00  0.00    -0.070 C 
ATOM      2  C   UNL     1      31.877  71.699 106.840  1.00  0.00    -0.027 C 
ATOM      3  C   UNL     1      29.832  70.367 107.125  1.00  0.00     0.039 C 
ENDROOT
BRANCH   2   4
ATOM      4  C   UNL     1      33.139  72.202 106.182  1.00  0.00     0.032 C 
BRANCH   4   5
ATOM      5  C   UNL     1      34.444  71.592 106.714  1.00  0.00     0.034 C 
BRANCH   5   6
ATOM      6  C   UNL     1      35.076  70.576 105.781  1.00  0.00    -0.077 C 
ATOM      7  C   UNL     1      36.217  71.037 104.908  1.00  0.00     0.039 C 
ATOM      8  C   UNL     1      34.735  69.263 105.724  1.00  0.00    -0.023 CG0
ATOM      9  G   UNL     1      33.556  68.565 106.373  1.00  0.00     0.000 G0
ENDBRANCH   5   6
ENDBRANCH   4   5
ENDBRANCH   2   4
BRANCH   1  10
ATOM     10  C   UNL     1      30.984  70.500 104.806  1.00  0.00     0.111 C 
BRANCH  10  11
ATOM     11  C   UNL     1      32.000  69.420 104.532  1.00  0.00     0.163 C 
ATOM     12  O   UNL     1      32.607  69.420 103.427  1.00  0.00    -0.294 OA
BRANCH  11  13
ATOM     13  C   UNL     1      32.316  68.360 105.525  1.00  0.00    -0.002 C 
ATOM     14  C   UNL     1      31.610  67.197 105.538  1.00  0.00    -0.069 C 
ATOM     15  C   UNL     1      30.395  67.025 104.656  1.00  0.00     0.039 C 
ATOM     16  C   UNL     1      31.990  66.050 106.445  1.00  0.00     0.039 C 
BRANCH  13  17
ATOM     17  C   UNL     1      33.554  68.567 106.378  1.00  0.00     0.066 CG0
ATOM     18  G   UNL     1      34.742  69.243 105.721  1.00  0.00     0.000 G0
ENDBRANCH  13  17
ENDBRANCH  11  13
ENDBRANCH  10  11
ENDBRANCH   1  10
TORSDOF 0
ENDMDL
MODEL 5
REMARK VINA RESULT:    -3.374      1.772      3.670
REMARK INTER + INTRA:          -4.831
REMARK INTER:                  -4.821
REMARK INTRA:                  -0.009
REMARK UNBOUND:                -0.076
REMARK SMILES CC1=CCC(=C(C)C)C(=O)CC(C)=CCC1
REMARK SMILES IDX 12 1 14 2 13 3 15 4 16 5 2 6 1 7 3 8 11 10 9 11 10 12 5 13
REMARK SMILES IDX 6 14 7 15 8 16 4 17
REMARK H PARENT
REMARK Flexibility Score: 60.00
ROOT
ATOM      1  C   UNL     1      34.096  70.965 106.037  1.00  0.00    -0.070 C 
ATOM      2  C   UNL     1      34.879  71.073 104.938  1.00  0.00    -0.027 C 
ATOM      3  C   UNL     1      33.951  72.169 106.932  1.00  0.00     0.039 C 
ENDROOT
BRANCH   2   4
ATOM      4  C   UNL     1      35.239  69.946 104.002  1.00  0.00     0.032 C 
BRANCH   4   5
ATOM      5  C   UNL     1      34.168  69.590 102.960  1.00  0.00     0.034 C 
BRANCH   5   6
ATOM      6  C   UNL     1      33.872  68.106 102.862  1.00  0.00    -0.077 C 
ATOM      7  C   UNL     1      34.958  67.206 102.326  1.00  0.00     0.039 C 
ATOM      8  C   UNL     1      32.724  67.517 103.287  1.00  0.00    -0.023 CG0
ATOM      9  G   UNL     1      31.433  68.177 103.730  1.00  0.00     0.000 G0
ENDBRANCH   5   6
ENDBRANCH   4   5
ENDBRANCH   2   4
BRANCH   1  10
ATOM     10  C   UNL     1      33.293  69.725 106.368  1.00  0.00     0.111 C 
BRANCH  10  11
ATOM     11  C   UNL     1      31.951  69.748 105.681  1.00  0.00     0.163 C 
ATOM     12  O   UNL     1      31.377  70.856 105.501  1.00  0.00    -0.294 OA
BRANCH  11  13
ATOM     13  C   UNL     1      31.288  68.508 105.199  1.00  0.00    -0.002 C 
ATOM     14  C   UNL     1      30.470  67.800 106.024  1.00  0.00    -0.069 C 
ATOM     15  C   UNL     1      30.348  68.167 107.485  1.00  0.00     0.039 C 
ATOM     16  C   UNL     1      29.679  66.612 105.528  1.00  0.00     0.039 C 
BRANCH  13  17
ATOM     17  C   UNL     1      31.424  68.187 103.721  1.00  0.00     0.066 CG0
ATOM     18  G   UNL     1      32.711  67.521 103.275  1.00  0.00     0.000 G0
ENDBRANCH  13  17
ENDBRANCH  11  13
ENDBRANCH  10  11
ENDBRANCH   1  10
TORSDOF 0
ENDMDL
MODEL 6
REMARK VINA RESULT:    -3.324      1.905      4.839
REMARK INTER + INTRA:          -4.760
REMARK INTER:                  -4.667
REMARK INTRA:                  -0.093
REMARK UNBOUND:                -0.076
REMARK SMILES CC1=CCC(=C(C)C)C(=O)CC(C)=CCC1
REMARK SMILES IDX 12 1 14 2 13 3 15 4 16 5 2 6 1 7 3 8 11 10 9 11 10 12 5 13
REMARK SMILES IDX 6 14 7 15 8 16 4 17
REMARK H PARENT
REMARK Flexibility Score: 60.00
ROOT
ATOM      1  C   UNL     1      32.974  67.901 103.706  1.00  0.00    -0.070 C 
ATOM      2  C   UNL     1      31.650  68.142 103.566  1.00  0.00    -0.027 C 
ATOM      3  C   UNL     1      33.694  67.197 102.584  1.00  0.00     0.039 C 
ENDROOT
BRANCH   2   4
ATOM      4  C   UNL     1      30.745  68.718 104.628  1.00  0.00     0.032 C 
BRANCH   4   5
ATOM      5  C   UNL     1      30.770  70.249 104.752  1.00  0.00     0.034 C 
BRANCH   5   6
ATOM      6  C   UNL     1      30.929  70.750 106.174  1.00  0.00    -0.077 C 
ATOM      7  C   UNL     1      29.776  70.546 107.125  1.00  0.00     0.039 C 
ATOM      8  C   UNL     1      32.062  71.307 106.675  1.00  0.00    -0.023 CG0
ATOM      9  G   UNL     1      33.304  71.754 105.928  1.00  0.00     0.000 G0
ENDBRANCH   5   6
ENDBRANCH   4   5
ENDBRANCH   2   4
BRANCH   1  10
ATOM     10  C   UNL     1      33.786  68.375 104.892  1.00  0.00     0.111 C 
BRANCH  10  11
ATOM     11  C   UNL     1      34.316  69.768 104.665  1.00  0.00     0.163 C 
ATOM     12  O   UNL     1      34.649  70.111 103.499  1.00  0.00    -0.294 OA
BRANCH  11  13
ATOM     13  C   UNL     1      34.449  70.755 105.769  1.00  0.00    -0.002 C 
ATOM     14  C   UNL     1      35.604  70.835 106.484  1.00  0.00    -0.069 C 
ATOM     15  C   UNL     1      36.707  69.824 106.279  1.00  0.00     0.039 C 
ATOM     16  C   UNL     1      35.818  71.911 107.523  1.00  0.00     0.039 C 
BRANCH  13  17
ATOM     17  C   UNL     1      33.324  71.761 105.929  1.00  0.00     0.066 CG0
ATOM     18  G   UNL     1      32.088  71.304 106.679  1.00  0.00     0.000 G0
ENDBRANCH  13  17
ENDBRANCH  11  13
ENDBRANCH  10  11
ENDBRANCH   1  10
TORSDOF 0
ENDMDL
MODEL 7
REMARK VINA RESULT:    -3.281      3.028      4.864
REMARK INTER + INTRA:          -4.701
REMARK INTER:                  -4.549
REMARK INTRA:                  -0.152
REMARK UNBOUND:                -0.076
REMARK SMILES CC1=CCC(=C(C)C)C(=O)CC(C)=CCC1
REMARK SMILES IDX 12 1 14 2 13 3 15 4 16 5 2 6 1 7 3 8 11 10 9 11 10 12 5 13
REMARK SMILES IDX 6 14 7 15 8 16 4 17
REMARK H PARENT
REMARK Flexibility Score: 60.00
ROOT
ATOM      1  C   UNL     1      35.188  71.628 107.081  1.00  0.00    -0.070 C 
ATOM      2  C   UNL     1      35.944  70.823 107.861  1.00  0.00    -0.027 C 
ATOM      3  C   UNL     1      35.873  72.424 105.999  1.00  0.00     0.039 C 
ENDROOT
BRANCH   2   4
ATOM      4  C   UNL     1      35.456  70.052 109.064  1.00  0.00     0.032 C 
BRANCH   4   5
ATOM      5  C   UNL     1      35.217  68.554 108.831  1.00  0.00     0.034 C 
BRANCH   5   6
ATOM      6  C   UNL     1      33.905  68.043 109.395  1.00  0.00    -0.077 C 
ATOM      7  C   UNL     1      33.893  67.568 110.828  1.00  0.00     0.039 C 
ATOM      8  C   UNL     1      32.723  68.045 108.727  1.00  0.00    -0.023 CG0
ATOM      9  G   UNL     1      32.470  68.329 107.259  1.00  0.00     0.000 G0
ENDBRANCH   5   6
ENDBRANCH   4   5
ENDBRANCH   2   4
BRANCH   1  10
ATOM     10  C   UNL     1      33.680  71.708 107.182  1.00  0.00     0.111 C 
BRANCH  10  11
ATOM     11  C   UNL     1      33.022  70.645 106.339  1.00  0.00     0.163 C 
ATOM     12  O   UNL     1      33.363  70.527 105.131  1.00  0.00    -0.294 OA
BRANCH  11  13
ATOM     13  C   UNL     1      31.992  69.724 106.887  1.00  0.00    -0.002 C 
ATOM     14  C   UNL     1      30.679  70.085 106.892  1.00  0.00    -0.069 C 
ATOM     15  C   UNL     1      30.265  71.482 106.493  1.00  0.00     0.039 C 
ATOM     16  C   UNL     1      29.595  69.124 107.320  1.00  0.00     0.039 C 
BRANCH  13  17
ATOM     17  C   UNL     1      32.450  68.326 107.260  1.00  0.00     0.066 CG0
ATOM     18  G   UNL     1      32.729  68.058 108.727  1.00  0.00     0.000 G0
ENDBRANCH  13  17
ENDBRANCH  11  13
ENDBRANCH  10  11
ENDBRANCH   1  10
TORSDOF 0
ENDMDL
MODEL 8
REMARK VINA RESULT:    -3.214      3.241      4.411
REMARK INTER + INTRA:          -4.606
REMARK INTER:                  -4.467
REMARK INTRA:                  -0.139
REMARK UNBOUND:                -0.076
REMARK SMILES CC1=CCC(=C(C)C)C(=O)CC(C)=CCC1
REMARK SMILES IDX 12 1 14 2 13 3 15 4 16 5 2 6 1 7 3 8 11 10 9 11 10 12 5 13
REMARK SMILES IDX 6 14 7 15 8 16 4 17
REMARK H PARENT
REMARK Flexibility Score: 60.00
ROOT
ATOM      1  C   UNL     1      31.598  69.617 106.379  1.00  0.00    -0.070 C 
ATOM      2  C   UNL     1      32.023  70.818 105.922  1.00  0.00    -0.027 C 
ATOM      3  C   UNL     1      30.786  68.747 105.453  1.00  0.00     0.039 C 
ENDROOT
BRANCH   2   4
ATOM      4  C   UNL     1      32.735  71.868 106.740  1.00  0.00     0.032 C 
BRANCH   4   5
ATOM      5  C   UNL     1      34.264  71.885 106.599  1.00  0.00     0.034 C 
BRANCH   5   6
ATOM      6  C   UNL     1      35.006  71.889 107.921  1.00  0.00    -0.077 C 
ATOM      7  C   UNL     1      35.237  73.219 108.594  1.00  0.00     0.039 C 
ATOM      8  C   UNL     1      35.417  70.775 108.580  1.00  0.00    -0.023 CG0
ATOM      9  G   UNL     1      35.443  69.342 108.085  1.00  0.00     0.000 G0
ENDBRANCH   5   6
ENDBRANCH   4   5
ENDBRANCH   2   4
BRANCH   1  10
ATOM     10  C   UNL     1      31.967  69.066 107.739  1.00  0.00     0.111 C 
BRANCH  10  11
ATOM     11  C   UNL     1      33.199  68.200 107.659  1.00  0.00     0.163 C 
ATOM     12  O   UNL     1      33.247  67.289 106.789  1.00  0.00    -0.294 OA
BRANCH  11  13
ATOM     13  C   UNL     1      34.362  68.390 108.564  1.00  0.00    -0.002 C 
ATOM     14  C   UNL     1      34.493  67.630 109.685  1.00  0.00    -0.069 C 
ATOM     15  C   UNL     1      33.386  66.696 110.115  1.00  0.00     0.039 C 
ATOM     16  C   UNL     1      35.727  67.708 110.555  1.00  0.00     0.039 C 
BRANCH  13  17
ATOM     17  C   UNL     1      35.458  69.326 108.085  1.00  0.00     0.066 CG0
ATOM     18  G   UNL     1      35.414  70.756 108.588  1.00  0.00     0.000 G0
ENDBRANCH  13  17
ENDBRANCH  11  13
ENDBRANCH  10  11
ENDBRANCH   1  10
TORSDOF 0
ENDMDL
MODEL 9
REMARK VINA RESULT:    -3.185      1.814      3.771
REMARK INTER + INTRA:          -4.565
REMARK INTER:                  -4.837
REMARK INTRA:                   0.272
REMARK UNBOUND:                -0.076
REMARK SMILES CC1=CCC(=C(C)C)C(=O)CC(C)=CCC1
REMARK SMILES IDX 12 1 14 2 13 3 15 4 16 5 2 6 1 7 3 8 11 10 9 11 10 12 5 13
REMARK SMILES IDX 6 14 7 15 8 16 4 17
REMARK H PARENT
REMARK Flexibility Score: 60.00
ROOT
ATOM      1  C   UNL     1      32.598  68.192 104.105  1.00  0.00    -0.070 C 
ATOM      2  C   UNL     1      33.356  68.661 103.087  1.00  0.00    -0.027 C 
ATOM      3  C   UNL     1      31.109  68.079 103.895  1.00  0.00     0.039 C 
ENDROOT
BRANCH   2   4
ATOM      4  C   UNL     1      34.834  68.958 103.155  1.00  0.00     0.032 C 
BRANCH   4   5
ATOM      5  C   UNL     1      35.197  70.435 103.368  1.00  0.00     0.034 C 
BRANCH   5   6
ATOM      6  C   UNL     1      35.520  70.790 104.807  1.00  0.00    -0.077 C 
ATOM      7  C   UNL     1      36.969  70.772 105.227  1.00  0.00     0.039 C 
ATOM      8  C   UNL     1      34.606  71.191 105.727  1.00  0.00    -0.023 CG0
ATOM      9  G   UNL     1      33.093  71.170 105.626  1.00  0.00     0.000 G0
ENDBRANCH   5   6
ENDBRANCH   4   5
ENDBRANCH   2   4
BRANCH   1  10
ATOM     10  C   UNL     1      33.177  67.697 105.413  1.00  0.00     0.111 C 
BRANCH  10  11
ATOM     11  C   UNL     1      33.093  68.758 106.481  1.00  0.00     0.163 C 
ATOM     12  O   UNL     1      33.687  68.569 107.576  1.00  0.00    -0.294 OA
BRANCH  11  13
ATOM     13  C   UNL     1      32.341  70.025 106.281  1.00  0.00    -0.002 C 
ATOM     14  C   UNL     1      31.100  70.181 106.818  1.00  0.00    -0.069 C 
ATOM     15  C   UNL     1      30.400  69.020 107.486  1.00  0.00     0.039 C 
ATOM     16  C   UNL     1      30.365  71.499 106.744  1.00  0.00     0.039 C 
BRANCH  13  17
ATOM     17  C   UNL     1      33.088  71.169 105.619  1.00  0.00     0.066 CG0
ATOM     18  G   UNL     1      34.600  71.166 105.735  1.00  0.00     0.000 G0
ENDBRANCH  13  17
ENDBRANCH  11  13
ENDBRANCH  10  11
ENDBRANCH   1  10
TORSDOF 0
ENDMDL
