MODEL 1
REMARK VINA RESULT:    -3.897      0.000      0.000
REMARK INTER + INTRA:          -5.343
REMARK INTER:                  -5.036
REMARK INTRA:                  -0.308
REMARK UNBOUND:                -0.308
REMARK SMILES CCO[C@H]1O[C@@H](CO)[C@@H](O)[C@H](O)[C@@H]1O
REMARK SMILES IDX 4 1 13 2 11 3 9 4 6 5 5 6 3 7 2 8 1 9 14 10 12 12 7 14 8 15
REMARK SMILES IDX 10 17
REMARK H PARENT 14 11 12 13 8 16 10 18
REMARK Flexibility Score: inf
ROOT
ATOM      1  C   UNL     1       6.665  -4.443  -2.101  1.00  0.00     0.281 C 
ATOM      2  C   UNL     1       7.014  -3.549  -0.877  1.00  0.00     0.202 C 
ATOM      3  C   UNL     1       8.482  -3.792  -0.427  1.00  0.00     0.179 C 
ATOM      4  C   UNL     1       8.944  -5.210  -0.790  1.00  0.00     0.177 C 
ATOM      5  C   UNL     1       8.765  -5.470  -2.329  1.00  0.00     0.178 C 
ATOM      6  O   UNL     1       7.795  -4.619  -2.935  1.00  0.00    -0.341 OA
ENDROOT
BRANCH   1   7
ATOM      7  O   UNL     1       5.533  -4.032  -2.864  1.00  0.00    -0.350 OA
BRANCH   7   8
ATOM      8  C   UNL     1       5.303  -2.632  -2.939  1.00  0.00     0.160 C 
ATOM      9  C   UNL     1       3.967  -2.174  -2.350  1.00  0.00     0.035 C 
ENDBRANCH   7   8
ENDBRANCH   1   7
BRANCH   2  10
ATOM     10  O   UNL     1       6.115  -3.841   0.164  1.00  0.00    -0.385 OA
ATOM     11  H   UNL     1       6.128  -4.824   0.298  1.00  0.00     0.211 HD
ENDBRANCH   2  10
BRANCH   3  12
ATOM     12  O   UNL     1       8.627  -3.587   0.955  1.00  0.00    -0.387 OA
ATOM     13  H   UNL     1       8.745  -4.484   1.365  1.00  0.00     0.211 HD
ENDBRANCH   3  12
BRANCH   5  14
ATOM     14  C   UNL     1      10.072  -5.328  -3.124  1.00  0.00     0.191 C 
BRANCH  14  15
ATOM     15  O   UNL     1      10.712  -4.124  -2.804  1.00  0.00    -0.394 OA
ATOM     16  H   UNL     1      10.525  -3.959  -1.844  1.00  0.00     0.210 HD
ENDBRANCH  14  15
ENDBRANCH   5  14
BRANCH   4  17
ATOM     17  O   UNL     1      10.273  -5.396  -0.372  1.00  0.00    -0.387 OA
ATOM     18  H   UNL     1      10.800  -4.649  -0.758  1.00  0.00     0.211 HD
ENDBRANCH   4  17
TORSDOF 7
ENDMDL
MODEL 2
REMARK VINA RESULT:    -3.718      1.822      2.621
REMARK INTER + INTRA:          -5.113
REMARK INTER:                  -4.732
REMARK INTRA:                  -0.381
REMARK UNBOUND:                -0.308
REMARK SMILES CCO[C@H]1O[C@@H](CO)[C@@H](O)[C@H](O)[C@@H]1O
REMARK SMILES IDX 4 1 13 2 11 3 9 4 6 5 5 6 3 7 2 8 1 9 14 10 12 12 7 14 8 15
REMARK SMILES IDX 10 17
REMARK H PARENT 14 11 12 13 8 16 10 18
REMARK Flexibility Score: inf
ROOT
ATOM      1  C   UNL     1       6.406  -3.356  -2.386  1.00  0.00     0.281 C 
ATOM      2  C   UNL     1       7.835  -2.922  -2.825  1.00  0.00     0.202 C 
ATOM      3  C   UNL     1       8.848  -4.078  -2.601  1.00  0.00     0.179 C 
ATOM      4  C   UNL     1       8.393  -4.999  -1.460  1.00  0.00     0.177 C 
ATOM      5  C   UNL     1       6.947  -5.549  -1.740  1.00  0.00     0.178 C 
ATOM      6  O   UNL     1       6.199  -4.734  -2.638  1.00  0.00    -0.341 OA
ENDROOT
BRANCH   1   7
ATOM      7  O   UNL     1       5.335  -2.578  -2.913  1.00  0.00    -0.350 OA
BRANCH   7   8
ATOM      8  C   UNL     1       4.323  -2.197  -1.990  1.00  0.00     0.160 C 
ATOM      9  C   UNL     1       2.983  -2.911  -2.184  1.00  0.00     0.035 C 
ENDBRANCH   7   8
ENDBRANCH   1   7
BRANCH   2  10
ATOM     10  O   UNL     1       8.203  -1.781  -2.090  1.00  0.00    -0.385 OA
ATOM     11  H   UNL     1       7.473  -1.598  -1.443  1.00  0.00     0.211 HD
ENDBRANCH   2  10
BRANCH   3  12
ATOM     12  O   UNL     1      10.131  -3.579  -2.321  1.00  0.00    -0.387 OA
ATOM     13  H   UNL     1      10.005  -2.767  -1.763  1.00  0.00     0.211 HD
ENDBRANCH   3  12
BRANCH   5  14
ATOM     14  C   UNL     1       6.940  -6.982  -2.293  1.00  0.00     0.191 C 
BRANCH  14  15
ATOM     15  O   UNL     1       7.053  -7.910  -1.250  1.00  0.00    -0.394 OA
ATOM     16  H   UNL     1       6.136  -8.034  -0.890  1.00  0.00     0.210 HD
ENDBRANCH  14  15
ENDBRANCH   5  14
BRANCH   4  17
ATOM     17  O   UNL     1       9.328  -6.034  -1.284  1.00  0.00    -0.387 OA
ATOM     18  H   UNL     1       8.824  -6.818  -0.946  1.00  0.00     0.211 HD
ENDBRANCH   4  17
TORSDOF 7
ENDMDL
MODEL 3
REMARK VINA RESULT:    -3.416      2.255      3.429
REMARK INTER + INTRA:          -4.723
REMARK INTER:                  -4.441
REMARK INTRA:                  -0.281
REMARK UNBOUND:                -0.308
REMARK SMILES CCO[C@H]1O[C@@H](CO)[C@@H](O)[C@H](O)[C@@H]1O
REMARK SMILES IDX 4 1 13 2 11 3 9 4 6 5 5 6 3 7 2 8 1 9 14 10 12 12 7 14 8 15
REMARK SMILES IDX 10 17
REMARK H PARENT 14 11 12 13 8 16 10 18
REMARK Flexibility Score: inf
ROOT
ATOM      1  C   UNL     1       9.828  -4.409  -2.880  1.00  0.00     0.281 C 
ATOM      2  C   UNL     1       9.485  -5.244  -1.612  1.00  0.00     0.202 C 
ATOM      3  C   UNL     1      10.701  -6.113  -1.187  1.00  0.00     0.179 C 
ATOM      4  C   UNL     1      11.586  -6.452  -2.394  1.00  0.00     0.177 C 
ATOM      5  C   UNL     1      12.047  -5.140  -3.125  1.00  0.00     0.178 C 
ATOM      6  O   UNL     1      11.192  -4.027  -2.877  1.00  0.00    -0.341 OA
ENDROOT
BRANCH   1   7
ATOM      7  O   UNL     1       8.988  -3.284  -3.125  1.00  0.00    -0.350 OA
BRANCH   7   8
ATOM      8  C   UNL     1       8.354  -2.716  -1.987  1.00  0.00     0.160 C 
ATOM      9  C   UNL     1       6.826  -2.812  -1.997  1.00  0.00     0.035 C 
ENDBRANCH   7   8
ENDBRANCH   1   7
BRANCH   2  10
ATOM     10  O   UNL     1       8.366  -6.048  -1.893  1.00  0.00    -0.385 OA
ATOM     11  H   UNL     1       8.171  -6.578  -1.076  1.00  0.00     0.211 HD
ENDBRANCH   2  10
BRANCH   3  12
ATOM     12  O   UNL     1      10.280  -7.299  -0.562  1.00  0.00    -0.387 OA
ATOM     13  H   UNL     1       9.327  -7.428  -0.808  1.00  0.00     0.211 HD
ENDBRANCH   3  12
BRANCH   5  14
ATOM     14  C   UNL     1      13.479  -4.716  -2.766  1.00  0.00     0.191 C 
BRANCH  14  15
ATOM     15  O   UNL     1      13.628  -4.623  -1.376  1.00  0.00    -0.394 OA
ATOM     16  H   UNL     1      14.382  -5.224  -1.138  1.00  0.00     0.210 HD
ENDBRANCH  14  15
ENDBRANCH   5  14
BRANCH   4  17
ATOM     17  O   UNL     1      12.676  -7.237  -1.976  1.00  0.00    -0.387 OA
ATOM     18  H   UNL     1      12.443  -8.180  -2.182  1.00  0.00     0.211 HD
ENDBRANCH   4  17
TORSDOF 7
ENDMDL
MODEL 4
REMARK VINA RESULT:    -3.398      1.782      2.506
REMARK INTER + INTRA:          -4.699
REMARK INTER:                  -4.323
REMARK INTRA:                  -0.377
REMARK UNBOUND:                -0.308
REMARK SMILES CCO[C@H]1O[C@@H](CO)[C@@H](O)[C@H](O)[C@@H]1O
REMARK SMILES IDX 4 1 13 2 11 3 9 4 6 5 5 6 3 7 2 8 1 9 14 10 12 12 7 14 8 15
REMARK SMILES IDX 10 17
REMARK H PARENT 14 11 12 13 8 16 10 18
REMARK Flexibility Score: inf
ROOT
ATOM      1  C   UNL     1       7.308  -4.289  -1.226  1.00  0.00     0.281 C 
ATOM      2  C   UNL     1       8.341  -3.404  -1.982  1.00  0.00     0.202 C 
ATOM      3  C   UNL     1       9.450  -4.286  -2.619  1.00  0.00     0.179 C 
ATOM      4  C   UNL     1       9.643  -5.588  -1.830  1.00  0.00     0.177 C 
ATOM      5  C   UNL     1       8.284  -6.369  -1.716  1.00  0.00     0.178 C 
ATOM      6  O   UNL     1       7.140  -5.534  -1.878  1.00  0.00    -0.341 OA
ENDROOT
BRANCH   1   7
ATOM      7  O   UNL     1       6.047  -3.680  -0.964  1.00  0.00    -0.350 OA
BRANCH   7   8
ATOM      8  C   UNL     1       5.264  -3.347  -2.102  1.00  0.00     0.160 C 
ATOM      9  C   UNL     1       4.328  -2.152  -1.903  1.00  0.00     0.035 C 
ENDBRANCH   7   8
ENDBRANCH   1   7
BRANCH   2  10
ATOM     10  O   UNL     1       8.892  -2.481  -1.075  1.00  0.00    -0.385 OA
ATOM     11  H   UNL     1       8.300  -1.684  -1.069  1.00  0.00     0.211 HD
ENDBRANCH   2  10
BRANCH   3  12
ATOM     12  O   UNL     1      10.670  -3.592  -2.690  1.00  0.00    -0.387 OA
ATOM     13  H   UNL     1      11.253  -3.969  -1.980  1.00  0.00     0.211 HD
ENDBRANCH   3  12
BRANCH   5  14
ATOM     14  C   UNL     1       8.162  -7.526  -2.719  1.00  0.00     0.191 C 
BRANCH  14  15
ATOM     15  O   UNL     1       8.867  -8.647  -2.261  1.00  0.00    -0.394 OA
ATOM     16  H   UNL     1       8.211  -9.391  -2.229  1.00  0.00     0.210 HD
ENDBRANCH  14  15
ENDBRANCH   5  14
BRANCH   4  17
ATOM     17  O   UNL     1      10.650  -6.363  -2.432  1.00  0.00    -0.387 OA
ATOM     18  H   UNL     1      11.517  -5.995  -2.119  1.00  0.00     0.211 HD
ENDBRANCH   4  17
TORSDOF 7
ENDMDL
MODEL 5
REMARK VINA RESULT:    -3.325      2.237      4.425
REMARK INTER + INTRA:          -4.605
REMARK INTER:                  -4.377
REMARK INTRA:                  -0.228
REMARK UNBOUND:                -0.308
REMARK SMILES CCO[C@H]1O[C@@H](CO)[C@@H](O)[C@H](O)[C@@H]1O
REMARK SMILES IDX 4 1 13 2 11 3 9 4 6 5 5 6 3 7 2 8 1 9 14 10 12 12 7 14 8 15
REMARK SMILES IDX 10 17
REMARK H PARENT 14 11 12 13 8 16 10 18
REMARK Flexibility Score: inf
ROOT
ATOM      1  C   UNL     1       9.994  -4.275  -2.837  1.00  0.00     0.281 C 
ATOM      2  C   UNL     1       9.001  -3.538  -1.891  1.00  0.00     0.202 C 
ATOM      3  C   UNL     1       7.986  -4.542  -1.279  1.00  0.00     0.179 C 
ATOM      4  C   UNL     1       7.770  -5.746  -2.207  1.00  0.00     0.177 C 
ATOM      5  C   UNL     1       9.141  -6.443  -2.532  1.00  0.00     0.178 C 
ATOM      6  O   UNL     1      10.264  -5.582  -2.363  1.00  0.00    -0.341 OA
ENDROOT
BRANCH   1   7
ATOM      7  O   UNL     1      11.204  -3.580  -3.125  1.00  0.00    -0.350 OA
BRANCH   7   8
ATOM      8  C   UNL     1      12.391  -4.362  -3.122  1.00  0.00     0.160 C 
ATOM      9  C   UNL     1      13.688  -3.549  -3.124  1.00  0.00     0.035 C 
ENDBRANCH   7   8
ENDBRANCH   1   7
BRANCH   2  10
ATOM     10  O   UNL     1       8.339  -2.539  -2.626  1.00  0.00    -0.385 OA
ATOM     11  H   UNL     1       7.423  -2.871  -2.818  1.00  0.00     0.211 HD
ENDBRANCH   2  10
BRANCH   3  12
ATOM     12  O   UNL     1       6.753  -3.920  -1.021  1.00  0.00    -0.387 OA
ATOM     13  H   UNL     1       6.722  -3.104  -1.585  1.00  0.00     0.211 HD
ENDBRANCH   3  12
BRANCH   5  14
ATOM     14  C   UNL     1       9.392  -7.707  -1.695  1.00  0.00     0.191 C 
BRANCH  14  15
ATOM     15  O   UNL     1      10.091  -7.387  -0.524  1.00  0.00    -0.394 OA
ATOM     16  H   UNL     1       9.462  -6.869   0.041  1.00  0.00     0.210 HD
ENDBRANCH  14  15
ENDBRANCH   5  14
BRANCH   4  17
ATOM     17  O   UNL     1       6.849  -6.634  -1.625  1.00  0.00    -0.387 OA
ATOM     18  H   UNL     1       7.375  -7.262  -1.064  1.00  0.00     0.211 HD
ENDBRANCH   4  17
TORSDOF 7
ENDMDL
MODEL 6
REMARK VINA RESULT:    -3.306      2.281      4.982
REMARK INTER + INTRA:          -4.581
REMARK INTER:                  -4.202
REMARK INTRA:                  -0.379
REMARK UNBOUND:                -0.308
REMARK SMILES CCO[C@H]1O[C@@H](CO)[C@@H](O)[C@H](O)[C@@H]1O
REMARK SMILES IDX 4 1 13 2 11 3 9 4 6 5 5 6 3 7 2 8 1 9 14 10 12 12 7 14 8 15
REMARK SMILES IDX 10 17
REMARK H PARENT 14 11 12 13 8 16 10 18
REMARK Flexibility Score: inf
ROOT
ATOM      1  C   UNL     1      10.455  -5.761  -1.626  1.00  0.00     0.281 C 
ATOM      2  C   UNL     1       9.450  -6.935  -1.816  1.00  0.00     0.202 C 
ATOM      3  C   UNL     1       8.022  -6.389  -2.090  1.00  0.00     0.179 C 
ATOM      4  C   UNL     1       7.828  -5.004  -1.457  1.00  0.00     0.177 C 
ATOM      5  C   UNL     1       8.930  -4.007  -1.967  1.00  0.00     0.178 C 
ATOM      6  O   UNL     1      10.103  -4.661  -2.445  1.00  0.00    -0.341 OA
ENDROOT
BRANCH   1   7
ATOM      7  O   UNL     1      11.831  -6.094  -1.789  1.00  0.00    -0.350 OA
BRANCH   7   8
ATOM      8  C   UNL     1      12.524  -5.405  -2.821  1.00  0.00     0.160 C 
ATOM      9  C   UNL     1      13.723  -4.582  -2.342  1.00  0.00     0.035 C 
ENDBRANCH   7   8
ENDBRANCH   1   7
BRANCH   2  10
ATOM     10  O   UNL     1       9.470  -7.734  -0.660  1.00  0.00    -0.385 OA
ATOM     11  H   UNL     1       8.873  -7.304   0.007  1.00  0.00     0.211 HD
ENDBRANCH   2  10
BRANCH   3  12
ATOM     12  O   UNL     1       7.042  -7.271  -1.604  1.00  0.00    -0.387 OA
ATOM     13  H   UNL     1       7.243  -8.162  -1.992  1.00  0.00     0.211 HD
ENDBRANCH   3  12
BRANCH   5  14
ATOM     14  C   UNL     1       8.433  -3.070  -3.078  1.00  0.00     0.191 C 
BRANCH  14  15
ATOM     15  O   UNL     1       7.719  -1.996  -2.530  1.00  0.00    -0.394 OA
ATOM     16  H   UNL     1       8.216  -1.721  -1.716  1.00  0.00     0.210 HD
ENDBRANCH  14  15
ENDBRANCH   5  14
BRANCH   4  17
ATOM     17  O   UNL     1       6.528  -4.539  -1.724  1.00  0.00    -0.387 OA
ATOM     18  H   UNL     1       5.961  -5.342  -1.859  1.00  0.00     0.211 HD
ENDBRANCH   4  17
TORSDOF 7
ENDMDL
MODEL 7
REMARK VINA RESULT:    -3.242      2.086      4.566
REMARK INTER + INTRA:          -4.497
REMARK INTER:                  -4.528
REMARK INTRA:                   0.031
REMARK UNBOUND:                -0.308
REMARK SMILES CCO[C@H]1O[C@@H](CO)[C@@H](O)[C@H](O)[C@@H]1O
REMARK SMILES IDX 4 1 13 2 11 3 9 4 6 5 5 6 3 7 2 8 1 9 14 10 12 12 7 14 8 15
REMARK SMILES IDX 10 17
REMARK H PARENT 14 11 12 13 8 16 10 18
REMARK Flexibility Score: inf
ROOT
ATOM      1  C   UNL     1       7.351  -5.838  -1.812  1.00  0.00     0.281 C 
ATOM      2  C   UNL     1       8.768  -5.225  -1.613  1.00  0.00     0.202 C 
ATOM      3  C   UNL     1       8.718  -3.679  -1.766  1.00  0.00     0.179 C 
ATOM      4  C   UNL     1       7.567  -3.252  -2.688  1.00  0.00     0.177 C 
ATOM      5  C   UNL     1       6.200  -3.821  -2.161  1.00  0.00     0.178 C 
ATOM      6  O   UNL     1       6.351  -4.963  -1.323  1.00  0.00    -0.341 OA
ENDROOT
BRANCH   1   7
ATOM      7  O   UNL     1       7.170  -7.154  -1.295  1.00  0.00    -0.350 OA
BRANCH   7   8
ATOM      8  C   UNL     1       7.855  -8.195  -1.977  1.00  0.00     0.160 C 
ATOM      9  C   UNL     1       8.789  -9.027  -1.094  1.00  0.00     0.035 C 
ENDBRANCH   7   8
ENDBRANCH   1   7
BRANCH   2  10
ATOM     10  O   UNL     1       9.641  -5.795  -2.557  1.00  0.00    -0.385 OA
ATOM     11  H   UNL     1       9.320  -6.717  -2.736  1.00  0.00     0.211 HD
ENDBRANCH   2  10
BRANCH   3  12
ATOM     12  O   UNL     1       9.933  -3.181  -2.267  1.00  0.00    -0.387 OA
ATOM     13  H   UNL     1       9.802  -2.208  -2.414  1.00  0.00     0.211 HD
ENDBRANCH   3  12
BRANCH   5  14
ATOM     14  C   UNL     1       5.368  -2.784  -1.391  1.00  0.00     0.191 C 
BRANCH  14  15
ATOM     15  O   UNL     1       5.153  -3.210  -0.074  1.00  0.00    -0.394 OA
ATOM     16  H   UNL     1       4.986  -2.390   0.458  1.00  0.00     0.210 HD
ENDBRANCH  14  15
ENDBRANCH   5  14
BRANCH   4  17
ATOM     17  O   UNL     1       7.549  -1.851  -2.804  1.00  0.00    -0.387 OA
ATOM     18  H   UNL     1       7.989  -1.631  -3.666  1.00  0.00     0.211 HD
ENDBRANCH   4  17
TORSDOF 7
ENDMDL
MODEL 8
REMARK VINA RESULT:    -3.188      2.637      4.633
REMARK INTER + INTRA:          -4.427
REMARK INTER:                  -4.069
REMARK INTRA:                  -0.359
REMARK UNBOUND:                -0.308
REMARK SMILES CCO[C@H]1O[C@@H](CO)[C@@H](O)[C@H](O)[C@@H]1O
REMARK SMILES IDX 4 1 13 2 11 3 9 4 6 5 5 6 3 7 2 8 1 9 14 10 12 12 7 14 8 15
REMARK SMILES IDX 10 17
REMARK H PARENT 14 11 12 13 8 16 10 18
REMARK Flexibility Score: inf
ROOT
ATOM      1  C   UNL     1       9.105  -7.657  -1.672  1.00  0.00     0.281 C 
ATOM      2  C   UNL     1      10.564  -7.626  -1.133  1.00  0.00     0.202 C 
ATOM      3  C   UNL     1      11.152  -6.192  -1.236  1.00  0.00     0.179 C 
ATOM      4  C   UNL     1      10.496  -5.407  -2.381  1.00  0.00     0.177 C 
ATOM      5  C   UNL     1       8.935  -5.375  -2.202  1.00  0.00     0.178 C 
ATOM      6  O   UNL     1       8.439  -6.439  -1.394  1.00  0.00    -0.341 OA
ENDROOT
BRANCH   1   7
ATOM      7  O   UNL     1       8.317  -8.771  -1.259  1.00  0.00    -0.350 OA
BRANCH   7   8
ATOM      8  C   UNL     1       6.910  -8.634  -1.411  1.00  0.00     0.160 C 
ATOM      9  C   UNL     1       6.392  -8.920  -2.823  1.00  0.00     0.035 C 
ENDBRANCH   7   8
ENDBRANCH   1   7
BRANCH   2  10
ATOM     10  O   UNL     1      11.336  -8.541  -1.872  1.00  0.00    -0.385 OA
ATOM     11  H   UNL     1      10.860  -9.412  -1.852  1.00  0.00     0.211 HD
ENDBRANCH   2  10
BRANCH   3  12
ATOM     12  O   UNL     1      12.544  -6.229  -1.427  1.00  0.00    -0.387 OA
ATOM     13  H   UNL     1      12.695  -6.488  -2.374  1.00  0.00     0.211 HD
ENDBRANCH   3  12
BRANCH   5  14
ATOM     14  C   UNL     1       8.419  -4.057  -1.605  1.00  0.00     0.191 C 
BRANCH  14  15
ATOM     15  O   UNL     1       8.830  -3.929  -0.272  1.00  0.00    -0.394 OA
ATOM     16  H   UNL     1       8.129  -3.394   0.183  1.00  0.00     0.210 HD
ENDBRANCH  14  15
ENDBRANCH   5  14
BRANCH   4  17
ATOM     17  O   UNL     1      11.048  -4.115  -2.447  1.00  0.00    -0.387 OA
ATOM     18  H   UNL     1      10.305  -3.480  -2.277  1.00  0.00     0.211 HD
ENDBRANCH   4  17
TORSDOF 7
ENDMDL
MODEL 9
REMARK VINA RESULT:    -2.946      3.943      5.385
REMARK INTER + INTRA:          -4.115
REMARK INTER:                  -3.773
REMARK INTRA:                  -0.342
REMARK UNBOUND:                -0.308
REMARK SMILES CCO[C@H]1O[C@@H](CO)[C@@H](O)[C@H](O)[C@@H]1O
REMARK SMILES IDX 4 1 13 2 11 3 9 4 6 5 5 6 3 7 2 8 1 9 14 10 12 12 7 14 8 15
REMARK SMILES IDX 10 17
REMARK H PARENT 14 11 12 13 8 16 10 18
REMARK Flexibility Score: inf
ROOT
ATOM      1  C   UNL     1      11.059  -7.243  -1.886  1.00  0.00     0.281 C 
ATOM      2  C   UNL     1      10.665  -5.931  -2.626  1.00  0.00     0.202 C 
ATOM      3  C   UNL     1      11.910  -5.022  -2.821  1.00  0.00     0.179 C 
ATOM      4  C   UNL     1      12.955  -5.273  -1.725  1.00  0.00     0.177 C 
ATOM      5  C   UNL     1      13.355  -6.792  -1.684  1.00  0.00     0.178 C 
ATOM      6  O   UNL     1      12.366  -7.650  -2.246  1.00  0.00    -0.341 OA
ENDROOT
BRANCH   1   7
ATOM      7  O   UNL     1      10.138  -8.323  -2.014  1.00  0.00    -0.350 OA
BRANCH   7   8
ATOM      8  C   UNL     1       9.207  -8.481  -0.953  1.00  0.00     0.160 C 
ATOM      9  C   UNL     1       7.739  -8.376  -1.375  1.00  0.00     0.035 C 
ENDBRANCH   7   8
ENDBRANCH   1   7
BRANCH   2  10
ATOM     10  O   UNL     1       9.674  -5.272  -1.876  1.00  0.00    -0.385 OA
ATOM     11  H   UNL     1      10.114  -4.901  -1.067  1.00  0.00     0.211 HD
ENDBRANCH   2  10
BRANCH   3  12
ATOM     12  O   UNL     1      11.549  -3.664  -2.825  1.00  0.00    -0.387 OA
ATOM     13  H   UNL     1      11.996  -3.247  -2.043  1.00  0.00     0.211 HD
ENDBRANCH   3  12
BRANCH   5  14
ATOM     14  C   UNL     1      14.686  -7.088  -2.390  1.00  0.00     0.191 C 
BRANCH  14  15
ATOM     15  O   UNL     1      15.756  -6.951  -1.496  1.00  0.00    -0.394 OA
ATOM     16  H   UNL     1      15.535  -6.177  -0.917  1.00  0.00     0.210 HD
ENDBRANCH  14  15
ENDBRANCH   5  14
BRANCH   4  17
ATOM     17  O   UNL     1      14.067  -4.437  -1.930  1.00  0.00    -0.387 OA
ATOM     18  H   UNL     1      14.180  -4.350  -2.913  1.00  0.00     0.211 HD
ENDBRANCH   4  17
TORSDOF 7
ENDMDL
