MODEL 1
REMARK VINA RESULT:    -3.964      0.000      0.000
REMARK INTER + INTRA:          -6.636
REMARK INTER:                  -6.049
REMARK INTRA:                  -0.587
REMARK UNBOUND:                -0.587
REMARK SMILES CCCCCCCCCCC(=O)[O-]
REMARK SMILES IDX 7 1 8 2 9 3 10 4 11 5 12 6 13 7 6 8 5 9 4 10 3 11 2 12 1 13
REMARK H PARENT
REMARK Flexibility Score: inf
ROOT
ATOM      1  C   UNL     1      18.413  12.514 -16.920  1.00  0.00     0.000 C 
ENDROOT
BRANCH   1   2
ATOM      2  C   UNL     1      18.430  11.039 -17.359  1.00  0.00     0.000 C 
BRANCH   2   3
ATOM      3  C   UNL     1      19.538  10.229 -16.667  1.00  0.00     0.006 C 
BRANCH   3   4
ATOM      4  C   UNL     1      19.132   8.772 -16.414  1.00  0.00     0.053 C 
BRANCH   4   5
ATOM      5  C   UNL     1      20.074   7.840 -17.108  1.00  0.00     0.041 C 
ATOM      6  O   UNL     1      21.104   8.289 -17.678  1.00  0.00    -0.550 OA
ATOM      7  O   UNL     1      19.843   6.470 -17.084  1.00  0.00    -0.550 OA
ENDBRANCH   4   5
ENDBRANCH   3   4
ENDBRANCH   2   3
ENDBRANCH   1   2
BRANCH   1   8
ATOM      8  C   UNL     1      19.116  12.738 -15.571  1.00  0.00     0.000 C 
BRANCH   8   9
ATOM      9  C   UNL     1      19.821  14.104 -15.493  1.00  0.00    -0.000 C 
BRANCH   9  10
ATOM     10  C   UNL     1      21.145  14.128 -16.273  1.00  0.00    -0.000 C 
BRANCH  10  11
ATOM     11  C   UNL     1      21.685  15.554 -16.481  1.00  0.00    -0.000 C 
BRANCH  11  12
ATOM     12  C   UNL     1      20.569  16.569 -16.774  1.00  0.00    -0.003 C 
ATOM     13  C   UNL     1      20.218  16.649 -18.259  1.00  0.00     0.004 C 
ENDBRANCH  11  12
ENDBRANCH  10  11
ENDBRANCH   9  10
ENDBRANCH   8   9
ENDBRANCH   1   8
TORSDOF 9
ENDMDL
MODEL 2
REMARK VINA RESULT:    -3.859      1.608      2.950
REMARK INTER + INTRA:          -6.476
REMARK INTER:                  -5.378
REMARK INTRA:                  -1.099
REMARK UNBOUND:                -0.587
REMARK SMILES CCCCCCCCCCC(=O)[O-]
REMARK SMILES IDX 7 1 8 2 9 3 10 4 11 5 12 6 13 7 6 8 5 9 4 10 3 11 2 12 1 13
REMARK H PARENT
REMARK Flexibility Score: inf
ROOT
ATOM      1  C   UNL     1      21.172  13.202 -16.595  1.00  0.00     0.000 C 
ENDROOT
BRANCH   1   2
ATOM      2  C   UNL     1      19.776  13.271 -15.950  1.00  0.00     0.000 C 
BRANCH   2   3
ATOM      3  C   UNL     1      18.654  12.897 -16.932  1.00  0.00     0.006 C 
BRANCH   3   4
ATOM      4  C   UNL     1      18.028  11.533 -16.619  1.00  0.00     0.053 C 
BRANCH   4   5
ATOM      5  C   UNL     1      18.880  10.430 -17.161  1.00  0.00     0.041 C 
ATOM      6  O   UNL     1      19.382   9.576 -16.382  1.00  0.00    -0.550 OA
ATOM      7  O   UNL     1      19.080  10.313 -18.531  1.00  0.00    -0.550 OA
ENDBRANCH   4   5
ENDBRANCH   3   4
ENDBRANCH   2   3
ENDBRANCH   1   2
BRANCH   1   8
ATOM      8  C   UNL     1      21.869  14.572 -16.648  1.00  0.00     0.000 C 
BRANCH   8   9
ATOM      9  C   UNL     1      20.967  15.712 -16.144  1.00  0.00    -0.000 C 
BRANCH   9  10
ATOM     10  C   UNL     1      20.800  16.833 -17.183  1.00  0.00    -0.000 C 
BRANCH  10  11
ATOM     11  C   UNL     1      19.655  16.558 -18.174  1.00  0.00    -0.000 C 
BRANCH  11  12
ATOM     12  C   UNL     1      20.166  16.187 -19.575  1.00  0.00    -0.003 C 
ATOM     13  C   UNL     1      19.920  14.719 -19.924  1.00  0.00     0.004 C 
ENDBRANCH  11  12
ENDBRANCH  10  11
ENDBRANCH   9  10
ENDBRANCH   8   9
ENDBRANCH   1   8
TORSDOF 9
ENDMDL
MODEL 3
REMARK VINA RESULT:    -3.801      3.447      6.647
REMARK INTER + INTRA:          -6.389
REMARK INTER:                  -5.735
REMARK INTRA:                  -0.654
REMARK UNBOUND:                -0.587
REMARK SMILES CCCCCCCCCCC(=O)[O-]
REMARK SMILES IDX 7 1 8 2 9 3 10 4 11 5 12 6 13 7 6 8 5 9 4 10 3 11 2 12 1 13
REMARK H PARENT
REMARK Flexibility Score: inf
ROOT
ATOM      1  C   UNL     1      21.290  13.921 -16.379  1.00  0.00     0.000 C 
ENDROOT
BRANCH   1   2
ATOM      2  C   UNL     1      21.811  15.369 -16.400  1.00  0.00     0.000 C 
BRANCH   2   3
ATOM      3  C   UNL     1      20.714  16.386 -16.751  1.00  0.00     0.006 C 
BRANCH   3   4
ATOM      4  C   UNL     1      21.098  17.284 -17.933  1.00  0.00     0.053 C 
BRANCH   4   5
ATOM      5  C   UNL     1      20.779  16.606 -19.228  1.00  0.00     0.041 C 
ATOM      6  O   UNL     1      21.483  16.828 -20.249  1.00  0.00    -0.550 OA
ATOM      7  O   UNL     1      19.736  15.692 -19.297  1.00  0.00    -0.550 OA
ENDBRANCH   4   5
ENDBRANCH   3   4
ENDBRANCH   2   3
ENDBRANCH   1   2
BRANCH   1   8
ATOM      8  C   UNL     1      19.760  13.844 -16.260  1.00  0.00     0.000 C 
BRANCH   8   9
ATOM      9  C   UNL     1      19.276  12.474 -15.753  1.00  0.00    -0.000 C 
BRANCH   9  10
ATOM     10  C   UNL     1      18.067  11.947 -16.544  1.00  0.00    -0.000 C 
BRANCH  10  11
ATOM     11  C   UNL     1      18.457  10.878 -17.580  1.00  0.00    -0.000 C 
BRANCH  11  12
ATOM     12  C   UNL     1      19.657  10.031 -17.129  1.00  0.00    -0.003 C 
ATOM     13  C   UNL     1      19.239   8.767 -16.378  1.00  0.00     0.004 C 
ENDBRANCH  11  12
ENDBRANCH  10  11
ENDBRANCH   9  10
ENDBRANCH   8   9
ENDBRANCH   1   8
TORSDOF 9
ENDMDL
MODEL 4
REMARK VINA RESULT:    -3.789      1.566      2.877
REMARK INTER + INTRA:          -6.370
REMARK INTER:                  -5.828
REMARK INTRA:                  -0.542
REMARK UNBOUND:                -0.587
REMARK SMILES CCCCCCCCCCC(=O)[O-]
REMARK SMILES IDX 7 1 8 2 9 3 10 4 11 5 12 6 13 7 6 8 5 9 4 10 3 11 2 12 1 13
REMARK H PARENT
REMARK Flexibility Score: inf
ROOT
ATOM      1  C   UNL     1      19.603  10.201 -17.102  1.00  0.00     0.000 C 
ENDROOT
BRANCH   1   2
ATOM      2  C   UNL     1      19.305   8.899 -16.336  1.00  0.00     0.000 C 
BRANCH   2   3
ATOM      3  C   UNL     1      19.765   7.647 -17.099  1.00  0.00     0.006 C 
BRANCH   3   4
ATOM      4  C   UNL     1      18.598   6.732 -17.487  1.00  0.00     0.053 C 
BRANCH   4   5
ATOM      5  C   UNL     1      19.025   5.299 -17.458  1.00  0.00     0.041 C 
ATOM      6  O   UNL     1      18.163   4.380 -17.458  1.00  0.00    -0.550 OA
ATOM      7  O   UNL     1      20.376   4.974 -17.481  1.00  0.00    -0.550 OA
ENDBRANCH   4   5
ENDBRANCH   3   4
ENDBRANCH   2   3
ENDBRANCH   1   2
BRANCH   1   8
ATOM      8  C   UNL     1      18.328  10.984 -17.455  1.00  0.00     0.000 C 
BRANCH   8   9
ATOM      9  C   UNL     1      18.282  12.369 -16.785  1.00  0.00    -0.000 C 
BRANCH   9  10
ATOM     10  C   UNL     1      19.462  12.598 -15.826  1.00  0.00    -0.000 C 
BRANCH  10  11
ATOM     11  C   UNL     1      19.808  14.088 -15.656  1.00  0.00    -0.000 C 
BRANCH  11  12
ATOM     12  C   UNL     1      21.198  14.436 -16.213  1.00  0.00    -0.003 C 
ATOM     13  C   UNL     1      21.884  13.243 -16.876  1.00  0.00     0.004 C 
ENDBRANCH  11  12
ENDBRANCH  10  11
ENDBRANCH   9  10
ENDBRANCH   8   9
ENDBRANCH   1   8
TORSDOF 9
ENDMDL
MODEL 5
REMARK VINA RESULT:    -3.768      3.199      7.145
REMARK INTER + INTRA:          -6.338
REMARK INTER:                  -5.970
REMARK INTRA:                  -0.368
REMARK UNBOUND:                -0.587
REMARK SMILES CCCCCCCCCCC(=O)[O-]
REMARK SMILES IDX 7 1 8 2 9 3 10 4 11 5 12 6 13 7 6 8 5 9 4 10 3 11 2 12 1 13
REMARK H PARENT
REMARK Flexibility Score: inf
ROOT
ATOM      1  C   UNL     1      18.233  10.997 -16.907  1.00  0.00     0.000 C 
ENDROOT
BRANCH   1   2
ATOM      2  C   UNL     1      18.552  12.498 -16.793  1.00  0.00     0.000 C 
BRANCH   2   3
ATOM      3  C   UNL     1      19.785  12.775 -15.918  1.00  0.00     0.006 C 
BRANCH   3   4
ATOM      4  C   UNL     1      19.811  14.208 -15.372  1.00  0.00     0.053 C 
BRANCH   4   5
ATOM      5  C   UNL     1      20.791  15.040 -16.136  1.00  0.00     0.041 C 
ATOM      6  O   UNL     1      20.570  16.266 -16.325  1.00  0.00    -0.550 OA
ATOM      7  O   UNL     1      21.973  14.475 -16.598  1.00  0.00    -0.550 OA
ENDBRANCH   4   5
ENDBRANCH   3   4
ENDBRANCH   2   3
ENDBRANCH   1   2
BRANCH   1   8
ATOM      8  C   UNL     1      19.475  10.111 -16.716  1.00  0.00     0.000 C 
BRANCH   8   9
ATOM      9  C   UNL     1      19.114   8.640 -16.444  1.00  0.00    -0.000 C 
BRANCH   9  10
ATOM     10  C   UNL     1      20.158   7.663 -17.011  1.00  0.00    -0.000 C 
BRANCH  10  11
ATOM     11  C   UNL     1      19.586   6.254 -17.244  1.00  0.00    -0.000 C 
BRANCH  11  12
ATOM     12  C   UNL     1      18.137   6.284 -17.756  1.00  0.00    -0.003 C 
ATOM     13  C   UNL     1      17.519   4.890 -17.863  1.00  0.00     0.004 C 
ENDBRANCH  11  12
ENDBRANCH  10  11
ENDBRANCH   9  10
ENDBRANCH   8   9
ENDBRANCH   1   8
TORSDOF 9
ENDMDL
MODEL 6
REMARK VINA RESULT:    -3.731      2.876      4.215
REMARK INTER + INTRA:          -6.282
REMARK INTER:                  -4.922
REMARK INTRA:                  -1.360
REMARK UNBOUND:                -0.587
REMARK SMILES CCCCCCCCCCC(=O)[O-]
REMARK SMILES IDX 7 1 8 2 9 3 10 4 11 5 12 6 13 7 6 8 5 9 4 10 3 11 2 12 1 13
REMARK H PARENT
REMARK Flexibility Score: inf
ROOT
ATOM      1  C   UNL     1      20.383  15.407 -19.979  1.00  0.00     0.000 C 
ENDROOT
BRANCH   1   2
ATOM      2  C   UNL     1      19.255  14.365 -19.883  1.00  0.00     0.000 C 
BRANCH   2   3
ATOM      3  C   UNL     1      19.479  13.357 -18.745  1.00  0.00     0.006 C 
BRANCH   3   4
ATOM      4  C   UNL     1      18.484  13.539 -17.592  1.00  0.00     0.053 C 
BRANCH   4   5
ATOM      5  C   UNL     1      18.637  12.437 -16.592  1.00  0.00     0.041 C 
ATOM      6  O   UNL     1      19.733  12.275 -15.991  1.00  0.00    -0.550 OA
ATOM      7  O   UNL     1      17.557  11.621 -16.284  1.00  0.00    -0.550 OA
ENDBRANCH   4   5
ENDBRANCH   3   4
ENDBRANCH   2   3
ENDBRANCH   1   2
BRANCH   1   8
ATOM      8  C   UNL     1      20.029  16.730 -19.280  1.00  0.00     0.000 C 
BRANCH   8   9
ATOM      9  C   UNL     1      21.002  17.073 -18.138  1.00  0.00    -0.000 C 
BRANCH   9  10
ATOM     10  C   UNL     1      20.541  16.511 -16.784  1.00  0.00    -0.000 C 
BRANCH  10  11
ATOM     11  C   UNL     1      21.450  15.382 -16.269  1.00  0.00    -0.000 C 
BRANCH  11  12
ATOM     12  C   UNL     1      22.743  15.248 -17.088  1.00  0.00    -0.003 C 
ATOM     13  C   UNL     1      22.916  13.856 -17.696  1.00  0.00     0.004 C 
ENDBRANCH  11  12
ENDBRANCH  10  11
ENDBRANCH   9  10
ENDBRANCH   8   9
ENDBRANCH   1   8
TORSDOF 9
ENDMDL
MODEL 7
REMARK VINA RESULT:    -3.728      2.265      4.075
REMARK INTER + INTRA:          -6.277
REMARK INTER:                  -5.480
REMARK INTRA:                  -0.798
REMARK UNBOUND:                -0.587
REMARK SMILES CCCCCCCCCCC(=O)[O-]
REMARK SMILES IDX 7 1 8 2 9 3 10 4 11 5 12 6 13 7 6 8 5 9 4 10 3 11 2 12 1 13
REMARK H PARENT
REMARK Flexibility Score: inf
ROOT
ATOM      1  C   UNL     1      21.917  15.280 -16.419  1.00  0.00     0.000 C 
ENDROOT
BRANCH   1   2
ATOM      2  C   UNL     1      21.349  13.850 -16.425  1.00  0.00     0.000 C 
BRANCH   2   3
ATOM      3  C   UNL     1      19.896  13.791 -15.928  1.00  0.00     0.006 C 
BRANCH   3   4
ATOM      4  C   UNL     1      18.941  13.187 -16.966  1.00  0.00     0.053 C 
BRANCH   4   5
ATOM      5  C   UNL     1      18.534  11.806 -16.560  1.00  0.00     0.041 C 
ATOM      6  O   UNL     1      17.325  11.547 -16.320  1.00  0.00    -0.550 OA
ATOM      7  O   UNL     1      19.481  10.792 -16.495  1.00  0.00    -0.550 OA
ENDBRANCH   4   5
ENDBRANCH   3   4
ENDBRANCH   2   3
ENDBRANCH   1   2
BRANCH   1   8
ATOM      8  C   UNL     1      20.818  16.355 -16.442  1.00  0.00     0.000 C 
BRANCH   8   9
ATOM      9  C   UNL     1      20.913  17.269 -17.677  1.00  0.00    -0.000 C 
BRANCH   9  10
ATOM     10  C   UNL     1      21.888  16.728 -18.736  1.00  0.00    -0.000 C 
BRANCH  10  11
ATOM     11  C   UNL     1      21.232  16.567 -20.119  1.00  0.00    -0.000 C 
BRANCH  11  12
ATOM     12  C   UNL     1      19.705  16.422 -20.032  1.00  0.00    -0.003 C 
ATOM     13  C   UNL     1      18.963  17.486 -20.841  1.00  0.00     0.004 C 
ENDBRANCH  11  12
ENDBRANCH  10  11
ENDBRANCH   9  10
ENDBRANCH   8   9
ENDBRANCH   1   8
TORSDOF 9
ENDMDL
MODEL 8
REMARK VINA RESULT:    -3.705      1.279      2.138
REMARK INTER + INTRA:          -6.242
REMARK INTER:                  -5.310
REMARK INTRA:                  -0.931
REMARK UNBOUND:                -0.587
REMARK SMILES CCCCCCCCCCC(=O)[O-]
REMARK SMILES IDX 7 1 8 2 9 3 10 4 11 5 12 6 13 7 6 8 5 9 4 10 3 11 2 12 1 13
REMARK H PARENT
REMARK Flexibility Score: inf
ROOT
ATOM      1  C   UNL     1      19.357  12.883 -15.627  1.00  0.00     0.000 C 
ENDROOT
BRANCH   1   2
ATOM      2  C   UNL     1      18.585  12.670 -16.942  1.00  0.00     0.000 C 
BRANCH   2   3
ATOM      3  C   UNL     1      19.095  11.457 -17.736  1.00  0.00     0.006 C 
BRANCH   3   4
ATOM      4  C   UNL     1      18.853  10.130 -17.005  1.00  0.00     0.053 C 
BRANCH   4   5
ATOM      5  C   UNL     1      20.001   9.197 -17.223  1.00  0.00     0.041 C 
ATOM      6  O   UNL     1      20.891   9.475 -18.070  1.00  0.00    -0.550 OA
ATOM      7  O   UNL     1      20.117   8.044 -16.456  1.00  0.00    -0.550 OA
ENDBRANCH   4   5
ENDBRANCH   3   4
ENDBRANCH   2   3
ENDBRANCH   1   2
BRANCH   1   8
ATOM      8  C   UNL     1      19.886  14.318 -15.477  1.00  0.00     0.000 C 
BRANCH   8   9
ATOM      9  C   UNL     1      19.877  15.093 -16.807  1.00  0.00    -0.000 C 
BRANCH   9  10
ATOM     10  C   UNL     1      21.103  16.007 -16.964  1.00  0.00    -0.000 C 
BRANCH  10  11
ATOM     11  C   UNL     1      22.429  15.273 -16.693  1.00  0.00    -0.000 C 
BRANCH  11  12
ATOM     12  C   UNL     1      22.839  14.352 -17.852  1.00  0.00    -0.003 C 
ATOM     13  C   UNL     1      22.626  12.872 -17.534  1.00  0.00     0.004 C 
ENDBRANCH  11  12
ENDBRANCH  10  11
ENDBRANCH   9  10
ENDBRANCH   8   9
ENDBRANCH   1   8
TORSDOF 9
ENDMDL
MODEL 9
REMARK VINA RESULT:    -3.678      4.097      6.422
REMARK INTER + INTRA:          -6.201
REMARK INTER:                  -5.105
REMARK INTRA:                  -1.096
REMARK UNBOUND:                -0.587
REMARK SMILES CCCCCCCCCCC(=O)[O-]
REMARK SMILES IDX 7 1 8 2 9 3 10 4 11 5 12 6 13 7 6 8 5 9 4 10 3 11 2 12 1 13
REMARK H PARENT
REMARK Flexibility Score: inf
ROOT
ATOM      1  C   UNL     1      21.739  13.205 -17.033  1.00  0.00     0.000 C 
ENDROOT
BRANCH   1   2
ATOM      2  C   UNL     1      22.867  13.926 -17.792  1.00  0.00     0.000 C 
BRANCH   2   3
ATOM      3  C   UNL     1      22.768  15.456 -17.683  1.00  0.00     0.006 C 
BRANCH   3   4
ATOM      4  C   UNL     1      22.131  16.095 -18.923  1.00  0.00     0.053 C 
BRANCH   4   5
ATOM      5  C   UNL     1      20.886  16.835 -18.547  1.00  0.00     0.041 C 
ATOM      6  O   UNL     1      19.961  16.987 -19.390  1.00  0.00    -0.550 OA
ATOM      7  O   UNL     1      20.723  17.312 -17.253  1.00  0.00    -0.550 OA
ENDBRANCH   4   5
ENDBRANCH   3   4
ENDBRANCH   2   3
ENDBRANCH   1   2
BRANCH   1   8
ATOM      8  C   UNL     1      21.074  14.098 -15.972  1.00  0.00     0.000 C 
BRANCH   8   9
ATOM      9  C   UNL     1      19.538  14.005 -16.002  1.00  0.00    -0.000 C 
BRANCH   9  10
ATOM     10  C   UNL     1      18.984  13.888 -17.432  1.00  0.00    -0.000 C 
BRANCH  10  11
ATOM     11  C   UNL     1      17.981  12.731 -17.586  1.00  0.00    -0.000 C 
BRANCH  11  12
ATOM     12  C   UNL     1      18.089  11.704 -16.449  1.00  0.00    -0.003 C 
ATOM     13  C   UNL     1      18.921  10.481 -16.834  1.00  0.00     0.004 C 
ENDBRANCH  11  12
ENDBRANCH  10  11
ENDBRANCH   9  10
ENDBRANCH   8   9
ENDBRANCH   1   8
TORSDOF 9
ENDMDL
