MODEL 1
REMARK VINA RESULT:     9.896      0.000      0.000
REMARK INTER + INTRA:          15.105
REMARK INTER:                  13.368
REMARK INTRA:                   1.737
REMARK UNBOUND:                 1.737
REMARK SMILES CC[C@H](CC[C@@H](C)[C@H]1CC[C@H]2[C@@H]3CC(=O)C4=CC(=O)CC[C@]4(C)[C@H]3CC[C@@]12C)C(C)C
REMARK SMILES IDX 4 1 3 2 2 3 1 4 29 5 30 6 31 7 5 8 6 9 7 10 8 11 9 12 27 13
REMARK SMILES IDX 10 14 11 15 26 16 28 17 12 18 25 19 24 20 13 21 22 22 14 23
REMARK SMILES IDX 16 24 21 25 23 26 15 27 17 28 20 29 18 30 19 31
REMARK H PARENT
REMARK Flexibility Score: inf
ROOT
ATOM      1  C   UNL     1      28.745  27.034  25.424  1.00  0.00     0.004 C 
ENDROOT
BRANCH   1   2
ATOM      2  C   UNL     1      28.663  28.530  25.002  1.00  0.00    -0.009 C 
BRANCH   2   3
ATOM      3  C   UNL     1      27.326  28.916  24.297  1.00  0.00     0.000 C 
ATOM      4  C   UNL     1      27.211  30.352  23.779  1.00  0.00     0.004 C 
ENDBRANCH   2   3
BRANCH   2   5
ATOM      5  C   UNL     1      29.121  29.481  26.162  1.00  0.00    -0.014 C 
ATOM      6  C   UNL     1      29.094  30.965  25.760  1.00  0.00     0.007 C 
ATOM      7  C   UNL     1      28.401  29.276  27.510  1.00  0.00     0.007 C 
ENDBRANCH   2   5
ENDBRANCH   1   2
BRANCH   1   8
ATOM      8  C   UNL     1      27.826  26.062  24.639  1.00  0.00     0.004 C 
BRANCH   8   9
ATOM      9  C   UNL     1      27.856  24.563  25.069  1.00  0.00    -0.011 C 
ATOM     10  C   UNL     1      29.125  23.877  24.534  1.00  0.00     0.008 C 
BRANCH   9  11
ATOM     11  C   UNL     1      27.654  24.324  26.614  1.00  0.00    -0.002 C 
ATOM     12  C   UNL     1      28.925  24.589  27.416  1.00  0.00     0.005 C 
ATOM     13  C   UNL     1      26.549  25.157  27.360  1.00  0.00    -0.026 C 
ATOM     14  C   UNL     1      28.482  24.657  28.859  1.00  0.00     0.005 C 
ATOM     15  C   UNL     1      27.050  25.218  28.852  1.00  0.00    -0.001 C 
ATOM     16  C   UNL     1      26.398  26.594  26.775  1.00  0.00     0.007 C 
ATOM     17  C   UNL     1      25.184  24.418  27.298  1.00  0.00     0.012 C 
ATOM     18  C   UNL     1      26.995  26.638  29.500  1.00  0.00     0.004 C 
ATOM     19  C   UNL     1      25.514  27.533  27.619  1.00  0.00     0.005 C 
ATOM     20  C   UNL     1      25.640  27.312  29.153  1.00  0.00     0.003 C 
ATOM     21  C   UNL     1      27.300  26.575  31.029  1.00  0.00     0.085 C 
ATOM     22  C   UNL     1      25.340  28.594  30.012  1.00  0.00    -0.000 C 
ATOM     23  C   UNL     1      26.200  27.075  31.921  1.00  0.00     0.159 C 
ATOM     24  C   UNL     1      25.305  28.169  31.479  1.00  0.00     0.005 C 
ATOM     25  C   UNL     1      23.949  29.175  29.602  1.00  0.00     0.020 C 
ATOM     26  C   UNL     1      26.436  29.681  29.843  1.00  0.00     0.017 C 
ATOM     27  O   UNL     1      26.079  26.575  33.075  1.00  0.00    -0.295 OA
ATOM     28  C   UNL     1      24.516  28.796  32.373  1.00  0.00     0.055 C 
ATOM     29  C   UNL     1      23.462  30.282  30.543  1.00  0.00     0.081 C 
ATOM     30  C   UNL     1      23.577  29.855  31.974  1.00  0.00     0.156 C 
ATOM     31  O   UNL     1      22.885  30.433  32.853  1.00  0.00    -0.295 OA
ENDBRANCH   9  11
ENDBRANCH   8   9
ENDBRANCH   1   8
TORSDOF 6
ENDMDL
MODEL 2
REMARK VINA RESULT:    10.728      4.827      7.076
REMARK INTER + INTRA:          16.228
REMARK INTER:                  15.582
REMARK INTRA:                   0.646
REMARK UNBOUND:                 1.737
REMARK SMILES CC[C@H](CC[C@@H](C)[C@H]1CC[C@H]2[C@@H]3CC(=O)C4=CC(=O)CC[C@]4(C)[C@H]3CC[C@@]12C)C(C)C
REMARK SMILES IDX 4 1 3 2 2 3 1 4 29 5 30 6 31 7 5 8 6 9 7 10 8 11 9 12 27 13
REMARK SMILES IDX 10 14 11 15 26 16 28 17 12 18 25 19 24 20 13 21 22 22 14 23
REMARK SMILES IDX 16 24 21 25 23 26 15 27 17 28 20 29 18 30 19 31
REMARK H PARENT
REMARK Flexibility Score: inf
ROOT
ATOM      1  C   UNL     1      18.949  24.363  24.276  1.00  0.00     0.004 C 
ENDROOT
BRANCH   1   2
ATOM      2  C   UNL     1      19.075  24.015  22.764  1.00  0.00    -0.009 C 
BRANCH   2   3
ATOM      3  C   UNL     1      17.928  24.601  21.883  1.00  0.00     0.000 C 
ATOM      4  C   UNL     1      18.215  24.743  20.386  1.00  0.00     0.004 C 
ENDBRANCH   2   3
BRANCH   2   5
ATOM      5  C   UNL     1      20.531  24.259  22.236  1.00  0.00    -0.014 C 
ATOM      6  C   UNL     1      20.715  25.656  21.624  1.00  0.00     0.007 C 
ATOM      7  C   UNL     1      21.659  23.960  23.244  1.00  0.00     0.007 C 
ENDBRANCH   2   5
ENDBRANCH   1   2
BRANCH   1   8
ATOM      8  C   UNL     1      19.279  25.829  24.660  1.00  0.00     0.004 C 
BRANCH   8   9
ATOM      9  C   UNL     1      19.247  26.183  26.179  1.00  0.00    -0.011 C 
ATOM     10  C   UNL     1      17.811  26.087  26.721  1.00  0.00     0.008 C 
BRANCH   9  11
ATOM     11  C   UNL     1      20.274  25.374  27.058  1.00  0.00    -0.002 C 
ATOM     12  C   UNL     1      21.019  24.310  26.254  1.00  0.00     0.005 C 
ATOM     13  C   UNL     1      21.416  26.166  27.793  1.00  0.00    -0.026 C 
ATOM     14  C   UNL     1      22.175  23.883  27.128  1.00  0.00     0.005 C 
ATOM     15  C   UNL     1      22.575  25.114  27.958  1.00  0.00    -0.001 C 
ATOM     16  C   UNL     1      21.905  27.396  26.969  1.00  0.00     0.007 C 
ATOM     17  C   UNL     1      20.930  26.632  29.194  1.00  0.00     0.012 C 
ATOM     18  C   UNL     1      23.990  25.636  27.551  1.00  0.00     0.004 C 
ATOM     19  C   UNL     1      23.182  28.060  27.521  1.00  0.00     0.005 C 
ATOM     20  C   UNL     1      24.203  27.060  28.132  1.00  0.00     0.003 C 
ATOM     21  C   UNL     1      25.104  24.616  27.943  1.00  0.00     0.085 C 
ATOM     22  C   UNL     1      25.697  27.547  28.065  1.00  0.00    -0.000 C 
ATOM     23  C   UNL     1      26.140  25.138  28.897  1.00  0.00     0.159 C 
ATOM     24  C   UNL     1      26.539  26.564  28.877  1.00  0.00     0.005 C 
ATOM     25  C   UNL     1      25.802  28.971  28.696  1.00  0.00     0.020 C 
ATOM     26  C   UNL     1      26.239  27.572  26.611  1.00  0.00     0.017 C 
ATOM     27  O   UNL     1      26.698  24.328  29.690  1.00  0.00    -0.295 OA
ATOM     28  C   UNL     1      27.649  26.962  29.528  1.00  0.00     0.055 C 
ATOM     29  C   UNL     1      27.250  29.433  28.893  1.00  0.00     0.081 C 
ATOM     30  C   UNL     1      28.060  28.374  29.575  1.00  0.00     0.156 C 
ATOM     31  O   UNL     1      29.124  28.690  30.170  1.00  0.00    -0.295 OA
ENDBRANCH   9  11
ENDBRANCH   8   9
ENDBRANCH   1   8
TORSDOF 6
ENDMDL
MODEL 3
REMARK VINA RESULT:    11.847      5.294      7.066
REMARK INTER + INTRA:          17.739
REMARK INTER:                  18.132
REMARK INTRA:                  -0.393
REMARK UNBOUND:                 1.737
REMARK SMILES CC[C@H](CC[C@@H](C)[C@H]1CC[C@H]2[C@@H]3CC(=O)C4=CC(=O)CC[C@]4(C)[C@H]3CC[C@@]12C)C(C)C
REMARK SMILES IDX 4 1 3 2 2 3 1 4 29 5 30 6 31 7 5 8 6 9 7 10 8 11 9 12 27 13
REMARK SMILES IDX 10 14 11 15 26 16 28 17 12 18 25 19 24 20 13 21 22 22 14 23
REMARK SMILES IDX 16 24 21 25 23 26 15 27 17 28 20 29 18 30 19 31
REMARK H PARENT
REMARK Flexibility Score: inf
ROOT
ATOM      1  C   UNL     1      18.369  24.445  23.134  1.00  0.00     0.004 C 
ENDROOT
BRANCH   1   2
ATOM      2  C   UNL     1      18.604  24.344  21.598  1.00  0.00    -0.009 C 
BRANCH   2   3
ATOM      3  C   UNL     1      17.351  23.876  20.796  1.00  0.00     0.000 C 
ATOM      4  C   UNL     1      15.986  24.141  21.435  1.00  0.00     0.004 C 
ENDBRANCH   2   3
BRANCH   2   5
ATOM      5  C   UNL     1      19.333  25.616  21.043  1.00  0.00    -0.014 C 
ATOM      6  C   UNL     1      20.734  25.809  21.644  1.00  0.00     0.007 C 
ATOM      7  C   UNL     1      19.386  25.732  19.506  1.00  0.00     0.007 C 
ENDBRANCH   2   5
ENDBRANCH   1   2
BRANCH   1   8
ATOM      8  C   UNL     1      19.617  24.207  24.024  1.00  0.00     0.004 C 
BRANCH   8   9
ATOM      9  C   UNL     1      19.751  25.095  25.299  1.00  0.00    -0.011 C 
ATOM     10  C   UNL     1      18.368  25.348  25.923  1.00  0.00     0.008 C 
BRANCH   9  11
ATOM     11  C   UNL     1      20.795  24.565  26.354  1.00  0.00    -0.002 C 
ATOM     12  C   UNL     1      22.056  24.008  25.697  1.00  0.00     0.005 C 
ATOM     13  C   UNL     1      21.339  25.568  27.436  1.00  0.00    -0.026 C 
ATOM     14  C   UNL     1      23.065  23.875  26.814  1.00  0.00     0.005 C 
ATOM     15  C   UNL     1      22.753  24.994  27.821  1.00  0.00    -0.001 C 
ATOM     16  C   UNL     1      21.470  27.019  26.882  1.00  0.00     0.007 C 
ATOM     17  C   UNL     1      20.416  25.563  28.686  1.00  0.00     0.012 C 
ATOM     18  C   UNL     1      23.899  26.056  27.860  1.00  0.00     0.004 C 
ATOM     19  C   UNL     1      22.226  27.987  27.814  1.00  0.00     0.005 C 
ATOM     20  C   UNL     1      23.398  27.329  28.594  1.00  0.00     0.003 C 
ATOM     21  C   UNL     1      25.210  25.454  28.454  1.00  0.00     0.085 C 
ATOM     22  C   UNL     1      24.553  28.326  28.977  1.00  0.00    -0.000 C 
ATOM     23  C   UNL     1      25.719  26.131  29.694  1.00  0.00     0.159 C 
ATOM     24  C   UNL     1      25.515  27.583  29.902  1.00  0.00     0.005 C 
ATOM     25  C   UNL     1      23.945  29.552  29.729  1.00  0.00     0.020 C 
ATOM     26  C   UNL     1      25.344  28.810  27.732  1.00  0.00     0.017 C 
ATOM     27  O   UNL     1      26.364  25.447  30.538  1.00  0.00    -0.295 OA
ATOM     28  C   UNL     1      26.206  28.229  30.861  1.00  0.00     0.055 C 
ATOM     29  C   UNL     1      25.011  30.461  30.351  1.00  0.00     0.081 C 
ATOM     30  C   UNL     1      26.003  29.660  31.136  1.00  0.00     0.156 C 
ATOM     31  O   UNL     1      26.698  30.225  32.022  1.00  0.00    -0.295 OA
ENDBRANCH   9  11
ENDBRANCH   8   9
ENDBRANCH   1   8
TORSDOF 6
ENDMDL
