MODEL 1
REMARK VINA RESULT:    -4.362      0.000      0.000
REMARK INTER + INTRA:         -15.242
REMARK INTER:                 -11.502
REMARK INTRA:                  -3.740
REMARK UNBOUND:                -3.740
REMARK SMILES CCCCCCCCCCCCCCCCCCCCCCCCCCCCCC(=O)[O-]
REMARK SMILES IDX 16 1 17 2 18 3 19 4 20 5 21 6 22 7 23 8 24 9 25 10 26 11
REMARK SMILES IDX 27 12 28 13 29 14 30 15 31 16 32 17 15 18 14 19 13 20 12 21
REMARK SMILES IDX 11 22 10 23 9 24 8 25 7 26 6 27 5 28 4 29 3 30 2 31 1 32
REMARK H PARENT
REMARK Flexibility Score: inf
ROOT
ATOM      1  C   UNL     1      25.439 -16.033  26.240  1.00  0.00     0.000 C 
ENDROOT
BRANCH   1   2
ATOM      2  C   UNL     1      23.932 -16.323  26.334  1.00  0.00     0.000 C 
BRANCH   2   3
ATOM      3  C   UNL     1      23.088 -15.037  26.393  1.00  0.00     0.000 C 
BRANCH   3   4
ATOM      4  C   UNL     1      22.183 -14.982  27.642  1.00  0.00     0.000 C 
BRANCH   4   5
ATOM      5  C   UNL     1      21.823 -16.365  28.222  1.00  0.00     0.000 C 
BRANCH   5   6
ATOM      6  C   UNL     1      20.810 -16.346  29.380  1.00  0.00     0.000 C 
BRANCH   6   7
ATOM      7  C   UNL     1      20.230 -14.956  29.714  1.00  0.00     0.000 C 
BRANCH   7   8
ATOM      8  C   UNL     1      19.222 -14.966  30.885  1.00  0.00     0.000 C 
BRANCH   8   9
ATOM      9  C   UNL     1      19.226 -16.277  31.693  1.00  0.00     0.000 C 
BRANCH   9  10
ATOM     10  C   UNL     1      17.816 -16.879  31.841  1.00  0.00     0.000 C 
BRANCH  10  11
ATOM     11  C   UNL     1      17.506 -17.921  30.754  1.00  0.00     0.000 C 
BRANCH  11  12
ATOM     12  C   UNL     1      16.706 -17.333  29.580  1.00  0.00     0.000 C 
BRANCH  12  13
ATOM     13  C   UNL     1      15.388 -18.081  29.329  1.00  0.00     0.006 C 
BRANCH  13  14
ATOM     14  C   UNL     1      14.539 -18.226  30.598  1.00  0.00     0.053 C 
BRANCH  14  15
ATOM     15  C   UNL     1      13.914 -16.917  30.963  1.00  0.00     0.041 C 
ATOM     16  O   UNL     1      14.355 -16.253  31.939  1.00  0.00    -0.550 OA
ATOM     17  O   UNL     1      12.812 -16.451  30.254  1.00  0.00    -0.550 OA
ENDBRANCH  14  15
ENDBRANCH  13  14
ENDBRANCH  12  13
ENDBRANCH  11  12
ENDBRANCH  10  11
ENDBRANCH   9  10
ENDBRANCH   8   9
ENDBRANCH   7   8
ENDBRANCH   6   7
ENDBRANCH   5   6
ENDBRANCH   4   5
ENDBRANCH   3   4
ENDBRANCH   2   3
ENDBRANCH   1   2
BRANCH   1  18
ATOM     18  C   UNL     1      26.238 -16.770  27.330  1.00  0.00     0.000 C 
BRANCH  18  19
ATOM     19  C   UNL     1      25.557 -18.062  27.808  1.00  0.00     0.000 C 
BRANCH  19  20
ATOM     20  C   UNL     1      26.253 -19.331  27.282  1.00  0.00     0.000 C 
BRANCH  20  21
ATOM     21  C   UNL     1      25.989 -19.586  25.786  1.00  0.00     0.000 C 
BRANCH  21  22
ATOM     22  C   UNL     1      27.250 -19.785  24.916  1.00  0.00     0.000 C 
BRANCH  22  23
ATOM     23  C   UNL     1      28.100 -18.522  24.688  1.00  0.00     0.000 C 
BRANCH  23  24
ATOM     24  C   UNL     1      29.527 -18.654  25.247  1.00  0.00    -0.000 C 
BRANCH  24  25
ATOM     25  C   UNL     1      29.734 -19.963  26.035  1.00  0.00    -0.000 C 
BRANCH  25  26
ATOM     26  C   UNL     1      29.971 -19.757  27.544  1.00  0.00    -0.000 C 
BRANCH  26  27
ATOM     27  C   UNL     1      29.776 -18.299  28.016  1.00  0.00    -0.000 C 
BRANCH  27  28
ATOM     28  C   UNL     1      29.841 -18.136  29.545  1.00  0.00    -0.000 C 
BRANCH  28  29
ATOM     29  C   UNL     1      28.447 -17.985  30.173  1.00  0.00    -0.000 C 
BRANCH  29  30
ATOM     30  C   UNL     1      28.155 -16.517  30.514  1.00  0.00    -0.000 C 
BRANCH  30  31
ATOM     31  C   UNL     1      29.430 -15.718  30.826  1.00  0.00    -0.003 C 
ATOM     32  C   UNL     1      29.193 -14.208  30.844  1.00  0.00     0.004 C 
ENDBRANCH  30  31
ENDBRANCH  29  30
ENDBRANCH  28  29
ENDBRANCH  27  28
ENDBRANCH  26  27
ENDBRANCH  25  26
ENDBRANCH  24  25
ENDBRANCH  23  24
ENDBRANCH  22  23
ENDBRANCH  21  22
ENDBRANCH  20  21
ENDBRANCH  19  20
ENDBRANCH  18  19
ENDBRANCH   1  18
TORSDOF 28
ENDMDL
MODEL 2
REMARK VINA RESULT:    -4.347      3.676     11.335
REMARK INTER + INTRA:         -15.202
REMARK INTER:                 -11.605
REMARK INTRA:                  -3.597
REMARK UNBOUND:                -3.740
REMARK SMILES CCCCCCCCCCCCCCCCCCCCCCCCCCCCCC(=O)[O-]
REMARK SMILES IDX 16 1 17 2 18 3 19 4 20 5 21 6 22 7 23 8 24 9 25 10 26 11
REMARK SMILES IDX 27 12 28 13 29 14 30 15 31 16 32 17 15 18 14 19 13 20 12 21
REMARK SMILES IDX 11 22 10 23 9 24 8 25 7 26 6 27 5 28 4 29 3 30 2 31 1 32
REMARK H PARENT
REMARK Flexibility Score: inf
ROOT
ATOM      1  C   UNL     1      23.774 -16.203  26.193  1.00  0.00     0.000 C 
ENDROOT
BRANCH   1   2
ATOM      2  C   UNL     1      25.249 -15.787  26.321  1.00  0.00     0.000 C 
BRANCH   2   3
ATOM      3  C   UNL     1      26.044 -16.718  27.254  1.00  0.00     0.000 C 
BRANCH   3   4
ATOM      4  C   UNL     1      25.344 -18.076  27.468  1.00  0.00     0.000 C 
BRANCH   4   5
ATOM      5  C   UNL     1      26.174 -19.294  27.012  1.00  0.00     0.000 C 
BRANCH   5   6
ATOM      6  C   UNL     1      26.329 -19.448  25.489  1.00  0.00     0.000 C 
BRANCH   6   7
ATOM      7  C   UNL     1      27.784 -19.587  24.994  1.00  0.00     0.000 C 
BRANCH   7   8
ATOM      8  C   UNL     1      28.674 -18.368  25.325  1.00  0.00     0.000 C 
BRANCH   8   9
ATOM      9  C   UNL     1      30.162 -18.719  25.507  1.00  0.00     0.000 C 
BRANCH   9  10
ATOM     10  C   UNL     1      30.390 -19.732  26.645  1.00  0.00     0.000 C 
BRANCH  10  11
ATOM     11  C   UNL     1      30.662 -19.045  27.994  1.00  0.00     0.000 C 
BRANCH  11  12
ATOM     12  C   UNL     1      29.451 -19.097  28.941  1.00  0.00     0.000 C 
BRANCH  12  13
ATOM     13  C   UNL     1      28.795 -17.721  29.136  1.00  0.00     0.006 C 
BRANCH  13  14
ATOM     14  C   UNL     1      27.902 -17.664  30.383  1.00  0.00     0.053 C 
BRANCH  14  15
ATOM     15  C   UNL     1      28.153 -16.405  31.151  1.00  0.00     0.041 C 
ATOM     16  O   UNL     1      27.885 -16.348  32.380  1.00  0.00    -0.550 OA
ATOM     17  O   UNL     1      28.638 -15.277  30.498  1.00  0.00    -0.550 OA
ENDBRANCH  14  15
ENDBRANCH  13  14
ENDBRANCH  12  13
ENDBRANCH  11  12
ENDBRANCH  10  11
ENDBRANCH   9  10
ENDBRANCH   8   9
ENDBRANCH   7   8
ENDBRANCH   6   7
ENDBRANCH   5   6
ENDBRANCH   4   5
ENDBRANCH   3   4
ENDBRANCH   2   3
ENDBRANCH   1   2
BRANCH   1  18
ATOM     18  C   UNL     1      22.821 -15.000  26.318  1.00  0.00     0.000 C 
BRANCH  18  19
ATOM     19  C   UNL     1      22.102 -14.939  27.676  1.00  0.00     0.000 C 
BRANCH  19  20
ATOM     20  C   UNL     1      21.751 -16.333  28.226  1.00  0.00     0.000 C 
BRANCH  20  21
ATOM     21  C   UNL     1      20.886 -16.278  29.499  1.00  0.00     0.000 C 
BRANCH  21  22
ATOM     22  C   UNL     1      20.117 -14.957  29.719  1.00  0.00     0.000 C 
BRANCH  22  23
ATOM     23  C   UNL     1      19.040 -14.996  30.818  1.00  0.00     0.000 C 
BRANCH  23  24
ATOM     24  C   UNL     1      19.283 -16.109  31.853  1.00  0.00    -0.000 C 
BRANCH  24  25
ATOM     25  C   UNL     1      18.013 -16.936  32.139  1.00  0.00    -0.000 C 
BRANCH  25  26
ATOM     26  C   UNL     1      17.988 -18.309  31.441  1.00  0.00    -0.000 C 
BRANCH  26  27
ATOM     27  C   UNL     1      17.715 -18.237  29.923  1.00  0.00    -0.000 C 
BRANCH  27  28
ATOM     28  C   UNL     1      16.478 -17.395  29.561  1.00  0.00    -0.000 C 
BRANCH  28  29
ATOM     29  C   UNL     1      15.209 -18.250  29.438  1.00  0.00    -0.000 C 
BRANCH  29  30
ATOM     30  C   UNL     1      14.401 -18.223  30.743  1.00  0.00    -0.000 C 
BRANCH  30  31
ATOM     31  C   UNL     1      14.084 -16.794  31.212  1.00  0.00    -0.003 C 
ATOM     32  C   UNL     1      12.730 -16.292  30.708  1.00  0.00     0.004 C 
ENDBRANCH  30  31
ENDBRANCH  29  30
ENDBRANCH  28  29
ENDBRANCH  27  28
ENDBRANCH  26  27
ENDBRANCH  25  26
ENDBRANCH  24  25
ENDBRANCH  23  24
ENDBRANCH  22  23
ENDBRANCH  21  22
ENDBRANCH  20  21
ENDBRANCH  19  20
ENDBRANCH  18  19
ENDBRANCH   1  18
TORSDOF 28
ENDMDL
MODEL 3
REMARK VINA RESULT:    -4.304      1.216      1.997
REMARK INTER + INTRA:         -15.088
REMARK INTER:                 -11.673
REMARK INTRA:                  -3.415
REMARK UNBOUND:                -3.740
REMARK SMILES CCCCCCCCCCCCCCCCCCCCCCCCCCCCCC(=O)[O-]
REMARK SMILES IDX 16 1 17 2 18 3 19 4 20 5 21 6 22 7 23 8 24 9 25 10 26 11
REMARK SMILES IDX 27 12 28 13 29 14 30 15 31 16 32 17 15 18 14 19 13 20 12 21
REMARK SMILES IDX 11 22 10 23 9 24 8 25 7 26 6 27 5 28 4 29 3 30 2 31 1 32
REMARK H PARENT
REMARK Flexibility Score: inf
ROOT
ATOM      1  C   UNL     1      22.725 -16.913  25.980  1.00  0.00     0.000 C 
ENDROOT
BRANCH   1   2
ATOM      2  C   UNL     1      22.762 -15.490  26.561  1.00  0.00     0.000 C 
BRANCH   2   3
ATOM      3  C   UNL     1      22.083 -15.400  27.940  1.00  0.00     0.000 C 
BRANCH   3   4
ATOM      4  C   UNL     1      21.714 -16.786  28.507  1.00  0.00     0.000 C 
BRANCH   4   5
ATOM      5  C   UNL     1      20.607 -16.755  29.581  1.00  0.00     0.000 C 
BRANCH   5   6
ATOM      6  C   UNL     1      19.890 -15.403  29.744  1.00  0.00     0.000 C 
BRANCH   6   7
ATOM      7  C   UNL     1      19.120 -15.232  31.070  1.00  0.00     0.000 C 
BRANCH   7   8
ATOM      8  C   UNL     1      19.742 -16.002  32.256  1.00  0.00     0.000 C 
BRANCH   8   9
ATOM      9  C   UNL     1      18.721 -16.823  33.064  1.00  0.00     0.000 C 
BRANCH   9  10
ATOM     10  C   UNL     1      17.474 -17.187  32.236  1.00  0.00     0.000 C 
BRANCH  10  11
ATOM     11  C   UNL     1      17.519 -18.633  31.715  1.00  0.00     0.000 C 
BRANCH  11  12
ATOM     12  C   UNL     1      17.600 -18.708  30.181  1.00  0.00     0.000 C 
BRANCH  12  13
ATOM     13  C   UNL     1      16.766 -17.618  29.491  1.00  0.00     0.006 C 
BRANCH  13  14
ATOM     14  C   UNL     1      15.414 -18.139  28.985  1.00  0.00     0.053 C 
BRANCH  14  15
ATOM     15  C   UNL     1      14.346 -17.904  30.005  1.00  0.00     0.041 C 
ATOM     16  O   UNL     1      13.487 -18.794  30.241  1.00  0.00    -0.550 OA
ATOM     17  O   UNL     1      14.270 -16.681  30.663  1.00  0.00    -0.550 OA
ENDBRANCH  14  15
ENDBRANCH  13  14
ENDBRANCH  12  13
ENDBRANCH  11  12
ENDBRANCH  10  11
ENDBRANCH   9  10
ENDBRANCH   8   9
ENDBRANCH   7   8
ENDBRANCH   6   7
ENDBRANCH   5   6
ENDBRANCH   4   5
ENDBRANCH   3   4
ENDBRANCH   2   3
ENDBRANCH   1   2
BRANCH   1  18
ATOM     18  C   UNL     1      24.136 -17.453  25.681  1.00  0.00     0.000 C 
BRANCH  18  19
ATOM     19  C   UNL     1      25.201 -16.929  26.657  1.00  0.00     0.000 C 
BRANCH  19  20
ATOM     20  C   UNL     1      26.630 -17.041  26.095  1.00  0.00     0.000 C 
BRANCH  20  21
ATOM     21  C   UNL     1      26.673 -17.637  24.675  1.00  0.00     0.000 C 
BRANCH  21  22
ATOM     22  C   UNL     1      27.849 -18.600  24.397  1.00  0.00     0.000 C 
BRANCH  22  23
ATOM     23  C   UNL     1      27.874 -19.876  25.259  1.00  0.00     0.000 C 
BRANCH  23  24
ATOM     24  C   UNL     1      29.219 -20.084  25.977  1.00  0.00    -0.000 C 
BRANCH  24  25
ATOM     25  C   UNL     1      29.954 -18.756  26.250  1.00  0.00    -0.000 C 
BRANCH  25  26
ATOM     26  C   UNL     1      30.118 -18.425  27.746  1.00  0.00    -0.000 C 
BRANCH  26  27
ATOM     27  C   UNL     1      28.940 -18.898  28.626  1.00  0.00    -0.000 C 
BRANCH  27  28
ATOM     28  C   UNL     1      28.317 -17.774  29.474  1.00  0.00    -0.000 C 
BRANCH  28  29
ATOM     29  C   UNL     1      29.356 -17.074  30.363  1.00  0.00    -0.000 C 
BRANCH  29  30
ATOM     30  C   UNL     1      29.032 -17.281  31.850  1.00  0.00    -0.000 C 
BRANCH  30  31
ATOM     31  C   UNL     1      27.647 -16.739  32.234  1.00  0.00    -0.003 C 
ATOM     32  C   UNL     1      26.654 -17.847  32.587  1.00  0.00     0.004 C 
ENDBRANCH  30  31
ENDBRANCH  29  30
ENDBRANCH  28  29
ENDBRANCH  27  28
ENDBRANCH  26  27
ENDBRANCH  25  26
ENDBRANCH  24  25
ENDBRANCH  23  24
ENDBRANCH  22  23
ENDBRANCH  21  22
ENDBRANCH  20  21
ENDBRANCH  19  20
ENDBRANCH  18  19
ENDBRANCH   1  18
TORSDOF 28
ENDMDL
MODEL 4
REMARK VINA RESULT:    -4.276      1.278      2.611
REMARK INTER + INTRA:         -15.016
REMARK INTER:                 -11.658
REMARK INTRA:                  -3.358
REMARK UNBOUND:                -3.740
REMARK SMILES CCCCCCCCCCCCCCCCCCCCCCCCCCCCCC(=O)[O-]
REMARK SMILES IDX 16 1 17 2 18 3 19 4 20 5 21 6 22 7 23 8 24 9 25 10 26 11
REMARK SMILES IDX 27 12 28 13 29 14 30 15 31 16 32 17 15 18 14 19 13 20 12 21
REMARK SMILES IDX 11 22 10 23 9 24 8 25 7 26 6 27 5 28 4 29 3 30 2 31 1 32
REMARK H PARENT
REMARK Flexibility Score: inf
ROOT
ATOM      1  C   UNL     1      26.343 -15.990  25.375  1.00  0.00     0.000 C 
ENDROOT
BRANCH   1   2
ATOM      2  C   UNL     1      25.500 -15.987  26.661  1.00  0.00     0.000 C 
BRANCH   2   3
ATOM      3  C   UNL     1      24.054 -15.520  26.417  1.00  0.00     0.000 C 
BRANCH   3   4
ATOM      4  C   UNL     1      23.083 -16.699  26.197  1.00  0.00     0.000 C 
BRANCH   4   5
ATOM      5  C   UNL     1      22.235 -17.058  27.434  1.00  0.00     0.000 C 
BRANCH   5   6
ATOM      6  C   UNL     1      21.826 -15.865  28.317  1.00  0.00     0.000 C 
BRANCH   6   7
ATOM      7  C   UNL     1      20.815 -16.199  29.433  1.00  0.00     0.000 C 
BRANCH   7   8
ATOM      8  C   UNL     1      19.656 -15.184  29.548  1.00  0.00     0.000 C 
BRANCH   8   9
ATOM      9  C   UNL     1      19.143 -14.992  30.987  1.00  0.00     0.000 C 
BRANCH   9  10
ATOM     10  C   UNL     1      19.709 -16.046  31.957  1.00  0.00     0.000 C 
BRANCH  10  11
ATOM     11  C   UNL     1      18.604 -16.777  32.738  1.00  0.00     0.000 C 
BRANCH  11  12
ATOM     12  C   UNL     1      18.005 -17.957  31.955  1.00  0.00     0.000 C 
BRANCH  12  13
ATOM     13  C   UNL     1      16.479 -17.854  31.806  1.00  0.00     0.006 C 
BRANCH  13  14
ATOM     14  C   UNL     1      16.058 -17.051  30.569  1.00  0.00     0.053 C 
BRANCH  14  15
ATOM     15  C   UNL     1      14.629 -17.330  30.225  1.00  0.00     0.041 C 
ATOM     16  O   UNL     1      13.713 -16.592  30.675  1.00  0.00    -0.550 OA
ATOM     17  O   UNL     1      14.304 -18.435  29.445  1.00  0.00    -0.550 OA
ENDBRANCH  14  15
ENDBRANCH  13  14
ENDBRANCH  12  13
ENDBRANCH  11  12
ENDBRANCH  10  11
ENDBRANCH   9  10
ENDBRANCH   8   9
ENDBRANCH   7   8
ENDBRANCH   6   7
ENDBRANCH   5   6
ENDBRANCH   4   5
ENDBRANCH   3   4
ENDBRANCH   2   3
ENDBRANCH   1   2
BRANCH   1  18
ATOM     18  C   UNL     1      26.667 -17.417  24.899  1.00  0.00     0.000 C 
BRANCH  18  19
ATOM     19  C   UNL     1      27.737 -18.111  25.758  1.00  0.00     0.000 C 
BRANCH  19  20
ATOM     20  C   UNL     1      27.357 -19.557  26.127  1.00  0.00     0.000 C 
BRANCH  20  21
ATOM     21  C   UNL     1      25.842 -19.820  26.050  1.00  0.00     0.000 C 
BRANCH  21  22
ATOM     22  C   UNL     1      25.068 -19.623  27.372  1.00  0.00     0.000 C 
BRANCH  22  23
ATOM     23  C   UNL     1      25.916 -19.717  28.653  1.00  0.00     0.000 C 
BRANCH  23  24
ATOM     24  C   UNL     1      26.174 -18.346  29.300  1.00  0.00    -0.000 C 
BRANCH  24  25
ATOM     25  C   UNL     1      27.462 -18.326  30.148  1.00  0.00    -0.000 C 
BRANCH  25  26
ATOM     26  C   UNL     1      28.712 -17.856  29.379  1.00  0.00    -0.000 C 
BRANCH  26  27
ATOM     27  C   UNL     1      29.618 -16.896  30.180  1.00  0.00    -0.000 C 
BRANCH  27  28
ATOM     28  C   UNL     1      29.143 -16.668  31.627  1.00  0.00    -0.000 C 
BRANCH  28  29
ATOM     29  C   UNL     1      28.618 -15.242  31.847  1.00  0.00    -0.000 C 
BRANCH  29  30
ATOM     30  C   UNL     1      29.261 -14.261  30.855  1.00  0.00    -0.000 C 
BRANCH  30  31
ATOM     31  C   UNL     1      29.637 -12.922  31.508  1.00  0.00    -0.003 C 
ATOM     32  C   UNL     1      30.356 -13.097  32.846  1.00  0.00     0.004 C 
ENDBRANCH  30  31
ENDBRANCH  29  30
ENDBRANCH  28  29
ENDBRANCH  27  28
ENDBRANCH  26  27
ENDBRANCH  25  26
ENDBRANCH  24  25
ENDBRANCH  23  24
ENDBRANCH  22  23
ENDBRANCH  21  22
ENDBRANCH  20  21
ENDBRANCH  19  20
ENDBRANCH  18  19
ENDBRANCH   1  18
TORSDOF 28
ENDMDL
MODEL 5
REMARK VINA RESULT:    -4.233      1.628      3.251
REMARK INTER + INTRA:         -14.901
REMARK INTER:                 -10.792
REMARK INTRA:                  -4.109
REMARK UNBOUND:                -3.740
REMARK SMILES CCCCCCCCCCCCCCCCCCCCCCCCCCCCCC(=O)[O-]
REMARK SMILES IDX 16 1 17 2 18 3 19 4 20 5 21 6 22 7 23 8 24 9 25 10 26 11
REMARK SMILES IDX 27 12 28 13 29 14 30 15 31 16 32 17 15 18 14 19 13 20 12 21
REMARK SMILES IDX 11 22 10 23 9 24 8 25 7 26 6 27 5 28 4 29 3 30 2 31 1 32
REMARK H PARENT
REMARK Flexibility Score: inf
ROOT
ATOM      1  C   UNL     1      23.453 -18.708  26.531  1.00  0.00     0.000 C 
ENDROOT
BRANCH   1   2
ATOM      2  C   UNL     1      22.062 -18.925  27.150  1.00  0.00     0.000 C 
BRANCH   2   3
ATOM      3  C   UNL     1      21.738 -17.895  28.247  1.00  0.00     0.000 C 
BRANCH   3   4
ATOM      4  C   UNL     1      22.209 -16.473  27.877  1.00  0.00     0.000 C 
BRANCH   4   5
ATOM      5  C   UNL     1      21.433 -15.345  28.588  1.00  0.00     0.000 C 
BRANCH   5   6
ATOM      6  C   UNL     1      20.579 -15.793  29.787  1.00  0.00     0.000 C 
BRANCH   6   7
ATOM      7  C   UNL     1      19.304 -14.957  30.025  1.00  0.00     0.000 C 
BRANCH   7   8
ATOM      8  C   UNL     1      17.997 -15.778  29.950  1.00  0.00     0.000 C 
BRANCH   8   9
ATOM      9  C   UNL     1      18.207 -17.292  30.134  1.00  0.00     0.000 C 
BRANCH   9  10
ATOM     10  C   UNL     1      17.873 -17.762  31.562  1.00  0.00     0.000 C 
BRANCH  10  11
ATOM     11  C   UNL     1      16.681 -17.000  32.165  1.00  0.00     0.000 C 
BRANCH  11  12
ATOM     12  C   UNL     1      15.476 -17.912  32.447  1.00  0.00     0.000 C 
BRANCH  12  13
ATOM     13  C   UNL     1      14.345 -17.731  31.422  1.00  0.00     0.006 C 
BRANCH  13  14
ATOM     14  C   UNL     1      13.640 -16.375  31.552  1.00  0.00     0.053 C 
BRANCH  14  15
ATOM     15  C   UNL     1      12.380 -16.360  30.745  1.00  0.00     0.041 C 
ATOM     16  O   UNL     1      11.663 -15.325  30.709  1.00  0.00    -0.550 OA
ATOM     17  O   UNL     1      11.973 -17.505  30.070  1.00  0.00    -0.550 OA
ENDBRANCH  14  15
ENDBRANCH  13  14
ENDBRANCH  12  13
ENDBRANCH  11  12
ENDBRANCH  10  11
ENDBRANCH   9  10
ENDBRANCH   8   9
ENDBRANCH   7   8
ENDBRANCH   6   7
ENDBRANCH   5   6
ENDBRANCH   4   5
ENDBRANCH   3   4
ENDBRANCH   2   3
ENDBRANCH   1   2
BRANCH   1  18
ATOM     18  C   UNL     1      24.274 -20.009  26.482  1.00  0.00     0.000 C 
BRANCH  18  19
ATOM     19  C   UNL     1      25.526 -19.967  27.372  1.00  0.00     0.000 C 
BRANCH  19  20
ATOM     20  C   UNL     1      25.303 -19.178  28.675  1.00  0.00     0.000 C 
BRANCH  20  21
ATOM     21  C   UNL     1      26.492 -18.271  29.042  1.00  0.00     0.000 C 
BRANCH  21  22
ATOM     22  C   UNL     1      27.888 -18.849  28.721  1.00  0.00     0.000 C 
BRANCH  22  23
ATOM     23  C   UNL     1      29.072 -17.903  28.992  1.00  0.00     0.000 C 
BRANCH  23  24
ATOM     24  C   UNL     1      30.402 -18.434  28.428  1.00  0.00    -0.000 C 
BRANCH  24  25
ATOM     25  C   UNL     1      30.218 -19.715  27.590  1.00  0.00    -0.000 C 
BRANCH  25  26
ATOM     26  C   UNL     1      30.620 -19.562  26.111  1.00  0.00    -0.000 C 
BRANCH  26  27
ATOM     27  C   UNL     1      29.682 -18.645  25.297  1.00  0.00    -0.000 C 
BRANCH  27  28
ATOM     28  C   UNL     1      28.326 -19.295  24.964  1.00  0.00    -0.000 C 
BRANCH  28  29
ATOM     29  C   UNL     1      27.272 -18.258  24.547  1.00  0.00    -0.000 C 
BRANCH  29  30
ATOM     30  C   UNL     1      27.211 -17.103  25.556  1.00  0.00    -0.000 C 
BRANCH  30  31
ATOM     31  C   UNL     1      25.902 -16.304  25.460  1.00  0.00    -0.003 C 
ATOM     32  C   UNL     1      25.542 -15.599  26.769  1.00  0.00     0.004 C 
ENDBRANCH  30  31
ENDBRANCH  29  30
ENDBRANCH  28  29
ENDBRANCH  27  28
ENDBRANCH  26  27
ENDBRANCH  25  26
ENDBRANCH  24  25
ENDBRANCH  23  24
ENDBRANCH  22  23
ENDBRANCH  21  22
ENDBRANCH  20  21
ENDBRANCH  19  20
ENDBRANCH  18  19
ENDBRANCH   1  18
TORSDOF 28
ENDMDL
MODEL 6
REMARK VINA RESULT:    -4.220      3.957     11.825
REMARK INTER + INTRA:         -14.868
REMARK INTER:                 -12.323
REMARK INTRA:                  -2.545
REMARK UNBOUND:                -3.740
REMARK SMILES CCCCCCCCCCCCCCCCCCCCCCCCCCCCCC(=O)[O-]
REMARK SMILES IDX 16 1 17 2 18 3 19 4 20 5 21 6 22 7 23 8 24 9 25 10 26 11
REMARK SMILES IDX 27 12 28 13 29 14 30 15 31 16 32 17 15 18 14 19 13 20 12 21
REMARK SMILES IDX 11 22 10 23 9 24 8 25 7 26 6 27 5 28 4 29 3 30 2 31 1 32
REMARK H PARENT
REMARK Flexibility Score: inf
ROOT
ATOM      1  C   UNL     1      23.880 -16.677  26.305  1.00  0.00     0.000 C 
ENDROOT
BRANCH   1   2
ATOM      2  C   UNL     1      25.228 -15.946  26.426  1.00  0.00     0.000 C 
BRANCH   2   3
ATOM      3  C   UNL     1      26.429 -16.889  26.237  1.00  0.00     0.000 C 
BRANCH   3   4
ATOM      4  C   UNL     1      26.330 -17.716  24.938  1.00  0.00     0.000 C 
BRANCH   4   5
ATOM      5  C   UNL     1      27.682 -18.253  24.426  1.00  0.00     0.000 C 
BRANCH   5   6
ATOM      6  C   UNL     1      28.828 -18.230  25.453  1.00  0.00     0.000 C 
BRANCH   6   7
ATOM      7  C   UNL     1      30.121 -18.941  25.002  1.00  0.00     0.000 C 
BRANCH   7   8
ATOM      8  C   UNL     1      31.091 -19.262  26.159  1.00  0.00     0.000 C 
BRANCH   8   9
ATOM      9  C   UNL     1      30.792 -18.481  27.452  1.00  0.00     0.000 C 
BRANCH   9  10
ATOM     10  C   UNL     1      30.910 -19.362  28.710  1.00  0.00     0.000 C 
BRANCH  10  11
ATOM     11  C   UNL     1      29.793 -19.082  29.729  1.00  0.00     0.000 C 
BRANCH  11  12
ATOM     12  C   UNL     1      28.547 -18.451  29.083  1.00  0.00     0.000 C 
BRANCH  12  13
ATOM     13  C   UNL     1      28.230 -17.058  29.649  1.00  0.00     0.006 C 
BRANCH  13  14
ATOM     14  C   UNL     1      29.202 -16.634  30.757  1.00  0.00     0.053 C 
BRANCH  14  15
ATOM     15  C   UNL     1      29.410 -15.152  30.733  1.00  0.00     0.041 C 
ATOM     16  O   UNL     1      30.557 -14.669  30.928  1.00  0.00    -0.550 OA
ATOM     17  O   UNL     1      28.327 -14.301  30.544  1.00  0.00    -0.550 OA
ENDBRANCH  14  15
ENDBRANCH  13  14
ENDBRANCH  12  13
ENDBRANCH  11  12
ENDBRANCH  10  11
ENDBRANCH   9  10
ENDBRANCH   8   9
ENDBRANCH   7   8
ENDBRANCH   6   7
ENDBRANCH   5   6
ENDBRANCH   4   5
ENDBRANCH   3   4
ENDBRANCH   2   3
ENDBRANCH   1   2
BRANCH   1  18
ATOM     18  C   UNL     1      22.688 -15.707  26.370  1.00  0.00     0.000 C 
BRANCH  18  19
ATOM     19  C   UNL     1      22.144 -15.514  27.795  1.00  0.00     0.000 C 
BRANCH  19  20
ATOM     20  C   UNL     1      21.750 -16.843  28.466  1.00  0.00     0.000 C 
BRANCH  20  21
ATOM     21  C   UNL     1      20.519 -16.713  29.383  1.00  0.00     0.000 C 
BRANCH  21  22
ATOM     22  C   UNL     1      20.117 -15.268  29.749  1.00  0.00     0.000 C 
BRANCH  22  23
ATOM     23  C   UNL     1      19.127 -15.136  30.921  1.00  0.00     0.000 C 
BRANCH  23  24
ATOM     24  C   UNL     1      19.480 -16.052  32.106  1.00  0.00    -0.000 C 
BRANCH  24  25
ATOM     25  C   UNL     1      18.261 -16.841  32.626  1.00  0.00    -0.000 C 
BRANCH  25  26
ATOM     26  C   UNL     1      18.023 -18.179  31.900  1.00  0.00    -0.000 C 
BRANCH  26  27
ATOM     27  C   UNL     1      16.604 -18.330  31.311  1.00  0.00    -0.000 C 
BRANCH  27  28
ATOM     28  C   UNL     1      16.109 -17.074  30.571  1.00  0.00    -0.000 C 
BRANCH  28  29
ATOM     29  C   UNL     1      14.578 -17.037  30.450  1.00  0.00    -0.000 C 
BRANCH  29  30
ATOM     30  C   UNL     1      13.920 -16.970  31.836  1.00  0.00    -0.000 C 
BRANCH  30  31
ATOM     31  C   UNL     1      12.717 -16.015  31.873  1.00  0.00    -0.003 C 
ATOM     32  C   UNL     1      12.016 -15.893  30.520  1.00  0.00     0.004 C 
ENDBRANCH  30  31
ENDBRANCH  29  30
ENDBRANCH  28  29
ENDBRANCH  27  28
ENDBRANCH  26  27
ENDBRANCH  25  26
ENDBRANCH  24  25
ENDBRANCH  23  24
ENDBRANCH  22  23
ENDBRANCH  21  22
ENDBRANCH  20  21
ENDBRANCH  19  20
ENDBRANCH  18  19
ENDBRANCH   1  18
TORSDOF 28
ENDMDL
MODEL 7
REMARK VINA RESULT:    -4.057      1.317      2.268
REMARK INTER + INTRA:         -14.437
REMARK INTER:                 -11.375
REMARK INTRA:                  -3.062
REMARK UNBOUND:                -3.740
REMARK SMILES CCCCCCCCCCCCCCCCCCCCCCCCCCCCCC(=O)[O-]
REMARK SMILES IDX 16 1 17 2 18 3 19 4 20 5 21 6 22 7 23 8 24 9 25 10 26 11
REMARK SMILES IDX 27 12 28 13 29 14 30 15 31 16 32 17 15 18 14 19 13 20 12 21
REMARK SMILES IDX 11 22 10 23 9 24 8 25 7 26 6 27 5 28 4 29 3 30 2 31 1 32
REMARK H PARENT
REMARK Flexibility Score: inf
ROOT
ATOM      1  C   UNL     1      24.040 -15.250  26.440  1.00  0.00     0.000 C 
ENDROOT
BRANCH   1   2
ATOM      2  C   UNL     1      23.031 -16.382  26.184  1.00  0.00     0.000 C 
BRANCH   2   3
ATOM      3  C   UNL     1      22.260 -16.782  27.456  1.00  0.00     0.000 C 
BRANCH   3   4
ATOM      4  C   UNL     1      21.782 -15.558  28.264  1.00  0.00     0.000 C 
BRANCH   4   5
ATOM      5  C   UNL     1      20.814 -15.899  29.415  1.00  0.00     0.000 C 
BRANCH   5   6
ATOM      6  C   UNL     1      19.802 -14.796  29.769  1.00  0.00     0.000 C 
BRANCH   6   7
ATOM      7  C   UNL     1      18.805 -15.162  30.889  1.00  0.00     0.000 C 
BRANCH   7   8
ATOM      8  C   UNL     1      19.423 -16.017  32.017  1.00  0.00     0.000 C 
BRANCH   8   9
ATOM      9  C   UNL     1      18.494 -17.135  32.525  1.00  0.00     0.000 C 
BRANCH   9  10
ATOM     10  C   UNL     1      17.009 -16.836  32.245  1.00  0.00     0.000 C 
BRANCH  10  11
ATOM     11  C   UNL     1      16.290 -18.018  31.576  1.00  0.00     0.000 C 
BRANCH  11  12
ATOM     12  C   UNL     1      16.264 -17.906  30.043  1.00  0.00     0.000 C 
BRANCH  12  13
ATOM     13  C   UNL     1      14.837 -17.908  29.473  1.00  0.00     0.006 C 
BRANCH  13  14
ATOM     14  C   UNL     1      13.775 -18.206  30.540  1.00  0.00     0.053 C 
BRANCH  14  15
ATOM     15  C   UNL     1      12.897 -17.013  30.751  1.00  0.00     0.041 C 
ATOM     16  O   UNL     1      11.846 -16.872  30.072  1.00  0.00    -0.550 OA
ATOM     17  O   UNL     1      13.264 -16.032  31.666  1.00  0.00    -0.550 OA
ENDBRANCH  14  15
ENDBRANCH  13  14
ENDBRANCH  12  13
ENDBRANCH  11  12
ENDBRANCH  10  11
ENDBRANCH   9  10
ENDBRANCH   8   9
ENDBRANCH   7   8
ENDBRANCH   6   7
ENDBRANCH   5   6
ENDBRANCH   4   5
ENDBRANCH   3   4
ENDBRANCH   2   3
ENDBRANCH   1   2
BRANCH   1  18
ATOM     18  C   UNL     1      25.442 -15.790  26.773  1.00  0.00     0.000 C 
BRANCH  18  19
ATOM     19  C   UNL     1      26.224 -16.246  25.531  1.00  0.00     0.000 C 
BRANCH  19  20
ATOM     20  C   UNL     1      27.125 -17.464  25.809  1.00  0.00     0.000 C 
BRANCH  20  21
ATOM     21  C   UNL     1      26.618 -18.753  25.136  1.00  0.00     0.000 C 
BRANCH  21  22
ATOM     22  C   UNL     1      26.103 -19.844  26.101  1.00  0.00     0.000 C 
BRANCH  22  23
ATOM     23  C   UNL     1      24.757 -19.540  26.783  1.00  0.00     0.000 C 
BRANCH  23  24
ATOM     24  C   UNL     1      24.917 -19.093  28.247  1.00  0.00    -0.000 C 
BRANCH  24  25
ATOM     25  C   UNL     1      26.287 -19.483  28.837  1.00  0.00    -0.000 C 
BRANCH  25  26
ATOM     26  C   UNL     1      27.063 -18.305  29.455  1.00  0.00    -0.000 C 
BRANCH  26  27
ATOM     27  C   UNL     1      28.598 -18.449  29.366  1.00  0.00    -0.000 C 
BRANCH  27  28
ATOM     28  C   UNL     1      29.359 -17.169  29.759  1.00  0.00    -0.000 C 
BRANCH  28  29
ATOM     29  C   UNL     1      28.541 -16.272  30.699  1.00  0.00    -0.000 C 
BRANCH  29  30
ATOM     30  C   UNL     1      29.425 -15.185  31.327  1.00  0.00    -0.000 C 
BRANCH  30  31
ATOM     31  C   UNL     1      28.652 -13.889  31.615  1.00  0.00    -0.003 C 
ATOM     32  C   UNL     1      29.515 -12.824  32.292  1.00  0.00     0.004 C 
ENDBRANCH  30  31
ENDBRANCH  29  30
ENDBRANCH  28  29
ENDBRANCH  27  28
ENDBRANCH  26  27
ENDBRANCH  25  26
ENDBRANCH  24  25
ENDBRANCH  23  24
ENDBRANCH  22  23
ENDBRANCH  21  22
ENDBRANCH  20  21
ENDBRANCH  19  20
ENDBRANCH  18  19
ENDBRANCH   1  18
TORSDOF 28
ENDMDL
MODEL 8
REMARK VINA RESULT:    -3.983      1.574      2.782
REMARK INTER + INTRA:         -14.243
REMARK INTER:                 -10.908
REMARK INTRA:                  -3.335
REMARK UNBOUND:                -3.740
REMARK SMILES CCCCCCCCCCCCCCCCCCCCCCCCCCCCCC(=O)[O-]
REMARK SMILES IDX 16 1 17 2 18 3 19 4 20 5 21 6 22 7 23 8 24 9 25 10 26 11
REMARK SMILES IDX 27 12 28 13 29 14 30 15 31 16 32 17 15 18 14 19 13 20 12 21
REMARK SMILES IDX 11 22 10 23 9 24 8 25 7 26 6 27 5 28 4 29 3 30 2 31 1 32
REMARK H PARENT
REMARK Flexibility Score: inf
ROOT
ATOM      1  C   UNL     1      22.268 -15.725  27.575  1.00  0.00     0.000 C 
ENDROOT
BRANCH   1   2
ATOM      2  C   UNL     1      21.765 -17.012  28.251  1.00  0.00     0.000 C 
BRANCH   2   3
ATOM      3  C   UNL     1      20.779 -16.727  29.398  1.00  0.00     0.000 C 
BRANCH   3   4
ATOM      4  C   UNL     1      20.493 -15.221  29.570  1.00  0.00     0.000 C 
BRANCH   4   5
ATOM      5  C   UNL     1      19.036 -14.893  29.956  1.00  0.00     0.000 C 
BRANCH   5   6
ATOM      6  C   UNL     1      18.109 -16.112  30.109  1.00  0.00     0.000 C 
BRANCH   6   7
ATOM      7  C   UNL     1      17.517 -16.306  31.520  1.00  0.00     0.000 C 
BRANCH   7   8
ATOM      8  C   UNL     1      18.334 -17.265  32.413  1.00  0.00     0.000 C 
BRANCH   8   9
ATOM      9  C   UNL     1      17.616 -18.594  32.712  1.00  0.00     0.000 C 
BRANCH   9  10
ATOM     10  C   UNL     1      16.083 -18.449  32.694  1.00  0.00     0.000 C 
BRANCH  10  11
ATOM     11  C   UNL     1      15.399 -19.553  31.871  1.00  0.00     0.000 C 
BRANCH  11  12
ATOM     12  C   UNL     1      15.653 -19.410  30.361  1.00  0.00     0.000 C 
BRANCH  12  13
ATOM     13  C   UNL     1      14.997 -18.153  29.768  1.00  0.00     0.006 C 
BRANCH  13  14
ATOM     14  C   UNL     1      13.475 -18.132  29.962  1.00  0.00     0.053 C 
BRANCH  14  15
ATOM     15  C   UNL     1      13.044 -16.842  30.585  1.00  0.00     0.041 C 
ATOM     16  O   UNL     1      13.777 -16.273  31.436  1.00  0.00    -0.550 OA
ATOM     17  O   UNL     1      11.808 -16.292  30.261  1.00  0.00    -0.550 OA
ENDBRANCH  14  15
ENDBRANCH  13  14
ENDBRANCH  12  13
ENDBRANCH  11  12
ENDBRANCH  10  11
ENDBRANCH   9  10
ENDBRANCH   8   9
ENDBRANCH   7   8
ENDBRANCH   6   7
ENDBRANCH   5   6
ENDBRANCH   4   5
ENDBRANCH   3   4
ENDBRANCH   2   3
ENDBRANCH   1   2
BRANCH   1  18
ATOM     18  C   UNL     1      23.317 -16.016  26.486  1.00  0.00     0.000 C 
BRANCH  18  19
ATOM     19  C   UNL     1      24.687 -15.386  26.785  1.00  0.00     0.000 C 
BRANCH  19  20
ATOM     20  C   UNL     1      25.826 -16.025  25.969  1.00  0.00     0.000 C 
BRANCH  20  21
ATOM     21  C   UNL     1      25.526 -17.477  25.552  1.00  0.00     0.000 C 
BRANCH  21  22
ATOM     22  C   UNL     1      26.631 -18.168  24.723  1.00  0.00     0.000 C 
BRANCH  22  23
ATOM     23  C   UNL     1      28.067 -17.968  25.241  1.00  0.00     0.000 C 
BRANCH  23  24
ATOM     24  C   UNL     1      29.065 -18.972  24.637  1.00  0.00    -0.000 C 
BRANCH  24  25
ATOM     25  C   UNL     1      30.477 -18.837  25.242  1.00  0.00    -0.000 C 
BRANCH  25  26
ATOM     26  C   UNL     1      30.732 -19.756  26.452  1.00  0.00    -0.000 C 
BRANCH  26  27
ATOM     27  C   UNL     1      31.100 -19.001  27.748  1.00  0.00    -0.000 C 
BRANCH  27  28
ATOM     28  C   UNL     1      29.915 -18.244  28.374  1.00  0.00    -0.000 C 
BRANCH  28  29
ATOM     29  C   UNL     1      28.948 -19.184  29.109  1.00  0.00    -0.000 C 
BRANCH  29  30
ATOM     30  C   UNL     1      27.556 -18.549  29.237  1.00  0.00    -0.000 C 
BRANCH  30  31
ATOM     31  C   UNL     1      26.457 -19.396  28.577  1.00  0.00    -0.003 C 
ATOM     32  C   UNL     1      25.069 -18.769  28.706  1.00  0.00     0.004 C 
ENDBRANCH  30  31
ENDBRANCH  29  30
ENDBRANCH  28  29
ENDBRANCH  27  28
ENDBRANCH  26  27
ENDBRANCH  25  26
ENDBRANCH  24  25
ENDBRANCH  23  24
ENDBRANCH  22  23
ENDBRANCH  21  22
ENDBRANCH  20  21
ENDBRANCH  19  20
ENDBRANCH  18  19
ENDBRANCH   1  18
TORSDOF 28
ENDMDL
MODEL 9
REMARK VINA RESULT:    -3.962      1.821      3.427
REMARK INTER + INTRA:         -14.188
REMARK INTER:                 -11.073
REMARK INTRA:                  -3.115
REMARK UNBOUND:                -3.740
REMARK SMILES CCCCCCCCCCCCCCCCCCCCCCCCCCCCCC(=O)[O-]
REMARK SMILES IDX 16 1 17 2 18 3 19 4 20 5 21 6 22 7 23 8 24 9 25 10 26 11
REMARK SMILES IDX 27 12 28 13 29 14 30 15 31 16 32 17 15 18 14 19 13 20 12 21
REMARK SMILES IDX 11 22 10 23 9 24 8 25 7 26 6 27 5 28 4 29 3 30 2 31 1 32
REMARK H PARENT
REMARK Flexibility Score: inf
ROOT
ATOM      1  C   UNL     1      22.150 -14.881  27.804  1.00  0.00     0.000 C 
ENDROOT
BRANCH   1   2
ATOM      2  C   UNL     1      21.389 -15.938  28.623  1.00  0.00     0.000 C 
BRANCH   2   3
ATOM      3  C   UNL     1      20.389 -15.310  29.610  1.00  0.00     0.000 C 
BRANCH   3   4
ATOM      4  C   UNL     1      19.755 -16.355  30.551  1.00  0.00     0.000 C 
BRANCH   4   5
ATOM      5  C   UNL     1      19.868 -16.008  32.050  1.00  0.00     0.000 C 
BRANCH   5   6
ATOM      6  C   UNL     1      18.871 -16.735  32.968  1.00  0.00     0.000 C 
BRANCH   6   7
ATOM      7  C   UNL     1      18.086 -17.883  32.297  1.00  0.00     0.000 C 
BRANCH   7   8
ATOM      8  C   UNL     1      16.565 -17.833  32.558  1.00  0.00     0.000 C 
BRANCH   8   9
ATOM      9  C   UNL     1      15.860 -16.643  31.882  1.00  0.00     0.000 C 
BRANCH   9  10
ATOM     10  C   UNL     1      14.326 -16.783  31.898  1.00  0.00     0.000 C 
BRANCH  10  11
ATOM     11  C   UNL     1      13.742 -16.989  30.491  1.00  0.00     0.000 C 
BRANCH  11  12
ATOM     12  C   UNL     1      13.060 -18.358  30.326  1.00  0.00     0.000 C 
BRANCH  12  13
ATOM     13  C   UNL     1      13.730 -19.226  29.250  1.00  0.00     0.006 C 
BRANCH  13  14
ATOM     14  C   UNL     1      15.112 -19.737  29.678  1.00  0.00     0.053 C 
BRANCH  14  15
ATOM     15  C   UNL     1      16.188 -19.070  28.881  1.00  0.00     0.041 C 
ATOM     16  O   UNL     1      17.398 -19.228  29.193  1.00  0.00    -0.550 OA
ATOM     17  O   UNL     1      15.852 -18.234  27.822  1.00  0.00    -0.550 OA
ENDBRANCH  14  15
ENDBRANCH  13  14
ENDBRANCH  12  13
ENDBRANCH  11  12
ENDBRANCH  10  11
ENDBRANCH   9  10
ENDBRANCH   8   9
ENDBRANCH   7   8
ENDBRANCH   6   7
ENDBRANCH   5   6
ENDBRANCH   4   5
ENDBRANCH   3   4
ENDBRANCH   2   3
ENDBRANCH   1   2
BRANCH   1  18
ATOM     18  C   UNL     1      22.556 -15.407  26.416  1.00  0.00     0.000 C 
BRANCH  18  19
ATOM     19  C   UNL     1      22.618 -16.942  26.347  1.00  0.00     0.000 C 
BRANCH  19  20
ATOM     20  C   UNL     1      24.021 -17.465  25.988  1.00  0.00     0.000 C 
BRANCH  20  21
ATOM     21  C   UNL     1      25.154 -16.587  26.553  1.00  0.00     0.000 C 
BRANCH  21  22
ATOM     22  C   UNL     1      26.270 -16.220  25.549  1.00  0.00     0.000 C 
BRANCH  22  23
ATOM     23  C   UNL     1      26.580 -17.292  24.488  1.00  0.00     0.000 C 
BRANCH  23  24
ATOM     24  C   UNL     1      27.712 -18.243  24.914  1.00  0.00    -0.000 C 
BRANCH  24  25
ATOM     25  C   UNL     1      27.192 -19.641  25.307  1.00  0.00    -0.000 C 
BRANCH  25  26
ATOM     26  C   UNL     1      27.095 -19.870  26.827  1.00  0.00    -0.000 C 
BRANCH  26  27
ATOM     27  C   UNL     1      27.907 -18.861  27.667  1.00  0.00    -0.000 C 
BRANCH  27  28
ATOM     28  C   UNL     1      27.162 -18.364  28.919  1.00  0.00    -0.000 C 
BRANCH  28  29
ATOM     29  C   UNL     1      27.740 -17.046  29.454  1.00  0.00    -0.000 C 
BRANCH  29  30
ATOM     30  C   UNL     1      28.549 -17.283  30.738  1.00  0.00    -0.000 C 
BRANCH  30  31
ATOM     31  C   UNL     1      27.972 -16.531  31.947  1.00  0.00    -0.003 C 
ATOM     32  C   UNL     1      26.934 -17.351  32.714  1.00  0.00     0.004 C 
ENDBRANCH  30  31
ENDBRANCH  29  30
ENDBRANCH  28  29
ENDBRANCH  27  28
ENDBRANCH  26  27
ENDBRANCH  25  26
ENDBRANCH  24  25
ENDBRANCH  23  24
ENDBRANCH  22  23
ENDBRANCH  21  22
ENDBRANCH  20  21
ENDBRANCH  19  20
ENDBRANCH  18  19
ENDBRANCH   1  18
TORSDOF 28
ENDMDL
