MODEL 1
REMARK VINA RESULT:    -7.165      0.000      0.000
REMARK INTER + INTRA:          -8.579
REMARK INTER:                  -8.421
REMARK INTRA:                  -0.158
REMARK UNBOUND:                -0.158
REMARK SMILES O=c1c(O)c(-c2ccc(O)cc2)oc2cc(O)cc(O)c12
REMARK SMILES IDX 5 1 3 2 2 3 1 4 21 5 19 6 18 7 16 8 15 9 14 10 13 11 6 12
REMARK SMILES IDX 7 13 8 14 9 15 12 16 11 17 10 18 4 20 20 22 17 24
REMARK H PARENT 10 19 4 21 20 23 17 25
REMARK Flexibility Score: inf
ROOT
ATOM      1  C   UNL     1      34.145  13.873  -9.858  1.00  0.00     0.180 A 
ATOM      2  C   UNL     1      33.292  14.126  -8.770  1.00  0.00     0.208 A 
ATOM      3  C   UNL     1      31.903  14.109  -8.975  1.00  0.00     0.238 A 
ATOM      4  O   UNL     1      31.143  14.283  -7.988  1.00  0.00    -0.285 OA
ATOM      5  C   UNL     1      31.385  13.855 -10.269  1.00  0.00     0.111 A 
ATOM      6  C   UNL     1      29.996  13.852 -10.599  1.00  0.00     0.134 A 
ATOM      7  C   UNL     1      29.592  13.459 -11.882  1.00  0.00     0.093 A 
ATOM      8  C   UNL     1      30.531  13.132 -12.863  1.00  0.00     0.123 A 
ATOM      9  C   UNL     1      31.891  13.188 -12.568  1.00  0.00     0.094 A 
ATOM     10  C   UNL     1      32.323  13.541 -11.286  1.00  0.00     0.146 A 
ATOM     11  O   UNL     1      33.628  13.573 -11.043  1.00  0.00    -0.452 OA
ENDROOT
BRANCH   1  12
ATOM     12  C   UNL     1      35.620  13.899  -9.725  1.00  0.00     0.021 A 
ATOM     13  C   UNL     1      36.350  14.942 -10.319  1.00  0.00     0.016 A 
ATOM     14  C   UNL     1      37.740  14.999 -10.188  1.00  0.00     0.047 A 
ATOM     15  C   UNL     1      38.417  14.022  -9.451  1.00  0.00     0.115 A 
ATOM     16  C   UNL     1      36.305  12.931  -8.968  1.00  0.00     0.016 A 
ATOM     17  C   UNL     1      37.696  12.990  -8.838  1.00  0.00     0.047 A 
BRANCH  15  18
ATOM     18  O   UNL     1      39.804  14.090  -9.329  1.00  0.00    -0.508 OA
ATOM     19  H   UNL     1      40.266  13.913  -8.446  1.00  0.00     0.293 HD
ENDBRANCH  15  18
ENDBRANCH   1  12
BRANCH   2  20
ATOM     20  O   UNL     1      33.823  14.354  -7.498  1.00  0.00    -0.502 OA
ATOM     21  H   UNL     1      33.844  13.638  -6.782  1.00  0.00     0.293 HD
ENDBRANCH   2  20
BRANCH   6  22
ATOM     22  O   UNL     1      28.984  14.251  -9.722  1.00  0.00    -0.507 OA
ATOM     23  H   UNL     1      28.353  15.021  -9.883  1.00  0.00     0.293 HD
ENDBRANCH   6  22
BRANCH   8  24
ATOM     24  O   UNL     1      30.122  12.757 -14.142  1.00  0.00    -0.508 OA
ATOM     25  H   UNL     1      30.494  11.930 -14.596  1.00  0.00     0.293 HD
ENDBRANCH   8  24
TORSDOF 5
ENDMDL
MODEL 2
REMARK VINA RESULT:    -7.018      1.906      2.229
REMARK INTER + INTRA:          -8.407
REMARK INTER:                  -8.139
REMARK INTRA:                  -0.267
REMARK UNBOUND:                -0.158
REMARK SMILES O=c1c(O)c(-c2ccc(O)cc2)oc2cc(O)cc(O)c12
REMARK SMILES IDX 5 1 3 2 2 3 1 4 21 5 19 6 18 7 16 8 15 9 14 10 13 11 6 12
REMARK SMILES IDX 7 13 8 14 9 15 12 16 11 17 10 18 4 20 20 22 17 24
REMARK H PARENT 10 19 4 21 20 23 17 25
REMARK Flexibility Score: inf
ROOT
ATOM      1  C   UNL     1      33.538  13.413 -11.264  1.00  0.00     0.180 A 
ATOM      2  C   UNL     1      33.149  13.839  -9.982  1.00  0.00     0.208 A 
ATOM      3  C   UNL     1      31.786  14.048  -9.719  1.00  0.00     0.238 A 
ATOM      4  O   UNL     1      31.439  14.378  -8.556  1.00  0.00    -0.285 OA
ATOM      5  C   UNL     1      30.831  13.846 -10.745  1.00  0.00     0.111 A 
ATOM      6  C   UNL     1      29.428  14.065 -10.600  1.00  0.00     0.134 A 
ATOM      7  C   UNL     1      28.562  13.707 -11.641  1.00  0.00     0.093 A 
ATOM      8  C   UNL     1      29.056  13.197 -12.844  1.00  0.00     0.123 A 
ATOM      9  C   UNL     1      30.428  13.033 -13.017  1.00  0.00     0.094 A 
ATOM     10  C   UNL     1      31.314  13.348 -11.983  1.00  0.00     0.146 A 
ATOM     11  O   UNL     1      32.613  13.168 -12.184  1.00  0.00    -0.452 OA
ENDROOT
BRANCH   1  12
ATOM     12  C   UNL     1      34.958  13.195 -11.625  1.00  0.00     0.021 A 
ATOM     13  C   UNL     1      35.453  11.885 -11.729  1.00  0.00     0.016 A 
ATOM     14  C   UNL     1      36.784  11.655 -12.090  1.00  0.00     0.047 A 
ATOM     15  C   UNL     1      37.632  12.732 -12.366  1.00  0.00     0.115 A 
ATOM     16  C   UNL     1      35.811  14.273 -11.924  1.00  0.00     0.016 A 
ATOM     17  C   UNL     1      37.143  14.041 -12.286  1.00  0.00     0.047 A 
BRANCH  15  18
ATOM     18  O   UNL     1      38.957  12.489 -12.725  1.00  0.00    -0.508 OA
ATOM     19  H   UNL     1      39.203  12.166 -13.652  1.00  0.00     0.293 HD
ENDBRANCH  15  18
ENDBRANCH   1  12
BRANCH   2  20
ATOM     20  O   UNL     1      34.106  14.013  -8.979  1.00  0.00    -0.502 OA
ATOM     21  H   UNL     1      35.084  14.177  -9.183  1.00  0.00     0.293 HD
ENDBRANCH   2  20
BRANCH   6  22
ATOM     22  O   UNL     1      28.842  14.655  -9.476  1.00  0.00    -0.507 OA
ATOM     23  H   UNL     1      29.162  14.528  -8.528  1.00  0.00     0.293 HD
ENDBRANCH   6  22
BRANCH   8  24
ATOM     24  O   UNL     1      28.188  12.857 -13.881  1.00  0.00    -0.508 OA
ATOM     25  H   UNL     1      27.264  12.483 -13.698  1.00  0.00     0.293 HD
ENDBRANCH   8  24
TORSDOF 5
ENDMDL
MODEL 3
REMARK VINA RESULT:    -6.959      1.345      3.114
REMARK INTER + INTRA:          -8.337
REMARK INTER:                  -8.458
REMARK INTRA:                   0.121
REMARK UNBOUND:                -0.158
REMARK SMILES O=c1c(O)c(-c2ccc(O)cc2)oc2cc(O)cc(O)c12
REMARK SMILES IDX 5 1 3 2 2 3 1 4 21 5 19 6 18 7 16 8 15 9 14 10 13 11 6 12
REMARK SMILES IDX 7 13 8 14 9 15 12 16 11 17 10 18 4 20 20 22 17 24
REMARK H PARENT 10 19 4 21 20 23 17 25
REMARK Flexibility Score: inf
ROOT
ATOM      1  C   UNL     1      34.715  14.141 -10.354  1.00  0.00     0.180 A 
ATOM      2  C   UNL     1      34.344  14.271 -11.703  1.00  0.00     0.208 A 
ATOM      3  C   UNL     1      32.979  14.317 -12.032  1.00  0.00     0.238 A 
ATOM      4  O   UNL     1      32.654  14.488 -13.235  1.00  0.00    -0.285 OA
ATOM      5  C   UNL     1      32.004  14.214 -11.010  1.00  0.00     0.111 A 
ATOM      6  C   UNL     1      30.594  14.210 -11.234  1.00  0.00     0.134 A 
ATOM      7  C   UNL     1      29.722  14.236 -10.139  1.00  0.00     0.093 A 
ATOM      8  C   UNL     1      30.208  14.201  -8.830  1.00  0.00     0.123 A 
ATOM      9  C   UNL     1      31.581  14.147  -8.602  1.00  0.00     0.094 A 
ATOM     10  C   UNL     1      32.478  14.156  -9.674  1.00  0.00     0.146 A 
ATOM     11  O   UNL     1      33.778  14.114  -9.413  1.00  0.00    -0.452 OA
ENDROOT
BRANCH   1  12
ATOM     12  C   UNL     1      36.132  14.060  -9.930  1.00  0.00     0.021 A 
ATOM     13  C   UNL     1      36.529  13.060  -9.026  1.00  0.00     0.016 A 
ATOM     14  C   UNL     1      37.865  12.952  -8.630  1.00  0.00     0.047 A 
ATOM     15  C   UNL     1      38.824  13.830  -9.143  1.00  0.00     0.115 A 
ATOM     16  C   UNL     1      37.105  14.928 -10.459  1.00  0.00     0.016 A 
ATOM     17  C   UNL     1      38.442  14.817 -10.062  1.00  0.00     0.047 A 
BRANCH  15  18
ATOM     18  O   UNL     1      40.152  13.712  -8.740  1.00  0.00    -0.508 OA
ATOM     19  H   UNL     1      40.914  14.018  -9.332  1.00  0.00     0.293 HD
ENDBRANCH  15  18
ENDBRANCH   1  12
BRANCH   2  20
ATOM     20  O   UNL     1      35.323  14.392 -12.693  1.00  0.00    -0.502 OA
ATOM     21  H   UNL     1      35.183  14.056 -13.638  1.00  0.00     0.293 HD
ENDBRANCH   2  20
BRANCH   6  22
ATOM     22  O   UNL     1      30.005  14.151 -12.500  1.00  0.00    -0.507 OA
ATOM     23  H   UNL     1      30.443  14.463 -13.353  1.00  0.00     0.293 HD
ENDBRANCH   6  22
BRANCH   8  24
ATOM     24  O   UNL     1      29.332  14.212  -7.745  1.00  0.00    -0.508 OA
ATOM     25  H   UNL     1      29.052  15.078  -7.299  1.00  0.00     0.293 HD
ENDBRANCH   8  24
TORSDOF 5
ENDMDL
MODEL 4
REMARK VINA RESULT:    -6.912      3.921      9.594
REMARK INTER + INTRA:          -8.282
REMARK INTER:                  -8.152
REMARK INTRA:                  -0.130
REMARK UNBOUND:                -0.158
REMARK SMILES O=c1c(O)c(-c2ccc(O)cc2)oc2cc(O)cc(O)c12
REMARK SMILES IDX 5 1 3 2 2 3 1 4 21 5 19 6 18 7 16 8 15 9 14 10 13 11 6 12
REMARK SMILES IDX 7 13 8 14 9 15 12 16 11 17 10 18 4 20 20 22 17 24
REMARK H PARENT 10 19 4 21 20 23 17 25
REMARK Flexibility Score: inf
ROOT
ATOM      1  C   UNL     1      39.236  12.775 -11.909  1.00  0.00     0.180 A 
ATOM      2  C   UNL     1      40.074  11.929 -12.655  1.00  0.00     0.208 A 
ATOM      3  C   UNL     1      41.466  12.044 -12.505  1.00  0.00     0.238 A 
ATOM      4  O   UNL     1      42.209  11.249 -13.135  1.00  0.00    -0.285 OA
ATOM      5  C   UNL     1      42.002  13.014 -11.624  1.00  0.00     0.111 A 
ATOM      6  C   UNL     1      43.396  13.245 -11.424  1.00  0.00     0.134 A 
ATOM      7  C   UNL     1      43.813  14.140 -10.431  1.00  0.00     0.093 A 
ATOM      8  C   UNL     1      42.884  14.861  -9.676  1.00  0.00     0.123 A 
ATOM      9  C   UNL     1      41.521  14.686  -9.903  1.00  0.00     0.094 A 
ATOM     10  C   UNL     1      41.074  13.772 -10.863  1.00  0.00     0.146 A 
ATOM     11  O   UNL     1      39.767  13.629 -11.041  1.00  0.00    -0.452 OA
ENDROOT
BRANCH   1  12
ATOM     12  C   UNL     1      37.761  12.731 -12.031  1.00  0.00     0.021 A 
ATOM     13  C   UNL     1      37.064  11.593 -11.592  1.00  0.00     0.016 A 
ATOM     14  C   UNL     1      35.669  11.539 -11.677  1.00  0.00     0.047 A 
ATOM     15  C   UNL     1      34.954  12.626 -12.189  1.00  0.00     0.115 A 
ATOM     16  C   UNL     1      37.034  13.829 -12.526  1.00  0.00     0.016 A 
ATOM     17  C   UNL     1      35.638  13.773 -12.610  1.00  0.00     0.047 A 
BRANCH  15  18
ATOM     18  O   UNL     1      33.564  12.558 -12.269  1.00  0.00    -0.508 OA
ATOM     19  H   UNL     1      33.043  11.819 -11.813  1.00  0.00     0.293 HD
ENDBRANCH  15  18
ENDBRANCH   1  12
BRANCH   2  20
ATOM     20  O   UNL     1      39.524  10.964 -13.503  1.00  0.00    -0.502 OA
ATOM     21  H   UNL     1      39.921  10.748 -14.409  1.00  0.00     0.293 HD
ENDBRANCH   2  20
BRANCH   6  22
ATOM     22  O   UNL     1      44.403  12.647 -12.187  1.00  0.00    -0.507 OA
ATOM     23  H   UNL     1      45.307  13.058 -12.370  1.00  0.00     0.293 HD
ENDBRANCH   6  22
BRANCH   8  24
ATOM     24  O   UNL     1      43.306  15.761  -8.699  1.00  0.00    -0.508 OA
ATOM     25  H   UNL     1      44.269  16.076  -8.649  1.00  0.00     0.293 HD
ENDBRANCH   8  24
TORSDOF 5
ENDMDL
MODEL 5
REMARK VINA RESULT:    -6.881      3.262      6.339
REMARK INTER + INTRA:          -8.245
REMARK INTER:                  -8.071
REMARK INTRA:                  -0.174
REMARK UNBOUND:                -0.158
REMARK SMILES O=c1c(O)c(-c2ccc(O)cc2)oc2cc(O)cc(O)c12
REMARK SMILES IDX 5 1 3 2 2 3 1 4 21 5 19 6 18 7 16 8 15 9 14 10 13 11 6 12
REMARK SMILES IDX 7 13 8 14 9 15 12 16 11 17 10 18 4 20 20 22 17 24
REMARK H PARENT 10 19 4 21 20 23 17 25
REMARK Flexibility Score: inf
ROOT
ATOM      1  C   UNL     1      39.788  14.367 -10.853  1.00  0.00     0.180 A 
ATOM      2  C   UNL     1      39.269  14.584 -12.141  1.00  0.00     0.208 A 
ATOM      3  C   UNL     1      37.877  14.563 -12.327  1.00  0.00     0.238 A 
ATOM      4  O   UNL     1      37.417  14.810 -13.471  1.00  0.00    -0.285 OA
ATOM      5  C   UNL     1      37.023  14.308 -11.226  1.00  0.00     0.111 A 
ATOM      6  C   UNL     1      35.600  14.225 -11.307  1.00  0.00     0.134 A 
ATOM      7  C   UNL     1      34.848  14.099 -10.133  1.00  0.00     0.093 A 
ATOM      8  C   UNL     1      35.471  13.989  -8.887  1.00  0.00     0.123 A 
ATOM      9  C   UNL     1      36.861  14.011  -8.803  1.00  0.00     0.094 A 
ATOM     10  C   UNL     1      37.638  14.172  -9.954  1.00  0.00     0.146 A 
ATOM     11  O   UNL     1      38.958  14.197  -9.829  1.00  0.00    -0.452 OA
ENDROOT
BRANCH   1  12
ATOM     12  C   UNL     1      41.244  14.349 -10.582  1.00  0.00     0.021 A 
ATOM     13  C   UNL     1      41.802  15.319  -9.732  1.00  0.00     0.016 A 
ATOM     14  C   UNL     1      43.170  15.308  -9.445  1.00  0.00     0.047 A 
ATOM     15  C   UNL     1      43.995  14.320  -9.992  1.00  0.00     0.115 A 
ATOM     16  C   UNL     1      42.075  13.346 -11.112  1.00  0.00     0.016 A 
ATOM     17  C   UNL     1      43.444  13.336 -10.823  1.00  0.00     0.047 A 
BRANCH  15  18
ATOM     18  O   UNL     1      45.357  14.320  -9.698  1.00  0.00    -0.508 OA
ATOM     19  H   UNL     1      46.005  14.917 -10.197  1.00  0.00     0.293 HD
ENDBRANCH  15  18
ENDBRANCH   1  12
BRANCH   2  20
ATOM     20  O   UNL     1      40.129  14.854 -13.209  1.00  0.00    -0.502 OA
ATOM     21  H   UNL     1      40.096  14.334 -14.077  1.00  0.00     0.293 HD
ENDBRANCH   2  20
BRANCH   6  22
ATOM     22  O   UNL     1      34.885  14.231 -12.508  1.00  0.00    -0.507 OA
ATOM     23  H   UNL     1      33.880  14.186 -12.579  1.00  0.00     0.293 HD
ENDBRANCH   6  22
BRANCH   8  24
ATOM     24  O   UNL     1      34.716  13.850  -7.724  1.00  0.00    -0.508 OA
ATOM     25  H   UNL     1      35.063  14.165  -6.825  1.00  0.00     0.293 HD
ENDBRANCH   8  24
TORSDOF 5
ENDMDL
MODEL 6
REMARK VINA RESULT:    -6.849      2.461      6.819
REMARK INTER + INTRA:          -8.208
REMARK INTER:                  -8.016
REMARK INTRA:                  -0.192
REMARK UNBOUND:                -0.158
REMARK SMILES O=c1c(O)c(-c2ccc(O)cc2)oc2cc(O)cc(O)c12
REMARK SMILES IDX 5 1 3 2 2 3 1 4 21 5 19 6 18 7 16 8 15 9 14 10 13 11 6 12
REMARK SMILES IDX 7 13 8 14 9 15 12 16 11 17 10 18 4 20 20 22 17 24
REMARK H PARENT 10 19 4 21 20 23 17 25
REMARK Flexibility Score: inf
ROOT
ATOM      1  C   UNL     1      33.560  13.874 -11.906  1.00  0.00     0.180 A 
ATOM      2  C   UNL     1      34.134  15.104 -11.544  1.00  0.00     0.208 A 
ATOM      3  C   UNL     1      35.533  15.218 -11.504  1.00  0.00     0.238 A 
ATOM      4  O   UNL     1      36.042  16.335 -11.231  1.00  0.00    -0.285 OA
ATOM      5  C   UNL     1      36.340  14.095 -11.810  1.00  0.00     0.111 A 
ATOM      6  C   UNL     1      37.767  14.085 -11.763  1.00  0.00     0.134 A 
ATOM      7  C   UNL     1      38.465  12.957 -12.212  1.00  0.00     0.093 A 
ATOM      8  C   UNL     1      37.786  11.816 -12.646  1.00  0.00     0.123 A 
ATOM      9  C   UNL     1      36.393  11.794 -12.640  1.00  0.00     0.094 A 
ATOM     10  C   UNL     1      35.669  12.918 -12.232  1.00  0.00     0.146 A 
ATOM     11  O   UNL     1      34.344  12.859 -12.252  1.00  0.00    -0.452 OA
ENDROOT
BRANCH   1  12
ATOM     12  C   UNL     1      32.094  13.670 -11.946  1.00  0.00     0.021 A 
ATOM     13  C   UNL     1      31.465  13.408 -13.175  1.00  0.00     0.016 A 
ATOM     14  C   UNL     1      30.085  13.191 -13.234  1.00  0.00     0.047 A 
ATOM     15  C   UNL     1      29.319  13.217 -12.064  1.00  0.00     0.115 A 
ATOM     16  C   UNL     1      31.321  13.674 -10.771  1.00  0.00     0.016 A 
ATOM     17  C   UNL     1      29.940  13.455 -10.832  1.00  0.00     0.047 A 
BRANCH  15  18
ATOM     18  O   UNL     1      27.945  12.998 -12.137  1.00  0.00    -0.508 OA
ATOM     19  H   UNL     1      27.399  12.786 -11.311  1.00  0.00     0.293 HD
ENDBRANCH  15  18
ENDBRANCH   1  12
BRANCH   2  20
ATOM     20  O   UNL     1      33.320  16.206 -11.266  1.00  0.00    -0.502 OA
ATOM     21  H   UNL     1      33.101  16.909 -11.962  1.00  0.00     0.293 HD
ENDBRANCH   2  20
BRANCH   6  22
ATOM     22  O   UNL     1      38.538  15.137 -11.261  1.00  0.00    -0.507 OA
ATOM     23  H   UNL     1      39.494  15.052 -10.948  1.00  0.00     0.293 HD
ENDBRANCH   6  22
BRANCH   8  24
ATOM     24  O   UNL     1      38.488  10.692 -13.077  1.00  0.00    -0.508 OA
ATOM     25  H   UNL     1      39.455  10.753 -13.374  1.00  0.00     0.293 HD
ENDBRANCH   8  24
TORSDOF 5
ENDMDL
MODEL 7
REMARK VINA RESULT:    -6.723      3.801      9.843
REMARK INTER + INTRA:          -8.060
REMARK INTER:                  -7.786
REMARK INTRA:                  -0.274
REMARK UNBOUND:                -0.158
REMARK SMILES O=c1c(O)c(-c2ccc(O)cc2)oc2cc(O)cc(O)c12
REMARK SMILES IDX 5 1 3 2 2 3 1 4 21 5 19 6 18 7 16 8 15 9 14 10 13 11 6 12
REMARK SMILES IDX 7 13 8 14 9 15 12 16 11 17 10 18 4 20 20 22 17 24
REMARK H PARENT 10 19 4 21 20 23 17 25
REMARK Flexibility Score: inf
ROOT
ATOM      1  C   UNL     1      39.812  14.006 -10.467  1.00  0.00     0.180 A 
ATOM      2  C   UNL     1      40.253  13.358 -11.633  1.00  0.00     0.208 A 
ATOM      3  C   UNL     1      41.620  13.386 -11.953  1.00  0.00     0.238 A 
ATOM      4  O   UNL     1      42.016  12.759 -12.969  1.00  0.00    -0.285 OA
ATOM      5  C   UNL     1      42.526  14.076 -11.112  1.00  0.00     0.111 A 
ATOM      6  C   UNL     1      43.926  14.202 -11.360  1.00  0.00     0.134 A 
ATOM      7  C   UNL     1      44.748  14.795 -10.393  1.00  0.00     0.093 A 
ATOM      8  C   UNL     1      44.210  15.323  -9.217  1.00  0.00     0.123 A 
ATOM      9  C   UNL     1      42.837  15.256  -8.992  1.00  0.00     0.094 A 
ATOM     10  C   UNL     1      41.996  14.639  -9.922  1.00  0.00     0.146 A 
ATOM     11  O   UNL     1      40.695  14.588  -9.664  1.00  0.00    -0.452 OA
ENDROOT
BRANCH   1  12
ATOM     12  C   UNL     1      38.384  14.042 -10.077  1.00  0.00     0.021 A 
ATOM     13  C   UNL     1      37.926  13.203  -9.047  1.00  0.00     0.016 A 
ATOM     14  C   UNL     1      36.587  13.236  -8.647  1.00  0.00     0.047 A 
ATOM     15  C   UNL     1      35.692  14.117  -9.261  1.00  0.00     0.115 A 
ATOM     16  C   UNL     1      37.483  14.941 -10.676  1.00  0.00     0.016 A 
ATOM     17  C   UNL     1      36.143  14.973 -10.274  1.00  0.00     0.047 A 
BRANCH  15  18
ATOM     18  O   UNL     1      34.360  14.140  -8.853  1.00  0.00    -0.508 OA
ATOM     19  H   UNL     1      33.994  13.455  -8.202  1.00  0.00     0.293 HD
ENDBRANCH  15  18
ENDBRANCH   1  12
BRANCH   2  20
ATOM     20  O   UNL     1      39.344  12.665 -12.438  1.00  0.00    -0.502 OA
ATOM     21  H   UNL     1      38.589  13.128 -12.928  1.00  0.00     0.293 HD
ENDBRANCH   2  20
BRANCH   6  22
ATOM     22  O   UNL     1      44.549  13.792 -12.542  1.00  0.00    -0.507 OA
ATOM     23  H   UNL     1      45.510  13.984 -12.782  1.00  0.00     0.293 HD
ENDBRANCH   6  22
BRANCH   8  24
ATOM     24  O   UNL     1      45.033  15.925  -8.266  1.00  0.00    -0.508 OA
ATOM     25  H   UNL     1      45.070  16.932  -8.159  1.00  0.00     0.293 HD
ENDBRANCH   8  24
TORSDOF 5
ENDMDL
MODEL 8
REMARK VINA RESULT:    -6.689      2.284      7.288
REMARK INTER + INTRA:          -8.019
REMARK INTER:                  -7.755
REMARK INTRA:                  -0.264
REMARK UNBOUND:                -0.158
REMARK SMILES O=c1c(O)c(-c2ccc(O)cc2)oc2cc(O)cc(O)c12
REMARK SMILES IDX 5 1 3 2 2 3 1 4 21 5 19 6 18 7 16 8 15 9 14 10 13 11 6 12
REMARK SMILES IDX 7 13 8 14 9 15 12 16 11 17 10 18 4 20 20 22 17 24
REMARK H PARENT 10 19 4 21 20 23 17 25
REMARK Flexibility Score: inf
ROOT
ATOM      1  C   UNL     1      35.905  13.726 -11.257  1.00  0.00     0.180 A 
ATOM      2  C   UNL     1      36.132  13.783  -9.872  1.00  0.00     0.208 A 
ATOM      3  C   UNL     1      37.450  13.901  -9.402  1.00  0.00     0.238 A 
ATOM      4  O   UNL     1      37.643  14.006  -8.163  1.00  0.00    -0.285 OA
ATOM      5  C   UNL     1      38.525  13.943 -10.323  1.00  0.00     0.111 A 
ATOM      6  C   UNL     1      39.903  14.022  -9.957  1.00  0.00     0.134 A 
ATOM      7  C   UNL     1      40.873  14.190 -10.952  1.00  0.00     0.093 A 
ATOM      8  C   UNL     1      40.521  14.218 -12.304  1.00  0.00     0.123 A 
ATOM      9  C   UNL     1      39.185  14.083 -12.674  1.00  0.00     0.094 A 
ATOM     10  C   UNL     1      38.190  13.950 -11.702  1.00  0.00     0.146 A 
ATOM     11  O   UNL     1      36.929  13.835 -12.097  1.00  0.00    -0.452 OA
ENDROOT
BRANCH   1  12
ATOM     12  C   UNL     1      34.547  13.577 -11.828  1.00  0.00     0.021 A 
ATOM     13  C   UNL     1      33.946  12.307 -11.862  1.00  0.00     0.016 A 
ATOM     14  C   UNL     1      32.656  12.147 -12.376  1.00  0.00     0.047 A 
ATOM     15  C   UNL     1      31.945  13.254 -12.849  1.00  0.00     0.115 A 
ATOM     16  C   UNL     1      33.818  14.690 -12.286  1.00  0.00     0.016 A 
ATOM     17  C   UNL     1      32.527  14.527 -12.800  1.00  0.00     0.047 A 
BRANCH  15  18
ATOM     18  O   UNL     1      30.660  13.079 -13.359  1.00  0.00    -0.508 OA
ATOM     19  H   UNL     1      30.174  13.829 -13.837  1.00  0.00     0.293 HD
ENDBRANCH  15  18
ENDBRANCH   1  12
BRANCH   2  20
ATOM     20  O   UNL     1      35.055  13.761  -8.981  1.00  0.00    -0.502 OA
ATOM     21  H   UNL     1      34.649  12.898  -8.642  1.00  0.00     0.293 HD
ENDBRANCH   2  20
BRANCH   6  22
ATOM     22  O   UNL     1      40.369  13.912  -8.644  1.00  0.00    -0.507 OA
ATOM     23  H   UNL     1      40.659  13.050  -8.206  1.00  0.00     0.293 HD
ENDBRANCH   6  22
BRANCH   8  24
ATOM     24  O   UNL     1      41.494  14.371 -13.290  1.00  0.00    -0.508 OA
ATOM     25  H   UNL     1      42.453  14.080 -13.137  1.00  0.00     0.293 HD
ENDBRANCH   8  24
TORSDOF 5
ENDMDL
MODEL 9
REMARK VINA RESULT:    -6.597      3.747      5.808
REMARK INTER + INTRA:          -7.912
REMARK INTER:                  -7.660
REMARK INTRA:                  -0.252
REMARK UNBOUND:                -0.158
REMARK SMILES O=c1c(O)c(-c2ccc(O)cc2)oc2cc(O)cc(O)c12
REMARK SMILES IDX 5 1 3 2 2 3 1 4 21 5 19 6 18 7 16 8 15 9 14 10 13 11 6 12
REMARK SMILES IDX 7 13 8 14 9 15 12 16 11 17 10 18 4 20 20 22 17 24
REMARK H PARENT 10 19 4 21 20 23 17 25
REMARK Flexibility Score: inf
ROOT
ATOM      1  C   UNL     1      39.694  14.415 -10.757  1.00  0.00     0.180 A 
ATOM      2  C   UNL     1      38.801  13.966  -9.769  1.00  0.00     0.208 A 
ATOM      3  C   UNL     1      37.420  14.083  -9.995  1.00  0.00     0.238 A 
ATOM      4  O   UNL     1      36.626  13.631  -9.131  1.00  0.00    -0.285 OA
ATOM      5  C   UNL     1      36.950  14.663 -11.198  1.00  0.00     0.111 A 
ATOM      6  C   UNL     1      35.573  14.867 -11.515  1.00  0.00     0.134 A 
ATOM      7  C   UNL     1      35.219  15.328 -12.789  1.00  0.00     0.093 A 
ATOM      8  C   UNL     1      36.195  15.654 -13.734  1.00  0.00     0.123 A 
ATOM      9  C   UNL     1      37.543  15.513 -13.414  1.00  0.00     0.094 A 
ATOM     10  C   UNL     1      37.927  15.021 -12.163  1.00  0.00     0.146 A 
ATOM     11  O   UNL     1      39.222  14.893 -11.903  1.00  0.00    -0.452 OA
ENDROOT
BRANCH   1  12
ATOM     12  C   UNL     1      41.163  14.349 -10.581  1.00  0.00     0.021 A 
ATOM     13  C   UNL     1      41.805  15.291  -9.760  1.00  0.00     0.016 A 
ATOM     14  C   UNL     1      43.188  15.233  -9.563  1.00  0.00     0.047 A 
ATOM     15  C   UNL     1      43.944  14.226 -10.170  1.00  0.00     0.115 A 
ATOM     16  C   UNL     1      41.926  13.325 -11.173  1.00  0.00     0.016 A 
ATOM     17  C   UNL     1      43.310  13.270 -10.973  1.00  0.00     0.047 A 
BRANCH  15  18
ATOM     18  O   UNL     1      45.321  14.181  -9.965  1.00  0.00    -0.508 OA
ATOM     19  H   UNL     1      45.974  14.429 -10.699  1.00  0.00     0.293 HD
ENDBRANCH  15  18
ENDBRANCH   1  12
BRANCH   2  20
ATOM     20  O   UNL     1      39.287  13.378  -8.598  1.00  0.00    -0.502 OA
ATOM     21  H   UNL     1      38.978  12.468  -8.278  1.00  0.00     0.293 HD
ENDBRANCH   2  20
BRANCH   6  22
ATOM     22  O   UNL     1      34.526  14.661 -10.613  1.00  0.00    -0.507 OA
ATOM     23  H   UNL     1      34.268  13.766 -10.225  1.00  0.00     0.293 HD
ENDBRANCH   6  22
BRANCH   8  24
ATOM     24  O   UNL     1      35.835  16.127 -14.995  1.00  0.00    -0.508 OA
ATOM     25  H   UNL     1      34.869  16.129 -15.303  1.00  0.00     0.293 HD
ENDBRANCH   8  24
TORSDOF 5
ENDMDL
