MODEL 1
REMARK VINA RESULT:    -4.989      0.000      0.000
REMARK INTER + INTRA:          -5.476
REMARK INTER:                  -5.427
REMARK INTRA:                  -0.049
REMARK UNBOUND:                -0.049
REMARK SMILES CCc1cccc(O)c1
REMARK SMILES IDX 3 1 9 2 7 3 6 4 5 5 4 6 2 7 1 8 8 9
REMARK H PARENT 8 10
REMARK Flexibility Score: inf
ROOT
ATOM      1  C   UNL     1      22.639   4.709 102.025  1.00  0.00    -0.045 A 
ATOM      2  C   UNL     1      21.756   5.454 101.226  1.00  0.00     0.049 A 
ATOM      3  C   UNL     1      22.241   6.486 100.409  1.00  0.00     0.115 A 
ATOM      4  C   UNL     1      23.610   6.769 100.385  1.00  0.00     0.046 A 
ATOM      5  C   UNL     1      24.494   6.022 101.168  1.00  0.00     0.004 A 
ATOM      6  C   UNL     1      24.014   4.993 101.982  1.00  0.00     0.004 A 
ENDROOT
BRANCH   1   7
ATOM      7  C   UNL     1      22.123   3.578 102.875  1.00  0.00     0.032 C 
ATOM      8  C   UNL     1      21.765   4.074 104.272  1.00  0.00     0.009 C 
ENDBRANCH   1   7
BRANCH   3   9
ATOM      9  O   UNL     1      21.371   7.233  99.619  1.00  0.00    -0.508 OA
ATOM     10  H   UNL     1      21.370   7.152  98.608  1.00  0.00     0.293 HD
ENDBRANCH   3   9
TORSDOF 2
ENDMDL
MODEL 2
REMARK VINA RESULT:    -4.876      1.385      1.924
REMARK INTER + INTRA:          -5.353
REMARK INTER:                  -5.279
REMARK INTRA:                  -0.074
REMARK UNBOUND:                -0.049
REMARK SMILES CCc1cccc(O)c1
REMARK SMILES IDX 3 1 9 2 7 3 6 4 5 5 4 6 2 7 1 8 8 9
REMARK H PARENT 8 10
REMARK Flexibility Score: inf
ROOT
ATOM      1  C   UNL     1      23.253   4.804 102.009  1.00  0.00    -0.045 A 
ATOM      2  C   UNL     1      21.954   4.544 101.542  1.00  0.00     0.049 A 
ATOM      3  C   UNL     1      21.395   5.333 100.526  1.00  0.00     0.115 A 
ATOM      4  C   UNL     1      22.139   6.380  99.971  1.00  0.00     0.046 A 
ATOM      5  C   UNL     1      23.436   6.635 100.422  1.00  0.00     0.004 A 
ATOM      6  C   UNL     1      23.995   5.849 101.433  1.00  0.00     0.004 A 
ENDROOT
BRANCH   1   7
ATOM      7  C   UNL     1      23.865   3.935 103.074  1.00  0.00     0.032 C 
ATOM      8  C   UNL     1      25.388   4.005 103.020  1.00  0.00     0.009 C 
ENDBRANCH   1   7
BRANCH   3   9
ATOM      9  O   UNL     1      20.105   5.085 100.063  1.00  0.00    -0.508 OA
ATOM     10  H   UNL     1      19.717   5.593  99.276  1.00  0.00     0.293 HD
ENDBRANCH   3   9
TORSDOF 2
ENDMDL
MODEL 3
REMARK VINA RESULT:    -4.836      3.076      5.291
REMARK INTER + INTRA:          -5.309
REMARK INTER:                  -5.260
REMARK INTRA:                  -0.049
REMARK UNBOUND:                -0.049
REMARK SMILES CCc1cccc(O)c1
REMARK SMILES IDX 3 1 9 2 7 3 6 4 5 5 4 6 2 7 1 8 8 9
REMARK H PARENT 8 10
REMARK Flexibility Score: inf
ROOT
ATOM      1  C   UNL     1      21.875   3.792 104.113  1.00  0.00    -0.045 A 
ATOM      2  C   UNL     1      21.174   4.602 105.021  1.00  0.00     0.049 A 
ATOM      3  C   UNL     1      20.199   4.044 105.862  1.00  0.00     0.115 A 
ATOM      4  C   UNL     1      19.930   2.674 105.799  1.00  0.00     0.046 A 
ATOM      5  C   UNL     1      20.633   1.860 104.907  1.00  0.00     0.004 A 
ATOM      6  C   UNL     1      21.606   2.414 104.069  1.00  0.00     0.004 A 
ENDROOT
BRANCH   1   7
ATOM      7  C   UNL     1      22.945   4.385 103.236  1.00  0.00     0.032 C 
ATOM      8  C   UNL     1      22.354   4.878 101.920  1.00  0.00     0.009 C 
ENDBRANCH   1   7
BRANCH   3   9
ATOM      9  O   UNL     1      19.496   4.843 106.760  1.00  0.00    -0.508 OA
ATOM     10  H   UNL     1      19.318   4.541 107.711  1.00  0.00     0.293 HD
ENDBRANCH   3   9
TORSDOF 2
ENDMDL
MODEL 4
REMARK VINA RESULT:    -4.710      2.102      3.733
REMARK INTER + INTRA:          -5.173
REMARK INTER:                  -5.104
REMARK INTRA:                  -0.069
REMARK UNBOUND:                -0.049
REMARK SMILES CCc1cccc(O)c1
REMARK SMILES IDX 3 1 9 2 7 3 6 4 5 5 4 6 2 7 1 8 8 9
REMARK H PARENT 8 10
REMARK Flexibility Score: inf
ROOT
ATOM      1  C   UNL     1      22.267   5.446 101.716  1.00  0.00    -0.045 A 
ATOM      2  C   UNL     1      21.203   5.575 102.623  1.00  0.00     0.049 A 
ATOM      3  C   UNL     1      21.247   4.922 103.865  1.00  0.00     0.115 A 
ATOM      4  C   UNL     1      22.360   4.145 104.202  1.00  0.00     0.046 A 
ATOM      5  C   UNL     1      23.427   4.024 103.309  1.00  0.00     0.004 A 
ATOM      6  C   UNL     1      23.385   4.674 102.072  1.00  0.00     0.004 A 
ENDROOT
BRANCH   1   7
ATOM      7  C   UNL     1      22.235   6.175 100.399  1.00  0.00     0.032 C 
ATOM      8  C   UNL     1      23.537   6.935 100.171  1.00  0.00     0.009 C 
ENDBRANCH   1   7
BRANCH   3   9
ATOM      9  O   UNL     1      20.192   5.041 104.766  1.00  0.00    -0.508 OA
ATOM     10  H   UNL     1      19.800   4.231 105.234  1.00  0.00     0.293 HD
ENDBRANCH   3   9
TORSDOF 2
ENDMDL
MODEL 5
REMARK VINA RESULT:    -4.585      1.947      3.004
REMARK INTER + INTRA:          -5.037
REMARK INTER:                  -4.971
REMARK INTRA:                  -0.066
REMARK UNBOUND:                -0.049
REMARK SMILES CCc1cccc(O)c1
REMARK SMILES IDX 3 1 9 2 7 3 6 4 5 5 4 6 2 7 1 8 8 9
REMARK H PARENT 8 10
REMARK Flexibility Score: inf
ROOT
ATOM      1  C   UNL     1      21.219   4.223 104.522  1.00  0.00    -0.045 A 
ATOM      2  C   UNL     1      20.943   5.296 103.659  1.00  0.00     0.049 A 
ATOM      3  C   UNL     1      21.507   5.335 102.375  1.00  0.00     0.115 A 
ATOM      4  C   UNL     1      22.342   4.297 101.951  1.00  0.00     0.046 A 
ATOM      5  C   UNL     1      22.610   3.221 102.800  1.00  0.00     0.004 A 
ATOM      6  C   UNL     1      22.049   3.179 104.080  1.00  0.00     0.004 A 
ENDROOT
BRANCH   1   7
ATOM      7  C   UNL     1      20.587   4.163 105.887  1.00  0.00     0.032 C 
ATOM      8  C   UNL     1      19.774   2.884 106.050  1.00  0.00     0.009 C 
ENDBRANCH   1   7
BRANCH   3   9
ATOM      9  O   UNL     1      21.242   6.399 101.516  1.00  0.00    -0.508 OA
ATOM     10  H   UNL     1      20.911   7.292 101.864  1.00  0.00     0.293 HD
ENDBRANCH   3   9
TORSDOF 2
ENDMDL
MODEL 6
REMARK VINA RESULT:    -4.536      3.258      5.096
REMARK INTER + INTRA:          -4.983
REMARK INTER:                  -4.932
REMARK INTRA:                  -0.052
REMARK UNBOUND:                -0.049
REMARK SMILES CCc1cccc(O)c1
REMARK SMILES IDX 3 1 9 2 7 3 6 4 5 5 4 6 2 7 1 8 8 9
REMARK H PARENT 8 10
REMARK Flexibility Score: inf
ROOT
ATOM      1  C   UNL     1      22.020   3.676 104.150  1.00  0.00    -0.045 A 
ATOM      2  C   UNL     1      22.107   4.874 104.879  1.00  0.00     0.049 A 
ATOM      3  C   UNL     1      21.258   5.100 105.973  1.00  0.00     0.115 A 
ATOM      4  C   UNL     1      20.326   4.125 106.343  1.00  0.00     0.046 A 
ATOM      5  C   UNL     1      20.244   2.927 105.630  1.00  0.00     0.004 A 
ATOM      6  C   UNL     1      21.090   2.699 104.540  1.00  0.00     0.004 A 
ENDROOT
BRANCH   1   7
ATOM      7  C   UNL     1      22.954   3.419 102.998  1.00  0.00     0.032 C 
ATOM      8  C   UNL     1      24.033   4.494 102.928  1.00  0.00     0.009 C 
ENDBRANCH   1   7
BRANCH   3   9
ATOM      9  O   UNL     1      21.334   6.287 106.697  1.00  0.00    -0.508 OA
ATOM     10  H   UNL     1      21.268   6.298 107.708  1.00  0.00     0.293 HD
ENDBRANCH   3   9
TORSDOF 2
ENDMDL
MODEL 7
REMARK VINA RESULT:    -4.525     10.196     10.594
REMARK INTER + INTRA:          -4.972
REMARK INTER:                  -4.920
REMARK INTRA:                  -0.051
REMARK UNBOUND:                -0.049
REMARK SMILES CCc1cccc(O)c1
REMARK SMILES IDX 3 1 9 2 7 3 6 4 5 5 4 6 2 7 1 8 8 9
REMARK H PARENT 8 10
REMARK Flexibility Score: inf
ROOT
ATOM      1  C   UNL     1      31.970   4.212  98.147  1.00  0.00    -0.045 A 
ATOM      2  C   UNL     1      32.247   5.559  98.434  1.00  0.00     0.049 A 
ATOM      3  C   UNL     1      32.744   5.926  99.694  1.00  0.00     0.115 A 
ATOM      4  C   UNL     1      32.972   4.945 100.664  1.00  0.00     0.046 A 
ATOM      5  C   UNL     1      32.711   3.603 100.380  1.00  0.00     0.004 A 
ATOM      6  C   UNL     1      32.216   3.234  99.125  1.00  0.00     0.004 A 
ENDROOT
BRANCH   1   7
ATOM      7  C   UNL     1      31.470   3.814  96.784  1.00  0.00     0.032 C 
ATOM      8  C   UNL     1      31.845   4.863  95.743  1.00  0.00     0.009 C 
ENDBRANCH   1   7
BRANCH   3   9
ATOM      9  O   UNL     1      33.015   7.260  99.988  1.00  0.00    -0.508 OA
ATOM     10  H   UNL     1      32.276   7.911 100.228  1.00  0.00     0.293 HD
ENDBRANCH   3   9
TORSDOF 2
ENDMDL
MODEL 8
REMARK VINA RESULT:    -4.476      1.445      2.695
REMARK INTER + INTRA:          -4.917
REMARK INTER:                  -4.870
REMARK INTRA:                  -0.047
REMARK UNBOUND:                -0.049
REMARK SMILES CCc1cccc(O)c1
REMARK SMILES IDX 3 1 9 2 7 3 6 4 5 5 4 6 2 7 1 8 8 9
REMARK H PARENT 8 10
REMARK Flexibility Score: inf
ROOT
ATOM      1  C   UNL     1      24.098   4.677 102.519  1.00  0.00    -0.045 A 
ATOM      2  C   UNL     1      24.215   5.688 101.551  1.00  0.00     0.049 A 
ATOM      3  C   UNL     1      23.104   6.062 100.780  1.00  0.00     0.115 A 
ATOM      4  C   UNL     1      21.873   5.430 100.982  1.00  0.00     0.046 A 
ATOM      5  C   UNL     1      21.747   4.433 101.953  1.00  0.00     0.004 A 
ATOM      6  C   UNL     1      22.852   4.059 102.722  1.00  0.00     0.004 A 
ENDROOT
BRANCH   1   7
ATOM      7  C   UNL     1      25.281   4.299 103.370  1.00  0.00     0.032 C 
ATOM      8  C   UNL     1      26.198   3.337 102.623  1.00  0.00     0.009 C 
ENDBRANCH   1   7
BRANCH   3   9
ATOM      9  O   UNL     1      23.215   7.059  99.814  1.00  0.00    -0.508 OA
ATOM     10  H   UNL     1      22.956   6.893  98.848  1.00  0.00     0.293 HD
ENDBRANCH   3   9
TORSDOF 2
ENDMDL
MODEL 9
REMARK VINA RESULT:    -4.363      3.896      4.895
REMARK INTER + INTRA:          -4.795
REMARK INTER:                  -4.749
REMARK INTRA:                  -0.047
REMARK UNBOUND:                -0.049
REMARK SMILES CCc1cccc(O)c1
REMARK SMILES IDX 3 1 9 2 7 3 6 4 5 5 4 6 2 7 1 8 8 9
REMARK H PARENT 8 10
REMARK Flexibility Score: inf
ROOT
ATOM      1  C   UNL     1      21.925   2.169 103.472  1.00  0.00    -0.045 A 
ATOM      2  C   UNL     1      20.964   2.050 104.490  1.00  0.00     0.049 A 
ATOM      3  C   UNL     1      20.637   3.157 105.288  1.00  0.00     0.115 A 
ATOM      4  C   UNL     1      21.265   4.386 105.062  1.00  0.00     0.046 A 
ATOM      5  C   UNL     1      22.211   4.514 104.042  1.00  0.00     0.004 A 
ATOM      6  C   UNL     1      22.538   3.412 103.246  1.00  0.00     0.004 A 
ENDROOT
BRANCH   1   7
ATOM      7  C   UNL     1      22.251   0.990 102.595  1.00  0.00     0.032 C 
ATOM      8  C   UNL     1      23.160   0.008 103.325  1.00  0.00     0.009 C 
ENDBRANCH   1   7
BRANCH   3   9
ATOM      9  O   UNL     1      19.691   3.045 106.303  1.00  0.00    -0.508 OA
ATOM     10  H   UNL     1      18.884   2.438 106.212  1.00  0.00     0.293 HD
ENDBRANCH   3   9
TORSDOF 2
ENDMDL
