MODEL 1
REMARK VINA RESULT:    -5.130      0.000      0.000
REMARK INTER + INTRA:          -5.520
REMARK INTER:                  -5.429
REMARK INTRA:                  -0.091
REMARK UNBOUND:                -0.091
REMARK SMILES C=C(C)[C@@H]1CC=C(C)C(=O)C1
REMARK SMILES IDX 8 1 7 2 6 3 5 4 4 5 11 6 9 7 10 8 2 9 1 10 3 11
REMARK H PARENT
REMARK Flexibility Score: inf
ROOT
ATOM      1  C   UNL     1     -16.073  14.384 -30.055  1.00  0.00     0.048 C 
ATOM      2  C   UNL     1     -14.714  14.238 -30.682  1.00  0.00    -0.012 C 
ATOM      3  C   UNL     1     -13.614  14.551 -29.976  1.00  0.00    -0.019 C 
ATOM      4  C   UNL     1     -12.230  14.406 -30.549  1.00  0.00     0.036 C 
ATOM      5  C   UNL     1     -12.227  14.671 -32.067  1.00  0.00     0.025 C 
ATOM      6  C   UNL     1     -13.248  13.756 -32.770  1.00  0.00     0.089 C 
ATOM      7  C   UNL     1     -14.598  13.868 -32.116  1.00  0.00     0.158 C 
ATOM      8  O   UNL     1     -15.630  13.610 -32.790  1.00  0.00    -0.295 OA
ENDROOT
BRANCH   5   9
ATOM      9  C   UNL     1     -10.833  14.519 -32.662  1.00  0.00    -0.077 C 
ATOM     10  C   UNL     1      -9.875  15.436 -32.443  1.00  0.00     0.008 C 
ATOM     11  C   UNL     1     -10.503  13.322 -33.515  1.00  0.00     0.039 C 
ENDBRANCH   5   9
TORSDOF 1
ENDMDL
MODEL 2
REMARK VINA RESULT:    -5.072     12.123     14.385
REMARK INTER + INTRA:          -5.460
REMARK INTER:                  -5.371
REMARK INTRA:                  -0.089
REMARK UNBOUND:                -0.091
REMARK SMILES C=C(C)[C@@H]1CC=C(C)C(=O)C1
REMARK SMILES IDX 8 1 7 2 6 3 5 4 4 5 11 6 9 7 10 8 2 9 1 10 3 11
REMARK H PARENT
REMARK Flexibility Score: inf
ROOT
ATOM      1  C   UNL     1     -29.628  19.267 -33.152  1.00  0.00     0.048 C 
ATOM      2  C   UNL     1     -28.155  19.571 -33.117  1.00  0.00    -0.012 C 
ATOM      3  C   UNL     1     -27.675  20.634 -33.785  1.00  0.00    -0.019 C 
ATOM      4  C   UNL     1     -26.214  20.993 -33.768  1.00  0.00     0.036 C 
ATOM      5  C   UNL     1     -25.334  19.732 -33.667  1.00  0.00     0.025 C 
ATOM      6  C   UNL     1     -25.742  18.894 -32.440  1.00  0.00     0.089 C 
ATOM      7  C   UNL     1     -27.222  18.627 -32.451  1.00  0.00     0.158 C 
ATOM      8  O   UNL     1     -27.667  17.609 -31.856  1.00  0.00    -0.295 OA
ENDROOT
BRANCH   5   9
ATOM      9  C   UNL     1     -23.851  20.082 -33.640  1.00  0.00    -0.077 C 
ATOM     10  C   UNL     1     -22.998  19.580 -34.549  1.00  0.00     0.008 C 
ATOM     11  C   UNL     1     -23.313  21.008 -32.580  1.00  0.00     0.039 C 
ENDBRANCH   5   9
TORSDOF 1
ENDMDL
MODEL 3
REMARK VINA RESULT:    -4.990      1.543      2.210
REMARK INTER + INTRA:          -5.373
REMARK INTER:                  -5.275
REMARK INTRA:                  -0.098
REMARK UNBOUND:                -0.091
REMARK SMILES C=C(C)[C@@H]1CC=C(C)C(=O)C1
REMARK SMILES IDX 8 1 7 2 6 3 5 4 4 5 11 6 9 7 10 8 2 9 1 10 3 11
REMARK H PARENT
REMARK Flexibility Score: inf
ROOT
ATOM      1  C   UNL     1     -17.310  13.280 -31.356  1.00  0.00     0.048 C 
ATOM      2  C   UNL     1     -15.886  13.684 -31.620  1.00  0.00    -0.012 C 
ATOM      3  C   UNL     1     -15.213  13.133 -32.645  1.00  0.00    -0.019 C 
ATOM      4  C   UNL     1     -13.793  13.515 -32.965  1.00  0.00     0.036 C 
ATOM      5  C   UNL     1     -13.014  13.876 -31.685  1.00  0.00     0.025 C 
ATOM      6  C   UNL     1     -13.753  14.979 -30.905  1.00  0.00     0.089 C 
ATOM      7  C   UNL     1     -15.189  14.595 -30.677  1.00  0.00     0.158 C 
ATOM      8  O   UNL     1     -15.807  15.085 -29.694  1.00  0.00    -0.295 OA
ENDROOT
BRANCH   5   9
ATOM      9  C   UNL     1     -11.576  14.273 -31.996  1.00  0.00    -0.077 C 
ATOM     10  C   UNL     1     -10.826  14.938 -31.100  1.00  0.00     0.008 C 
ATOM     11  C   UNL     1     -10.967  13.923 -33.328  1.00  0.00     0.039 C 
ENDBRANCH   5   9
TORSDOF 1
ENDMDL
MODEL 4
REMARK VINA RESULT:    -4.934     10.728     14.230
REMARK INTER + INTRA:          -5.313
REMARK INTER:                  -5.218
REMARK INTRA:                  -0.095
REMARK UNBOUND:                -0.091
REMARK SMILES C=C(C)[C@@H]1CC=C(C)C(=O)C1
REMARK SMILES IDX 8 1 7 2 6 3 5 4 4 5 11 6 9 7 10 8 2 9 1 10 3 11
REMARK H PARENT
REMARK Flexibility Score: inf
ROOT
ATOM      1  C   UNL     1     -23.020  14.063 -30.512  1.00  0.00     0.048 C 
ATOM      2  C   UNL     1     -24.463  13.834 -30.154  1.00  0.00    -0.012 C 
ATOM      3  C   UNL     1     -24.857  12.632 -29.700  1.00  0.00    -0.019 C 
ATOM      4  C   UNL     1     -26.285  12.356 -29.310  1.00  0.00     0.036 C 
ATOM      5  C   UNL     1     -27.264  13.169 -30.178  1.00  0.00     0.025 C 
ATOM      6  C   UNL     1     -26.921  14.669 -30.105  1.00  0.00     0.089 C 
ATOM      7  C   UNL     1     -25.467  14.895 -30.421  1.00  0.00     0.158 C 
ATOM      8  O   UNL     1     -25.105  16.011 -30.882  1.00  0.00    -0.295 OA
ENDROOT
BRANCH   5   9
ATOM      9  C   UNL     1     -28.713  12.906 -29.787  1.00  0.00    -0.077 C 
ATOM     10  C   UNL     1     -29.733  13.430 -30.489  1.00  0.00     0.008 C 
ATOM     11  C   UNL     1     -29.029  12.042 -28.594  1.00  0.00     0.039 C 
ENDBRANCH   5   9
TORSDOF 1
ENDMDL
MODEL 5
REMARK VINA RESULT:    -4.929      1.654      2.781
REMARK INTER + INTRA:          -5.309
REMARK INTER:                  -5.216
REMARK INTRA:                  -0.092
REMARK UNBOUND:                -0.091
REMARK SMILES C=C(C)[C@@H]1CC=C(C)C(=O)C1
REMARK SMILES IDX 8 1 7 2 6 3 5 4 4 5 11 6 9 7 10 8 2 9 1 10 3 11
REMARK H PARENT
REMARK Flexibility Score: inf
ROOT
ATOM      1  C   UNL     1     -18.451  12.520 -30.769  1.00  0.00     0.048 C 
ATOM      2  C   UNL     1     -16.987  12.847 -30.878  1.00  0.00    -0.012 C 
ATOM      3  C   UNL     1     -16.116  12.317 -30.002  1.00  0.00    -0.019 C 
ATOM      4  C   UNL     1     -14.639  12.597 -30.077  1.00  0.00     0.036 C 
ATOM      5  C   UNL     1     -14.369  14.016 -30.611  1.00  0.00     0.025 C 
ATOM      6  C   UNL     1     -15.070  14.217 -31.968  1.00  0.00     0.089 C 
ATOM      7  C   UNL     1     -16.526  13.849 -31.872  1.00  0.00     0.158 C 
ATOM      8  O   UNL     1     -17.346  14.375 -32.671  1.00  0.00    -0.295 OA
ENDROOT
BRANCH   5   9
ATOM      9  C   UNL     1     -12.877  14.309 -30.701  1.00  0.00    -0.077 C 
ATOM     10  C   UNL     1     -12.100  14.329 -29.604  1.00  0.00     0.008 C 
ATOM     11  C   UNL     1     -12.241  14.585 -32.039  1.00  0.00     0.039 C 
ENDBRANCH   5   9
TORSDOF 1
ENDMDL
MODEL 6
REMARK VINA RESULT:    -4.864     10.943     14.466
REMARK INTER + INTRA:          -5.239
REMARK INTER:                  -5.144
REMARK INTRA:                  -0.095
REMARK UNBOUND:                -0.091
REMARK SMILES C=C(C)[C@@H]1CC=C(C)C(=O)C1
REMARK SMILES IDX 8 1 7 2 6 3 5 4 4 5 11 6 9 7 10 8 2 9 1 10 3 11
REMARK H PARENT
REMARK Flexibility Score: inf
ROOT
ATOM      1  C   UNL     1     -23.313  14.001 -30.284  1.00  0.00     0.048 C 
ATOM      2  C   UNL     1     -24.754  13.574 -30.220  1.00  0.00    -0.012 C 
ATOM      3  C   UNL     1     -25.728  14.463 -30.480  1.00  0.00    -0.019 C 
ATOM      4  C   UNL     1     -27.184  14.083 -30.448  1.00  0.00     0.036 C 
ATOM      5  C   UNL     1     -27.450  12.992 -29.392  1.00  0.00     0.025 C 
ATOM      6  C   UNL     1     -26.536  11.777 -29.640  1.00  0.00     0.089 C 
ATOM      7  C   UNL     1     -25.099  12.209 -29.748  1.00  0.00     0.158 C 
ATOM      8  O   UNL     1     -24.188  11.385 -29.468  1.00  0.00    -0.295 OA
ENDROOT
BRANCH   5   9
ATOM      9  C   UNL     1     -28.919  12.592 -29.355  1.00  0.00    -0.077 C 
ATOM     10  C   UNL     1     -29.399  11.782 -28.396  1.00  0.00     0.008 C 
ATOM     11  C   UNL     1     -29.869  13.104 -30.407  1.00  0.00     0.039 C 
ENDBRANCH   5   9
TORSDOF 1
ENDMDL
MODEL 7
REMARK VINA RESULT:    -4.841      2.765      5.806
REMARK INTER + INTRA:          -5.215
REMARK INTER:                  -5.123
REMARK INTRA:                  -0.092
REMARK UNBOUND:                -0.091
REMARK SMILES C=C(C)[C@@H]1CC=C(C)C(=O)C1
REMARK SMILES IDX 8 1 7 2 6 3 5 4 4 5 11 6 9 7 10 8 2 9 1 10 3 11
REMARK H PARENT
REMARK Flexibility Score: inf
ROOT
ATOM      1  C   UNL     1     -14.082  14.777 -31.579  1.00  0.00     0.048 C 
ATOM      2  C   UNL     1     -15.157  13.970 -30.906  1.00  0.00    -0.012 C 
ATOM      3  C   UNL     1     -14.909  13.380 -29.724  1.00  0.00    -0.019 C 
ATOM      4  C   UNL     1     -15.955  12.576 -28.998  1.00  0.00     0.036 C 
ATOM      5  C   UNL     1     -16.895  11.864 -29.990  1.00  0.00     0.025 C 
ATOM      6  C   UNL     1     -17.515  12.886 -30.963  1.00  0.00     0.089 C 
ATOM      7  C   UNL     1     -16.443  13.723 -31.605  1.00  0.00     0.158 C 
ATOM      8  O   UNL     1     -16.664  14.246 -32.731  1.00  0.00    -0.295 OA
ENDROOT
BRANCH   5   9
ATOM      9  C   UNL     1     -17.965  11.054 -29.269  1.00  0.00    -0.077 C 
ATOM     10  C   UNL     1     -17.646   9.981 -28.526  1.00  0.00     0.008 C 
ATOM     11  C   UNL     1     -19.414  11.450 -29.379  1.00  0.00     0.039 C 
ENDBRANCH   5   9
TORSDOF 1
ENDMDL
MODEL 8
REMARK VINA RESULT:    -4.785      1.976      4.907
REMARK INTER + INTRA:          -5.155
REMARK INTER:                  -5.067
REMARK INTRA:                  -0.088
REMARK UNBOUND:                -0.091
REMARK SMILES C=C(C)[C@@H]1CC=C(C)C(=O)C1
REMARK SMILES IDX 8 1 7 2 6 3 5 4 4 5 11 6 9 7 10 8 2 9 1 10 3 11
REMARK H PARENT
REMARK Flexibility Score: inf
ROOT
ATOM      1  C   UNL     1     -11.340  14.489 -31.193  1.00  0.00     0.048 C 
ATOM      2  C   UNL     1     -12.792  14.149 -31.001  1.00  0.00    -0.012 C 
ATOM      3  C   UNL     1     -13.680  15.125 -30.741  1.00  0.00    -0.019 C 
ATOM      4  C   UNL     1     -15.146  14.842 -30.558  1.00  0.00     0.036 C 
ATOM      5  C   UNL     1     -15.369  13.458 -29.917  1.00  0.00     0.025 C 
ATOM      6  C   UNL     1     -14.664  12.368 -30.746  1.00  0.00     0.089 C 
ATOM      7  C   UNL     1     -13.221  12.728 -30.976  1.00  0.00     0.158 C 
ATOM      8  O   UNL     1     -12.385  11.809 -31.184  1.00  0.00    -0.295 OA
ENDROOT
BRANCH   5   9
ATOM      9  C   UNL     1     -16.851  13.155 -29.735  1.00  0.00    -0.077 C 
ATOM     10  C   UNL     1     -17.430  13.199 -28.523  1.00  0.00     0.008 C 
ATOM     11  C   UNL     1     -17.700  12.797 -30.927  1.00  0.00     0.039 C 
ENDBRANCH   5   9
TORSDOF 1
ENDMDL
MODEL 9
REMARK VINA RESULT:    -4.628      1.972      4.992
REMARK INTER + INTRA:          -4.990
REMARK INTER:                  -4.899
REMARK INTRA:                  -0.091
REMARK UNBOUND:                -0.091
REMARK SMILES C=C(C)[C@@H]1CC=C(C)C(=O)C1
REMARK SMILES IDX 8 1 7 2 6 3 5 4 4 5 11 6 9 7 10 8 2 9 1 10 3 11
REMARK H PARENT
REMARK Flexibility Score: inf
ROOT
ATOM      1  C   UNL     1     -11.372  14.678 -30.992  1.00  0.00     0.048 C 
ATOM      2  C   UNL     1     -12.660  14.244 -30.349  1.00  0.00    -0.012 C 
ATOM      3  C   UNL     1     -12.634  13.420 -29.287  1.00  0.00    -0.019 C 
ATOM      4  C   UNL     1     -13.892  12.971 -28.595  1.00  0.00     0.036 C 
ATOM      5  C   UNL     1     -15.059  12.843 -29.592  1.00  0.00     0.025 C 
ATOM      6  C   UNL     1     -15.255  14.167 -30.355  1.00  0.00     0.089 C 
ATOM      7  C   UNL     1     -13.958  14.625 -30.963  1.00  0.00     0.158 C 
ATOM      8  O   UNL     1     -13.984  15.368 -31.980  1.00  0.00    -0.295 OA
ENDROOT
BRANCH   5   9
ATOM      9  C   UNL     1     -16.343  12.397 -28.903  1.00  0.00    -0.077 C 
ATOM     10  C   UNL     1     -16.518  11.124 -28.508  1.00  0.00     0.008 C 
ATOM     11  C   UNL     1     -17.448  13.389 -28.650  1.00  0.00     0.039 C 
ENDBRANCH   5   9
TORSDOF 1
ENDMDL
