MODEL 1
REMARK VINA RESULT:   107.802      0.000      0.000
REMARK INTER + INTRA:         255.953
REMARK INTER:                 255.902
REMARK INTRA:                   0.051
REMARK UNBOUND:                 0.051
REMARK SMILES O=C(OC[C@@H]1O[C@@H](OC(=O)c2cc(O)c(O)c(O)c2)[C@@H](OC(=O)c2cc(O)c(O)c(O)c2)[C@H](OC(=O)c2cc(O)c(O)c(O)c2)[C@@H]1OC(=O)c1cc(O)c(O)c(O)c1)c1cc(O)c(O)c(O)c1
REMARK SMILES IDX 5 1 46 2 33 3 20 4 7 5 6 6 4 7 3 8 2 9 1 10 59 11 60 12
REMARK SMILES IDX 61 13 67 14 63 15 65 16 62 17 64 19 66 21 47 23 48 24 49 25
REMARK SMILES IDX 50 26 58 27 51 28 56 29 52 30 54 31 57 32 53 34 55 36 34 38
REMARK SMILES IDX 35 39 36 40 37 41 45 42 38 43 43 44 39 45 41 46 44 47 40 49
REMARK SMILES IDX 42 51 8 53 9 54 10 55 11 56 19 57 12 58 17 59 13 60 15 61
REMARK SMILES IDX 18 62 14 64 16 66 21 68 22 69 23 70 24 71 32 72 25 73 30 74
REMARK SMILES IDX 26 75 28 76 31 77 27 79 29 81
REMARK H PARENT 62 18 64 20 66 22 57 33 53 35 55 37 44 48 40 50 42 52 18 63
REMARK H PARENT 14 65 16 67 31 78 27 80 29 82
REMARK Flexibility Score: inf
ROOT
ATOM      1  C   UNL     1     -35.085  29.457 -16.760  1.00  0.00     0.205 C 
ATOM      2  C   UNL     1     -34.802  30.483 -17.880  1.00  0.00     0.254 C 
ATOM      3  C   UNL     1     -36.130  30.862 -18.565  1.00  0.00     0.267 C 
ATOM      4  C   UNL     1     -36.876  29.591 -19.011  1.00  0.00     0.290 C 
ATOM      5  C   UNL     1     -36.985  28.601 -17.838  1.00  0.00     0.357 C 
ATOM      6  O   UNL     1     -35.710  28.300 -17.294  1.00  0.00    -0.329 OA
ENDROOT
BRANCH   1   7
ATOM      7  C   UNL     1     -33.786  29.046 -16.045  1.00  0.00     0.269 C 
BRANCH   7   8
ATOM      8  O   UNL     1     -32.708  29.897 -16.431  1.00  0.00    -0.459 OA
BRANCH   8   9
ATOM      9  C   UNL     1     -31.360  29.618 -16.181  1.00  0.00     0.338 C 
ATOM     10  O   UNL     1     -30.478  30.491 -16.407  1.00  0.00    -0.246 OA
BRANCH   9  11
ATOM     11  C   UNL     1     -30.977  28.305 -15.616  1.00  0.00     0.067 A 
ATOM     12  C   UNL     1     -31.340  27.969 -14.305  1.00  0.00     0.066 A 
ATOM     13  C   UNL     1     -30.971  26.740 -13.754  1.00  0.00     0.162 A 
ATOM     14  C   UNL     1     -30.244  27.384 -16.378  1.00  0.00     0.066 A 
ATOM     15  C   UNL     1     -30.226  25.821 -14.514  1.00  0.00     0.200 A 
ATOM     16  C   UNL     1     -29.867  26.146 -15.846  1.00  0.00     0.162 A 
BRANCH  13  17
ATOM     17  O   UNL     1     -31.339  26.455 -12.438  1.00  0.00    -0.504 OA
ATOM     18  H   UNL     1     -32.308  26.398 -12.145  1.00  0.00     0.293 HD
ENDBRANCH  13  17
BRANCH  15  19
ATOM     19  O   UNL     1     -29.859  24.610 -13.919  1.00  0.00    -0.502 OA
ATOM     20  H   UNL     1     -30.258  24.257 -13.063  1.00  0.00     0.293 HD
ENDBRANCH  15  19
BRANCH  16  21
ATOM     21  O   UNL     1     -29.149  25.275 -16.670  1.00  0.00    -0.504 OA
ATOM     22  H   UNL     1     -29.104  24.278 -16.540  1.00  0.00     0.293 HD
ENDBRANCH  16  21
ENDBRANCH   9  11
ENDBRANCH   8   9
ENDBRANCH   7   8
ENDBRANCH   1   7
BRANCH   2  23
ATOM     23  O   UNL     1     -33.910  29.909 -18.836  1.00  0.00    -0.452 OA
BRANCH  23  24
ATOM     24  C   UNL     1     -32.591  30.341 -19.034  1.00  0.00     0.338 C 
ATOM     25  O   UNL     1     -32.231  31.487 -18.648  1.00  0.00    -0.246 OA
BRANCH  24  26
ATOM     26  C   UNL     1     -31.623  29.442 -19.695  1.00  0.00     0.067 A 
ATOM     27  C   UNL     1     -32.021  28.177 -20.161  1.00  0.00     0.066 A 
ATOM     28  C   UNL     1     -30.293  29.850 -19.874  1.00  0.00     0.066 A 
ATOM     29  C   UNL     1     -31.106  27.332 -20.795  1.00  0.00     0.162 A 
ATOM     30  C   UNL     1     -29.369  29.009 -20.500  1.00  0.00     0.162 A 
ATOM     31  C   UNL     1     -29.772  27.744 -20.963  1.00  0.00     0.200 A 
BRANCH  29  32
ATOM     32  O   UNL     1     -31.543  26.094 -21.270  1.00  0.00    -0.504 OA
ATOM     33  H   UNL     1     -32.511  25.928 -21.517  1.00  0.00     0.293 HD
ENDBRANCH  29  32
BRANCH  30  34
ATOM     34  O   UNL     1     -28.045  29.421 -20.662  1.00  0.00    -0.504 OA
ATOM     35  H   UNL     1     -27.721  29.815 -21.540  1.00  0.00     0.293 HD
ENDBRANCH  30  34
BRANCH  31  36
ATOM     36  O   UNL     1     -28.864  26.894 -21.596  1.00  0.00    -0.502 OA
ATOM     37  H   UNL     1     -27.996  26.603 -21.154  1.00  0.00     0.293 HD
ENDBRANCH  31  36
ENDBRANCH  24  26
ENDBRANCH  23  24
ENDBRANCH   2  23
BRANCH   3  38
ATOM     38  O   UNL     1     -35.894  31.687 -19.706  1.00  0.00    -0.450 OA
BRANCH  38  39
ATOM     39  C   UNL     1     -36.894  32.162 -20.561  1.00  0.00     0.338 C 
ATOM     40  O   UNL     1     -37.846  32.850 -20.101  1.00  0.00    -0.246 OA
BRANCH  39  41
ATOM     41  C   UNL     1     -36.832  31.843 -22.007  1.00  0.00     0.067 A 
ATOM     42  C   UNL     1     -36.813  30.513 -22.459  1.00  0.00     0.066 A 
ATOM     43  C   UNL     1     -36.783  32.882 -22.950  1.00  0.00     0.066 A 
ATOM     44  C   UNL     1     -36.712  30.222 -23.828  1.00  0.00     0.162 A 
ATOM     45  C   UNL     1     -36.681  32.603 -24.315  1.00  0.00     0.162 A 
ATOM     46  C   UNL     1     -36.640  31.271 -24.760  1.00  0.00     0.200 A 
BRANCH  44  47
ATOM     47  O   UNL     1     -36.682  28.895 -24.266  1.00  0.00    -0.504 OA
ATOM     48  H   UNL     1     -36.319  28.641 -25.178  1.00  0.00     0.293 HD
ENDBRANCH  44  47
BRANCH  45  49
ATOM     49  O   UNL     1     -36.627  33.663 -25.222  1.00  0.00    -0.504 OA
ATOM     50  H   UNL     1     -37.461  34.054 -25.640  1.00  0.00     0.293 HD
ENDBRANCH  45  49
BRANCH  46  51
ATOM     51  O   UNL     1     -36.531  31.006 -26.125  1.00  0.00    -0.502 OA
ATOM     52  H   UNL     1     -35.674  30.665 -26.547  1.00  0.00     0.293 HD
ENDBRANCH  46  51
ENDBRANCH  39  41
ENDBRANCH  38  39
ENDBRANCH   3  38
BRANCH   5  53
ATOM     53  O   UNL     1     -37.859  29.106 -16.826  1.00  0.00    -0.428 OA
BRANCH  53  54
ATOM     54  C   UNL     1     -38.010  28.506 -15.569  1.00  0.00     0.340 C 
ATOM     55  O   UNL     1     -37.307  28.891 -14.595  1.00  0.00    -0.246 OA
BRANCH  54  56
ATOM     56  C   UNL     1     -38.979  27.400 -15.402  1.00  0.00     0.067 A 
ATOM     57  C   UNL     1     -40.205  27.428 -16.087  1.00  0.00     0.066 A 
ATOM     58  C   UNL     1     -38.681  26.308 -14.570  1.00  0.00     0.066 A 
ATOM     59  C   UNL     1     -41.128  26.383 -15.936  1.00  0.00     0.162 A 
ATOM     60  C   UNL     1     -39.596  25.257 -14.422  1.00  0.00     0.162 A 
ATOM     61  C   UNL     1     -40.825  25.295 -15.098  1.00  0.00     0.200 A 
BRANCH  59  62
ATOM     62  O   UNL     1     -42.344  26.419 -16.614  1.00  0.00    -0.504 OA
ATOM     63  H   UNL     1     -43.227  26.307 -16.130  1.00  0.00     0.293 HD
ENDBRANCH  59  62
BRANCH  60  64
ATOM     64  O   UNL     1     -39.279  24.186 -13.587  1.00  0.00    -0.504 OA
ATOM     65  H   UNL     1     -39.353  24.252 -12.579  1.00  0.00     0.293 HD
ENDBRANCH  60  64
BRANCH  61  66
ATOM     66  O   UNL     1     -41.732  24.246 -14.931  1.00  0.00    -0.502 OA
ATOM     67  H   UNL     1     -42.711  24.412 -14.700  1.00  0.00     0.293 HD
ENDBRANCH  61  66
ENDBRANCH  54  56
ENDBRANCH  53  54
ENDBRANCH   5  53
BRANCH   4  68
ATOM     68  O   UNL     1     -38.189  29.924 -19.475  1.00  0.00    -0.448 OA
BRANCH  68  69
ATOM     69  C   UNL     1     -38.752  29.402 -20.648  1.00  0.00     0.339 C 
ATOM     70  O   UNL     1     -38.160  28.484 -21.278  1.00  0.00    -0.246 OA
BRANCH  69  71
ATOM     71  C   UNL     1     -40.060  29.898 -21.127  1.00  0.00     0.067 A 
ATOM     72  C   UNL     1     -40.816  30.789 -20.345  1.00  0.00     0.066 A 
ATOM     73  C   UNL     1     -40.562  29.488 -22.372  1.00  0.00     0.066 A 
ATOM     74  C   UNL     1     -42.039  31.288 -20.816  1.00  0.00     0.162 A 
ATOM     75  C   UNL     1     -41.790  29.966 -22.848  1.00  0.00     0.162 A 
ATOM     76  C   UNL     1     -42.528  30.892 -22.069  1.00  0.00     0.200 A 
BRANCH  74  77
ATOM     77  O   UNL     1     -42.773  32.193 -20.049  1.00  0.00    -0.504 OA
ATOM     78  H   UNL     1     -43.118  33.056 -20.439  1.00  0.00     0.293 HD
ENDBRANCH  74  77
BRANCH  75  79
ATOM     79  O   UNL     1     -42.235  29.488 -24.084  1.00  0.00    -0.504 OA
ATOM     80  H   UNL     1     -41.634  29.081 -24.783  1.00  0.00     0.293 HD
ENDBRANCH  75  79
BRANCH  76  81
ATOM     81  O   UNL     1     -43.733  31.443 -22.510  1.00  0.00    -0.502 OA
ATOM     82  H   UNL     1     -44.576  30.909 -22.631  1.00  0.00     0.293 HD
ENDBRANCH  76  81
ENDBRANCH  69  71
ENDBRANCH  68  69
ENDBRANCH   4  68
TORSDOF 31
ENDMDL
MODEL 2
REMARK VINA RESULT:   109.552      1.505      3.182
REMARK INTER + INTRA:         260.106
REMARK INTER:                 254.828
REMARK INTRA:                   5.278
REMARK UNBOUND:                 0.051
REMARK SMILES O=C(OC[C@@H]1O[C@@H](OC(=O)c2cc(O)c(O)c(O)c2)[C@@H](OC(=O)c2cc(O)c(O)c(O)c2)[C@H](OC(=O)c2cc(O)c(O)c(O)c2)[C@@H]1OC(=O)c1cc(O)c(O)c(O)c1)c1cc(O)c(O)c(O)c1
REMARK SMILES IDX 5 1 46 2 33 3 20 4 7 5 6 6 4 7 3 8 2 9 1 10 59 11 60 12
REMARK SMILES IDX 61 13 67 14 63 15 65 16 62 17 64 19 66 21 47 23 48 24 49 25
REMARK SMILES IDX 50 26 58 27 51 28 56 29 52 30 54 31 57 32 53 34 55 36 34 38
REMARK SMILES IDX 35 39 36 40 37 41 45 42 38 43 43 44 39 45 41 46 44 47 40 49
REMARK SMILES IDX 42 51 8 53 9 54 10 55 11 56 19 57 12 58 17 59 13 60 15 61
REMARK SMILES IDX 18 62 14 64 16 66 21 68 22 69 23 70 24 71 32 72 25 73 30 74
REMARK SMILES IDX 26 75 28 76 31 77 27 79 29 81
REMARK H PARENT 62 18 64 20 66 22 57 33 53 35 55 37 44 48 40 50 42 52 18 63
REMARK H PARENT 14 65 16 67 31 78 27 80 29 82
REMARK Flexibility Score: inf
ROOT
ATOM      1  C   UNL     1     -35.053  29.580 -16.489  1.00  0.00     0.205 C 
ATOM      2  C   UNL     1     -34.809  30.512 -17.696  1.00  0.00     0.254 C 
ATOM      3  C   UNL     1     -36.143  30.748 -18.431  1.00  0.00     0.267 C 
ATOM      4  C   UNL     1     -36.808  29.400 -18.766  1.00  0.00     0.290 C 
ATOM      5  C   UNL     1     -36.881  28.518 -17.507  1.00  0.00     0.357 C 
ATOM      6  O   UNL     1     -35.601  28.343 -16.920  1.00  0.00    -0.329 OA
ENDROOT
BRANCH   1   7
ATOM      7  C   UNL     1     -33.747  29.314 -15.722  1.00  0.00     0.269 C 
BRANCH   7   8
ATOM      8  O   UNL     1     -32.851  28.531 -16.510  1.00  0.00    -0.459 OA
BRANCH   8   9
ATOM      9  C   UNL     1     -31.461  28.526 -16.346  1.00  0.00     0.338 C 
ATOM     10  O   UNL     1     -30.774  29.514 -16.720  1.00  0.00    -0.246 OA
BRANCH   9  11
ATOM     11  C   UNL     1     -30.807  27.367 -15.699  1.00  0.00     0.067 A 
ATOM     12  C   UNL     1     -29.948  26.540 -16.436  1.00  0.00     0.066 A 
ATOM     13  C   UNL     1     -29.337  25.434 -15.843  1.00  0.00     0.162 A 
ATOM     14  C   UNL     1     -31.039  27.076 -14.347  1.00  0.00     0.066 A 
ATOM     15  C   UNL     1     -29.579  25.135 -14.490  1.00  0.00     0.200 A 
ATOM     16  C   UNL     1     -30.435  25.974 -13.733  1.00  0.00     0.162 A 
BRANCH  13  17
ATOM     17  O   UNL     1     -28.503  24.628 -16.620  1.00  0.00    -0.504 OA
ATOM     18  H   UNL     1     -28.613  24.542 -17.624  1.00  0.00     0.293 HD
ENDBRANCH  13  17
BRANCH  15  19
ATOM     19  O   UNL     1     -28.964  24.007 -13.938  1.00  0.00    -0.502 OA
ATOM     20  H   UNL     1     -27.997  23.971 -13.658  1.00  0.00     0.293 HD
ENDBRANCH  15  19
BRANCH  16  21
ATOM     21  O   UNL     1     -30.703  25.756 -12.378  1.00  0.00    -0.504 OA
ATOM     22  H   UNL     1     -30.880  24.851 -11.973  1.00  0.00     0.293 HD
ENDBRANCH  16  21
ENDBRANCH   9  11
ENDBRANCH   8   9
ENDBRANCH   7   8
ENDBRANCH   1   7
BRANCH   2  23
ATOM     23  O   UNL     1     -33.868  29.906 -18.582  1.00  0.00    -0.452 OA
BRANCH  23  24
ATOM     24  C   UNL     1     -32.559  30.370 -18.773  1.00  0.00     0.338 C 
ATOM     25  O   UNL     1     -31.810  29.829 -19.633  1.00  0.00    -0.246 OA
BRANCH  24  26
ATOM     26  C   UNL     1     -32.062  31.499 -17.961  1.00  0.00     0.067 A 
ATOM     27  C   UNL     1     -32.329  32.827 -18.340  1.00  0.00     0.066 A 
ATOM     28  C   UNL     1     -31.323  31.256 -16.794  1.00  0.00     0.066 A 
ATOM     29  C   UNL     1     -31.866  33.894 -17.566  1.00  0.00     0.162 A 
ATOM     30  C   UNL     1     -30.850  32.317 -16.018  1.00  0.00     0.162 A 
ATOM     31  C   UNL     1     -31.118  33.643 -16.402  1.00  0.00     0.200 A 
BRANCH  29  32
ATOM     32  O   UNL     1     -32.174  35.198 -17.957  1.00  0.00    -0.504 OA
ATOM     33  H   UNL     1     -32.482  35.897 -17.291  1.00  0.00     0.293 HD
ENDBRANCH  29  32
BRANCH  30  34
ATOM     34  O   UNL     1     -30.105  32.062 -14.864  1.00  0.00    -0.504 OA
ATOM     35  H   UNL     1     -30.438  31.416 -14.156  1.00  0.00     0.293 HD
ENDBRANCH  30  34
BRANCH  31  36
ATOM     36  O   UNL     1     -30.658  34.714 -15.635  1.00  0.00    -0.502 OA
ATOM     37  H   UNL     1     -30.017  34.586 -14.857  1.00  0.00     0.293 HD
ENDBRANCH  31  36
ENDBRANCH  24  26
ENDBRANCH  23  24
ENDBRANCH   2  23
BRANCH   3  38
ATOM     38  O   UNL     1     -35.934  31.476 -19.641  1.00  0.00    -0.450 OA
BRANCH  38  39
ATOM     39  C   UNL     1     -36.957  31.945 -20.471  1.00  0.00     0.338 C 
ATOM     40  O   UNL     1     -37.937  32.567 -19.977  1.00  0.00    -0.246 OA
BRANCH  39  41
ATOM     41  C   UNL     1     -36.887  31.697 -21.930  1.00  0.00     0.067 A 
ATOM     42  C   UNL     1     -36.827  30.391 -22.446  1.00  0.00     0.066 A 
ATOM     43  C   UNL     1     -36.870  32.780 -22.823  1.00  0.00     0.066 A 
ATOM     44  C   UNL     1     -36.718  30.169 -23.826  1.00  0.00     0.162 A 
ATOM     45  C   UNL     1     -36.761  32.570 -24.200  1.00  0.00     0.162 A 
ATOM     46  C   UNL     1     -36.679  31.263 -24.707  1.00  0.00     0.200 A 
BRANCH  44  47
ATOM     47  O   UNL     1     -36.648  28.866 -24.327  1.00  0.00    -0.504 OA
ATOM     48  H   UNL     1     -36.654  28.056 -23.715  1.00  0.00     0.293 HD
ENDBRANCH  44  47
BRANCH  45  49
ATOM     49  O   UNL     1     -36.740  33.673 -25.055  1.00  0.00    -0.504 OA
ATOM     50  H   UNL     1     -35.959  34.316 -25.082  1.00  0.00     0.293 HD
ENDBRANCH  45  49
BRANCH  46  51
ATOM     51  O   UNL     1     -36.563  31.067 -26.083  1.00  0.00    -0.502 OA
ATOM     52  H   UNL     1     -37.356  31.131 -26.712  1.00  0.00     0.293 HD
ENDBRANCH  46  51
ENDBRANCH  39  41
ENDBRANCH  38  39
ENDBRANCH   3  38
BRANCH   5  53
ATOM     53  O   UNL     1     -37.801  29.062 -16.557  1.00  0.00    -0.428 OA
BRANCH  53  54
ATOM     54  C   UNL     1     -39.140  28.663 -16.464  1.00  0.00     0.340 C 
ATOM     55  O   UNL     1     -40.054  29.391 -16.939  1.00  0.00    -0.246 OA
BRANCH  54  56
ATOM     56  C   UNL     1     -39.475  27.395 -15.778  1.00  0.00     0.067 A 
ATOM     57  C   UNL     1     -38.562  26.816 -14.882  1.00  0.00     0.066 A 
ATOM     58  C   UNL     1     -40.710  26.765 -16.004  1.00  0.00     0.066 A 
ATOM     59  C   UNL     1     -38.872  25.616 -14.226  1.00  0.00     0.162 A 
ATOM     60  C   UNL     1     -41.029  25.570 -15.345  1.00  0.00     0.162 A 
ATOM     61  C   UNL     1     -40.108  24.988 -14.460  1.00  0.00     0.200 A 
BRANCH  59  62
ATOM     62  O   UNL     1     -37.960  25.045 -13.342  1.00  0.00    -0.504 OA
ATOM     63  H   UNL     1     -38.090  25.092 -12.338  1.00  0.00     0.293 HD
ENDBRANCH  59  62
BRANCH  60  64
ATOM     64  O   UNL     1     -42.260  24.961 -15.589  1.00  0.00    -0.504 OA
ATOM     65  H   UNL     1     -42.634  24.865 -16.526  1.00  0.00     0.293 HD
ENDBRANCH  60  64
BRANCH  61  66
ATOM     66  O   UNL     1     -40.435  23.790 -13.820  1.00  0.00    -0.502 OA
ATOM     67  H   UNL     1     -40.092  22.890 -14.154  1.00  0.00     0.293 HD
ENDBRANCH  61  66
ENDBRANCH  54  56
ENDBRANCH  53  54
ENDBRANCH   5  53
BRANCH   4  68
ATOM     68  O   UNL     1     -38.128  29.611 -19.275  1.00  0.00    -0.448 OA
BRANCH  68  69
ATOM     69  C   UNL     1     -38.535  29.220 -20.560  1.00  0.00     0.339 C 
ATOM     70  O   UNL     1     -37.832  28.414 -21.227  1.00  0.00    -0.246 OA
BRANCH  69  71
ATOM     71  C   UNL     1     -39.808  29.722 -21.118  1.00  0.00     0.067 A 
ATOM     72  C   UNL     1     -40.281  29.252 -22.357  1.00  0.00     0.066 A 
ATOM     73  C   UNL     1     -40.566  30.672 -20.415  1.00  0.00     0.066 A 
ATOM     74  C   UNL     1     -41.507  29.700 -22.868  1.00  0.00     0.162 A 
ATOM     75  C   UNL     1     -41.786  31.141 -20.922  1.00  0.00     0.162 A 
ATOM     76  C   UNL     1     -42.271  30.634 -22.153  1.00  0.00     0.200 A 
BRANCH  74  77
ATOM     77  O   UNL     1     -41.985  29.211 -24.084  1.00  0.00    -0.504 OA
ATOM     78  H   UNL     1     -41.791  29.683 -24.954  1.00  0.00     0.293 HD
ENDBRANCH  74  77
BRANCH  75  79
ATOM     79  O   UNL     1     -42.467  32.109 -20.177  1.00  0.00    -0.504 OA
ATOM     80  H   UNL     1     -43.432  32.357 -20.322  1.00  0.00     0.293 HD
ENDBRANCH  75  79
BRANCH  76  81
ATOM     81  O   UNL     1     -43.502  31.024 -22.686  1.00  0.00    -0.502 OA
ATOM     82  H   UNL     1     -44.108  31.696 -22.248  1.00  0.00     0.293 HD
ENDBRANCH  76  81
ENDBRANCH  69  71
ENDBRANCH  68  69
ENDBRANCH   4  68
TORSDOF 31
ENDMDL
MODEL 3
REMARK VINA RESULT:   110.080      1.127      2.423
REMARK INTER + INTRA:         261.360
REMARK INTER:                 262.789
REMARK INTRA:                  -1.429
REMARK UNBOUND:                 0.051
REMARK SMILES O=C(OC[C@@H]1O[C@@H](OC(=O)c2cc(O)c(O)c(O)c2)[C@@H](OC(=O)c2cc(O)c(O)c(O)c2)[C@H](OC(=O)c2cc(O)c(O)c(O)c2)[C@@H]1OC(=O)c1cc(O)c(O)c(O)c1)c1cc(O)c(O)c(O)c1
REMARK SMILES IDX 5 1 46 2 33 3 20 4 7 5 6 6 4 7 3 8 2 9 1 10 59 11 60 12
REMARK SMILES IDX 61 13 67 14 63 15 65 16 62 17 64 19 66 21 47 23 48 24 49 25
REMARK SMILES IDX 50 26 58 27 51 28 56 29 52 30 54 31 57 32 53 34 55 36 34 38
REMARK SMILES IDX 35 39 36 40 37 41 45 42 38 43 43 44 39 45 41 46 44 47 40 49
REMARK SMILES IDX 42 51 8 53 9 54 10 55 11 56 19 57 12 58 17 59 13 60 15 61
REMARK SMILES IDX 18 62 14 64 16 66 21 68 22 69 23 70 24 71 32 72 25 73 30 74
REMARK SMILES IDX 26 75 28 76 31 77 27 79 29 81
REMARK H PARENT 62 18 64 20 66 22 57 33 53 35 55 37 44 48 40 50 42 52 18 63
REMARK H PARENT 14 65 16 67 31 78 27 80 29 82
REMARK Flexibility Score: inf
ROOT
ATOM      1  C   UNL     1     -35.227  29.634 -16.630  1.00  0.00     0.205 C 
ATOM      2  C   UNL     1     -34.882  30.604 -17.782  1.00  0.00     0.254 C 
ATOM      3  C   UNL     1     -36.174  30.967 -18.541  1.00  0.00     0.267 C 
ATOM      4  C   UNL     1     -36.918  29.686 -18.961  1.00  0.00     0.290 C 
ATOM      5  C   UNL     1     -37.091  28.752 -17.750  1.00  0.00     0.357 C 
ATOM      6  O   UNL     1     -35.845  28.461 -17.138  1.00  0.00    -0.329 OA
ENDROOT
BRANCH   1   7
ATOM      7  C   UNL     1     -33.966  29.240 -15.842  1.00  0.00     0.269 C 
BRANCH   7   8
ATOM      8  O   UNL     1     -33.147  28.359 -16.609  1.00  0.00    -0.459 OA
BRANCH   8   9
ATOM      9  C   UNL     1     -31.796  28.111 -16.342  1.00  0.00     0.338 C 
ATOM     10  O   UNL     1     -31.383  26.927 -16.206  1.00  0.00    -0.246 OA
BRANCH   9  11
ATOM     11  C   UNL     1     -30.848  29.243 -16.253  1.00  0.00     0.067 A 
ATOM     12  C   UNL     1     -31.096  30.303 -15.371  1.00  0.00     0.066 A 
ATOM     13  C   UNL     1     -30.219  31.386 -15.290  1.00  0.00     0.162 A 
ATOM     14  C   UNL     1     -29.696  29.277 -17.053  1.00  0.00     0.066 A 
ATOM     15  C   UNL     1     -29.069  31.426 -16.099  1.00  0.00     0.200 A 
ATOM     16  C   UNL     1     -28.803  30.352 -16.985  1.00  0.00     0.162 A 
BRANCH  13  17
ATOM     17  O   UNL     1     -30.515  32.428 -14.408  1.00  0.00    -0.504 OA
ATOM     18  H   UNL     1     -31.324  33.026 -14.528  1.00  0.00     0.293 HD
ENDBRANCH  13  17
BRANCH  15  19
ATOM     19  O   UNL     1     -28.227  32.538 -16.003  1.00  0.00    -0.502 OA
ATOM     20  H   UNL     1     -28.528  33.489 -16.147  1.00  0.00     0.293 HD
ENDBRANCH  15  19
BRANCH  16  21
ATOM     21  O   UNL     1     -27.670  30.309 -17.802  1.00  0.00    -0.504 OA
ATOM     22  H   UNL     1     -26.749  30.593 -17.512  1.00  0.00     0.293 HD
ENDBRANCH  16  21
ENDBRANCH   9  11
ENDBRANCH   8   9
ENDBRANCH   7   8
ENDBRANCH   1   7
BRANCH   2  23
ATOM     23  O   UNL     1     -33.958  29.976 -18.671  1.00  0.00    -0.452 OA
BRANCH  23  24
ATOM     24  C   UNL     1     -32.630  30.391 -18.841  1.00  0.00     0.338 C 
ATOM     25  O   UNL     1     -32.239  31.490 -18.361  1.00  0.00    -0.246 OA
BRANCH  24  26
ATOM     26  C   UNL     1     -31.688  29.530 -19.585  1.00  0.00     0.067 A 
ATOM     27  C   UNL     1     -32.069  28.242 -20.002  1.00  0.00     0.066 A 
ATOM     28  C   UNL     1     -30.401  29.996 -19.893  1.00  0.00     0.066 A 
ATOM     29  C   UNL     1     -31.180  27.432 -20.714  1.00  0.00     0.162 A 
ATOM     30  C   UNL     1     -29.503  29.190 -20.599  1.00  0.00     0.162 A 
ATOM     31  C   UNL     1     -29.889  27.903 -21.011  1.00  0.00     0.200 A 
BRANCH  29  32
ATOM     32  O   UNL     1     -31.603  26.171 -21.136  1.00  0.00    -0.504 OA
ATOM     33  H   UNL     1     -31.537  25.881 -22.105  1.00  0.00     0.293 HD
ENDBRANCH  29  32
BRANCH  30  34
ATOM     34  O   UNL     1     -28.221  29.661 -20.889  1.00  0.00    -0.504 OA
ATOM     35  H   UNL     1     -27.991  30.028 -21.807  1.00  0.00     0.293 HD
ENDBRANCH  30  34
BRANCH  31  36
ATOM     36  O   UNL     1     -29.006  27.088 -21.722  1.00  0.00    -0.502 OA
ATOM     37  H   UNL     1     -28.417  27.449 -22.466  1.00  0.00     0.293 HD
ENDBRANCH  31  36
ENDBRANCH  24  26
ENDBRANCH  23  24
ENDBRANCH   2  23
BRANCH   3  38
ATOM     38  O   UNL     1     -35.878  31.736 -19.707  1.00  0.00    -0.450 OA
BRANCH  38  39
ATOM     39  C   UNL     1     -36.840  32.255 -20.579  1.00  0.00     0.338 C 
ATOM     40  O   UNL     1     -37.771  32.980 -20.135  1.00  0.00    -0.246 OA
BRANCH  39  41
ATOM     41  C   UNL     1     -36.762  31.939 -22.025  1.00  0.00     0.067 A 
ATOM     42  C   UNL     1     -36.793  32.955 -22.995  1.00  0.00     0.066 A 
ATOM     43  C   UNL     1     -36.664  30.603 -22.444  1.00  0.00     0.066 A 
ATOM     44  C   UNL     1     -36.760  32.643 -24.362  1.00  0.00     0.162 A 
ATOM     45  C   UNL     1     -36.633  30.281 -23.804  1.00  0.00     0.162 A 
ATOM     46  C   UNL     1     -36.686  31.300 -24.769  1.00  0.00     0.200 A 
BRANCH  44  47
ATOM     47  O   UNL     1     -36.803  33.662 -25.318  1.00  0.00    -0.504 OA
ATOM     48  H   UNL     1     -36.011  33.865 -25.920  1.00  0.00     0.293 HD
ENDBRANCH  44  47
BRANCH  45  49
ATOM     49  O   UNL     1     -36.543  28.941 -24.181  1.00  0.00    -0.504 OA
ATOM     50  H   UNL     1     -36.182  28.231 -23.558  1.00  0.00     0.293 HD
ENDBRANCH  45  49
BRANCH  46  51
ATOM     51  O   UNL     1     -36.661  30.966 -26.122  1.00  0.00    -0.502 OA
ATOM     52  H   UNL     1     -37.472  30.597 -26.608  1.00  0.00     0.293 HD
ENDBRANCH  46  51
ENDBRANCH  39  41
ENDBRANCH  38  39
ENDBRANCH   3  38
BRANCH   5  53
ATOM     53  O   UNL     1     -38.000  29.313 -16.800  1.00  0.00    -0.428 OA
BRANCH  53  54
ATOM     54  C   UNL     1     -38.261  28.739 -15.550  1.00  0.00     0.340 C 
ATOM     55  O   UNL     1     -37.718  29.207 -14.512  1.00  0.00    -0.246 OA
BRANCH  54  56
ATOM     56  C   UNL     1     -39.154  27.562 -15.461  1.00  0.00     0.067 A 
ATOM     57  C   UNL     1     -38.798  26.467 -14.656  1.00  0.00     0.066 A 
ATOM     58  C   UNL     1     -40.367  27.531 -16.167  1.00  0.00     0.066 A 
ATOM     59  C   UNL     1     -39.639  25.349 -14.564  1.00  0.00     0.162 A 
ATOM     60  C   UNL     1     -41.216  26.419 -16.073  1.00  0.00     0.162 A 
ATOM     61  C   UNL     1     -40.850  25.322 -15.277  1.00  0.00     0.200 A 
BRANCH  59  62
ATOM     62  O   UNL     1     -39.278  24.265 -13.768  1.00  0.00    -0.504 OA
ATOM     63  H   UNL     1     -39.639  24.151 -12.828  1.00  0.00     0.293 HD
ENDBRANCH  59  62
BRANCH  60  64
ATOM     64  O   UNL     1     -42.414  26.410 -16.786  1.00  0.00    -0.504 OA
ATOM     65  H   UNL     1     -42.507  26.873 -17.683  1.00  0.00     0.293 HD
ENDBRANCH  60  64
BRANCH  61  66
ATOM     66  O   UNL     1     -41.701  24.216 -15.203  1.00  0.00    -0.502 OA
ATOM     67  H   UNL     1     -42.526  24.132 -15.795  1.00  0.00     0.293 HD
ENDBRANCH  61  66
ENDBRANCH  54  56
ENDBRANCH  53  54
ENDBRANCH   5  53
BRANCH   4  68
ATOM     68  O   UNL     1     -38.205  30.013 -19.495  1.00  0.00    -0.448 OA
BRANCH  68  69
ATOM     69  C   UNL     1     -38.743  29.412 -20.643  1.00  0.00     0.339 C 
ATOM     70  O   UNL     1     -38.114  28.487 -21.225  1.00  0.00    -0.246 OA
BRANCH  69  71
ATOM     71  C   UNL     1     -40.065  29.835 -21.150  1.00  0.00     0.067 A 
ATOM     72  C   UNL     1     -40.897  30.662 -20.375  1.00  0.00     0.066 A 
ATOM     73  C   UNL     1     -40.506  29.420 -22.417  1.00  0.00     0.066 A 
ATOM     74  C   UNL     1     -42.136  31.094 -20.871  1.00  0.00     0.162 A 
ATOM     75  C   UNL     1     -41.748  29.830 -22.919  1.00  0.00     0.162 A 
ATOM     76  C   UNL     1     -42.564  30.693 -22.145  1.00  0.00     0.200 A 
BRANCH  74  77
ATOM     77  O   UNL     1     -42.946  31.936 -20.109  1.00  0.00    -0.504 OA
ATOM     78  H   UNL     1     -43.819  32.292 -20.467  1.00  0.00     0.293 HD
ENDBRANCH  74  77
BRANCH  75  79
ATOM     79  O   UNL     1     -42.129  29.350 -24.176  1.00  0.00    -0.504 OA
ATOM     80  H   UNL     1     -43.085  29.214 -24.463  1.00  0.00     0.293 HD
ENDBRANCH  75  79
BRANCH  76  81
ATOM     81  O   UNL     1     -43.789  31.177 -22.611  1.00  0.00    -0.502 OA
ATOM     82  H   UNL     1     -44.466  31.629 -22.022  1.00  0.00     0.293 HD
ENDBRANCH  76  81
ENDBRANCH  69  71
ENDBRANCH  68  69
ENDBRANCH   4  68
TORSDOF 31
ENDMDL
MODEL 4
REMARK VINA RESULT:   110.481      0.557      2.140
REMARK INTER + INTRA:         262.313
REMARK INTER:                 261.156
REMARK INTRA:                   1.157
REMARK UNBOUND:                 0.051
REMARK SMILES O=C(OC[C@@H]1O[C@@H](OC(=O)c2cc(O)c(O)c(O)c2)[C@@H](OC(=O)c2cc(O)c(O)c(O)c2)[C@H](OC(=O)c2cc(O)c(O)c(O)c2)[C@@H]1OC(=O)c1cc(O)c(O)c(O)c1)c1cc(O)c(O)c(O)c1
REMARK SMILES IDX 5 1 46 2 33 3 20 4 7 5 6 6 4 7 3 8 2 9 1 10 59 11 60 12
REMARK SMILES IDX 61 13 67 14 63 15 65 16 62 17 64 19 66 21 47 23 48 24 49 25
REMARK SMILES IDX 50 26 58 27 51 28 56 29 52 30 54 31 57 32 53 34 55 36 34 38
REMARK SMILES IDX 35 39 36 40 37 41 45 42 38 43 43 44 39 45 41 46 44 47 40 49
REMARK SMILES IDX 42 51 8 53 9 54 10 55 11 56 19 57 12 58 17 59 13 60 15 61
REMARK SMILES IDX 18 62 14 64 16 66 21 68 22 69 23 70 24 71 32 72 25 73 30 74
REMARK SMILES IDX 26 75 28 76 31 77 27 79 29 81
REMARK H PARENT 62 18 64 20 66 22 57 33 53 35 55 37 44 48 40 50 42 52 18 63
REMARK H PARENT 14 65 16 67 31 78 27 80 29 82
REMARK Flexibility Score: inf
ROOT
ATOM      1  C   UNL     1     -35.018  29.389 -16.413  1.00  0.00     0.205 C 
ATOM      2  C   UNL     1     -34.764  30.239 -17.677  1.00  0.00     0.254 C 
ATOM      3  C   UNL     1     -36.102  30.465 -18.411  1.00  0.00     0.267 C 
ATOM      4  C   UNL     1     -36.805  29.117 -18.655  1.00  0.00     0.290 C 
ATOM      5  C   UNL     1     -36.885  28.316 -17.344  1.00  0.00     0.357 C 
ATOM      6  O   UNL     1     -35.603  28.143 -16.762  1.00  0.00    -0.329 OA
ENDROOT
BRANCH   1   7
ATOM      7  C   UNL     1     -33.709  29.135 -15.645  1.00  0.00     0.269 C 
BRANCH   7   8
ATOM      8  O   UNL     1     -32.650  29.928 -16.179  1.00  0.00    -0.459 OA
BRANCH   8   9
ATOM      9  C   UNL     1     -31.301  29.557 -16.151  1.00  0.00     0.338 C 
ATOM     10  O   UNL     1     -30.419  30.338 -16.602  1.00  0.00    -0.246 OA
BRANCH   9  11
ATOM     11  C   UNL     1     -30.911  28.260 -15.558  1.00  0.00     0.067 A 
ATOM     12  C   UNL     1     -30.094  27.374 -16.273  1.00  0.00     0.066 A 
ATOM     13  C   UNL     1     -29.733  26.139 -15.731  1.00  0.00     0.162 A 
ATOM     14  C   UNL     1     -31.357  27.894 -14.279  1.00  0.00     0.066 A 
ATOM     15  C   UNL     1     -30.189  25.767 -14.454  1.00  0.00     0.200 A 
ATOM     16  C   UNL     1     -31.005  26.662 -13.717  1.00  0.00     0.162 A 
BRANCH  13  17
ATOM     17  O   UNL     1     -28.931  25.281 -16.487  1.00  0.00    -0.504 OA
ATOM     18  H   UNL     1     -28.814  24.302 -16.254  1.00  0.00     0.293 HD
ENDBRANCH  13  17
BRANCH  15  19
ATOM     19  O   UNL     1     -29.822  24.513 -13.956  1.00  0.00    -0.502 OA
ATOM     20  H   UNL     1     -30.323  24.025 -13.230  1.00  0.00     0.293 HD
ENDBRANCH  15  19
BRANCH  16  21
ATOM     21  O   UNL     1     -31.476  26.374 -12.434  1.00  0.00    -0.504 OA
ATOM     22  H   UNL     1     -31.053  26.710 -11.584  1.00  0.00     0.293 HD
ENDBRANCH  16  21
ENDBRANCH   9  11
ENDBRANCH   8   9
ENDBRANCH   7   8
ENDBRANCH   1   7
BRANCH   2  23
ATOM     23  O   UNL     1     -33.851  29.555 -18.535  1.00  0.00    -0.452 OA
BRANCH  23  24
ATOM     24  C   UNL     1     -32.621  30.084 -18.951  1.00  0.00     0.338 C 
ATOM     25  O   UNL     1     -32.343  31.296 -18.736  1.00  0.00    -0.246 OA
BRANCH  24  26
ATOM     26  C   UNL     1     -31.650  29.211 -19.642  1.00  0.00     0.067 A 
ATOM     27  C   UNL     1     -32.036  27.948 -20.124  1.00  0.00     0.066 A 
ATOM     28  C   UNL     1     -30.328  29.641 -19.831  1.00  0.00     0.066 A 
ATOM     29  C   UNL     1     -31.118  27.128 -20.786  1.00  0.00     0.162 A 
ATOM     30  C   UNL     1     -29.402  28.825 -20.486  1.00  0.00     0.162 A 
ATOM     31  C   UNL     1     -29.793  27.562 -20.964  1.00  0.00     0.200 A 
BRANCH  29  32
ATOM     32  O   UNL     1     -31.544  25.893 -21.276  1.00  0.00    -0.504 OA
ATOM     33  H   UNL     1     -32.472  25.762 -21.662  1.00  0.00     0.293 HD
ENDBRANCH  29  32
BRANCH  30  34
ATOM     34  O   UNL     1     -28.086  29.259 -20.658  1.00  0.00    -0.504 OA
ATOM     35  H   UNL     1     -27.582  29.079 -21.521  1.00  0.00     0.293 HD
ENDBRANCH  30  34
BRANCH  31  36
ATOM     36  O   UNL     1     -28.881  26.737 -21.625  1.00  0.00    -0.502 OA
ATOM     37  H   UNL     1     -28.547  25.867 -21.221  1.00  0.00     0.293 HD
ENDBRANCH  31  36
ENDBRANCH  24  26
ENDBRANCH  23  24
ENDBRANCH   2  23
BRANCH   3  38
ATOM     38  O   UNL     1     -35.888  31.112 -19.665  1.00  0.00    -0.450 OA
BRANCH  38  39
ATOM     39  C   UNL     1     -36.897  31.705 -20.432  1.00  0.00     0.338 C 
ATOM     40  O   UNL     1     -37.856  32.298 -19.867  1.00  0.00    -0.246 OA
BRANCH  39  41
ATOM     41  C   UNL     1     -36.834  31.624 -21.910  1.00  0.00     0.067 A 
ATOM     42  C   UNL     1     -36.814  32.784 -22.704  1.00  0.00     0.066 A 
ATOM     43  C   UNL     1     -36.802  30.370 -22.541  1.00  0.00     0.066 A 
ATOM     44  C   UNL     1     -36.797  32.695 -24.103  1.00  0.00     0.162 A 
ATOM     45  C   UNL     1     -36.786  30.271 -23.934  1.00  0.00     0.162 A 
ATOM     46  C   UNL     1     -36.789  31.434 -24.722  1.00  0.00     0.200 A 
BRANCH  44  47
ATOM     47  O   UNL     1     -36.789  33.856 -24.882  1.00  0.00    -0.504 OA
ATOM     48  H   UNL     1     -36.441  33.858 -25.836  1.00  0.00     0.293 HD
ENDBRANCH  44  47
BRANCH  45  49
ATOM     49  O   UNL     1     -36.763  29.006 -24.524  1.00  0.00    -0.504 OA
ATOM     50  H   UNL     1     -37.350  28.251 -24.197  1.00  0.00     0.293 HD
ENDBRANCH  45  49
BRANCH  46  51
ATOM     51  O   UNL     1     -36.781  31.321 -26.112  1.00  0.00    -0.502 OA
ATOM     52  H   UNL     1     -36.419  32.052 -26.716  1.00  0.00     0.293 HD
ENDBRANCH  46  51
ENDBRANCH  39  41
ENDBRANCH  38  39
ENDBRANCH   3  38
BRANCH   5  53
ATOM     53  O   UNL     1     -37.778  28.941 -16.419  1.00  0.00    -0.428 OA
BRANCH  53  54
ATOM     54  C   UNL     1     -39.123  28.575 -16.278  1.00  0.00     0.340 C 
ATOM     55  O   UNL     1     -40.036  29.362 -16.649  1.00  0.00    -0.246 OA
BRANCH  54  56
ATOM     56  C   UNL     1     -39.462  27.272 -15.664  1.00  0.00     0.067 A 
ATOM     57  C   UNL     1     -38.545  26.635 -14.812  1.00  0.00     0.066 A 
ATOM     58  C   UNL     1     -40.703  26.665 -15.915  1.00  0.00     0.066 A 
ATOM     59  C   UNL     1     -38.859  25.401 -14.223  1.00  0.00     0.162 A 
ATOM     60  C   UNL     1     -41.026  25.436 -15.324  1.00  0.00     0.162 A 
ATOM     61  C   UNL     1     -40.102  24.797 -14.482  1.00  0.00     0.200 A 
BRANCH  59  62
ATOM     62  O   UNL     1     -37.944  24.773 -13.383  1.00  0.00    -0.504 OA
ATOM     63  H   UNL     1     -37.921  24.958 -12.387  1.00  0.00     0.293 HD
ENDBRANCH  59  62
BRANCH  60  64
ATOM     64  O   UNL     1     -42.264  24.851 -15.591  1.00  0.00    -0.504 OA
ATOM     65  H   UNL     1     -42.832  25.137 -16.380  1.00  0.00     0.293 HD
ENDBRANCH  60  64
BRANCH  61  66
ATOM     66  O   UNL     1     -40.433  23.566 -13.910  1.00  0.00    -0.502 OA
ATOM     67  H   UNL     1     -40.566  22.728 -14.476  1.00  0.00     0.293 HD
ENDBRANCH  61  66
ENDBRANCH  54  56
ENDBRANCH  53  54
ENDBRANCH   5  53
BRANCH   4  68
ATOM     68  O   UNL     1     -38.126  29.332 -19.162  1.00  0.00    -0.448 OA
BRANCH  68  69
ATOM     69  C   UNL     1     -38.480  29.141 -20.506  1.00  0.00     0.339 C 
ATOM     70  O   UNL     1     -37.751  28.440 -21.258  1.00  0.00    -0.246 OA
BRANCH  69  71
ATOM     71  C   UNL     1     -39.731  29.727 -21.032  1.00  0.00     0.067 A 
ATOM     72  C   UNL     1     -40.292  29.257 -22.233  1.00  0.00     0.066 A 
ATOM     73  C   UNL     1     -40.379  30.760 -20.336  1.00  0.00     0.066 A 
ATOM     74  C   UNL     1     -41.498  29.787 -22.712  1.00  0.00     0.162 A 
ATOM     75  C   UNL     1     -41.576  31.311 -20.811  1.00  0.00     0.162 A 
ATOM     76  C   UNL     1     -42.153  30.805 -22.003  1.00  0.00     0.200 A 
BRANCH  74  77
ATOM     77  O   UNL     1     -42.065  29.299 -23.889  1.00  0.00    -0.504 OA
ATOM     78  H   UNL     1     -42.743  28.553 -23.877  1.00  0.00     0.293 HD
ENDBRANCH  74  77
BRANCH  75  79
ATOM     79  O   UNL     1     -42.144  32.357 -20.077  1.00  0.00    -0.504 OA
ATOM     80  H   UNL     1     -42.710  33.087 -20.479  1.00  0.00     0.293 HD
ENDBRANCH  75  79
BRANCH  76  81
ATOM     81  O   UNL     1     -43.369  31.278 -22.501  1.00  0.00    -0.502 OA
ATOM     82  H   UNL     1     -44.151  30.682 -22.711  1.00  0.00     0.293 HD
ENDBRANCH  76  81
ENDBRANCH  69  71
ENDBRANCH  68  69
ENDBRANCH   4  68
TORSDOF 31
ENDMDL
