MODEL 1
REMARK VINA RESULT:     4.526      0.000      0.000
REMARK INTER + INTRA:           5.014
REMARK INTER:                   5.320
REMARK INTRA:                  -0.306
REMARK UNBOUND:                -0.306
REMARK SMILES O=c1cc(-c2ccc(O)c(O)c2)oc2cc(O)cc(O)c12
REMARK SMILES IDX 4 1 3 2 2 3 1 4 21 5 19 6 18 7 16 8 15 9 14 10 13 11 5 12
REMARK SMILES IDX 6 13 7 14 8 15 12 16 10 17 9 18 11 20 20 22 17 24
REMARK H PARENT 9 19 11 21 20 23 17 25
REMARK Flexibility Score: inf
ROOT
ATOM      1  C   UNL     1      58.657  26.982  16.908  1.00  0.00     0.138 A 
ATOM      2  C   UNL     1      59.157  27.926  17.821  1.00  0.00     0.100 A 
ATOM      3  C   UNL     1      60.507  28.277  17.776  1.00  0.00     0.197 A 
ATOM      4  O   UNL     1      60.945  29.124  18.600  1.00  0.00    -0.289 OA
ATOM      5  C   UNL     1      61.350  27.677  16.820  1.00  0.00     0.107 A 
ATOM      6  C   UNL     1      62.728  27.977  16.706  1.00  0.00     0.134 A 
ATOM      7  C   UNL     1      63.501  27.331  15.730  1.00  0.00     0.093 A 
ATOM      8  C   UNL     1      62.921  26.393  14.867  1.00  0.00     0.123 A 
ATOM      9  C   UNL     1      61.562  26.095  14.976  1.00  0.00     0.094 A 
ATOM     10  C   UNL     1      60.774  26.727  15.942  1.00  0.00     0.146 A 
ATOM     11  O   UNL     1      59.482  26.427  16.024  1.00  0.00    -0.456 OA
ENDROOT
BRANCH   1  12
ATOM     12  C   UNL     1      57.230  26.570  16.910  1.00  0.00     0.021 A 
ATOM     13  C   UNL     1      56.204  27.460  17.279  1.00  0.00     0.016 A 
ATOM     14  C   UNL     1      54.868  27.046  17.261  1.00  0.00     0.051 A 
ATOM     15  C   UNL     1      54.536  25.745  16.869  1.00  0.00     0.157 A 
ATOM     16  C   UNL     1      56.886  25.267  16.504  1.00  0.00     0.062 A 
ATOM     17  C   UNL     1      55.546  24.853  16.488  1.00  0.00     0.158 A 
BRANCH  15  18
ATOM     18  O   UNL     1      53.206  25.330  16.851  1.00  0.00    -0.504 OA
ATOM     19  H   UNL     1      52.952  24.356  16.962  1.00  0.00     0.293 HD
ENDBRANCH  15  18
BRANCH  17  20
ATOM     20  O   UNL     1      55.213  23.559  16.094  1.00  0.00    -0.504 OA
ATOM     21  H   UNL     1      54.625  23.384  15.288  1.00  0.00     0.293 HD
ENDBRANCH  17  20
ENDBRANCH   1  12
BRANCH   6  22
ATOM     22  O   UNL     1      63.333  28.907  17.552  1.00  0.00    -0.507 OA
ATOM     23  H   UNL     1      63.064  28.996  18.525  1.00  0.00     0.293 HD
ENDBRANCH   6  22
BRANCH   8  24
ATOM     24  O   UNL     1      63.689  25.751  13.898  1.00  0.00    -0.508 OA
ATOM     25  H   UNL     1      63.262  25.202  13.161  1.00  0.00     0.293 HD
ENDBRANCH   8  24
TORSDOF 5
ENDMDL
MODEL 2
REMARK VINA RESULT:     6.250      1.866      6.497
REMARK INTER + INTRA:           7.040
REMARK INTER:                   7.358
REMARK INTRA:                  -0.318
REMARK UNBOUND:                -0.306
REMARK SMILES O=c1cc(-c2ccc(O)c(O)c2)oc2cc(O)cc(O)c12
REMARK SMILES IDX 4 1 3 2 2 3 1 4 21 5 19 6 18 7 16 8 15 9 14 10 13 11 5 12
REMARK SMILES IDX 6 13 7 14 8 15 12 16 10 17 9 18 11 20 20 22 17 24
REMARK H PARENT 9 19 11 21 20 23 17 25
REMARK Flexibility Score: inf
ROOT
ATOM      1  C   UNL     1      61.336  26.637  15.320  1.00  0.00     0.138 A 
ATOM      2  C   UNL     1      61.842  27.485  16.318  1.00  0.00     0.100 A 
ATOM      3  C   UNL     1      60.969  28.046  17.253  1.00  0.00     0.197 A 
ATOM      4  O   UNL     1      61.433  28.805  18.144  1.00  0.00    -0.289 OA
ATOM      5  C   UNL     1      59.592  27.755  17.178  1.00  0.00     0.107 A 
ATOM      6  C   UNL     1      58.640  28.279  18.085  1.00  0.00     0.134 A 
ATOM      7  C   UNL     1      57.285  27.947  17.939  1.00  0.00     0.093 A 
ATOM      8  C   UNL     1      56.866  27.101  16.906  1.00  0.00     0.123 A 
ATOM      9  C   UNL     1      57.802  26.582  16.009  1.00  0.00     0.094 A 
ATOM     10  C   UNL     1      59.157  26.901  16.137  1.00  0.00     0.146 A 
ATOM     11  O   UNL     1      60.028  26.392  15.272  1.00  0.00    -0.456 OA
ENDROOT
BRANCH   1  12
ATOM     12  C   UNL     1      62.216  26.015  14.299  1.00  0.00     0.021 A 
ATOM     13  C   UNL     1      63.619  26.124  14.368  1.00  0.00     0.016 A 
ATOM     14  C   UNL     1      64.424  25.519  13.397  1.00  0.00     0.051 A 
ATOM     15  C   UNL     1      63.844  24.791  12.352  1.00  0.00     0.157 A 
ATOM     16  C   UNL     1      61.644  25.270  13.252  1.00  0.00     0.062 A 
ATOM     17  C   UNL     1      62.452  24.664  12.279  1.00  0.00     0.158 A 
BRANCH  15  18
ATOM     18  O   UNL     1      64.645  24.187  11.384  1.00  0.00    -0.504 OA
ATOM     19  H   UNL     1      65.434  24.671  10.972  1.00  0.00     0.293 HD
ENDBRANCH  15  18
BRANCH  17  20
ATOM     20  O   UNL     1      61.878  23.936  11.240  1.00  0.00    -0.504 OA
ATOM     21  H   UNL     1      61.893  22.923  11.229  1.00  0.00     0.293 HD
ENDBRANCH  17  20
ENDBRANCH   1  12
BRANCH   6  22
ATOM     22  O   UNL     1      59.029  29.125  19.124  1.00  0.00    -0.507 OA
ATOM     23  H   UNL     1      59.682  29.885  18.978  1.00  0.00     0.293 HD
ENDBRANCH   6  22
BRANCH   8  24
ATOM     24  O   UNL     1      55.520  26.771  16.761  1.00  0.00    -0.508 OA
ATOM     25  H   UNL     1      54.879  26.807  17.544  1.00  0.00     0.293 HD
ENDBRANCH   8  24
TORSDOF 5
ENDMDL
MODEL 3
REMARK VINA RESULT:     6.915      2.339      6.250
REMARK INTER + INTRA:           7.822
REMARK INTER:                   8.115
REMARK INTRA:                  -0.293
REMARK UNBOUND:                -0.306
REMARK SMILES O=c1cc(-c2ccc(O)c(O)c2)oc2cc(O)cc(O)c12
REMARK SMILES IDX 4 1 3 2 2 3 1 4 21 5 19 6 18 7 16 8 15 9 14 10 13 11 5 12
REMARK SMILES IDX 6 13 7 14 8 15 12 16 10 17 9 18 11 20 20 22 17 24
REMARK H PARENT 9 19 11 21 20 23 17 25
REMARK Flexibility Score: inf
ROOT
ATOM      1  C   UNL     1      61.668  26.178  14.984  1.00  0.00     0.138 A 
ATOM      2  C   UNL     1      62.559  26.879  15.813  1.00  0.00     0.100 A 
ATOM      3  C   UNL     1      62.060  27.625  16.882  1.00  0.00     0.197 A 
ATOM      4  O   UNL     1      62.867  28.251  17.621  1.00  0.00    -0.289 OA
ATOM      5  C   UNL     1      60.670  27.668  17.111  1.00  0.00     0.107 A 
ATOM      6  C   UNL     1      60.082  28.399  18.172  1.00  0.00     0.134 A 
ATOM      7  C   UNL     1      58.688  28.395  18.327  1.00  0.00     0.093 A 
ATOM      8  C   UNL     1      57.874  27.676  17.445  1.00  0.00     0.123 A 
ATOM      9  C   UNL     1      58.450  26.955  16.399  1.00  0.00     0.094 A 
ATOM     10  C   UNL     1      59.836  26.944  16.225  1.00  0.00     0.146 A 
ATOM     11  O   UNL     1      60.360  26.248  15.222  1.00  0.00    -0.456 OA
ENDROOT
BRANCH   1  12
ATOM     12  C   UNL     1      62.142  25.369  13.832  1.00  0.00     0.021 A 
ATOM     13  C   UNL     1      63.123  25.851  12.944  1.00  0.00     0.016 A 
ATOM     14  C   UNL     1      63.556  25.062  11.874  1.00  0.00     0.051 A 
ATOM     15  C   UNL     1      63.026  23.782  11.678  1.00  0.00     0.157 A 
ATOM     16  C   UNL     1      61.624  24.075  13.635  1.00  0.00     0.062 A 
ATOM     17  C   UNL     1      62.059  23.286  12.561  1.00  0.00     0.158 A 
BRANCH  15  18
ATOM     18  O   UNL     1      63.456  22.995  10.611  1.00  0.00    -0.504 OA
ATOM     19  H   UNL     1      62.809  22.434  10.071  1.00  0.00     0.293 HD
ENDBRANCH  15  18
BRANCH  17  20
ATOM     20  O   UNL     1      61.535  22.010  12.366  1.00  0.00    -0.504 OA
ATOM     21  H   UNL     1      62.032  21.181  12.668  1.00  0.00     0.293 HD
ENDBRANCH  17  20
ENDBRANCH   1  12
BRANCH   6  22
ATOM     22  O   UNL     1      60.869  29.125  19.066  1.00  0.00    -0.507 OA
ATOM     23  H   UNL     1      60.460  29.672  19.814  1.00  0.00     0.293 HD
ENDBRANCH   6  22
BRANCH   8  24
ATOM     24  O   UNL     1      56.489  27.673  17.600  1.00  0.00    -0.508 OA
ATOM     25  H   UNL     1      56.027  27.025  18.228  1.00  0.00     0.293 HD
ENDBRANCH   8  24
TORSDOF 5
ENDMDL
