MODEL 1
REMARK VINA RESULT:    -3.580      0.000      0.000
REMARK INTER + INTRA:          -8.772
REMARK INTER:                  -6.510
REMARK INTRA:                  -2.263
REMARK UNBOUND:                -2.263
REMARK SMILES CCCCCCCCCCCCCC[C@@H](C)C(=O)[O-]
REMARK SMILES IDX 9 1 10 2 11 3 12 4 13 5 14 6 15 7 16 8 17 9 18 10 19 11 8 12
REMARK SMILES IDX 7 13 6 14 5 15 4 16 3 17 2 18 1 19
REMARK H PARENT
REMARK Flexibility Score: inf
ROOT
ATOM      1  C   UNL     1       9.290 -28.833  18.502  1.00  0.00     0.000 C 
ENDROOT
BRANCH   1   2
ATOM      2  C   UNL     1       8.269 -29.849  17.960  1.00  0.00     0.000 C 
BRANCH   2   3
ATOM      3  C   UNL     1       6.822 -29.486  18.329  1.00  0.00     0.000 C 
BRANCH   3   4
ATOM      4  C   UNL     1       5.878 -29.496  17.117  1.00  0.00     0.000 C 
BRANCH   4   5
ATOM      5  C   UNL     1       6.634 -29.878  15.836  1.00  0.00     0.001 C 
BRANCH   5   6
ATOM      6  C   UNL     1       6.193 -31.238  15.263  1.00  0.00     0.009 C 
BRANCH   6   7
ATOM      7  C   UNL     1       7.244 -32.361  15.411  1.00  0.00     0.032 C 
ATOM      8  C   UNL     1       7.006 -33.151  16.701  1.00  0.00     0.014 C 
BRANCH   7   9
ATOM      9  C   UNL     1       7.219 -33.297  14.232  1.00  0.00     0.044 C 
ATOM     10  O   UNL     1       6.406 -33.104  13.290  1.00  0.00    -0.550 OA
ATOM     11  O   UNL     1       8.089 -34.379  14.176  1.00  0.00    -0.550 OA
ENDBRANCH   7   9
ENDBRANCH   6   7
ENDBRANCH   5   6
ENDBRANCH   4   5
ENDBRANCH   3   4
ENDBRANCH   2   3
ENDBRANCH   1   2
BRANCH   1  12
ATOM     12  C   UNL     1      10.011 -28.066  17.381  1.00  0.00     0.000 C 
BRANCH  12  13
ATOM     13  C   UNL     1       9.936 -28.793  16.026  1.00  0.00    -0.000 C 
BRANCH  13  14
ATOM     14  C   UNL     1      11.137 -28.478  15.119  1.00  0.00    -0.000 C 
BRANCH  14  15
ATOM     15  C   UNL     1      11.075 -29.214  13.773  1.00  0.00    -0.000 C 
BRANCH  15  16
ATOM     16  C   UNL     1      10.094 -30.395  13.837  1.00  0.00    -0.000 C 
BRANCH  16  17
ATOM     17  C   UNL     1       9.322 -30.606  12.523  1.00  0.00    -0.000 C 
BRANCH  17  18
ATOM     18  C   UNL     1       8.565 -29.368  12.009  1.00  0.00    -0.003 C 
ATOM     19  C   UNL     1       7.048 -29.502  12.127  1.00  0.00     0.004 C 
ENDBRANCH  17  18
ENDBRANCH  16  17
ENDBRANCH  15  16
ENDBRANCH  14  15
ENDBRANCH  13  14
ENDBRANCH  12  13
ENDBRANCH   1  12
TORSDOF 14
ENDMDL
MODEL 2
REMARK VINA RESULT:    -3.333      2.290      5.721
REMARK INTER + INTRA:          -8.323
REMARK INTER:                  -6.556
REMARK INTRA:                  -1.767
REMARK UNBOUND:                -2.263
REMARK SMILES CCCCCCCCCCCCCC[C@@H](C)C(=O)[O-]
REMARK SMILES IDX 9 1 10 2 11 3 12 4 13 5 14 6 15 7 16 8 17 9 18 10 19 11 8 12
REMARK SMILES IDX 7 13 6 14 5 15 4 16 3 17 2 18 1 19
REMARK H PARENT
REMARK Flexibility Score: inf
ROOT
ATOM      1  C   UNL     1       8.348 -32.497  15.646  1.00  0.00     0.000 C 
ENDROOT
BRANCH   1   2
ATOM      2  C   UNL     1       9.355 -33.015  14.604  1.00  0.00     0.000 C 
BRANCH   2   3
ATOM      3  C   UNL     1       8.678 -33.783  13.459  1.00  0.00     0.000 C 
BRANCH   3   4
ATOM      4  C   UNL     1       9.189 -33.360  12.073  1.00  0.00     0.000 C 
BRANCH   4   5
ATOM      5  C   UNL     1       9.098 -31.837  11.897  1.00  0.00     0.001 C 
BRANCH   5   6
ATOM      6  C   UNL     1      10.447 -31.126  12.113  1.00  0.00     0.009 C 
BRANCH   6   7
ATOM      7  C   UNL     1      10.330 -29.610  12.389  1.00  0.00     0.032 C 
ATOM      8  C   UNL     1       8.896 -29.131  12.143  1.00  0.00     0.014 C 
BRANCH   7   9
ATOM      9  C   UNL     1      10.741 -29.274  13.797  1.00  0.00     0.044 C 
ATOM     10  O   UNL     1      10.037 -29.655  14.769  1.00  0.00    -0.550 OA
ATOM     11  O   UNL     1      11.898 -28.541  14.035  1.00  0.00    -0.550 OA
ENDBRANCH   7   9
ENDBRANCH   6   7
ENDBRANCH   5   6
ENDBRANCH   4   5
ENDBRANCH   3   4
ENDBRANCH   2   3
ENDBRANCH   1   2
BRANCH   1  12
ATOM     12  C   UNL     1       6.931 -32.340  15.069  1.00  0.00     0.000 C 
BRANCH  12  13
ATOM     13  C   UNL     1       6.646 -30.907  14.585  1.00  0.00    -0.000 C 
BRANCH  13  14
ATOM     14  C   UNL     1       7.013 -29.846  15.636  1.00  0.00    -0.000 C 
BRANCH  14  15
ATOM     15  C   UNL     1       5.983 -29.754  16.771  1.00  0.00    -0.000 C 
BRANCH  15  16
ATOM     16  C   UNL     1       6.679 -29.686  18.139  1.00  0.00    -0.000 C 
BRANCH  16  17
ATOM     17  C   UNL     1       8.207 -29.835  18.044  1.00  0.00    -0.000 C 
BRANCH  17  18
ATOM     18  C   UNL     1       9.011 -28.677  18.663  1.00  0.00    -0.003 C 
ATOM     19  C   UNL     1      10.064 -28.105  17.714  1.00  0.00     0.004 C 
ENDBRANCH  17  18
ENDBRANCH  16  17
ENDBRANCH  15  16
ENDBRANCH  14  15
ENDBRANCH  13  14
ENDBRANCH  12  13
ENDBRANCH   1  12
TORSDOF 14
ENDMDL
MODEL 3
REMARK VINA RESULT:    -3.321      2.630      4.925
REMARK INTER + INTRA:          -8.302
REMARK INTER:                  -5.701
REMARK INTRA:                  -2.601
REMARK UNBOUND:                -2.263
REMARK SMILES CCCCCCCCCCCCCC[C@@H](C)C(=O)[O-]
REMARK SMILES IDX 9 1 10 2 11 3 12 4 13 5 14 6 15 7 16 8 17 9 18 10 19 11 8 12
REMARK SMILES IDX 7 13 6 14 5 15 4 16 3 17 2 18 1 19
REMARK H PARENT
REMARK Flexibility Score: inf
ROOT
ATOM      1  C   UNL     1       9.847 -29.186  12.623  1.00  0.00     0.000 C 
ENDROOT
BRANCH   1   2
ATOM      2  C   UNL     1       8.650 -29.877  11.944  1.00  0.00     0.000 C 
BRANCH   2   3
ATOM      3  C   UNL     1       7.308 -29.506  12.594  1.00  0.00     0.000 C 
BRANCH   3   4
ATOM      4  C   UNL     1       6.902 -30.473  13.717  1.00  0.00     0.000 C 
BRANCH   4   5
ATOM      5  C   UNL     1       7.153 -29.846  15.097  1.00  0.00     0.001 C 
BRANCH   5   6
ATOM      6  C   UNL     1       7.952 -30.768  16.037  1.00  0.00     0.009 C 
BRANCH   6   7
ATOM      7  C   UNL     1       8.901 -30.023  17.002  1.00  0.00     0.032 C 
ATOM      8  C   UNL     1       9.443 -28.751  16.343  1.00  0.00     0.014 C 
BRANCH   7   9
ATOM      9  C   UNL     1       8.209 -29.669  18.291  1.00  0.00     0.044 C 
ATOM     10  O   UNL     1       6.980 -29.900  18.432  1.00  0.00    -0.550 OA
ATOM     11  O   UNL     1       8.921 -29.086  19.333  1.00  0.00    -0.550 OA
ENDBRANCH   7   9
ENDBRANCH   6   7
ENDBRANCH   5   6
ENDBRANCH   4   5
ENDBRANCH   3   4
ENDBRANCH   2   3
ENDBRANCH   1   2
BRANCH   1  12
ATOM     12  C   UNL     1      10.757 -30.180  13.365  1.00  0.00     0.000 C 
BRANCH  12  13
ATOM     13  C   UNL     1      10.736 -31.583  12.735  1.00  0.00    -0.000 C 
BRANCH  13  14
ATOM     14  C   UNL     1      10.529 -32.695  13.777  1.00  0.00    -0.000 C 
BRANCH  14  15
ATOM     15  C   UNL     1       9.804 -33.921  13.203  1.00  0.00    -0.000 C 
BRANCH  15  16
ATOM     16  C   UNL     1       8.469 -33.518  12.558  1.00  0.00    -0.000 C 
BRANCH  16  17
ATOM     17  C   UNL     1       7.250 -34.133  13.267  1.00  0.00    -0.000 C 
BRANCH  17  18
ATOM     18  C   UNL     1       7.275 -34.033  14.803  1.00  0.00    -0.003 C 
ATOM     19  C   UNL     1       5.879 -33.941  15.419  1.00  0.00     0.004 C 
ENDBRANCH  17  18
ENDBRANCH  16  17
ENDBRANCH  15  16
ENDBRANCH  14  15
ENDBRANCH  13  14
ENDBRANCH  12  13
ENDBRANCH   1  12
TORSDOF 14
ENDMDL
MODEL 4
REMARK VINA RESULT:    -3.312      2.952      5.416
REMARK INTER + INTRA:          -8.285
REMARK INTER:                  -6.144
REMARK INTRA:                  -2.141
REMARK UNBOUND:                -2.263
REMARK SMILES CCCCCCCCCCCCCC[C@@H](C)C(=O)[O-]
REMARK SMILES IDX 9 1 10 2 11 3 12 4 13 5 14 6 15 7 16 8 17 9 18 10 19 11 8 12
REMARK SMILES IDX 7 13 6 14 5 15 4 16 3 17 2 18 1 19
REMARK H PARENT
REMARK Flexibility Score: inf
ROOT
ATOM      1  C   UNL     1      11.551 -31.133  12.967  1.00  0.00     0.000 C 
ENDROOT
BRANCH   1   2
ATOM      2  C   UNL     1      10.210 -30.444  12.658  1.00  0.00     0.000 C 
BRANCH   2   3
ATOM      3  C   UNL     1       9.482 -29.974  13.928  1.00  0.00     0.000 C 
BRANCH   3   4
ATOM      4  C   UNL     1       7.954 -29.958  13.767  1.00  0.00     0.000 C 
BRANCH   4   5
ATOM      5  C   UNL     1       7.260 -29.880  15.135  1.00  0.00     0.001 C 
BRANCH   5   6
ATOM      6  C   UNL     1       8.175 -30.307  16.297  1.00  0.00     0.009 C 
BRANCH   6   7
ATOM      7  C   UNL     1       7.974 -29.494  17.596  1.00  0.00     0.032 C 
ATOM      8  C   UNL     1       7.324 -30.363  18.676  1.00  0.00     0.014 C 
BRANCH   7   9
ATOM      9  C   UNL     1       9.278 -28.942  18.107  1.00  0.00     0.044 C 
ATOM     10  O   UNL     1      10.035 -28.295  17.337  1.00  0.00    -0.550 OA
ATOM     11  O   UNL     1       9.656 -29.145  19.429  1.00  0.00    -0.550 OA
ENDBRANCH   7   9
ENDBRANCH   6   7
ENDBRANCH   5   6
ENDBRANCH   4   5
ENDBRANCH   3   4
ENDBRANCH   2   3
ENDBRANCH   1   2
BRANCH   1  12
ATOM     12  C   UNL     1      11.599 -32.584  12.456  1.00  0.00     0.000 C 
BRANCH  12  13
ATOM     13  C   UNL     1      11.445 -33.613  13.590  1.00  0.00    -0.000 C 
BRANCH  13  14
ATOM     14  C   UNL     1      10.335 -34.639  13.309  1.00  0.00    -0.000 C 
BRANCH  14  15
ATOM     15  C   UNL     1       8.965 -33.984  13.077  1.00  0.00    -0.000 C 
BRANCH  15  16
ATOM     16  C   UNL     1       8.329 -33.556  14.408  1.00  0.00    -0.000 C 
BRANCH  16  17
ATOM     17  C   UNL     1       6.792 -33.509  14.351  1.00  0.00    -0.000 C 
BRANCH  17  18
ATOM     18  C   UNL     1       6.079 -34.105  15.578  1.00  0.00    -0.003 C 
ATOM     19  C   UNL     1       6.681 -33.642  16.904  1.00  0.00     0.004 C 
ENDBRANCH  17  18
ENDBRANCH  16  17
ENDBRANCH  15  16
ENDBRANCH  14  15
ENDBRANCH  13  14
ENDBRANCH  12  13
ENDBRANCH   1  12
TORSDOF 14
ENDMDL
MODEL 5
REMARK VINA RESULT:    -3.299      1.676      5.264
REMARK INTER + INTRA:          -8.262
REMARK INTER:                  -6.032
REMARK INTRA:                  -2.230
REMARK UNBOUND:                -2.263
REMARK SMILES CCCCCCCCCCCCCC[C@@H](C)C(=O)[O-]
REMARK SMILES IDX 9 1 10 2 11 3 12 4 13 5 14 6 15 7 16 8 17 9 18 10 19 11 8 12
REMARK SMILES IDX 7 13 6 14 5 15 4 16 3 17 2 18 1 19
REMARK H PARENT
REMARK Flexibility Score: inf
ROOT
ATOM      1  C   UNL     1       7.540 -33.291  14.725  1.00  0.00     0.000 C 
ENDROOT
BRANCH   1   2
ATOM      2  C   UNL     1       6.318 -32.980  13.842  1.00  0.00     0.000 C 
BRANCH   2   3
ATOM      3  C   UNL     1       6.698 -32.254  12.542  1.00  0.00     0.000 C 
BRANCH   3   4
ATOM      4  C   UNL     1       6.175 -30.810  12.491  1.00  0.00     0.000 C 
BRANCH   4   5
ATOM      5  C   UNL     1       7.291 -29.810  12.829  1.00  0.00     0.001 C 
BRANCH   5   6
ATOM      6  C   UNL     1       8.538 -29.982  11.942  1.00  0.00     0.009 C 
BRANCH   6   7
ATOM      7  C   UNL     1       9.876 -29.947  12.714  1.00  0.00     0.032 C 
ATOM      8  C   UNL     1       9.634 -29.615  14.189  1.00  0.00     0.014 C 
BRANCH   7   9
ATOM      9  C   UNL     1      10.609 -31.258  12.604  1.00  0.00     0.044 C 
ATOM     10  O   UNL     1      11.831 -31.325  12.899  1.00  0.00    -0.550 OA
ATOM     11  O   UNL     1       9.943 -32.400  12.175  1.00  0.00    -0.550 OA
ENDBRANCH   7   9
ENDBRANCH   6   7
ENDBRANCH   5   6
ENDBRANCH   4   5
ENDBRANCH   3   4
ENDBRANCH   2   3
ENDBRANCH   1   2
BRANCH   1  12
ATOM     12  C   UNL     1       7.747 -32.246  15.834  1.00  0.00     0.000 C 
BRANCH  12  13
ATOM     13  C   UNL     1       6.434 -31.563  16.254  1.00  0.00    -0.000 C 
BRANCH  13  14
ATOM     14  C   UNL     1       6.568 -30.034  16.350  1.00  0.00    -0.000 C 
BRANCH  14  15
ATOM     15  C   UNL     1       6.331 -29.505  17.772  1.00  0.00    -0.000 C 
BRANCH  15  16
ATOM     16  C   UNL     1       7.335 -30.117  18.761  1.00  0.00    -0.000 C 
BRANCH  16  17
ATOM     17  C   UNL     1       8.800 -29.857  18.367  1.00  0.00    -0.000 C 
BRANCH  17  18
ATOM     18  C   UNL     1       9.249 -28.388  18.475  1.00  0.00    -0.003 C 
ATOM     19  C   UNL     1      10.242 -27.984  17.386  1.00  0.00     0.004 C 
ENDBRANCH  17  18
ENDBRANCH  16  17
ENDBRANCH  15  16
ENDBRANCH  14  15
ENDBRANCH  13  14
ENDBRANCH  12  13
ENDBRANCH   1  12
TORSDOF 14
ENDMDL
MODEL 6
REMARK VINA RESULT:    -3.294      2.711      4.689
REMARK INTER + INTRA:          -8.253
REMARK INTER:                  -6.039
REMARK INTRA:                  -2.214
REMARK UNBOUND:                -2.263
REMARK SMILES CCCCCCCCCCCCCC[C@@H](C)C(=O)[O-]
REMARK SMILES IDX 9 1 10 2 11 3 12 4 13 5 14 6 15 7 16 8 17 9 18 10 19 11 8 12
REMARK SMILES IDX 7 13 6 14 5 15 4 16 3 17 2 18 1 19
REMARK H PARENT
REMARK Flexibility Score: inf
ROOT
ATOM      1  C   UNL     1       6.152 -30.921  13.630  1.00  0.00     0.000 C 
ENDROOT
BRANCH   1   2
ATOM      2  C   UNL     1       6.321 -32.448  13.542  1.00  0.00     0.000 C 
BRANCH   2   3
ATOM      3  C   UNL     1       7.476 -32.966  14.413  1.00  0.00     0.000 C 
BRANCH   3   4
ATOM      4  C   UNL     1       6.993 -33.631  15.711  1.00  0.00     0.000 C 
BRANCH   4   5
ATOM      5  C   UNL     1       6.723 -32.580  16.798  1.00  0.00     0.001 C 
BRANCH   5   6
ATOM      6  C   UNL     1       7.957 -31.713  17.113  1.00  0.00     0.009 C 
BRANCH   6   7
ATOM      7  C   UNL     1       7.755 -30.203  16.854  1.00  0.00     0.032 C 
ATOM      8  C   UNL     1       6.348 -29.771  17.279  1.00  0.00     0.014 C 
BRANCH   7   9
ATOM      9  C   UNL     1       8.780 -29.378  17.585  1.00  0.00     0.044 C 
ATOM     10  O   UNL     1       8.787 -29.347  18.843  1.00  0.00    -0.550 OA
ATOM     11  O   UNL     1       9.725 -28.644  16.876  1.00  0.00    -0.550 OA
ENDBRANCH   7   9
ENDBRANCH   6   7
ENDBRANCH   5   6
ENDBRANCH   4   5
ENDBRANCH   3   4
ENDBRANCH   2   3
ENDBRANCH   1   2
BRANCH   1  12
ATOM     12  C   UNL     1       6.531 -30.210  12.319  1.00  0.00     0.000 C 
BRANCH  12  13
ATOM     13  C   UNL     1       8.053 -30.090  12.132  1.00  0.00    -0.000 C 
BRANCH  13  14
ATOM     14  C   UNL     1       8.770 -29.624  13.410  1.00  0.00    -0.000 C 
BRANCH  14  15
ATOM     15  C   UNL     1       9.982 -30.499  13.764  1.00  0.00    -0.000 C 
BRANCH  15  16
ATOM     16  C   UNL     1      10.864 -30.741  12.530  1.00  0.00    -0.000 C 
BRANCH  16  17
ATOM     17  C   UNL     1      11.742 -31.998  12.658  1.00  0.00    -0.000 C 
BRANCH  17  18
ATOM     18  C   UNL     1      11.050 -33.316  12.265  1.00  0.00    -0.003 C 
ATOM     19  C   UNL     1      10.725 -34.203  13.466  1.00  0.00     0.004 C 
ENDBRANCH  17  18
ENDBRANCH  16  17
ENDBRANCH  15  16
ENDBRANCH  14  15
ENDBRANCH  13  14
ENDBRANCH  12  13
ENDBRANCH   1  12
TORSDOF 14
ENDMDL
MODEL 7
REMARK VINA RESULT:    -3.261      1.680      2.464
REMARK INTER + INTRA:          -8.192
REMARK INTER:                  -6.222
REMARK INTRA:                  -1.970
REMARK UNBOUND:                -2.263
REMARK SMILES CCCCCCCCCCCCCC[C@@H](C)C(=O)[O-]
REMARK SMILES IDX 9 1 10 2 11 3 12 4 13 5 14 6 15 7 16 8 17 9 18 10 19 11 8 12
REMARK SMILES IDX 7 13 6 14 5 15 4 16 3 17 2 18 1 19
REMARK H PARENT
REMARK Flexibility Score: inf
ROOT
ATOM      1  C   UNL     1       9.751 -28.438  17.839  1.00  0.00     0.000 C 
ENDROOT
BRANCH   1   2
ATOM      2  C   UNL     1       8.785 -29.634  17.788  1.00  0.00     0.000 C 
BRANCH   2   3
ATOM      3  C   UNL     1       7.447 -29.343  18.486  1.00  0.00     0.000 C 
BRANCH   3   4
ATOM      4  C   UNL     1       6.234 -29.815  17.670  1.00  0.00     0.000 C 
BRANCH   4   5
ATOM      5  C   UNL     1       6.530 -29.756  16.164  1.00  0.00     0.001 C 
BRANCH   5   6
ATOM      6  C   UNL     1       6.363 -31.119  15.466  1.00  0.00     0.009 C 
BRANCH   6   7
ATOM      7  C   UNL     1       7.413 -31.403  14.368  1.00  0.00     0.032 C 
ATOM      8  C   UNL     1       7.887 -32.856  14.444  1.00  0.00     0.014 C 
BRANCH   7   9
ATOM      9  C   UNL     1       6.862 -31.121  12.995  1.00  0.00     0.044 C 
ATOM     10  O   UNL     1       6.602 -29.939  12.649  1.00  0.00    -0.550 OA
ATOM     11  O   UNL     1       6.635 -32.163  12.103  1.00  0.00    -0.550 OA
ENDBRANCH   7   9
ENDBRANCH   6   7
ENDBRANCH   5   6
ENDBRANCH   4   5
ENDBRANCH   3   4
ENDBRANCH   2   3
ENDBRANCH   1   2
BRANCH   1  12
ATOM     12  C   UNL     1      10.399 -28.145  16.475  1.00  0.00     0.000 C 
BRANCH  12  13
ATOM     13  C   UNL     1       9.926 -29.114  15.377  1.00  0.00    -0.000 C 
BRANCH  13  14
ATOM     14  C   UNL     1      10.847 -29.106  14.146  1.00  0.00    -0.000 C 
BRANCH  14  15
ATOM     15  C   UNL     1      10.072 -29.208  12.824  1.00  0.00    -0.000 C 
BRANCH  15  16
ATOM     16  C   UNL     1      10.411 -30.513  12.088  1.00  0.00    -0.000 C 
BRANCH  16  17
ATOM     17  C   UNL     1      11.203 -31.505  12.958  1.00  0.00    -0.000 C 
BRANCH  17  18
ATOM     18  C   UNL     1      11.109 -32.976  12.514  1.00  0.00    -0.003 C 
ATOM     19  C   UNL     1      11.871 -33.929  13.435  1.00  0.00     0.004 C 
ENDBRANCH  17  18
ENDBRANCH  16  17
ENDBRANCH  15  16
ENDBRANCH  14  15
ENDBRANCH  13  14
ENDBRANCH  12  13
ENDBRANCH   1  12
TORSDOF 14
ENDMDL
MODEL 8
REMARK VINA RESULT:    -3.225      1.474      4.000
REMARK INTER + INTRA:          -8.127
REMARK INTER:                  -6.118
REMARK INTRA:                  -2.009
REMARK UNBOUND:                -2.263
REMARK SMILES CCCCCCCCCCCCCC[C@@H](C)C(=O)[O-]
REMARK SMILES IDX 9 1 10 2 11 3 12 4 13 5 14 6 15 7 16 8 17 9 18 10 19 11 8 12
REMARK SMILES IDX 7 13 6 14 5 15 4 16 3 17 2 18 1 19
REMARK H PARENT
REMARK Flexibility Score: inf
ROOT
ATOM      1  C   UNL     1       9.514 -28.780  18.340  1.00  0.00     0.000 C 
ENDROOT
BRANCH   1   2
ATOM      2  C   UNL     1      10.168 -28.053  17.152  1.00  0.00     0.000 C 
BRANCH   2   3
ATOM      3  C   UNL     1       9.955 -28.789  15.820  1.00  0.00     0.000 C 
BRANCH   3   4
ATOM      4  C   UNL     1      11.095 -28.550  14.818  1.00  0.00     0.000 C 
BRANCH   4   5
ATOM      5  C   UNL     1      10.968 -29.490  13.609  1.00  0.00     0.001 C 
BRANCH   5   6
ATOM      6  C   UNL     1       9.902 -30.583  13.809  1.00  0.00     0.009 C 
BRANCH   6   7
ATOM      7  C   UNL     1      10.052 -31.796  12.863  1.00  0.00     0.032 C 
ATOM      8  C   UNL     1      11.273 -31.619  11.956  1.00  0.00     0.014 C 
BRANCH   7   9
ATOM      9  C   UNL     1      10.176 -33.083  13.635  1.00  0.00     0.044 C 
ATOM     10  O   UNL     1       9.145 -33.668  14.059  1.00  0.00    -0.550 OA
ATOM     11  O   UNL     1      11.428 -33.632  13.886  1.00  0.00    -0.550 OA
ENDBRANCH   7   9
ENDBRANCH   6   7
ENDBRANCH   5   6
ENDBRANCH   4   5
ENDBRANCH   3   4
ENDBRANCH   2   3
ENDBRANCH   1   2
BRANCH   1  12
ATOM     12  C   UNL     1       8.561 -29.901  17.893  1.00  0.00     0.000 C 
BRANCH  12  13
ATOM     13  C   UNL     1       7.080 -29.517  18.059  1.00  0.00    -0.000 C 
BRANCH  13  14
ATOM     14  C   UNL     1       6.182 -30.145  16.981  1.00  0.00    -0.000 C 
BRANCH  14  15
ATOM     15  C   UNL     1       6.825 -31.368  16.310  1.00  0.00    -0.000 C 
BRANCH  15  16
ATOM     16  C   UNL     1       6.291 -31.555  14.882  1.00  0.00    -0.000 C 
BRANCH  16  17
ATOM     17  C   UNL     1       6.345 -30.264  14.047  1.00  0.00    -0.000 C 
BRANCH  17  18
ATOM     18  C   UNL     1       6.449 -30.479  12.526  1.00  0.00    -0.003 C 
ATOM     19  C   UNL     1       6.422 -31.954  12.127  1.00  0.00     0.004 C 
ENDBRANCH  17  18
ENDBRANCH  16  17
ENDBRANCH  15  16
ENDBRANCH  14  15
ENDBRANCH  13  14
ENDBRANCH  12  13
ENDBRANCH   1  12
TORSDOF 14
ENDMDL
