MODEL 1
REMARK VINA RESULT:    -5.430      0.000      0.000
REMARK INTER + INTRA:         -17.029
REMARK INTER:                 -13.683
REMARK INTRA:                  -3.346
REMARK UNBOUND:                -3.346
REMARK SMILES CCCCCCCCCCCCCCCCCCCCCCCCCCCC(=O)[O-]
REMARK SMILES IDX 15 1 16 2 17 3 18 4 19 5 20 6 21 7 22 8 23 9 24 10 25 11
REMARK SMILES IDX 26 12 27 13 28 14 29 15 30 16 14 17 13 18 12 19 11 20 10 21
REMARK SMILES IDX 9 22 8 23 7 24 6 25 5 26 4 27 3 28 2 29 1 30
REMARK H PARENT
REMARK Flexibility Score: inf
ROOT
ATOM      1  C   UNL     1      49.133  27.405  15.828  1.00  0.00     0.000 C 
ENDROOT
BRANCH   1   2
ATOM      2  C   UNL     1      47.797  28.064  16.242  1.00  0.00     0.000 C 
BRANCH   2   3
ATOM      3  C   UNL     1      47.798  29.603  16.144  1.00  0.00     0.000 C 
BRANCH   3   4
ATOM      4  C   UNL     1      48.226  30.339  17.424  1.00  0.00     0.000 C 
BRANCH   4   5
ATOM      5  C   UNL     1      49.584  31.049  17.280  1.00  0.00     0.000 C 
BRANCH   5   6
ATOM      6  C   UNL     1      49.518  32.531  17.679  1.00  0.00     0.000 C 
BRANCH   6   7
ATOM      7  C   UNL     1      48.097  33.106  17.607  1.00  0.00     0.000 C 
BRANCH   7   8
ATOM      8  C   UNL     1      47.983  34.128  16.466  1.00  0.00     0.000 C 
BRANCH   8   9
ATOM      9  C   UNL     1      47.893  33.468  15.082  1.00  0.00     0.000 C 
BRANCH   9  10
ATOM     10  C   UNL     1      48.506  34.338  13.970  1.00  0.00     0.000 C 
BRANCH  10  11
ATOM     11  C   UNL     1      48.194  33.805  12.563  1.00  0.00     0.000 C 
BRANCH  11  12
ATOM     12  C   UNL     1      46.849  34.317  12.021  1.00  0.00     0.006 C 
BRANCH  12  13
ATOM     13  C   UNL     1      46.470  35.683  12.613  1.00  0.00     0.053 C 
BRANCH  13  14
ATOM     14  C   UNL     1      45.100  35.667  13.220  1.00  0.00     0.041 C 
ATOM     15  O   UNL     1      44.953  35.419  14.446  1.00  0.00    -0.550 OA
ATOM     16  O   UNL     1      43.983  35.886  12.423  1.00  0.00    -0.550 OA
ENDBRANCH  13  14
ENDBRANCH  12  13
ENDBRANCH  11  12
ENDBRANCH  10  11
ENDBRANCH   9  10
ENDBRANCH   8   9
ENDBRANCH   7   8
ENDBRANCH   6   7
ENDBRANCH   5   6
ENDBRANCH   4   5
ENDBRANCH   3   4
ENDBRANCH   2   3
ENDBRANCH   1   2
BRANCH   1  17
ATOM     17  C   UNL     1      49.341  26.000  16.423  1.00  0.00     0.000 C 
BRANCH  17  18
ATOM     18  C   UNL     1      48.492  25.759  17.681  1.00  0.00     0.000 C 
BRANCH  18  19
ATOM     19  C   UNL     1      49.278  26.136  18.946  1.00  0.00     0.000 C 
BRANCH  19  20
ATOM     20  C   UNL     1      48.977  25.214  20.140  1.00  0.00     0.000 C 
BRANCH  20  21
ATOM     21  C   UNL     1      48.628  25.941  21.451  1.00  0.00     0.000 C 
BRANCH  21  22
ATOM     22  C   UNL     1      49.709  25.783  22.531  1.00  0.00    -0.000 C 
BRANCH  22  23
ATOM     23  C   UNL     1      50.452  27.108  22.764  1.00  0.00    -0.000 C 
BRANCH  23  24
ATOM     24  C   UNL     1      51.947  27.027  22.401  1.00  0.00    -0.000 C 
BRANCH  24  25
ATOM     25  C   UNL     1      52.483  25.601  22.170  1.00  0.00    -0.000 C 
BRANCH  25  26
ATOM     26  C   UNL     1      52.877  25.281  20.714  1.00  0.00    -0.000 C 
BRANCH  26  27
ATOM     27  C   UNL     1      52.999  26.531  19.815  1.00  0.00    -0.000 C 
BRANCH  27  28
ATOM     28  C   UNL     1      53.502  26.190  18.401  1.00  0.00    -0.000 C 
BRANCH  28  29
ATOM     29  C   UNL     1      52.694  26.897  17.302  1.00  0.00    -0.003 C 
ATOM     30  C   UNL     1      52.300  28.324  17.682  1.00  0.00     0.004 C 
ENDBRANCH  28  29
ENDBRANCH  27  28
ENDBRANCH  26  27
ENDBRANCH  25  26
ENDBRANCH  24  25
ENDBRANCH  23  24
ENDBRANCH  22  23
ENDBRANCH  21  22
ENDBRANCH  20  21
ENDBRANCH  19  20
ENDBRANCH  18  19
ENDBRANCH  17  18
ENDBRANCH   1  17
TORSDOF 26
ENDMDL
MODEL 2
REMARK VINA RESULT:    -5.374      2.174      5.056
REMARK INTER + INTRA:         -16.888
REMARK INTER:                 -14.680
REMARK INTRA:                  -2.209
REMARK UNBOUND:                -3.346
REMARK SMILES CCCCCCCCCCCCCCCCCCCCCCCCCCCC(=O)[O-]
REMARK SMILES IDX 15 1 16 2 17 3 18 4 19 5 20 6 21 7 22 8 23 9 24 10 25 11
REMARK SMILES IDX 26 12 27 13 28 14 29 15 30 16 14 17 13 18 12 19 11 20 10 21
REMARK SMILES IDX 9 22 8 23 7 24 6 25 5 26 4 27 3 28 2 29 1 30
REMARK H PARENT
REMARK Flexibility Score: inf
ROOT
ATOM      1  C   UNL     1      49.382  32.145  17.905  1.00  0.00     0.000 C 
ENDROOT
BRANCH   1   2
ATOM      2  C   UNL     1      49.135  33.571  17.362  1.00  0.00     0.000 C 
BRANCH   2   3
ATOM      3  C   UNL     1      47.644  33.940  17.220  1.00  0.00     0.000 C 
BRANCH   3   4
ATOM      4  C   UNL     1      47.172  34.208  15.780  1.00  0.00     0.000 C 
BRANCH   4   5
ATOM      5  C   UNL     1      48.104  33.593  14.721  1.00  0.00     0.000 C 
BRANCH   5   6
ATOM      6  C   UNL     1      48.249  34.483  13.477  1.00  0.00     0.000 C 
BRANCH   6   7
ATOM      7  C   UNL     1      47.027  34.419  12.551  1.00  0.00     0.000 C 
BRANCH   7   8
ATOM      8  C   UNL     1      46.310  35.777  12.505  1.00  0.00     0.000 C 
BRANCH   8   9
ATOM      9  C   UNL     1      44.982  35.776  13.278  1.00  0.00     0.000 C 
BRANCH   9  10
ATOM     10  C   UNL     1      43.760  35.926  12.354  1.00  0.00     0.000 C 
BRANCH  10  11
ATOM     11  C   UNL     1      43.357  37.394  12.142  1.00  0.00     0.000 C 
BRANCH  11  12
ATOM     12  C   UNL     1      41.981  37.538  11.470  1.00  0.00     0.006 C 
BRANCH  12  13
ATOM     13  C   UNL     1      41.131  38.637  12.124  1.00  0.00     0.053 C 
BRANCH  13  14
ATOM     14  C   UNL     1      40.458  38.155  13.372  1.00  0.00     0.041 C 
ATOM     15  O   UNL     1      40.039  36.969  13.449  1.00  0.00    -0.550 OA
ATOM     16  O   UNL     1      40.256  39.027  14.435  1.00  0.00    -0.550 OA
ENDBRANCH  13  14
ENDBRANCH  12  13
ENDBRANCH  11  12
ENDBRANCH  10  11
ENDBRANCH   9  10
ENDBRANCH   8   9
ENDBRANCH   7   8
ENDBRANCH   6   7
ENDBRANCH   5   6
ENDBRANCH   4   5
ENDBRANCH   3   4
ENDBRANCH   2   3
ENDBRANCH   1   2
BRANCH   1  17
ATOM     17  C   UNL     1      48.109  31.282  17.981  1.00  0.00     0.000 C 
BRANCH  17  18
ATOM     18  C   UNL     1      47.850  30.496  16.686  1.00  0.00     0.000 C 
BRANCH  18  19
ATOM     19  C   UNL     1      49.160  29.912  16.136  1.00  0.00     0.000 C 
BRANCH  19  20
ATOM     20  C   UNL     1      49.443  28.486  16.637  1.00  0.00     0.000 C 
BRANCH  20  21
ATOM     21  C   UNL     1      48.500  27.403  16.082  1.00  0.00     0.000 C 
BRANCH  21  22
ATOM     22  C   UNL     1      48.409  26.166  16.989  1.00  0.00    -0.000 C 
BRANCH  22  23
ATOM     23  C   UNL     1      48.997  26.458  18.378  1.00  0.00    -0.000 C 
BRANCH  23  24
ATOM     24  C   UNL     1      49.044  25.211  19.281  1.00  0.00    -0.000 C 
BRANCH  24  25
ATOM     25  C   UNL     1      48.361  25.376  20.652  1.00  0.00    -0.000 C 
BRANCH  25  26
ATOM     26  C   UNL     1      48.539  26.760  21.307  1.00  0.00    -0.000 C 
BRANCH  26  27
ATOM     27  C   UNL     1      49.361  26.728  22.615  1.00  0.00    -0.000 C 
BRANCH  27  28
ATOM     28  C   UNL     1      50.439  25.630  22.604  1.00  0.00    -0.000 C 
BRANCH  28  29
ATOM     29  C   UNL     1      51.722  26.072  21.883  1.00  0.00    -0.003 C 
ATOM     30  C   UNL     1      52.348  27.321  22.502  1.00  0.00     0.004 C 
ENDBRANCH  28  29
ENDBRANCH  27  28
ENDBRANCH  26  27
ENDBRANCH  25  26
ENDBRANCH  24  25
ENDBRANCH  23  24
ENDBRANCH  22  23
ENDBRANCH  21  22
ENDBRANCH  20  21
ENDBRANCH  19  20
ENDBRANCH  18  19
ENDBRANCH  17  18
ENDBRANCH   1  17
TORSDOF 26
ENDMDL
MODEL 3
REMARK VINA RESULT:    -5.297      1.586      4.029
REMARK INTER + INTRA:         -16.694
REMARK INTER:                 -14.053
REMARK INTRA:                  -2.641
REMARK UNBOUND:                -3.346
REMARK SMILES CCCCCCCCCCCCCCCCCCCCCCCCCCCC(=O)[O-]
REMARK SMILES IDX 15 1 16 2 17 3 18 4 19 5 20 6 21 7 22 8 23 9 24 10 25 11
REMARK SMILES IDX 26 12 27 13 28 14 29 15 30 16 14 17 13 18 12 19 11 20 10 21
REMARK SMILES IDX 9 22 8 23 7 24 6 25 5 26 4 27 3 28 2 29 1 30
REMARK H PARENT
REMARK Flexibility Score: inf
ROOT
ATOM      1  C   UNL     1      49.096  30.493  16.303  1.00  0.00     0.000 C 
ENDROOT
BRANCH   1   2
ATOM      2  C   UNL     1      49.638  31.446  17.393  1.00  0.00     0.000 C 
BRANCH   2   3
ATOM      3  C   UNL     1      48.600  32.460  17.914  1.00  0.00     0.000 C 
BRANCH   3   4
ATOM      4  C   UNL     1      48.636  33.840  17.235  1.00  0.00     0.000 C 
BRANCH   4   5
ATOM      5  C   UNL     1      47.289  34.231  16.600  1.00  0.00     0.000 C 
BRANCH   5   6
ATOM      6  C   UNL     1      47.146  33.715  15.161  1.00  0.00     0.000 C 
BRANCH   6   7
ATOM      7  C   UNL     1      48.433  33.871  14.339  1.00  0.00     0.000 C 
BRANCH   7   8
ATOM      8  C   UNL     1      48.153  34.631  13.033  1.00  0.00     0.000 C 
BRANCH   8   9
ATOM      9  C   UNL     1      46.677  34.567  12.612  1.00  0.00     0.000 C 
BRANCH   9  10
ATOM     10  C   UNL     1      45.996  35.948  12.633  1.00  0.00     0.000 C 
BRANCH  10  11
ATOM     11  C   UNL     1      44.506  35.865  13.002  1.00  0.00     0.000 C 
BRANCH  11  12
ATOM     12  C   UNL     1      43.644  36.858  12.204  1.00  0.00     0.006 C 
BRANCH  12  13
ATOM     13  C   UNL     1      42.155  36.750  12.564  1.00  0.00     0.053 C 
BRANCH  13  14
ATOM     14  C   UNL     1      41.385  35.986  11.531  1.00  0.00     0.041 C 
ATOM     15  O   UNL     1      41.768  35.979  10.330  1.00  0.00    -0.550 OA
ATOM     16  O   UNL     1      40.220  35.316  11.885  1.00  0.00    -0.550 OA
ENDBRANCH  13  14
ENDBRANCH  12  13
ENDBRANCH  11  12
ENDBRANCH  10  11
ENDBRANCH   9  10
ENDBRANCH   8   9
ENDBRANCH   7   8
ENDBRANCH   6   7
ENDBRANCH   5   6
ENDBRANCH   4   5
ENDBRANCH   3   4
ENDBRANCH   2   3
ENDBRANCH   1   2
BRANCH   1  17
ATOM     17  C   UNL     1      47.622  30.096  16.505  1.00  0.00     0.000 C 
BRANCH  17  18
ATOM     18  C   UNL     1      47.373  28.600  16.255  1.00  0.00     0.000 C 
BRANCH  18  19
ATOM     19  C   UNL     1      48.601  27.948  15.602  1.00  0.00     0.000 C 
BRANCH  19  20
ATOM     20  C   UNL     1      48.713  26.443  15.897  1.00  0.00     0.000 C 
BRANCH  20  21
ATOM     21  C   UNL     1      48.308  26.028  17.323  1.00  0.00     0.000 C 
BRANCH  21  22
ATOM     22  C   UNL     1      49.469  25.417  18.122  1.00  0.00    -0.000 C 
BRANCH  22  23
ATOM     23  C   UNL     1      50.606  26.433  18.305  1.00  0.00    -0.000 C 
BRANCH  23  24
ATOM     24  C   UNL     1      51.826  25.841  19.037  1.00  0.00    -0.000 C 
BRANCH  24  25
ATOM     25  C   UNL     1      52.545  26.813  19.992  1.00  0.00    -0.000 C 
BRANCH  25  26
ATOM     26  C   UNL     1      52.775  26.275  21.418  1.00  0.00    -0.000 C 
BRANCH  26  27
ATOM     27  C   UNL     1      51.830  26.890  22.474  1.00  0.00    -0.000 C 
BRANCH  27  28
ATOM     28  C   UNL     1      50.548  26.061  22.667  1.00  0.00    -0.000 C 
BRANCH  28  29
ATOM     29  C   UNL     1      49.278  26.925  22.634  1.00  0.00    -0.003 C 
ATOM     30  C   UNL     1      48.393  26.630  21.424  1.00  0.00     0.004 C 
ENDBRANCH  28  29
ENDBRANCH  27  28
ENDBRANCH  26  27
ENDBRANCH  25  26
ENDBRANCH  24  25
ENDBRANCH  23  24
ENDBRANCH  22  23
ENDBRANCH  21  22
ENDBRANCH  20  21
ENDBRANCH  19  20
ENDBRANCH  18  19
ENDBRANCH  17  18
ENDBRANCH   1  17
TORSDOF 26
ENDMDL
MODEL 4
REMARK VINA RESULT:    -5.239      3.457      7.617
REMARK INTER + INTRA:         -16.549
REMARK INTER:                 -14.257
REMARK INTRA:                  -2.292
REMARK UNBOUND:                -3.346
REMARK SMILES CCCCCCCCCCCCCCCCCCCCCCCCCCCC(=O)[O-]
REMARK SMILES IDX 15 1 16 2 17 3 18 4 19 5 20 6 21 7 22 8 23 9 24 10 25 11
REMARK SMILES IDX 26 12 27 13 28 14 29 15 30 16 14 17 13 18 12 19 11 20 10 21
REMARK SMILES IDX 9 22 8 23 7 24 6 25 5 26 4 27 3 28 2 29 1 30
REMARK H PARENT
REMARK Flexibility Score: inf
ROOT
ATOM      1  C   UNL     1      45.592  35.043  16.344  1.00  0.00     0.000 C 
ENDROOT
BRANCH   1   2
ATOM      2  C   UNL     1      44.643  35.486  15.207  1.00  0.00     0.000 C 
BRANCH   2   3
ATOM      3  C   UNL     1      45.258  35.381  13.797  1.00  0.00     0.000 C 
BRANCH   3   4
ATOM      4  C   UNL     1      44.814  36.472  12.808  1.00  0.00     0.000 C 
BRANCH   4   5
ATOM      5  C   UNL     1      43.287  36.526  12.622  1.00  0.00     0.000 C 
BRANCH   5   6
ATOM      6  C   UNL     1      42.852  37.633  11.650  1.00  0.00     0.000 C 
BRANCH   6   7
ATOM      7  C   UNL     1      41.966  37.113  10.510  1.00  0.00     0.000 C 
BRANCH   7   8
ATOM      8  C   UNL     1      41.763  35.595  10.631  1.00  0.00     0.000 C 
BRANCH   8   9
ATOM      9  C   UNL     1      40.334  35.155  10.278  1.00  0.00     0.000 C 
BRANCH   9  10
ATOM     10  C   UNL     1      39.373  35.250  11.476  1.00  0.00     0.000 C 
BRANCH  10  11
ATOM     11  C   UNL     1      38.439  36.469  11.389  1.00  0.00     0.000 C 
BRANCH  11  12
ATOM     12  C   UNL     1      38.442  37.308  12.678  1.00  0.00     0.006 C 
BRANCH  12  13
ATOM     13  C   UNL     1      39.669  37.017  13.555  1.00  0.00     0.053 C 
BRANCH  13  14
ATOM     14  C   UNL     1      40.210  38.262  14.190  1.00  0.00     0.041 C 
ATOM     15  O   UNL     1      40.570  38.253  15.397  1.00  0.00    -0.550 OA
ATOM     16  O   UNL     1      40.275  39.442  13.461  1.00  0.00    -0.550 OA
ENDBRANCH  13  14
ENDBRANCH  12  13
ENDBRANCH  11  12
ENDBRANCH  10  11
ENDBRANCH   9  10
ENDBRANCH   8   9
ENDBRANCH   7   8
ENDBRANCH   6   7
ENDBRANCH   5   6
ENDBRANCH   4   5
ENDBRANCH   3   4
ENDBRANCH   2   3
ENDBRANCH   1   2
BRANCH   1  17
ATOM     17  C   UNL     1      46.724  34.109  15.876  1.00  0.00     0.000 C 
BRANCH  17  18
ATOM     18  C   UNL     1      47.939  34.136  16.817  1.00  0.00     0.000 C 
BRANCH  18  19
ATOM     19  C   UNL     1      48.663  32.781  16.806  1.00  0.00     0.000 C 
BRANCH  19  20
ATOM     20  C   UNL     1      48.599  32.052  18.160  1.00  0.00     0.000 C 
BRANCH  20  21
ATOM     21  C   UNL     1      47.733  30.779  18.172  1.00  0.00     0.000 C 
BRANCH  21  22
ATOM     22  C   UNL     1      47.670  30.084  16.804  1.00  0.00    -0.000 C 
BRANCH  22  23
ATOM     23  C   UNL     1      48.788  29.039  16.665  1.00  0.00    -0.000 C 
BRANCH  23  24
ATOM     24  C   UNL     1      48.580  28.097  15.465  1.00  0.00    -0.000 C 
BRANCH  24  25
ATOM     25  C   UNL     1      49.122  26.667  15.660  1.00  0.00    -0.000 C 
BRANCH  25  26
ATOM     26  C   UNL     1      48.732  26.000  16.993  1.00  0.00    -0.000 C 
BRANCH  26  27
ATOM     27  C   UNL     1      49.883  25.205  17.650  1.00  0.00    -0.000 C 
BRANCH  27  28
ATOM     28  C   UNL     1      49.854  25.291  19.186  1.00  0.00    -0.000 C 
BRANCH  28  29
ATOM     29  C   UNL     1      48.428  25.426  19.741  1.00  0.00    -0.003 C 
ATOM     30  C   UNL     1      48.402  25.724  21.240  1.00  0.00     0.004 C 
ENDBRANCH  28  29
ENDBRANCH  27  28
ENDBRANCH  26  27
ENDBRANCH  25  26
ENDBRANCH  24  25
ENDBRANCH  23  24
ENDBRANCH  22  23
ENDBRANCH  21  22
ENDBRANCH  20  21
ENDBRANCH  19  20
ENDBRANCH  18  19
ENDBRANCH  17  18
ENDBRANCH   1  17
TORSDOF 26
ENDMDL
MODEL 5
REMARK VINA RESULT:    -5.231      4.541     12.878
REMARK INTER + INTRA:         -16.529
REMARK INTER:                 -13.769
REMARK INTRA:                  -2.759
REMARK UNBOUND:                -3.346
REMARK SMILES CCCCCCCCCCCCCCCCCCCCCCCCCCCC(=O)[O-]
REMARK SMILES IDX 15 1 16 2 17 3 18 4 19 5 20 6 21 7 22 8 23 9 24 10 25 11
REMARK SMILES IDX 26 12 27 13 28 14 29 15 30 16 14 17 13 18 12 19 11 20 10 21
REMARK SMILES IDX 9 22 8 23 7 24 6 25 5 26 4 27 3 28 2 29 1 30
REMARK H PARENT
REMARK Flexibility Score: inf
ROOT
ATOM      1  C   UNL     1      48.036  34.213  12.307  1.00  0.00     0.000 C 
ENDROOT
BRANCH   1   2
ATOM      2  C   UNL     1      48.555  34.501  13.734  1.00  0.00     0.000 C 
BRANCH   2   3
ATOM      3  C   UNL     1      48.112  33.463  14.786  1.00  0.00     0.000 C 
BRANCH   3   4
ATOM      4  C   UNL     1      47.434  34.049  16.036  1.00  0.00     0.000 C 
BRANCH   4   5
ATOM      5  C   UNL     1      48.325  33.979  17.289  1.00  0.00     0.000 C 
BRANCH   5   6
ATOM      6  C   UNL     1      49.035  32.624  17.431  1.00  0.00     0.000 C 
BRANCH   6   7
ATOM      7  C   UNL     1      48.171  31.568  18.132  1.00  0.00     0.000 C 
BRANCH   7   8
ATOM      8  C   UNL     1      47.995  30.331  17.238  1.00  0.00     0.000 C 
BRANCH   8   9
ATOM      9  C   UNL     1      49.134  30.165  16.220  1.00  0.00     0.000 C 
BRANCH   9  10
ATOM     10  C   UNL     1      49.389  28.692  15.853  1.00  0.00     0.000 C 
BRANCH  10  11
ATOM     11  C   UNL     1      50.608  28.104  16.581  1.00  0.00     0.000 C 
BRANCH  11  12
ATOM     12  C   UNL     1      51.000  26.714  16.050  1.00  0.00     0.006 C 
BRANCH  12  13
ATOM     13  C   UNL     1      49.845  25.708  16.158  1.00  0.00     0.053 C 
BRANCH  13  14
ATOM     14  C   UNL     1      49.372  25.550  17.570  1.00  0.00     0.041 C 
ATOM     15  O   UNL     1      48.156  25.719  17.855  1.00  0.00    -0.550 OA
ATOM     16  O   UNL     1      50.281  25.257  18.580  1.00  0.00    -0.550 OA
ENDBRANCH  13  14
ENDBRANCH  12  13
ENDBRANCH  11  12
ENDBRANCH  10  11
ENDBRANCH   9  10
ENDBRANCH   8   9
ENDBRANCH   7   8
ENDBRANCH   6   7
ENDBRANCH   5   6
ENDBRANCH   4   5
ENDBRANCH   3   4
ENDBRANCH   2   3
ENDBRANCH   1   2
BRANCH   1  17
ATOM     17  C   UNL     1      46.552  34.568  12.104  1.00  0.00     0.000 C 
BRANCH  17  18
ATOM     18  C   UNL     1      46.161  35.888  12.788  1.00  0.00     0.000 C 
BRANCH  18  19
ATOM     19  C   UNL     1      44.689  35.856  13.227  1.00  0.00     0.000 C 
BRANCH  19  20
ATOM     20  C   UNL     1      43.788  36.777  12.387  1.00  0.00     0.000 C 
BRANCH  20  21
ATOM     21  C   UNL     1      42.369  36.240  12.130  1.00  0.00     0.000 C 
BRANCH  21  22
ATOM     22  C   UNL     1      42.019  36.163  10.636  1.00  0.00    -0.000 C 
BRANCH  22  23
ATOM     23  C   UNL     1      40.763  35.307  10.409  1.00  0.00    -0.000 C 
BRANCH  23  24
ATOM     24  C   UNL     1      39.854  35.238  11.650  1.00  0.00    -0.000 C 
BRANCH  24  25
ATOM     25  C   UNL     1      38.688  36.246  11.658  1.00  0.00    -0.000 C 
BRANCH  25  26
ATOM     26  C   UNL     1      38.734  37.286  12.795  1.00  0.00    -0.000 C 
BRANCH  26  27
ATOM     27  C   UNL     1      38.720  38.749  12.300  1.00  0.00    -0.000 C 
BRANCH  27  28
ATOM     28  C   UNL     1      39.764  39.006  11.200  1.00  0.00    -0.000 C 
BRANCH  28  29
ATOM     29  C   UNL     1      41.034  39.683  11.739  1.00  0.00    -0.003 C 
ATOM     30  C   UNL     1      42.056  39.983  10.643  1.00  0.00     0.004 C 
ENDBRANCH  28  29
ENDBRANCH  27  28
ENDBRANCH  26  27
ENDBRANCH  25  26
ENDBRANCH  24  25
ENDBRANCH  23  24
ENDBRANCH  22  23
ENDBRANCH  21  22
ENDBRANCH  20  21
ENDBRANCH  19  20
ENDBRANCH  18  19
ENDBRANCH  17  18
ENDBRANCH   1  17
TORSDOF 26
ENDMDL
MODEL 6
REMARK VINA RESULT:    -5.228      2.791      6.567
REMARK INTER + INTRA:         -16.522
REMARK INTER:                 -14.211
REMARK INTRA:                  -2.311
REMARK UNBOUND:                -3.346
REMARK SMILES CCCCCCCCCCCCCCCCCCCCCCCCCCCC(=O)[O-]
REMARK SMILES IDX 15 1 16 2 17 3 18 4 19 5 20 6 21 7 22 8 23 9 24 10 25 11
REMARK SMILES IDX 26 12 27 13 28 14 29 15 30 16 14 17 13 18 12 19 11 20 10 21
REMARK SMILES IDX 9 22 8 23 7 24 6 25 5 26 4 27 3 28 2 29 1 30
REMARK H PARENT
REMARK Flexibility Score: inf
ROOT
ATOM      1  C   UNL     1      47.389  34.049  15.983  1.00  0.00     0.000 C 
ENDROOT
BRANCH   1   2
ATOM      2  C   UNL     1      48.125  33.590  14.703  1.00  0.00     0.000 C 
BRANCH   2   3
ATOM      3  C   UNL     1      48.152  34.648  13.581  1.00  0.00     0.000 C 
BRANCH   3   4
ATOM      4  C   UNL     1      47.081  34.471  12.491  1.00  0.00     0.000 C 
BRANCH   4   5
ATOM      5  C   UNL     1      46.122  35.671  12.394  1.00  0.00     0.000 C 
BRANCH   5   6
ATOM      6  C   UNL     1      45.122  35.722  13.559  1.00  0.00     0.000 C 
BRANCH   6   7
ATOM      7  C   UNL     1      43.701  36.087  13.111  1.00  0.00     0.000 C 
BRANCH   7   8
ATOM      8  C   UNL     1      43.727  37.285  12.149  1.00  0.00     0.000 C 
BRANCH   8   9
ATOM      9  C   UNL     1      42.578  37.256  11.130  1.00  0.00     0.000 C 
BRANCH   9  10
ATOM     10  C   UNL     1      41.738  35.970  11.222  1.00  0.00     0.000 C 
BRANCH  10  11
ATOM     11  C   UNL     1      40.230  36.238  11.091  1.00  0.00     0.000 C 
BRANCH  11  12
ATOM     12  C   UNL     1      39.515  36.268  12.452  1.00  0.00     0.006 C 
BRANCH  12  13
ATOM     13  C   UNL     1      39.069  37.685  12.840  1.00  0.00     0.053 C 
BRANCH  13  14
ATOM     14  C   UNL     1      39.996  38.309  13.839  1.00  0.00     0.041 C 
ATOM     15  O   UNL     1      40.883  37.613  14.401  1.00  0.00    -0.550 OA
ATOM     16  O   UNL     1      39.852  39.648  14.179  1.00  0.00    -0.550 OA
ENDBRANCH  13  14
ENDBRANCH  12  13
ENDBRANCH  11  12
ENDBRANCH  10  11
ENDBRANCH   9  10
ENDBRANCH   8   9
ENDBRANCH   7   8
ENDBRANCH   6   7
ENDBRANCH   5   6
ENDBRANCH   4   5
ENDBRANCH   3   4
ENDBRANCH   2   3
ENDBRANCH   1   2
BRANCH   1  17
ATOM     17  C   UNL     1      48.295  34.120  17.226  1.00  0.00     0.000 C 
BRANCH  17  18
ATOM     18  C   UNL     1      49.060  32.811  17.476  1.00  0.00     0.000 C 
BRANCH  18  19
ATOM     19  C   UNL     1      48.151  31.771  18.148  1.00  0.00     0.000 C 
BRANCH  19  20
ATOM     20  C   UNL     1      48.067  30.448  17.368  1.00  0.00     0.000 C 
BRANCH  20  21
ATOM     21  C   UNL     1      49.340  30.070  16.590  1.00  0.00     0.000 C 
BRANCH  21  22
ATOM     22  C   UNL     1      49.182  28.777  15.775  1.00  0.00    -0.000 C 
BRANCH  22  23
ATOM     23  C   UNL     1      48.135  27.851  16.411  1.00  0.00    -0.000 C 
BRANCH  23  24
ATOM     24  C   UNL     1      48.511  26.360  16.303  1.00  0.00    -0.000 C 
BRANCH  24  25
ATOM     25  C   UNL     1      48.686  25.636  17.652  1.00  0.00    -0.000 C 
BRANCH  25  26
ATOM     26  C   UNL     1      49.262  26.504  18.788  1.00  0.00    -0.000 C 
BRANCH  26  27
ATOM     27  C   UNL     1      49.629  25.704  20.057  1.00  0.00    -0.000 C 
BRANCH  27  28
ATOM     28  C   UNL     1      48.474  25.651  21.072  1.00  0.00    -0.000 C 
BRANCH  28  29
ATOM     29  C   UNL     1      48.771  26.460  22.344  1.00  0.00    -0.003 C 
ATOM     30  C   UNL     1      50.262  26.735  22.536  1.00  0.00     0.004 C 
ENDBRANCH  28  29
ENDBRANCH  27  28
ENDBRANCH  26  27
ENDBRANCH  25  26
ENDBRANCH  24  25
ENDBRANCH  23  24
ENDBRANCH  22  23
ENDBRANCH  21  22
ENDBRANCH  20  21
ENDBRANCH  19  20
ENDBRANCH  18  19
ENDBRANCH  17  18
ENDBRANCH   1  17
TORSDOF 26
ENDMDL
MODEL 7
REMARK VINA RESULT:    -5.225      2.279      5.452
REMARK INTER + INTRA:         -16.513
REMARK INTER:                 -14.294
REMARK INTRA:                  -2.219
REMARK UNBOUND:                -3.346
REMARK SMILES CCCCCCCCCCCCCCCCCCCCCCCCCCCC(=O)[O-]
REMARK SMILES IDX 15 1 16 2 17 3 18 4 19 5 20 6 21 7 22 8 23 9 24 10 25 11
REMARK SMILES IDX 26 12 27 13 28 14 29 15 30 16 14 17 13 18 12 19 11 20 10 21
REMARK SMILES IDX 9 22 8 23 7 24 6 25 5 26 4 27 3 28 2 29 1 30
REMARK H PARENT
REMARK Flexibility Score: inf
ROOT
ATOM      1  C   UNL     1      48.976  34.033  17.299  1.00  0.00     0.000 C 
ENDROOT
BRANCH   1   2
ATOM      2  C   UNL     1      47.446  33.966  17.083  1.00  0.00     0.000 C 
BRANCH   2   3
ATOM      3  C   UNL     1      47.024  33.889  15.601  1.00  0.00     0.000 C 
BRANCH   3   4
ATOM      4  C   UNL     1      48.122  33.417  14.633  1.00  0.00     0.000 C 
BRANCH   4   5
ATOM      5  C   UNL     1      48.518  34.493  13.606  1.00  0.00     0.000 C 
BRANCH   5   6
ATOM      6  C   UNL     1      48.073  34.136  12.180  1.00  0.00     0.000 C 
BRANCH   6   7
ATOM      7  C   UNL     1      46.597  34.464  11.915  1.00  0.00     0.000 C 
BRANCH   7   8
ATOM      8  C   UNL     1      46.206  35.788  12.590  1.00  0.00     0.000 C 
BRANCH   8   9
ATOM      9  C   UNL     1      44.787  35.761  13.176  1.00  0.00     0.000 C 
BRANCH   9  10
ATOM     10  C   UNL     1      43.867  36.823  12.547  1.00  0.00     0.000 C 
BRANCH  10  11
ATOM     11  C   UNL     1      42.655  36.205  11.831  1.00  0.00     0.000 C 
BRANCH  11  12
ATOM     12  C   UNL     1      41.753  37.265  11.176  1.00  0.00     0.006 C 
BRANCH  12  13
ATOM     13  C   UNL     1      40.947  38.060  12.214  1.00  0.00     0.053 C 
BRANCH  13  14
ATOM     14  C   UNL     1      41.321  39.510  12.219  1.00  0.00     0.041 C 
ATOM     15  O   UNL     1      42.219  39.937  11.445  1.00  0.00    -0.550 OA
ATOM     16  O   UNL     1      40.708  40.383  13.109  1.00  0.00    -0.550 OA
ENDBRANCH  13  14
ENDBRANCH  12  13
ENDBRANCH  11  12
ENDBRANCH  10  11
ENDBRANCH   9  10
ENDBRANCH   8   9
ENDBRANCH   7   8
ENDBRANCH   6   7
ENDBRANCH   5   6
ENDBRANCH   4   5
ENDBRANCH   3   4
ENDBRANCH   2   3
ENDBRANCH   1   2
BRANCH   1  17
ATOM     17  C   UNL     1      49.559  32.783  17.985  1.00  0.00     0.000 C 
BRANCH  17  18
ATOM     18  C   UNL     1      48.675  31.539  17.797  1.00  0.00     0.000 C 
BRANCH  18  19
ATOM     19  C   UNL     1      49.419  30.462  16.993  1.00  0.00     0.000 C 
BRANCH  19  20
ATOM     20  C   UNL     1      48.601  29.923  15.807  1.00  0.00     0.000 C 
BRANCH  20  21
ATOM     21  C   UNL     1      48.461  28.391  15.756  1.00  0.00     0.000 C 
BRANCH  21  22
ATOM     22  C   UNL     1      48.712  27.721  17.115  1.00  0.00    -0.000 C 
BRANCH  22  23
ATOM     23  C   UNL     1      48.411  26.216  17.051  1.00  0.00    -0.000 C 
BRANCH  23  24
ATOM     24  C   UNL     1      49.299  25.387  17.998  1.00  0.00    -0.000 C 
BRANCH  24  25
ATOM     25  C   UNL     1      50.281  26.210  18.853  1.00  0.00    -0.000 C 
BRANCH  25  26
ATOM     26  C   UNL     1      50.871  25.465  20.067  1.00  0.00    -0.000 C 
BRANCH  26  27
ATOM     27  C   UNL     1      51.965  26.260  20.813  1.00  0.00    -0.000 C 
BRANCH  27  28
ATOM     28  C   UNL     1      51.479  26.794  22.172  1.00  0.00    -0.000 C 
BRANCH  28  29
ATOM     29  C   UNL     1      50.095  26.250  22.557  1.00  0.00    -0.003 C 
ATOM     30  C   UNL     1      49.090  27.358  22.872  1.00  0.00     0.004 C 
ENDBRANCH  28  29
ENDBRANCH  27  28
ENDBRANCH  26  27
ENDBRANCH  25  26
ENDBRANCH  24  25
ENDBRANCH  23  24
ENDBRANCH  22  23
ENDBRANCH  21  22
ENDBRANCH  20  21
ENDBRANCH  19  20
ENDBRANCH  18  19
ENDBRANCH  17  18
ENDBRANCH   1  17
TORSDOF 26
ENDMDL
MODEL 8
REMARK VINA RESULT:    -5.118      4.373     12.874
REMARK INTER + INTRA:         -16.243
REMARK INTER:                 -14.178
REMARK INTRA:                  -2.065
REMARK UNBOUND:                -3.346
REMARK SMILES CCCCCCCCCCCCCCCCCCCCCCCCCCCC(=O)[O-]
REMARK SMILES IDX 15 1 16 2 17 3 18 4 19 5 20 6 21 7 22 8 23 9 24 10 25 11
REMARK SMILES IDX 26 12 27 13 28 14 29 15 30 16 14 17 13 18 12 19 11 20 10 21
REMARK SMILES IDX 9 22 8 23 7 24 6 25 5 26 4 27 3 28 2 29 1 30
REMARK H PARENT
REMARK Flexibility Score: inf
ROOT
ATOM      1  C   UNL     1      47.500  33.867  15.419  1.00  0.00     0.000 C 
ENDROOT
BRANCH   1   2
ATOM      2  C   UNL     1      48.511  33.993  16.582  1.00  0.00     0.000 C 
BRANCH   2   3
ATOM      3  C   UNL     1      48.248  33.023  17.752  1.00  0.00     0.000 C 
BRANCH   3   4
ATOM      4  C   UNL     1      48.877  31.628  17.596  1.00  0.00     0.000 C 
BRANCH   4   5
ATOM      5  C   UNL     1      47.837  30.494  17.638  1.00  0.00     0.000 C 
BRANCH   5   6
ATOM      6  C   UNL     1      47.365  30.076  16.238  1.00  0.00     0.000 C 
BRANCH   6   7
ATOM      7  C   UNL     1      48.260  29.004  15.601  1.00  0.00     0.000 C 
BRANCH   7   8
ATOM      8  C   UNL     1      48.056  27.647  16.291  1.00  0.00     0.000 C 
BRANCH   8   9
ATOM      9  C   UNL     1      49.364  26.859  16.454  1.00  0.00     0.000 C 
BRANCH   9  10
ATOM     10  C   UNL     1      49.179  25.570  17.276  1.00  0.00     0.000 C 
BRANCH  10  11
ATOM     11  C   UNL     1      49.706  25.706  18.714  1.00  0.00     0.000 C 
BRANCH  11  12
ATOM     12  C   UNL     1      48.594  25.560  19.766  1.00  0.00     0.006 C 
BRANCH  12  13
ATOM     13  C   UNL     1      49.111  24.939  21.072  1.00  0.00     0.053 C 
BRANCH  13  14
ATOM     14  C   UNL     1      49.518  25.985  22.065  1.00  0.00     0.041 C 
ATOM     15  O   UNL     1      50.682  25.984  22.547  1.00  0.00    -0.550 OA
ATOM     16  O   UNL     1      48.598  26.936  22.490  1.00  0.00    -0.550 OA
ENDBRANCH  13  14
ENDBRANCH  12  13
ENDBRANCH  11  12
ENDBRANCH  10  11
ENDBRANCH   9  10
ENDBRANCH   8   9
ENDBRANCH   7   8
ENDBRANCH   6   7
ENDBRANCH   5   6
ENDBRANCH   4   5
ENDBRANCH   3   4
ENDBRANCH   2   3
ENDBRANCH   1   2
BRANCH   1  17
ATOM     17  C   UNL     1      48.127  33.359  14.107  1.00  0.00     0.000 C 
BRANCH  17  18
ATOM     18  C   UNL     1      48.265  34.467  13.051  1.00  0.00     0.000 C 
BRANCH  18  19
ATOM     19  C   UNL     1      46.966  34.612  12.244  1.00  0.00     0.000 C 
BRANCH  19  20
ATOM     20  C   UNL     1      46.220  35.927  12.531  1.00  0.00     0.000 C 
BRANCH  20  21
ATOM     21  C   UNL     1      44.796  35.758  13.089  1.00  0.00     0.000 C 
BRANCH  21  22
ATOM     22  C   UNL     1      43.823  36.832  12.581  1.00  0.00    -0.000 C 
BRANCH  22  23
ATOM     23  C   UNL     1      42.638  36.195  11.839  1.00  0.00    -0.000 C 
BRANCH  23  24
ATOM     24  C   UNL     1      42.085  37.091  10.714  1.00  0.00    -0.000 C 
BRANCH  24  25
ATOM     25  C   UNL     1      42.689  38.508  10.656  1.00  0.00    -0.000 C 
BRANCH  25  26
ATOM     26  C   UNL     1      42.069  39.522  11.638  1.00  0.00    -0.000 C 
BRANCH  26  27
ATOM     27  C   UNL     1      40.568  39.283  11.911  1.00  0.00    -0.000 C 
BRANCH  27  28
ATOM     28  C   UNL     1      40.297  38.854  13.364  1.00  0.00    -0.000 C 
BRANCH  28  29
ATOM     29  C   UNL     1      39.137  37.853  13.476  1.00  0.00    -0.003 C 
ATOM     30  C   UNL     1      38.863  37.116  12.166  1.00  0.00     0.004 C 
ENDBRANCH  28  29
ENDBRANCH  27  28
ENDBRANCH  26  27
ENDBRANCH  25  26
ENDBRANCH  24  25
ENDBRANCH  23  24
ENDBRANCH  22  23
ENDBRANCH  21  22
ENDBRANCH  20  21
ENDBRANCH  19  20
ENDBRANCH  18  19
ENDBRANCH  17  18
ENDBRANCH   1  17
TORSDOF 26
ENDMDL
MODEL 9
REMARK VINA RESULT:    -5.113      4.422     12.311
REMARK INTER + INTRA:         -16.230
REMARK INTER:                 -14.358
REMARK INTRA:                  -1.872
REMARK UNBOUND:                -3.346
REMARK SMILES CCCCCCCCCCCCCCCCCCCCCCCCCCCC(=O)[O-]
REMARK SMILES IDX 15 1 16 2 17 3 18 4 19 5 20 6 21 7 22 8 23 9 24 10 25 11
REMARK SMILES IDX 26 12 27 13 28 14 29 15 30 16 14 17 13 18 12 19 11 20 10 21
REMARK SMILES IDX 9 22 8 23 7 24 6 25 5 26 4 27 3 28 2 29 1 30
REMARK H PARENT
REMARK Flexibility Score: inf
ROOT
ATOM      1  C   UNL     1      48.253  32.535  17.840  1.00  0.00     0.000 C 
ENDROOT
BRANCH   1   2
ATOM      2  C   UNL     1      49.499  31.645  17.625  1.00  0.00     0.000 C 
BRANCH   2   3
ATOM      3  C   UNL     1      49.265  30.457  16.669  1.00  0.00     0.000 C 
BRANCH   3   4
ATOM      4  C   UNL     1      48.213  29.438  17.140  1.00  0.00     0.000 C 
BRANCH   4   5
ATOM      5  C   UNL     1      48.168  28.175  16.261  1.00  0.00     0.000 C 
BRANCH   5   6
ATOM      6  C   UNL     1      49.483  27.382  16.302  1.00  0.00     0.000 C 
BRANCH   6   7
ATOM      7  C   UNL     1      49.267  25.877  16.506  1.00  0.00     0.000 C 
BRANCH   7   8
ATOM      8  C   UNL     1      48.713  25.594  17.911  1.00  0.00     0.000 C 
BRANCH   8   9
ATOM      9  C   UNL     1      49.813  25.503  18.978  1.00  0.00     0.000 C 
BRANCH   9  10
ATOM     10  C   UNL     1      49.403  26.159  20.308  1.00  0.00     0.000 C 
BRANCH  10  11
ATOM     11  C   UNL     1      49.391  25.163  21.479  1.00  0.00     0.000 C 
BRANCH  11  12
ATOM     12  C   UNL     1      50.248  25.636  22.666  1.00  0.00     0.006 C 
BRANCH  12  13
ATOM     13  C   UNL     1      51.296  26.676  22.245  1.00  0.00     0.053 C 
BRANCH  13  14
ATOM     14  C   UNL     1      52.633  26.050  21.988  1.00  0.00     0.041 C 
ATOM     15  O   UNL     1      52.934  25.648  20.833  1.00  0.00    -0.550 OA
ATOM     16  O   UNL     1      53.530  25.873  23.034  1.00  0.00    -0.550 OA
ENDBRANCH  13  14
ENDBRANCH  12  13
ENDBRANCH  11  12
ENDBRANCH  10  11
ENDBRANCH   9  10
ENDBRANCH   8   9
ENDBRANCH   7   8
ENDBRANCH   6   7
ENDBRANCH   5   6
ENDBRANCH   4   5
ENDBRANCH   3   4
ENDBRANCH   2   3
ENDBRANCH   1   2
BRANCH   1  17
ATOM     17  C   UNL     1      48.301  33.865  17.064  1.00  0.00     0.000 C 
BRANCH  17  18
ATOM     18  C   UNL     1      47.360  33.874  15.849  1.00  0.00     0.000 C 
BRANCH  18  19
ATOM     19  C   UNL     1      48.058  33.275  14.619  1.00  0.00     0.000 C 
BRANCH  19  20
ATOM     20  C   UNL     1      48.572  34.343  13.637  1.00  0.00     0.000 C 
BRANCH  20  21
ATOM     21  C   UNL     1      48.102  34.169  12.182  1.00  0.00     0.000 C 
BRANCH  21  22
ATOM     22  C   UNL     1      46.612  34.492  11.991  1.00  0.00    -0.000 C 
BRANCH  22  23
ATOM     23  C   UNL     1      46.217  35.750  12.779  1.00  0.00    -0.000 C 
BRANCH  23  24
ATOM     24  C   UNL     1      44.758  35.713  13.274  1.00  0.00    -0.000 C 
BRANCH  24  25
ATOM     25  C   UNL     1      43.705  36.102  12.218  1.00  0.00    -0.000 C 
BRANCH  25  26
ATOM     26  C   UNL     1      42.539  36.960  12.747  1.00  0.00    -0.000 C 
BRANCH  26  27
ATOM     27  C   UNL     1      41.341  37.048  11.775  1.00  0.00    -0.000 C 
BRANCH  27  28
ATOM     28  C   UNL     1      40.186  36.116  12.181  1.00  0.00    -0.000 C 
BRANCH  28  29
ATOM     29  C   UNL     1      39.542  35.416  10.975  1.00  0.00    -0.003 C 
ATOM     30  C   UNL     1      38.612  34.274  11.380  1.00  0.00     0.004 C 
ENDBRANCH  28  29
ENDBRANCH  27  28
ENDBRANCH  26  27
ENDBRANCH  25  26
ENDBRANCH  24  25
ENDBRANCH  23  24
ENDBRANCH  22  23
ENDBRANCH  21  22
ENDBRANCH  20  21
ENDBRANCH  19  20
ENDBRANCH  18  19
ENDBRANCH  17  18
ENDBRANCH   1  17
TORSDOF 26
ENDMDL
