MODEL 1
REMARK VINA RESULT:    -5.112      0.000      0.000
REMARK INTER + INTRA:          -7.857
REMARK INTER:                  -7.204
REMARK INTRA:                  -0.653
REMARK UNBOUND:                -0.653
REMARK SMILES CCCCCCCCC(=O)[O-]
REMARK SMILES IDX 6 1 7 2 8 3 9 4 10 5 11 6 5 7 4 8 3 9 2 10 1 11
REMARK H PARENT
REMARK Flexibility Score: inf
ROOT
ATOM      1  C   UNL     1      23.974  59.162  33.318  1.00  0.00     0.000 C 
ENDROOT
BRANCH   1   2
ATOM      2  C   UNL     1      24.078  58.733  34.791  1.00  0.00     0.006 C 
BRANCH   2   3
ATOM      3  C   UNL     1      22.708  58.448  35.421  1.00  0.00     0.053 C 
BRANCH   3   4
ATOM      4  C   UNL     1      22.406  59.453  36.488  1.00  0.00     0.041 C 
ATOM      5  O   UNL     1      21.355  59.353  37.173  1.00  0.00    -0.550 OA
ATOM      6  O   UNL     1      23.261  60.529  36.690  1.00  0.00    -0.550 OA
ENDBRANCH   3   4
ENDBRANCH   2   3
ENDBRANCH   1   2
BRANCH   1   7
ATOM      7  C   UNL     1      24.627  58.149  32.361  1.00  0.00     0.000 C 
BRANCH   7   8
ATOM      8  C   UNL     1      23.932  56.777  32.391  1.00  0.00    -0.000 C 
BRANCH   8   9
ATOM      9  C   UNL     1      22.569  56.787  31.681  1.00  0.00    -0.000 C 
BRANCH   9  10
ATOM     10  C   UNL     1      21.435  56.494  32.670  1.00  0.00    -0.003 C 
ATOM     11  C   UNL     1      20.427  57.639  32.709  1.00  0.00     0.004 C 
ENDBRANCH   9  10
ENDBRANCH   8   9
ENDBRANCH   7   8
ENDBRANCH   1   7
TORSDOF 7
ENDMDL
MODEL 2
REMARK VINA RESULT:    -5.012      1.027      2.640
REMARK INTER + INTRA:          -7.716
REMARK INTER:                  -7.064
REMARK INTRA:                  -0.652
REMARK UNBOUND:                -0.653
REMARK SMILES CCCCCCCCC(=O)[O-]
REMARK SMILES IDX 6 1 7 2 8 3 9 4 10 5 11 6 5 7 4 8 3 9 2 10 1 11
REMARK H PARENT
REMARK Flexibility Score: inf
ROOT
ATOM      1  C   UNL     1      21.134  58.525  34.164  1.00  0.00     0.000 C 
ENDROOT
BRANCH   1   2
ATOM      2  C   UNL     1      22.059  58.119  35.323  1.00  0.00     0.006 C 
BRANCH   2   3
ATOM      3  C   UNL     1      23.063  59.219  35.693  1.00  0.00     0.053 C 
BRANCH   3   4
ATOM      4  C   UNL     1      22.792  59.729  37.074  1.00  0.00     0.041 C 
ATOM      5  O   UNL     1      23.095  60.911  37.383  1.00  0.00    -0.550 OA
ATOM      6  O   UNL     1      22.251  58.883  38.033  1.00  0.00    -0.550 OA
ENDBRANCH   3   4
ENDBRANCH   2   3
ENDBRANCH   1   2
BRANCH   1   7
ATOM      7  C   UNL     1      21.112  57.482  33.034  1.00  0.00     0.000 C 
BRANCH   7   8
ATOM      8  C   UNL     1      22.443  56.721  32.907  1.00  0.00    -0.000 C 
BRANCH   8   9
ATOM      9  C   UNL     1      23.332  57.264  31.778  1.00  0.00    -0.000 C 
BRANCH   9  10
ATOM     10  C   UNL     1      24.723  57.631  32.305  1.00  0.00    -0.003 C 
ATOM     11  C   UNL     1      24.825  59.124  32.605  1.00  0.00     0.004 C 
ENDBRANCH   9  10
ENDBRANCH   8   9
ENDBRANCH   7   8
ENDBRANCH   1   7
TORSDOF 7
ENDMDL
MODEL 3
REMARK VINA RESULT:    -4.880      1.204      2.074
REMARK INTER + INTRA:          -7.530
REMARK INTER:                  -7.044
REMARK INTRA:                  -0.486
REMARK UNBOUND:                -0.653
REMARK SMILES CCCCCCCCC(=O)[O-]
REMARK SMILES IDX 6 1 7 2 8 3 9 4 10 5 11 6 5 7 4 8 3 9 2 10 1 11
REMARK H PARENT
REMARK Flexibility Score: inf
ROOT
ATOM      1  C   UNL     1      22.993  57.810  35.513  1.00  0.00     0.000 C 
ENDROOT
BRANCH   1   2
ATOM      2  C   UNL     1      21.896  58.755  36.029  1.00  0.00     0.006 C 
BRANCH   2   3
ATOM      3  C   UNL     1      21.881  58.866  37.559  1.00  0.00     0.053 C 
BRANCH   3   4
ATOM      4  C   UNL     1      22.645  60.074  38.002  1.00  0.00     0.041 C 
ATOM      5  O   UNL     1      23.095  60.885  37.152  1.00  0.00    -0.550 OA
ATOM      6  O   UNL     1      22.903  60.277  39.352  1.00  0.00    -0.550 OA
ENDBRANCH   3   4
ENDBRANCH   2   3
ENDBRANCH   1   2
BRANCH   1   7
ATOM      7  C   UNL     1      23.897  58.475  34.460  1.00  0.00     0.000 C 
BRANCH   7   8
ATOM      8  C   UNL     1      23.265  58.479  33.058  1.00  0.00    -0.000 C 
BRANCH   8   9
ATOM      9  C   UNL     1      23.596  57.212  32.254  1.00  0.00    -0.000 C 
BRANCH   9  10
ATOM     10  C   UNL     1      22.316  56.475  31.843  1.00  0.00    -0.003 C 
ATOM     11  C   UNL     1      21.081  57.134  32.449  1.00  0.00     0.004 C 
ENDBRANCH   9  10
ENDBRANCH   8   9
ENDBRANCH   7   8
ENDBRANCH   1   7
TORSDOF 7
ENDMDL
MODEL 4
REMARK VINA RESULT:    -4.778      2.135      3.331
REMARK INTER + INTRA:          -7.386
REMARK INTER:                  -6.629
REMARK INTRA:                  -0.757
REMARK UNBOUND:                -0.653
REMARK SMILES CCCCCCCCC(=O)[O-]
REMARK SMILES IDX 6 1 7 2 8 3 9 4 10 5 11 6 5 7 4 8 3 9 2 10 1 11
REMARK H PARENT
REMARK Flexibility Score: inf
ROOT
ATOM      1  C   UNL     1      21.614  58.480  35.050  1.00  0.00     0.000 C 
ENDROOT
BRANCH   1   2
ATOM      2  C   UNL     1      23.073  58.938  35.212  1.00  0.00     0.006 C 
BRANCH   2   3
ATOM      3  C   UNL     1      24.036  58.184  34.285  1.00  0.00     0.053 C 
BRANCH   3   4
ATOM      4  C   UNL     1      24.641  59.123  33.289  1.00  0.00     0.041 C 
ATOM      5  O   UNL     1      25.039  60.261  33.652  1.00  0.00    -0.550 OA
ATOM      6  O   UNL     1      24.721  58.760  31.950  1.00  0.00    -0.550 OA
ENDBRANCH   3   4
ENDBRANCH   2   3
ENDBRANCH   1   2
BRANCH   1   7
ATOM      7  C   UNL     1      21.072  58.731  33.632  1.00  0.00     0.000 C 
BRANCH   7   8
ATOM      8  C   UNL     1      20.586  57.441  32.950  1.00  0.00    -0.000 C 
BRANCH   8   9
ATOM      9  C   UNL     1      21.347  57.134  31.651  1.00  0.00    -0.000 C 
BRANCH   9  10
ATOM     10  C   UNL     1      22.409  56.054  31.882  1.00  0.00    -0.003 C 
ATOM     11  C   UNL     1      22.053  55.176  33.079  1.00  0.00     0.004 C 
ENDBRANCH   9  10
ENDBRANCH   8   9
ENDBRANCH   7   8
ENDBRANCH   1   7
TORSDOF 7
ENDMDL
MODEL 5
REMARK VINA RESULT:    -4.726      2.716      4.473
REMARK INTER + INTRA:          -7.313
REMARK INTER:                  -6.805
REMARK INTRA:                  -0.509
REMARK UNBOUND:                -0.653
REMARK SMILES CCCCCCCCC(=O)[O-]
REMARK SMILES IDX 6 1 7 2 8 3 9 4 10 5 11 6 5 7 4 8 3 9 2 10 1 11
REMARK H PARENT
REMARK Flexibility Score: inf
ROOT
ATOM      1  C   UNL     1      21.408  58.522  35.003  1.00  0.00     0.000 C 
ENDROOT
BRANCH   1   2
ATOM      2  C   UNL     1      21.349  58.575  33.468  1.00  0.00     0.006 C 
BRANCH   2   3
ATOM      3  C   UNL     1      20.629  57.363  32.861  1.00  0.00     0.053 C 
BRANCH   3   4
ATOM      4  C   UNL     1      21.610  56.276  32.552  1.00  0.00     0.041 C 
ATOM      5  O   UNL     1      22.049  56.132  31.382  1.00  0.00    -0.550 OA
ATOM      6  O   UNL     1      22.001  55.389  33.548  1.00  0.00    -0.550 OA
ENDBRANCH   3   4
ENDBRANCH   2   3
ENDBRANCH   1   2
BRANCH   1   7
ATOM      7  C   UNL     1      22.814  58.824  35.550  1.00  0.00     0.000 C 
BRANCH   7   8
ATOM      8  C   UNL     1      23.926  58.474  34.546  1.00  0.00    -0.000 C 
BRANCH   8   9
ATOM      9  C   UNL     1      24.499  59.712  33.841  1.00  0.00    -0.000 C 
BRANCH   9  10
ATOM     10  C   UNL     1      25.185  59.324  32.526  1.00  0.00    -0.003 C 
ATOM     11  C   UNL     1      24.863  57.883  32.140  1.00  0.00     0.004 C 
ENDBRANCH   9  10
ENDBRANCH   8   9
ENDBRANCH   7   8
ENDBRANCH   1   7
TORSDOF 7
ENDMDL
MODEL 6
REMARK VINA RESULT:    -4.605      1.674      3.216
REMARK INTER + INTRA:          -7.142
REMARK INTER:                  -6.853
REMARK INTRA:                  -0.289
REMARK UNBOUND:                -0.653
REMARK SMILES CCCCCCCCC(=O)[O-]
REMARK SMILES IDX 6 1 7 2 8 3 9 4 10 5 11 6 5 7 4 8 3 9 2 10 1 11
REMARK H PARENT
REMARK Flexibility Score: inf
ROOT
ATOM      1  C   UNL     1      21.433  58.837  35.563  1.00  0.00     0.000 C 
ENDROOT
BRANCH   1   2
ATOM      2  C   UNL     1      22.141  58.377  36.847  1.00  0.00     0.006 C 
BRANCH   2   3
ATOM      3  C   UNL     1      21.630  59.104  38.098  1.00  0.00     0.053 C 
BRANCH   3   4
ATOM      4  C   UNL     1      22.576  60.196  38.489  1.00  0.00     0.041 C 
ATOM      5  O   UNL     1      22.878  60.370  39.699  1.00  0.00    -0.550 OA
ATOM      6  O   UNL     1      23.087  61.052  37.522  1.00  0.00    -0.550 OA
ENDBRANCH   3   4
ENDBRANCH   2   3
ENDBRANCH   1   2
BRANCH   1   7
ATOM      7  C   UNL     1      21.892  58.050  34.322  1.00  0.00     0.000 C 
BRANCH   7   8
ATOM      8  C   UNL     1      23.422  57.931  34.232  1.00  0.00    -0.000 C 
BRANCH   8   9
ATOM      9  C   UNL     1      24.107  59.281  33.966  1.00  0.00    -0.000 C 
BRANCH   9  10
ATOM     10  C   UNL     1      24.924  59.233  32.670  1.00  0.00    -0.003 C 
ATOM     11  C   UNL     1      24.868  57.848  32.032  1.00  0.00     0.004 C 
ENDBRANCH   9  10
ENDBRANCH   8   9
ENDBRANCH   7   8
ENDBRANCH   1   7
TORSDOF 7
ENDMDL
MODEL 7
REMARK VINA RESULT:    -4.435      2.557      4.945
REMARK INTER + INTRA:          -6.902
REMARK INTER:                  -6.473
REMARK INTRA:                  -0.429
REMARK UNBOUND:                -0.653
REMARK SMILES CCCCCCCCC(=O)[O-]
REMARK SMILES IDX 6 1 7 2 8 3 9 4 10 5 11 6 5 7 4 8 3 9 2 10 1 11
REMARK H PARENT
REMARK Flexibility Score: inf
ROOT
ATOM      1  C   UNL     1      24.002  57.971  34.202  1.00  0.00     0.000 C 
ENDROOT
BRANCH   1   2
ATOM      2  C   UNL     1      23.417  58.132  32.790  1.00  0.00     0.006 C 
BRANCH   2   3
ATOM      3  C   UNL     1      22.981  56.796  32.174  1.00  0.00     0.053 C 
BRANCH   3   4
ATOM      4  C   UNL     1      21.757  56.279  32.865  1.00  0.00     0.041 C 
ATOM      5  O   UNL     1      21.733  55.105  33.316  1.00  0.00    -0.550 OA
ATOM      6  O   UNL     1      20.626  57.079  32.966  1.00  0.00    -0.550 OA
ENDBRANCH   3   4
ENDBRANCH   2   3
ENDBRANCH   1   2
BRANCH   1   7
ATOM      7  C   UNL     1      23.502  59.053  35.175  1.00  0.00     0.000 C 
BRANCH   7   8
ATOM      8  C   UNL     1      22.091  58.757  35.711  1.00  0.00    -0.000 C 
BRANCH   8   9
ATOM      9  C   UNL     1      21.954  59.050  37.213  1.00  0.00    -0.000 C 
BRANCH   9  10
ATOM     10  C   UNL     1      22.960  60.118  37.656  1.00  0.00    -0.003 C 
ATOM     11  C   UNL     1      22.709  60.548  39.098  1.00  0.00     0.004 C 
ENDBRANCH   9  10
ENDBRANCH   8   9
ENDBRANCH   7   8
ENDBRANCH   1   7
TORSDOF 7
ENDMDL
MODEL 8
REMARK VINA RESULT:    -4.301      2.817      5.067
REMARK INTER + INTRA:          -6.714
REMARK INTER:                  -6.389
REMARK INTRA:                  -0.325
REMARK UNBOUND:                -0.653
REMARK SMILES CCCCCCCCC(=O)[O-]
REMARK SMILES IDX 6 1 7 2 8 3 9 4 10 5 11 6 5 7 4 8 3 9 2 10 1 11
REMARK H PARENT
REMARK Flexibility Score: inf
ROOT
ATOM      1  C   UNL     1      21.471  58.570  34.855  1.00  0.00     0.000 C 
ENDROOT
BRANCH   1   2
ATOM      2  C   UNL     1      22.316  58.404  33.582  1.00  0.00     0.006 C 
BRANCH   2   3
ATOM      3  C   UNL     1      23.802  58.168  33.884  1.00  0.00     0.053 C 
BRANCH   3   4
ATOM      4  C   UNL     1      24.641  59.210  33.214  1.00  0.00     0.041 C 
ATOM      5  O   UNL     1      24.937  60.272  33.822  1.00  0.00    -0.550 OA
ATOM      6  O   UNL     1      25.056  59.030  31.901  1.00  0.00    -0.550 OA
ENDBRANCH   3   4
ENDBRANCH   2   3
ENDBRANCH   1   2
BRANCH   1   7
ATOM      7  C   UNL     1      22.334  58.712  36.121  1.00  0.00     0.000 C 
BRANCH   7   8
ATOM      8  C   UNL     1      21.492  58.949  37.386  1.00  0.00    -0.000 C 
BRANCH   8   9
ATOM      9  C   UNL     1      21.412  57.706  38.286  1.00  0.00    -0.000 C 
BRANCH   9  10
ATOM     10  C   UNL     1      20.523  57.972  39.506  1.00  0.00    -0.003 C 
ATOM     11  C   UNL     1      19.482  59.047  39.207  1.00  0.00     0.004 C 
ENDBRANCH   9  10
ENDBRANCH   8   9
ENDBRANCH   7   8
ENDBRANCH   1   7
TORSDOF 7
ENDMDL
MODEL 9
REMARK VINA RESULT:    -4.242     11.775     13.589
REMARK INTER + INTRA:          -6.631
REMARK INTER:                  -6.158
REMARK INTRA:                  -0.473
REMARK UNBOUND:                -0.653
REMARK SMILES CCCCCCCCC(=O)[O-]
REMARK SMILES IDX 6 1 7 2 8 3 9 4 10 5 11 6 5 7 4 8 3 9 2 10 1 11
REMARK H PARENT
REMARK Flexibility Score: inf
ROOT
ATOM      1  C   UNL     1      34.854  57.333  26.786  1.00  0.00     0.000 C 
ENDROOT
BRANCH   1   2
ATOM      2  C   UNL     1      33.574  56.525  26.515  1.00  0.00     0.006 C 
BRANCH   2   3
ATOM      3  C   UNL     1      33.256  55.528  27.638  1.00  0.00     0.053 C 
BRANCH   3   4
ATOM      4  C   UNL     1      31.839  55.059  27.532  1.00  0.00     0.041 C 
ATOM      5  O   UNL     1      30.901  55.893  27.437  1.00  0.00    -0.550 OA
ATOM      6  O   UNL     1      31.550  53.701  27.587  1.00  0.00    -0.550 OA
ENDBRANCH   3   4
ENDBRANCH   2   3
ENDBRANCH   1   2
BRANCH   1   7
ATOM      7  C   UNL     1      35.970  56.478  27.411  1.00  0.00     0.000 C 
BRANCH   7   8
ATOM      8  C   UNL     1      36.840  57.274  28.399  1.00  0.00    -0.000 C 
BRANCH   8   9
ATOM      9  C   UNL     1      36.006  58.090  29.399  1.00  0.00    -0.000 C 
BRANCH   9  10
ATOM     10  C   UNL     1      35.254  57.167  30.364  1.00  0.00    -0.003 C 
ATOM     11  C   UNL     1      35.069  57.826  31.728  1.00  0.00     0.004 C 
ENDBRANCH   9  10
ENDBRANCH   8   9
ENDBRANCH   7   8
ENDBRANCH   1   7
TORSDOF 7
ENDMDL
