MODEL 1
REMARK VINA RESULT:    -3.827      0.000      0.000
REMARK INTER + INTRA:          -3.827
REMARK INTER:                  -3.827
REMARK INTRA:                   0.000
REMARK UNBOUND:                 0.000
REMARK SMILES O=C1CCCCC1
REMARK SMILES IDX 5 1 4 2 3 3 2 4 1 5 7 6 6 7
REMARK H PARENT
REMARK Flexibility Score: inf
ROOT
ATOM      1  C   UNL     1      15.725  41.327 -13.666  1.00  0.00     0.001 C 
ATOM      2  C   UNL     1      16.152  42.384 -14.697  1.00  0.00     0.008 C 
ATOM      3  C   UNL     1      14.967  43.255 -15.131  1.00  0.00     0.075 C 
ATOM      4  C   UNL     1      14.242  43.790 -13.926  1.00  0.00     0.132 C 
ATOM      5  O   UNL     1      13.875  44.954 -13.895  1.00  0.00    -0.300 OA
ATOM      6  C   UNL     1      13.890  42.852 -12.805  1.00  0.00     0.075 C 
ATOM      7  C   UNL     1      15.103  41.991 -12.428  1.00  0.00     0.008 C 
ENDROOT
TORSDOF 0
ENDMDL
MODEL 2
REMARK VINA RESULT:    -3.786      1.546      2.702
REMARK INTER + INTRA:          -3.786
REMARK INTER:                  -3.786
REMARK INTRA:                   0.000
REMARK UNBOUND:                 0.000
REMARK SMILES O=C1CCCCC1
REMARK SMILES IDX 5 1 4 2 3 3 2 4 1 5 7 6 6 7
REMARK H PARENT
REMARK Flexibility Score: inf
ROOT
ATOM      1  C   UNL     1      13.875  42.673 -12.684  1.00  0.00     0.001 C 
ATOM      2  C   UNL     1      15.229  41.993 -12.427  1.00  0.00     0.008 C 
ATOM      3  C   UNL     1      15.855  41.481 -13.730  1.00  0.00     0.075 C 
ATOM      4  C   UNL     1      15.871  42.572 -14.767  1.00  0.00     0.132 C 
ATOM      5  O   UNL     1      16.859  42.746 -15.462  1.00  0.00    -0.300 OA
ATOM      6  C   UNL     1      14.623  43.377 -15.003  1.00  0.00     0.075 C 
ATOM      7  C   UNL     1      14.027  43.843 -13.668  1.00  0.00     0.008 C 
ENDROOT
TORSDOF 0
ENDMDL
MODEL 3
REMARK VINA RESULT:    -3.377      1.873      3.118
REMARK INTER + INTRA:          -3.377
REMARK INTER:                  -3.377
REMARK INTRA:                   0.000
REMARK UNBOUND:                 0.000
REMARK SMILES O=C1CCCCC1
REMARK SMILES IDX 5 1 4 2 3 3 2 4 1 5 7 6 6 7
REMARK H PARENT
REMARK Flexibility Score: inf
ROOT
ATOM      1  C   UNL     1      14.595  43.208 -15.121  1.00  0.00     0.001 C 
ATOM      2  C   UNL     1      14.098  43.514 -13.699  1.00  0.00     0.008 C 
ATOM      3  C   UNL     1      14.278  42.307 -12.771  1.00  0.00     0.075 C 
ATOM      4  C   UNL     1      15.687  41.784 -12.860  1.00  0.00     0.132 C 
ATOM      5  O   UNL     1      16.290  41.464 -11.848  1.00  0.00    -0.300 OA
ATOM      6  C   UNL     1      16.306  41.570 -14.214  1.00  0.00     0.075 C 
ATOM      7  C   UNL     1      16.075  42.796 -15.107  1.00  0.00     0.008 C 
ENDROOT
TORSDOF 0
ENDMDL
MODEL 4
REMARK VINA RESULT:    -3.300     13.284     14.148
REMARK INTER + INTRA:          -3.300
REMARK INTER:                  -3.300
REMARK INTRA:                   0.000
REMARK UNBOUND:                 0.000
REMARK SMILES O=C1CCCCC1
REMARK SMILES IDX 5 1 4 2 3 3 2 4 1 5 7 6 6 7
REMARK H PARENT
REMARK Flexibility Score: inf
ROOT
ATOM      1  C   UNL     1      17.650  44.053  -0.005  1.00  0.00     0.001 C 
ATOM      2  C   UNL     1      17.284  45.335  -0.770  1.00  0.00     0.008 C 
ATOM      3  C   UNL     1      15.784  45.391  -1.083  1.00  0.00     0.075 C 
ATOM      4  C   UNL     1      14.979  45.134   0.162  1.00  0.00     0.132 C 
ATOM      5  O   UNL     1      13.995  45.814   0.411  1.00  0.00    -0.300 OA
ATOM      6  C   UNL     1      15.343  43.972   1.044  1.00  0.00     0.075 C 
ATOM      7  C   UNL     1      16.854  43.951   1.305  1.00  0.00     0.008 C 
ENDROOT
TORSDOF 0
ENDMDL
MODEL 5
REMARK VINA RESULT:    -3.279     13.374     14.325
REMARK INTER + INTRA:          -3.279
REMARK INTER:                  -3.279
REMARK INTRA:                   0.000
REMARK UNBOUND:                 0.000
REMARK SMILES O=C1CCCCC1
REMARK SMILES IDX 5 1 4 2 3 3 2 4 1 5 7 6 6 7
REMARK H PARENT
REMARK Flexibility Score: inf
ROOT
ATOM      1  C   UNL     1      14.749  45.308   0.385  1.00  0.00     0.001 C 
ATOM      2  C   UNL     1      15.466  45.370  -0.973  1.00  0.00     0.008 C 
ATOM      3  C   UNL     1      16.988  45.291  -0.807  1.00  0.00     0.075 C 
ATOM      4  C   UNL     1      17.360  44.120   0.063  1.00  0.00     0.132 C 
ATOM      5  O   UNL     1      18.299  43.400  -0.241  1.00  0.00    -0.300 OA
ATOM      6  C   UNL     1      16.625  43.905   1.357  1.00  0.00     0.075 C 
ATOM      7  C   UNL     1      15.111  44.018   1.137  1.00  0.00     0.008 C 
ENDROOT
TORSDOF 0
ENDMDL
MODEL 6
REMARK VINA RESULT:    -3.278     13.052     13.950
REMARK INTER + INTRA:          -3.278
REMARK INTER:                  -3.278
REMARK INTRA:                   0.000
REMARK UNBOUND:                 0.000
REMARK SMILES O=C1CCCCC1
REMARK SMILES IDX 5 1 4 2 3 3 2 4 1 5 7 6 6 7
REMARK H PARENT
REMARK Flexibility Score: inf
ROOT
ATOM      1  C   UNL     1      16.903  43.901   1.269  1.00  0.00     0.001 C 
ATOM      2  C   UNL     1      15.399  43.894   0.951  1.00  0.00     0.008 C 
ATOM      3  C   UNL     1      14.977  45.168   0.209  1.00  0.00     0.075 C 
ATOM      4  C   UNL     1      15.881  45.411  -0.969  1.00  0.00     0.132 C 
ATOM      5  O   UNL     1      15.414  45.757  -2.043  1.00  0.00    -0.300 OA
ATOM      6  C   UNL     1      17.370  45.317  -0.783  1.00  0.00     0.075 C 
ATOM      7  C   UNL     1      17.733  44.039  -0.016  1.00  0.00     0.008 C 
ENDROOT
TORSDOF 0
ENDMDL
MODEL 7
REMARK VINA RESULT:    -3.215     12.963     14.122
REMARK INTER + INTRA:          -3.215
REMARK INTER:                  -3.215
REMARK INTRA:                   0.000
REMARK UNBOUND:                 0.000
REMARK SMILES O=C1CCCCC1
REMARK SMILES IDX 5 1 4 2 3 3 2 4 1 5 7 6 6 7
REMARK H PARENT
REMARK Flexibility Score: inf
ROOT
ATOM      1  C   UNL     1      13.960  44.814   0.378  1.00  0.00     0.001 C 
ATOM      2  C   UNL     1      15.123  44.621   1.364  1.00  0.00     0.008 C 
ATOM      3  C   UNL     1      16.402  44.180   0.642  1.00  0.00     0.075 C 
ATOM      4  C   UNL     1      16.689  45.093  -0.519  1.00  0.00     0.132 C 
ATOM      5  O   UNL     1      17.828  45.483  -0.729  1.00  0.00    -0.300 OA
ATOM      6  C   UNL     1      15.579  45.441  -1.471  1.00  0.00     0.075 C 
ATOM      7  C   UNL     1      14.320  45.851  -0.696  1.00  0.00     0.008 C 
ENDROOT
TORSDOF 0
ENDMDL
MODEL 8
REMARK VINA RESULT:    -3.182     13.414     14.378
REMARK INTER + INTRA:          -3.182
REMARK INTER:                  -3.182
REMARK INTRA:                   0.000
REMARK UNBOUND:                 0.000
REMARK SMILES O=C1CCCCC1
REMARK SMILES IDX 5 1 4 2 3 3 2 4 1 5 7 6 6 7
REMARK H PARENT
REMARK Flexibility Score: inf
ROOT
ATOM      1  C   UNL     1      17.278  45.361  -0.776  1.00  0.00     0.001 C 
ATOM      2  C   UNL     1      17.641  44.051  -0.060  1.00  0.00     0.008 C 
ATOM      3  C   UNL     1      16.811  43.862   1.216  1.00  0.00     0.075 C 
ATOM      4  C   UNL     1      15.348  44.049   0.921  1.00  0.00     0.132 C 
ATOM      5  O   UNL     1      14.521  43.285   1.396  1.00  0.00    -0.300 OA
ATOM      6  C   UNL     1      14.907  45.240   0.117  1.00  0.00     0.075 C 
ATOM      7  C   UNL     1      15.784  45.395  -1.133  1.00  0.00     0.008 C 
ENDROOT
TORSDOF 0
ENDMDL
MODEL 9
REMARK VINA RESULT:    -3.162     27.913     28.323
REMARK INTER + INTRA:          -3.162
REMARK INTER:                  -3.162
REMARK INTRA:                   0.000
REMARK UNBOUND:                 0.000
REMARK SMILES O=C1CCCCC1
REMARK SMILES IDX 5 1 4 2 3 3 2 4 1 5 7 6 6 7
REMARK H PARENT
REMARK Flexibility Score: inf
ROOT
ATOM      1  C   UNL     1      31.905  57.610   0.129  1.00  0.00     0.001 C 
ATOM      2  C   UNL     1      31.852  56.931   1.506  1.00  0.00     0.008 C 
ATOM      3  C   UNL     1      33.191  57.057   2.244  1.00  0.00     0.075 C 
ATOM      4  C   UNL     1      33.652  58.489   2.252  1.00  0.00     0.132 C 
ATOM      5  O   UNL     1      34.118  58.981   3.268  1.00  0.00    -0.300 OA
ATOM      6  C   UNL     1      33.622  59.276   0.971  1.00  0.00     0.075 C 
ATOM      7  C   UNL     1      32.272  59.096   0.264  1.00  0.00     0.008 C 
ENDROOT
TORSDOF 0
ENDMDL
