MODEL 1
REMARK VINA RESULT:    -3.752      0.000      0.000
REMARK INTER + INTRA:          -6.104
REMARK INTER:                  -5.725
REMARK INTRA:                  -0.379
REMARK UNBOUND:                -0.379
REMARK SMILES CC1=CCC[C@@H](C)C(=O)C[C@@H](C(C)C)C(=O)C1
REMARK SMILES IDX 8 1 9 2 6 3 7 4 5 5 4 6 3 7 2 8 1 9 10 11 11 12 15 13 16 14
REMARK SMILES IDX 17 15 12 17 13 18 14 19
REMARK H PARENT
REMARK Flexibility Score: 70.00
ROOT
ATOM      1  C   UNL     1      18.724 -23.929 -25.172  1.00  0.00     0.136 C 
ATOM      2  O   UNL     1      18.279 -25.011 -25.525  1.00  0.00    -0.299 OA
ENDROOT
BRANCH   1   3
ATOM      3  C   UNL     1      18.374 -22.694 -25.986  1.00  0.00     0.053 C 
ATOM      4  C   UNL     1      19.255 -21.514 -25.564  1.00  0.00     0.016 C 
BRANCH   3   5
ATOM      5  C   UNL     1      16.880 -22.327 -25.889  1.00  0.00     0.015 C 
BRANCH   5   6
ATOM      6  C   UNL     1      16.614 -21.276 -24.796  1.00  0.00     0.028 C 
BRANCH   6   7
ATOM      7  C   UNL     1      15.863 -21.835 -23.614  1.00  0.00    -0.028 C 
ATOM      8  C   UNL     1      16.420 -22.313 -22.472  1.00  0.00    -0.070 CG0
ATOM      9  C   UNL     1      15.489 -22.933 -21.458  1.00  0.00     0.039 C 
ATOM     10  G   UNL     1      17.903 -22.202 -22.125  1.00  0.00     0.000 G0
ENDBRANCH   6   7
ENDBRANCH   5   6
ENDBRANCH   3   5
ENDBRANCH   1   3
BRANCH   1  11
ATOM     11  C   UNL     1      19.658 -23.878 -23.983  1.00  0.00     0.087 C 
BRANCH  11  12
ATOM     12  C   UNL     1      19.054 -24.539 -22.712  1.00  0.00     0.066 C 
BRANCH  12  13
ATOM     13  C   UNL     1      18.527 -23.537 -21.689  1.00  0.00     0.140 C 
ATOM     14  O   UNL     1      18.729 -23.755 -20.503  1.00  0.00    -0.299 OA
BRANCH  13  15
ATOM     15  C   UNL     1      17.907 -22.216 -22.083  1.00  0.00     0.106 CG0
ATOM     16  G   UNL     1      16.434 -22.306 -22.472  1.00  0.00     0.000 G0
ENDBRANCH  13  15
ENDBRANCH  12  13
BRANCH  12  17
ATOM     17  C   UNL     1      20.000 -25.586 -22.039  1.00  0.00    -0.006 C 
ATOM     18  C   UNL     1      20.038 -26.904 -22.831  1.00  0.00     0.008 C 
ATOM     19  C   UNL     1      21.436 -25.083 -21.809  1.00  0.00     0.008 C 
ENDBRANCH  12  17
ENDBRANCH  11  12
ENDBRANCH   1  11
TORSDOF 1
ENDMDL
MODEL 2
REMARK VINA RESULT:    -3.730      2.172      3.549
REMARK INTER + INTRA:          -6.071
REMARK INTER:                  -5.435
REMARK INTRA:                  -0.636
REMARK UNBOUND:                -0.379
REMARK SMILES CC1=CCC[C@@H](C)C(=O)C[C@@H](C(C)C)C(=O)C1
REMARK SMILES IDX 8 1 9 2 6 3 7 4 5 5 4 6 3 7 2 8 1 9 10 11 11 12 15 13 16 14
REMARK SMILES IDX 17 15 12 17 13 18 14 19
REMARK H PARENT
REMARK Flexibility Score: 70.00
ROOT
ATOM      1  C   UNL     1      18.954 -22.241 -24.560  1.00  0.00     0.136 C 
ATOM      2  O   UNL     1      19.635 -21.939 -25.530  1.00  0.00    -0.299 OA
ENDROOT
BRANCH   1   3
ATOM      3  C   UNL     1      18.690 -23.711 -24.282  1.00  0.00     0.053 C 
ATOM      4  C   UNL     1      19.980 -24.408 -23.838  1.00  0.00     0.016 C 
BRANCH   3   5
ATOM      5  C   UNL     1      18.062 -24.437 -25.488  1.00  0.00     0.015 C 
BRANCH   5   6
ATOM      6  C   UNL     1      16.808 -23.712 -26.009  1.00  0.00     0.028 C 
BRANCH   6   7
ATOM      7  C   UNL     1      15.567 -24.042 -25.219  1.00  0.00    -0.028 C 
ATOM      8  C   UNL     1      14.938 -23.217 -24.343  1.00  0.00    -0.070 CG0
ATOM      9  C   UNL     1      13.774 -23.789 -23.571  1.00  0.00     0.039 C 
ATOM     10  G   UNL     1      15.290 -21.745 -24.143  1.00  0.00     0.000 G0
ENDBRANCH   6   7
ENDBRANCH   5   6
ENDBRANCH   3   5
ENDBRANCH   1   3
BRANCH   1  11
ATOM     11  C   UNL     1      18.348 -21.136 -23.723  1.00  0.00     0.087 C 
BRANCH  11  12
ATOM     12  C   UNL     1      17.438 -21.673 -22.583  1.00  0.00     0.066 C 
BRANCH  12  13
ATOM     13  C   UNL     1      15.951 -21.417 -22.812  1.00  0.00     0.140 C 
ATOM     14  O   UNL     1      15.321 -20.828 -21.945  1.00  0.00    -0.299 OA
BRANCH  13  15
ATOM     15  C   UNL     1      15.262 -21.719 -24.122  1.00  0.00     0.106 CG0
ATOM     16  G   UNL     1      14.938 -23.196 -24.335  1.00  0.00     0.000 G0
ENDBRANCH  13  15
ENDBRANCH  12  13
BRANCH  12  17
ATOM     17  C   UNL     1      17.876 -21.207 -21.157  1.00  0.00    -0.006 C 
ATOM     18  C   UNL     1      18.764 -22.257 -20.468  1.00  0.00     0.008 C 
ATOM     19  C   UNL     1      18.582 -19.839 -21.129  1.00  0.00     0.008 C 
ENDBRANCH  12  17
ENDBRANCH  11  12
ENDBRANCH   1  11
TORSDOF 1
ENDMDL
MODEL 3
REMARK VINA RESULT:    -3.710      2.415      3.379
REMARK INTER + INTRA:          -6.041
REMARK INTER:                  -5.610
REMARK INTRA:                  -0.431
REMARK UNBOUND:                -0.379
REMARK SMILES CC1=CCC[C@@H](C)C(=O)C[C@@H](C(C)C)C(=O)C1
REMARK SMILES IDX 8 1 9 2 6 3 7 4 5 5 4 6 3 7 2 8 1 9 10 11 11 12 15 13 16 14
REMARK SMILES IDX 17 15 12 17 13 18 14 19
REMARK H PARENT
REMARK Flexibility Score: 70.00
ROOT
ATOM      1  C   UNL     1      17.681 -21.688 -24.746  1.00  0.00     0.136 C 
ATOM      2  O   UNL     1      17.532 -20.649 -25.373  1.00  0.00    -0.299 OA
ENDROOT
BRANCH   1   3
ATOM      3  C   UNL     1      18.663 -22.723 -25.269  1.00  0.00     0.053 C 
ATOM      4  C   UNL     1      19.909 -22.034 -25.836  1.00  0.00     0.016 C 
BRANCH   3   5
ATOM      5  C   UNL     1      18.030 -23.661 -26.316  1.00  0.00     0.015 C 
BRANCH   5   6
ATOM      6  C   UNL     1      17.653 -25.027 -25.715  1.00  0.00     0.028 C 
BRANCH   6   7
ATOM      7  C   UNL     1      16.187 -25.136 -25.378  1.00  0.00    -0.028 C 
ATOM      8  C   UNL     1      15.669 -25.365 -24.144  1.00  0.00    -0.070 CG0
ATOM      9  C   UNL     1      14.174 -25.551 -24.048  1.00  0.00     0.039 C 
ATOM     10  G   UNL     1      16.487 -25.379 -22.856  1.00  0.00     0.000 G0
ENDBRANCH   6   7
ENDBRANCH   5   6
ENDBRANCH   3   5
ENDBRANCH   1   3
BRANCH   1  11
ATOM     11  C   UNL     1      16.832 -21.925 -23.516  1.00  0.00     0.087 C 
BRANCH  11  12
ATOM     12  C   UNL     1      17.477 -22.932 -22.523  1.00  0.00     0.066 C 
BRANCH  12  13
ATOM     13  C   UNL     1      16.546 -24.068 -22.108  1.00  0.00     0.140 C 
ATOM     14  O   UNL     1      15.724 -23.855 -21.228  1.00  0.00    -0.299 OA
BRANCH  13  15
ATOM     15  C   UNL     1      16.493 -25.389 -22.840  1.00  0.00     0.106 CG0
ATOM     16  G   UNL     1      15.678 -25.359 -24.130  1.00  0.00     0.000 G0
ENDBRANCH  13  15
ENDBRANCH  12  13
BRANCH  12  17
ATOM     17  C   UNL     1      18.127 -22.252 -21.274  1.00  0.00    -0.006 C 
ATOM     18  C   UNL     1      19.120 -23.194 -20.572  1.00  0.00     0.008 C 
ATOM     19  C   UNL     1      18.816 -20.908 -21.573  1.00  0.00     0.008 C 
ENDBRANCH  12  17
ENDBRANCH  11  12
ENDBRANCH   1  11
TORSDOF 1
ENDMDL
MODEL 4
REMARK VINA RESULT:    -3.564      1.709      2.273
REMARK INTER + INTRA:          -5.819
REMARK INTER:                  -5.775
REMARK INTRA:                  -0.043
REMARK UNBOUND:                -0.379
REMARK SMILES CC1=CCC[C@@H](C)C(=O)C[C@@H](C(C)C)C(=O)C1
REMARK SMILES IDX 8 1 9 2 6 3 7 4 5 5 4 6 3 7 2 8 1 9 10 11 11 12 15 13 16 14
REMARK SMILES IDX 17 15 12 17 13 18 14 19
REMARK H PARENT
REMARK Flexibility Score: 70.00
ROOT
ATOM      1  C   UNL     1      17.653 -22.487 -26.212  1.00  0.00     0.136 C 
ATOM      2  O   UNL     1      17.862 -23.562 -26.756  1.00  0.00    -0.299 OA
ENDROOT
BRANCH   1   3
ATOM      3  C   UNL     1      16.452 -21.667 -26.652  1.00  0.00     0.053 C 
ATOM      4  C   UNL     1      16.602 -20.215 -26.187  1.00  0.00     0.016 C 
BRANCH   3   5
ATOM      5  C   UNL     1      15.118 -22.265 -26.164  1.00  0.00     0.015 C 
BRANCH   5   6
ATOM      6  C   UNL     1      14.671 -21.662 -24.820  1.00  0.00     0.028 C 
BRANCH   6   7
ATOM      7  C   UNL     1      14.756 -22.643 -23.679  1.00  0.00    -0.028 C 
ATOM      8  C   UNL     1      15.573 -22.539 -22.599  1.00  0.00    -0.070 CG0
ATOM      9  C   UNL     1      15.580 -23.693 -21.626  1.00  0.00     0.039 C 
ATOM     10  G   UNL     1      16.422 -21.312 -22.277  1.00  0.00     0.000 G0
ENDBRANCH   6   7
ENDBRANCH   5   6
ENDBRANCH   3   5
ENDBRANCH   1   3
BRANCH   1  11
ATOM     11  C   UNL     1      18.638 -21.991 -25.177  1.00  0.00     0.087 C 
BRANCH  11  12
ATOM     12  C   UNL     1      18.318 -22.503 -23.745  1.00  0.00     0.066 C 
BRANCH  12  13
ATOM     13  C   UNL     1      17.858 -21.406 -22.788  1.00  0.00     0.140 C 
ATOM     14  O   UNL     1      18.632 -20.495 -22.532  1.00  0.00    -0.299 OA
BRANCH  13  15
ATOM     15  C   UNL     1      16.442 -21.316 -22.270  1.00  0.00     0.106 CG0
ATOM     16  G   UNL     1      15.571 -22.522 -22.611  1.00  0.00     0.000 G0
ENDBRANCH  13  15
ENDBRANCH  12  13
BRANCH  12  17
ATOM     17  C   UNL     1      19.465 -23.357 -23.112  1.00  0.00    -0.006 C 
ATOM     18  C   UNL     1      19.150 -23.734 -21.655  1.00  0.00     0.008 C 
ATOM     19  C   UNL     1      19.818 -24.627 -23.907  1.00  0.00     0.008 C 
ENDBRANCH  12  17
ENDBRANCH  11  12
ENDBRANCH   1  11
TORSDOF 1
ENDMDL
MODEL 5
REMARK VINA RESULT:    -3.500      1.462      2.043
REMARK INTER + INTRA:          -5.721
REMARK INTER:                  -5.616
REMARK INTRA:                  -0.105
REMARK UNBOUND:                -0.379
REMARK SMILES CC1=CCC[C@@H](C)C(=O)C[C@@H](C(C)C)C(=O)C1
REMARK SMILES IDX 8 1 9 2 6 3 7 4 5 5 4 6 3 7 2 8 1 9 10 11 11 12 15 13 16 14
REMARK SMILES IDX 17 15 12 17 13 18 14 19
REMARK H PARENT
REMARK Flexibility Score: 70.00
ROOT
ATOM      1  C   UNL     1      19.228 -24.719 -23.803  1.00  0.00     0.136 C 
ATOM      2  O   UNL     1      19.400 -25.908 -24.026  1.00  0.00    -0.299 OA
ENDROOT
BRANCH   1   3
ATOM      3  C   UNL     1      18.466 -23.888 -24.822  1.00  0.00     0.053 C 
ATOM      4  C   UNL     1      17.745 -24.801 -25.820  1.00  0.00     0.016 C 
BRANCH   3   5
ATOM      5  C   UNL     1      19.370 -22.878 -25.556  1.00  0.00     0.015 C 
BRANCH   5   6
ATOM      6  C   UNL     1      19.074 -21.427 -25.138  1.00  0.00     0.028 C 
BRANCH   6   7
ATOM      7  C   UNL     1      17.726 -21.268 -24.482  1.00  0.00    -0.028 C 
ATOM      8  C   UNL     1      17.475 -21.348 -23.150  1.00  0.00    -0.070 CG0
ATOM      9  C   UNL     1      16.032 -21.272 -22.714  1.00  0.00     0.039 C 
ATOM     10  G   UNL     1      18.555 -21.442 -22.075  1.00  0.00     0.000 G0
ENDBRANCH   6   7
ENDBRANCH   5   6
ENDBRANCH   3   5
ENDBRANCH   1   3
BRANCH   1  11
ATOM     11  C   UNL     1      19.840 -24.113 -22.559  1.00  0.00     0.087 C 
BRANCH  11  12
ATOM     12  C   UNL     1      18.834 -24.016 -21.378  1.00  0.00     0.066 C 
BRANCH  12  13
ATOM     13  C   UNL     1      18.356 -22.594 -21.094  1.00  0.00     0.140 C 
ATOM     14  O   UNL     1      17.911 -22.341 -19.983  1.00  0.00    -0.299 OA
BRANCH  13  15
ATOM     15  C   UNL     1      18.552 -21.456 -22.068  1.00  0.00     0.106 CG0
ATOM     16  G   UNL     1      17.471 -21.355 -23.141  1.00  0.00     0.000 G0
ENDBRANCH  13  15
ENDBRANCH  12  13
BRANCH  12  17
ATOM     17  C   UNL     1      19.331 -24.715 -20.071  1.00  0.00    -0.006 C 
ATOM     18  C   UNL     1      19.019 -26.221 -20.083  1.00  0.00     0.008 C 
ATOM     19  C   UNL     1      20.825 -24.502 -19.769  1.00  0.00     0.008 C 
ENDBRANCH  12  17
ENDBRANCH  11  12
ENDBRANCH   1  11
TORSDOF 1
ENDMDL
MODEL 6
REMARK VINA RESULT:    -3.484      1.964      2.635
REMARK INTER + INTRA:          -5.696
REMARK INTER:                  -5.238
REMARK INTRA:                  -0.458
REMARK UNBOUND:                -0.379
REMARK SMILES CC1=CCC[C@@H](C)C(=O)C[C@@H](C(C)C)C(=O)C1
REMARK SMILES IDX 8 1 9 2 6 3 7 4 5 5 4 6 3 7 2 8 1 9 10 11 11 12 15 13 16 14
REMARK SMILES IDX 17 15 12 17 13 18 14 19
REMARK H PARENT
REMARK Flexibility Score: 70.00
ROOT
ATOM      1  C   UNL     1      19.063 -23.489 -24.023  1.00  0.00     0.136 C 
ATOM      2  O   UNL     1      19.210 -24.664 -23.721  1.00  0.00    -0.299 OA
ENDROOT
BRANCH   1   3
ATOM      3  C   UNL     1      19.194 -23.087 -25.482  1.00  0.00     0.053 C 
ATOM      4  C   UNL     1      19.331 -21.566 -25.604  1.00  0.00     0.016 C 
BRANCH   3   5
ATOM      5  C   UNL     1      18.026 -23.604 -26.345  1.00  0.00     0.015 C 
BRANCH   5   6
ATOM      6  C   UNL     1      16.879 -22.582 -26.436  1.00  0.00     0.028 C 
BRANCH   6   7
ATOM      7  C   UNL     1      15.638 -23.025 -25.704  1.00  0.00    -0.028 C 
ATOM      8  C   UNL     1      15.257 -22.619 -24.465  1.00  0.00    -0.070 CG0
ATOM      9  C   UNL     1      14.035 -23.275 -23.870  1.00  0.00     0.039 C 
ATOM     10  G   UNL     1      15.942 -21.506 -23.676  1.00  0.00     0.000 G0
ENDBRANCH   6   7
ENDBRANCH   5   6
ENDBRANCH   3   5
ENDBRANCH   1   3
BRANCH   1  11
ATOM     11  C   UNL     1      18.825 -22.478 -22.922  1.00  0.00     0.087 C 
BRANCH  11  12
ATOM     12  C   UNL     1      17.602 -22.834 -22.031  1.00  0.00     0.066 C 
BRANCH  12  13
ATOM     13  C   UNL     1      16.384 -21.946 -22.274  1.00  0.00     0.140 C 
ATOM     14  O   UNL     1      15.814 -21.462 -21.307  1.00  0.00    -0.299 OA
BRANCH  13  15
ATOM     15  C   UNL     1      15.950 -21.517 -23.656  1.00  0.00     0.106 CG0
ATOM     16  G   UNL     1      15.247 -22.607 -24.461  1.00  0.00     0.000 G0
ENDBRANCH  13  15
ENDBRANCH  12  13
BRANCH  12  17
ATOM     17  C   UNL     1      17.940 -22.920 -20.507  1.00  0.00    -0.006 C 
ATOM     18  C   UNL     1      17.727 -24.342 -19.961  1.00  0.00     0.008 C 
ATOM     19  C   UNL     1      19.356 -22.437 -20.146  1.00  0.00     0.008 C 
ENDBRANCH  12  17
ENDBRANCH  11  12
ENDBRANCH   1  11
TORSDOF 1
ENDMDL
MODEL 7
REMARK VINA RESULT:    -3.477      1.818      4.147
REMARK INTER + INTRA:          -5.685
REMARK INTER:                  -5.500
REMARK INTRA:                  -0.185
REMARK UNBOUND:                -0.379
REMARK SMILES CC1=CCC[C@@H](C)C(=O)C[C@@H](C(C)C)C(=O)C1
REMARK SMILES IDX 8 1 9 2 6 3 7 4 5 5 4 6 3 7 2 8 1 9 10 11 11 12 15 13 16 14
REMARK SMILES IDX 17 15 12 17 13 18 14 19
REMARK H PARENT
REMARK Flexibility Score: 70.00
ROOT
ATOM      1  C   UNL     1      18.441 -20.879 -23.588  1.00  0.00     0.136 C 
ATOM      2  O   UNL     1      19.241 -20.188 -22.974  1.00  0.00    -0.299 OA
ENDROOT
BRANCH   1   3
ATOM      3  C   UNL     1      18.545 -20.947 -25.102  1.00  0.00     0.053 C 
ATOM      4  C   UNL     1      17.147 -20.957 -25.730  1.00  0.00     0.016 C 
BRANCH   3   5
ATOM      5  C   UNL     1      19.371 -22.156 -25.583  1.00  0.00     0.015 C 
BRANCH   5   6
ATOM      6  C   UNL     1      18.688 -23.494 -25.245  1.00  0.00     0.028 C 
BRANCH   6   7
ATOM      7  C   UNL     1      19.551 -24.397 -24.401  1.00  0.00    -0.028 C 
ATOM      8  C   UNL     1      19.309 -24.753 -23.114  1.00  0.00    -0.070 CG0
ATOM      9  C   UNL     1      20.364 -25.578 -22.416  1.00  0.00     0.039 C 
ATOM     10  G   UNL     1      18.021 -24.432 -22.359  1.00  0.00     0.000 G0
ENDBRANCH   6   7
ENDBRANCH   5   6
ENDBRANCH   3   5
ENDBRANCH   1   3
BRANCH   1  11
ATOM     11  C   UNL     1      17.342 -21.578 -22.818  1.00  0.00     0.087 C 
BRANCH  11  12
ATOM     12  C   UNL     1      17.769 -21.967 -21.375  1.00  0.00     0.066 C 
BRANCH  12  13
ATOM     13  C   UNL     1      18.172 -23.431 -21.226  1.00  0.00     0.140 C 
ATOM     14  O   UNL     1      18.516 -23.831 -20.123  1.00  0.00    -0.299 OA
BRANCH  13  15
ATOM     15  C   UNL     1      18.017 -24.438 -22.341  1.00  0.00     0.106 CG0
ATOM     16  G   UNL     1      19.310 -24.748 -23.092  1.00  0.00     0.000 G0
ENDBRANCH  13  15
ENDBRANCH  12  13
BRANCH  12  17
ATOM     17  C   UNL     1      16.730 -21.555 -20.281  1.00  0.00    -0.006 C 
ATOM     18  C   UNL     1      16.941 -20.103 -19.821  1.00  0.00     0.008 C 
ATOM     19  C   UNL     1      15.262 -21.754 -20.697  1.00  0.00     0.008 C 
ENDBRANCH  12  17
ENDBRANCH  11  12
ENDBRANCH   1  11
TORSDOF 1
ENDMDL
MODEL 8
REMARK VINA RESULT:    -3.426      1.743      2.079
REMARK INTER + INTRA:          -5.607
REMARK INTER:                  -5.799
REMARK INTRA:                   0.192
REMARK UNBOUND:                -0.379
REMARK SMILES CC1=CCC[C@@H](C)C(=O)C[C@@H](C(C)C)C(=O)C1
REMARK SMILES IDX 8 1 9 2 6 3 7 4 5 5 4 6 3 7 2 8 1 9 10 11 11 12 15 13 16 14
REMARK SMILES IDX 17 15 12 17 13 18 14 19
REMARK H PARENT
REMARK Flexibility Score: 70.00
ROOT
ATOM      1  C   UNL     1      19.119 -23.099 -25.154  1.00  0.00     0.136 C 
ATOM      2  O   UNL     1      19.136 -21.877 -25.173  1.00  0.00    -0.299 OA
ENDROOT
BRANCH   1   3
ATOM      3  C   UNL     1      18.304 -23.835 -26.205  1.00  0.00     0.053 C 
ATOM      4  C   UNL     1      17.366 -22.862 -26.927  1.00  0.00     0.016 C 
BRANCH   3   5
ATOM      5  C   UNL     1      17.516 -25.022 -25.617  1.00  0.00     0.015 C 
BRANCH   5   6
ATOM      6  C   UNL     1      16.026 -24.687 -25.422  1.00  0.00     0.028 C 
BRANCH   6   7
ATOM      7  C   UNL     1      15.516 -25.055 -24.051  1.00  0.00    -0.028 C 
ATOM      8  C   UNL     1      15.795 -24.398 -22.896  1.00  0.00    -0.070 CG0
ATOM      9  C   UNL     1      15.272 -25.003 -21.616  1.00  0.00     0.039 C 
ATOM     10  G   UNL     1      16.539 -23.068 -22.819  1.00  0.00     0.000 G0
ENDBRANCH   6   7
ENDBRANCH   5   6
ENDBRANCH   3   5
ENDBRANCH   1   3
BRANCH   1  11
ATOM     11  C   UNL     1      19.852 -23.822 -24.046  1.00  0.00     0.087 C 
BRANCH  11  12
ATOM     12  C   UNL     1      18.910 -24.278 -22.896  1.00  0.00     0.066 C 
BRANCH  12  13
ATOM     13  C   UNL     1      17.987 -23.175 -22.384  1.00  0.00     0.140 C 
ATOM     14  O   UNL     1      18.472 -22.275 -21.713  1.00  0.00    -0.299 OA
BRANCH  13  15
ATOM     15  C   UNL     1      16.538 -23.066 -22.797  1.00  0.00     0.106 CG0
ATOM     16  G   UNL     1      15.805 -24.403 -22.877  1.00  0.00     0.000 G0
ENDBRANCH  13  15
ENDBRANCH  12  13
BRANCH  12  17
ATOM     17  C   UNL     1      19.655 -24.982 -21.716  1.00  0.00    -0.006 C 
ATOM     18  C   UNL     1      18.819 -26.130 -21.126  1.00  0.00     0.008 C 
ATOM     19  C   UNL     1      21.059 -25.501 -22.075  1.00  0.00     0.008 C 
ENDBRANCH  12  17
ENDBRANCH  11  12
ENDBRANCH   1  11
TORSDOF 1
ENDMDL
MODEL 9
REMARK VINA RESULT:    -3.384      2.090      4.902
REMARK INTER + INTRA:          -5.543
REMARK INTER:                  -5.843
REMARK INTRA:                   0.300
REMARK UNBOUND:                -0.379
REMARK SMILES CC1=CCC[C@@H](C)C(=O)C[C@@H](C(C)C)C(=O)C1
REMARK SMILES IDX 8 1 9 2 6 3 7 4 5 5 4 6 3 7 2 8 1 9 10 11 11 12 15 13 16 14
REMARK SMILES IDX 17 15 12 17 13 18 14 19
REMARK H PARENT
REMARK Flexibility Score: 70.00
ROOT
ATOM      1  C   UNL     1      18.589 -20.987 -22.816  1.00  0.00     0.136 C 
ATOM      2  O   UNL     1      19.237 -20.127 -22.238  1.00  0.00    -0.299 OA
ENDROOT
BRANCH   1   3
ATOM      3  C   UNL     1      18.057 -22.164 -22.014  1.00  0.00     0.053 C 
ATOM      4  C   UNL     1      17.194 -21.666 -20.851  1.00  0.00     0.016 C 
BRANCH   3   5
ATOM      5  C   UNL     1      19.181 -23.089 -21.508  1.00  0.00     0.015 C 
BRANCH   5   6
ATOM      6  C   UNL     1      19.173 -24.452 -22.224  1.00  0.00     0.028 C 
BRANCH   6   7
ATOM      7  C   UNL     1      17.791 -24.891 -22.636  1.00  0.00    -0.028 C 
ATOM      8  C   UNL     1      17.315 -24.934 -23.907  1.00  0.00    -0.070 CG0
ATOM      9  C   UNL     1      15.861 -25.297 -24.087  1.00  0.00     0.039 C 
ATOM     10  G   UNL     1      18.167 -24.705 -25.153  1.00  0.00     0.000 G0
ENDBRANCH   6   7
ENDBRANCH   5   6
ENDBRANCH   3   5
ENDBRANCH   1   3
BRANCH   1  11
ATOM     11  C   UNL     1      18.405 -20.878 -24.314  1.00  0.00     0.087 C 
BRANCH  11  12
ATOM     12  C   UNL     1      17.628 -22.082 -24.915  1.00  0.00     0.066 C 
BRANCH  12  13
ATOM     13  C   UNL     1      18.527 -23.226 -25.376  1.00  0.00     0.140 C 
ATOM     14  O   UNL     1      19.630 -22.953 -25.829  1.00  0.00    -0.299 OA
BRANCH  13  15
ATOM     15  C   UNL     1      18.178 -24.679 -25.155  1.00  0.00     0.106 CG0
ATOM     16  G   UNL     1      17.324 -24.938 -23.916  1.00  0.00     0.000 G0
ENDBRANCH  13  15
ENDBRANCH  12  13
BRANCH  12  17
ATOM     17  C   UNL     1      16.612 -21.679 -26.034  1.00  0.00    -0.006 C 
ATOM     18  C   UNL     1      16.568 -20.154 -26.232  1.00  0.00     0.008 C 
ATOM     19  C   UNL     1      16.859 -22.366 -27.389  1.00  0.00     0.008 C 
ENDBRANCH  12  17
ENDBRANCH  11  12
ENDBRANCH   1  11
TORSDOF 1
ENDMDL
