MODEL 1
REMARK VINA RESULT:    -3.373      0.000      0.000
REMARK INTER + INTRA:          -5.484
REMARK INTER:                  -5.147
REMARK INTRA:                  -0.337
REMARK UNBOUND:                -0.337
REMARK SMILES O=C([O-])CCCCCCCCC(=O)[O-]
REMARK SMILES IDX 7 1 6 2 5 3 4 4 2 5 1 6 3 7 8 8 9 9 10 10 11 11 12 12 13 13
REMARK SMILES IDX 14 14
REMARK H PARENT
REMARK Flexibility Score: inf
ROOT
ATOM      1  C   UNL     1      48.550  43.357  15.153  1.00  0.00     0.000 C 
ENDROOT
BRANCH   1   2
ATOM      2  C   UNL     1      47.345  42.749  14.413  1.00  0.00     0.000 C 
BRANCH   2   3
ATOM      3  C   UNL     1      46.007  43.388  14.830  1.00  0.00     0.006 C 
BRANCH   3   4
ATOM      4  C   UNL     1      44.934  42.382  15.274  1.00  0.00     0.053 C 
BRANCH   4   5
ATOM      5  C   UNL     1      45.411  41.511  16.395  1.00  0.00     0.041 C 
ATOM      6  O   UNL     1      45.681  42.014  17.519  1.00  0.00    -0.550 OA
ATOM      7  O   UNL     1      45.590  40.149  16.190  1.00  0.00    -0.550 OA
ENDBRANCH   4   5
ENDBRANCH   3   4
ENDBRANCH   2   3
ENDBRANCH   1   2
BRANCH   1   8
ATOM      8  C   UNL     1      48.684  44.870  14.914  1.00  0.00     0.000 C 
BRANCH   8   9
ATOM      9  C   UNL     1      50.084  45.267  14.414  1.00  0.00     0.000 C 
BRANCH   9  10
ATOM     10  C   UNL     1      50.239  46.786  14.236  1.00  0.00     0.006 C 
BRANCH  10  11
ATOM     11  C   UNL     1      51.421  47.159  13.333  1.00  0.00     0.053 C 
BRANCH  11  12
ATOM     12  C   UNL     1      51.135  48.431  12.599  1.00  0.00     0.041 C 
ATOM     13  O   UNL     1      50.155  49.148  12.930  1.00  0.00    -0.550 OA
ATOM     14  O   UNL     1      51.923  48.801  11.515  1.00  0.00    -0.550 OA
ENDBRANCH  11  12
ENDBRANCH  10  11
ENDBRANCH   9  10
ENDBRANCH   8   9
ENDBRANCH   1   8
TORSDOF 9
ENDMDL
MODEL 2
REMARK VINA RESULT:    -3.364      1.945      7.881
REMARK INTER + INTRA:          -5.472
REMARK INTER:                  -5.079
REMARK INTRA:                  -0.393
REMARK UNBOUND:                -0.337
REMARK SMILES O=C([O-])CCCCCCCCC(=O)[O-]
REMARK SMILES IDX 7 1 6 2 5 3 4 4 2 5 1 6 3 7 8 8 9 9 10 10 11 11 12 12 13 13
REMARK SMILES IDX 14 14
REMARK H PARENT
REMARK Flexibility Score: inf
ROOT
ATOM      1  C   UNL     1      50.099  47.638  14.225  1.00  0.00     0.000 C 
ENDROOT
BRANCH   1   2
ATOM      2  C   UNL     1      49.273  48.819  13.685  1.00  0.00     0.000 C 
BRANCH   2   3
ATOM      3  C   UNL     1      50.152  49.937  13.093  1.00  0.00     0.006 C 
BRANCH   3   4
ATOM      4  C   UNL     1      50.187  49.972  11.557  1.00  0.00     0.053 C 
BRANCH   4   5
ATOM      5  C   UNL     1      51.466  49.412  11.013  1.00  0.00     0.041 C 
ATOM      6  O   UNL     1      51.655  49.358   9.769  1.00  0.00    -0.550 OA
ATOM      7  O   UNL     1      52.433  48.920  11.879  1.00  0.00    -0.550 OA
ENDBRANCH   4   5
ENDBRANCH   3   4
ENDBRANCH   2   3
ENDBRANCH   1   2
BRANCH   1   8
ATOM      8  C   UNL     1      49.215  46.487  14.734  1.00  0.00     0.000 C 
BRANCH   8   9
ATOM      9  C   UNL     1      49.863  45.108  14.520  1.00  0.00     0.000 C 
BRANCH   9  10
ATOM     10  C   UNL     1      48.903  43.950  14.835  1.00  0.00     0.006 C 
BRANCH  10  11
ATOM     11  C   UNL     1      47.999  44.239  16.040  1.00  0.00     0.053 C 
BRANCH  11  12
ATOM     12  C   UNL     1      46.562  44.043  15.673  1.00  0.00     0.041 C 
ATOM     13  O   UNL     1      46.208  44.057  14.466  1.00  0.00    -0.550 OA
ATOM     14  O   UNL     1      45.604  43.894  16.669  1.00  0.00    -0.550 OA
ENDBRANCH  11  12
ENDBRANCH  10  11
ENDBRANCH   9  10
ENDBRANCH   8   9
ENDBRANCH   1   8
TORSDOF 9
ENDMDL
MODEL 3
REMARK VINA RESULT:    -3.348      2.031      3.149
REMARK INTER + INTRA:          -5.447
REMARK INTER:                  -4.790
REMARK INTRA:                  -0.656
REMARK UNBOUND:                -0.337
REMARK SMILES O=C([O-])CCCCCCCCC(=O)[O-]
REMARK SMILES IDX 7 1 6 2 5 3 4 4 2 5 1 6 3 7 8 8 9 9 10 10 11 11 12 12 13 13
REMARK SMILES IDX 14 14
REMARK H PARENT
REMARK Flexibility Score: inf
ROOT
ATOM      1  C   UNL     1      50.239  46.664  14.987  1.00  0.00     0.000 C 
ENDROOT
BRANCH   1   2
ATOM      2  C   UNL     1      50.143  45.259  14.366  1.00  0.00     0.000 C 
BRANCH   2   3
ATOM      3  C   UNL     1      49.369  44.268  15.255  1.00  0.00     0.006 C 
BRANCH   3   4
ATOM      4  C   UNL     1      48.159  43.613  14.571  1.00  0.00     0.053 C 
BRANCH   4   5
ATOM      5  C   UNL     1      46.863  44.176  15.069  1.00  0.00     0.041 C 
ATOM      6  O   UNL     1      46.848  45.255  15.719  1.00  0.00    -0.550 OA
ATOM      7  O   UNL     1      45.675  43.492  14.843  1.00  0.00    -0.550 OA
ENDBRANCH   4   5
ENDBRANCH   3   4
ENDBRANCH   2   3
ENDBRANCH   1   2
BRANCH   1   8
ATOM      8  C   UNL     1      49.127  47.604  14.492  1.00  0.00     0.000 C 
BRANCH   8   9
ATOM      9  C   UNL     1      49.430  49.083  14.786  1.00  0.00     0.000 C 
BRANCH   9  10
ATOM     10  C   UNL     1      50.555  49.642  13.898  1.00  0.00     0.006 C 
BRANCH  10  11
ATOM     11  C   UNL     1      50.272  49.465  12.401  1.00  0.00     0.053 C 
BRANCH  11  12
ATOM     12  C   UNL     1      51.466  48.887  11.710  1.00  0.00     0.041 C 
ATOM     13  O   UNL     1      52.199  48.053  12.302  1.00  0.00    -0.550 OA
ATOM     14  O   UNL     1      51.798  49.307  10.428  1.00  0.00    -0.550 OA
ENDBRANCH  11  12
ENDBRANCH  10  11
ENDBRANCH   9  10
ENDBRANCH   8   9
ENDBRANCH   1   8
TORSDOF 9
ENDMDL
MODEL 4
REMARK VINA RESULT:    -3.336      1.280      7.804
REMARK INTER + INTRA:          -5.429
REMARK INTER:                  -5.019
REMARK INTRA:                  -0.409
REMARK UNBOUND:                -0.337
REMARK SMILES O=C([O-])CCCCCCCCC(=O)[O-]
REMARK SMILES IDX 7 1 6 2 5 3 4 4 2 5 1 6 3 7 8 8 9 9 10 10 11 11 12 12 13 13
REMARK SMILES IDX 14 14
REMARK H PARENT
REMARK Flexibility Score: inf
ROOT
ATOM      1  C   UNL     1      50.027  45.457  14.772  1.00  0.00     0.000 C 
ENDROOT
BRANCH   1   2
ATOM      2  C   UNL     1      50.638  46.399  13.720  1.00  0.00     0.000 C 
BRANCH   2   3
ATOM      3  C   UNL     1      50.682  47.866  14.189  1.00  0.00     0.006 C 
BRANCH   3   4
ATOM      4  C   UNL     1      49.930  48.847  13.276  1.00  0.00     0.053 C 
BRANCH   4   5
ATOM      5  C   UNL     1      50.789  49.336  12.151  1.00  0.00     0.041 C 
ATOM      6  O   UNL     1      52.044  49.254  12.229  1.00  0.00    -0.550 OA
ATOM      7  O   UNL     1      50.206  49.913  11.031  1.00  0.00    -0.550 OA
ENDBRANCH   4   5
ENDBRANCH   3   4
ENDBRANCH   2   3
ENDBRANCH   1   2
BRANCH   1   8
ATOM      8  C   UNL     1      48.645  45.931  15.253  1.00  0.00     0.000 C 
BRANCH   8   9
ATOM      9  C   UNL     1      47.567  44.841  15.114  1.00  0.00     0.000 C 
BRANCH   9  10
ATOM     10  C   UNL     1      48.164  43.454  14.828  1.00  0.00     0.006 C 
BRANCH  10  11
ATOM     11  C   UNL     1      47.161  42.503  14.163  1.00  0.00     0.053 C 
BRANCH  11  12
ATOM     12  C   UNL     1      46.610  41.540  15.167  1.00  0.00     0.041 C 
ATOM     13  O   UNL     1      46.093  40.457  14.789  1.00  0.00    -0.550 OA
ATOM     14  O   UNL     1      46.624  41.861  16.518  1.00  0.00    -0.550 OA
ENDBRANCH  11  12
ENDBRANCH  10  11
ENDBRANCH   9  10
ENDBRANCH   8   9
ENDBRANCH   1   8
TORSDOF 9
ENDMDL
MODEL 5
REMARK VINA RESULT:    -3.320      1.321      7.503
REMARK INTER + INTRA:          -5.404
REMARK INTER:                  -4.837
REMARK INTRA:                  -0.567
REMARK UNBOUND:                -0.337
REMARK SMILES O=C([O-])CCCCCCCCC(=O)[O-]
REMARK SMILES IDX 7 1 6 2 5 3 4 4 2 5 1 6 3 7 8 8 9 9 10 10 11 11 12 12 13 13
REMARK SMILES IDX 14 14
REMARK H PARENT
REMARK Flexibility Score: inf
ROOT
ATOM      1  C   UNL     1      48.915  44.134  15.228  1.00  0.00     0.000 C 
ENDROOT
BRANCH   1   2
ATOM      2  C   UNL     1      49.972  44.914  14.426  1.00  0.00     0.000 C 
BRANCH   2   3
ATOM      3  C   UNL     1      49.971  46.420  14.749  1.00  0.00     0.006 C 
BRANCH   3   4
ATOM      4  C   UNL     1      50.662  47.297  13.693  1.00  0.00     0.053 C 
BRANCH   4   5
ATOM      5  C   UNL     1      50.282  48.739  13.827  1.00  0.00     0.041 C 
ATOM      6  O   UNL     1      49.169  49.145  13.395  1.00  0.00    -0.550 OA
ATOM      7  O   UNL     1      51.169  49.642  14.398  1.00  0.00    -0.550 OA
ENDBRANCH   4   5
ENDBRANCH   3   4
ENDBRANCH   2   3
ENDBRANCH   1   2
BRANCH   1   8
ATOM      8  C   UNL     1      47.524  44.786  15.158  1.00  0.00     0.000 C 
BRANCH   8   9
ATOM      9  C   UNL     1      46.463  43.847  14.556  1.00  0.00     0.000 C 
BRANCH   9  10
ATOM     10  C   UNL     1      47.052  42.498  14.114  1.00  0.00     0.006 C 
BRANCH  10  11
ATOM     11  C   UNL     1      46.335  41.301  14.749  1.00  0.00     0.053 C 
BRANCH  11  12
ATOM     12  C   UNL     1      46.567  41.278  16.227  1.00  0.00     0.041 C 
ATOM     13  O   UNL     1      47.724  41.090  16.685  1.00  0.00    -0.550 OA
ATOM     14  O   UNL     1      45.496  41.415  17.102  1.00  0.00    -0.550 OA
ENDBRANCH  11  12
ENDBRANCH  10  11
ENDBRANCH   9  10
ENDBRANCH   8   9
ENDBRANCH   1   8
TORSDOF 9
ENDMDL
MODEL 6
REMARK VINA RESULT:    -3.304     11.631     14.402
REMARK INTER + INTRA:          -5.380
REMARK INTER:                  -4.963
REMARK INTRA:                  -0.417
REMARK UNBOUND:                -0.337
REMARK SMILES O=C([O-])CCCCCCCCC(=O)[O-]
REMARK SMILES IDX 7 1 6 2 5 3 4 4 2 5 1 6 3 7 8 8 9 9 10 10 11 11 12 12 13 13
REMARK SMILES IDX 14 14
REMARK H PARENT
REMARK Flexibility Score: inf
ROOT
ATOM      1  C   UNL     1      61.955  44.542  16.649  1.00  0.00     0.000 C 
ENDROOT
BRANCH   1   2
ATOM      2  C   UNL     1      63.304  44.855  15.978  1.00  0.00     0.000 C 
BRANCH   2   3
ATOM      3  C   UNL     1      63.664  43.847  14.870  1.00  0.00     0.006 C 
BRANCH   3   4
ATOM      4  C   UNL     1      64.917  43.005  15.159  1.00  0.00     0.053 C 
BRANCH   4   5
ATOM      5  C   UNL     1      64.628  41.873  16.096  1.00  0.00     0.041 C 
ATOM      6  O   UNL     1      64.929  41.967  17.316  1.00  0.00    -0.550 OA
ATOM      7  O   UNL     1      64.055  40.702  15.617  1.00  0.00    -0.550 OA
ENDBRANCH   4   5
ENDBRANCH   3   4
ENDBRANCH   2   3
ENDBRANCH   1   2
BRANCH   1   8
ATOM      8  C   UNL     1      61.493  45.667  17.591  1.00  0.00     0.000 C 
BRANCH   8   9
ATOM      9  C   UNL     1      59.970  45.885  17.547  1.00  0.00     0.000 C 
BRANCH   9  10
ATOM     10  C   UNL     1      59.211  44.638  17.067  1.00  0.00     0.006 C 
BRANCH  10  11
ATOM     11  C   UNL     1      57.872  44.979  16.400  1.00  0.00     0.053 C 
BRANCH  11  12
ATOM     12  C   UNL     1      57.135  43.728  16.039  1.00  0.00     0.041 C 
ATOM     13  O   UNL     1      56.149  43.776  15.258  1.00  0.00    -0.550 OA
ATOM     14  O   UNL     1      57.506  42.514  16.604  1.00  0.00    -0.550 OA
ENDBRANCH  11  12
ENDBRANCH  10  11
ENDBRANCH   9  10
ENDBRANCH   8   9
ENDBRANCH   1   8
TORSDOF 9
ENDMDL
MODEL 7
REMARK VINA RESULT:    -3.301      1.306      7.468
REMARK INTER + INTRA:          -5.376
REMARK INTER:                  -4.896
REMARK INTRA:                  -0.480
REMARK UNBOUND:                -0.337
REMARK SMILES O=C([O-])CCCCCCCCC(=O)[O-]
REMARK SMILES IDX 7 1 6 2 5 3 4 4 2 5 1 6 3 7 8 8 9 9 10 10 11 11 12 12 13 13
REMARK SMILES IDX 14 14
REMARK H PARENT
REMARK Flexibility Score: inf
ROOT
ATOM      1  C   UNL     1      47.792  44.675  15.422  1.00  0.00     0.000 C 
ENDROOT
BRANCH   1   2
ATOM      2  C   UNL     1      48.661  45.816  14.863  1.00  0.00     0.000 C 
BRANCH   2   3
ATOM      3  C   UNL     1      50.027  45.324  14.348  1.00  0.00     0.006 C 
BRANCH   3   4
ATOM      4  C   UNL     1      51.221  46.182  14.794  1.00  0.00     0.053 C 
BRANCH   4   5
ATOM      5  C   UNL     1      51.345  47.435  13.983  1.00  0.00     0.041 C 
ATOM      6  O   UNL     1      51.807  47.388  12.811  1.00  0.00    -0.550 OA
ATOM      7  O   UNL     1      50.981  48.658  14.531  1.00  0.00    -0.550 OA
ENDBRANCH   4   5
ENDBRANCH   3   4
ENDBRANCH   2   3
ENDBRANCH   1   2
BRANCH   1   8
ATOM      8  C   UNL     1      48.209  43.298  14.879  1.00  0.00     0.000 C 
BRANCH   8   9
ATOM      9  C   UNL     1      47.070  42.594  14.122  1.00  0.00     0.000 C 
BRANCH   9  10
ATOM     10  C   UNL     1      46.261  41.645  15.021  1.00  0.00     0.006 C 
BRANCH  10  11
ATOM     11  C   UNL     1      44.928  42.253  15.476  1.00  0.00     0.053 C 
BRANCH  11  12
ATOM     12  C   UNL     1      45.036  42.757  16.881  1.00  0.00     0.041 C 
ATOM     13  O   UNL     1      45.229  41.952  17.829  1.00  0.00    -0.550 OA
ATOM     14  O   UNL     1      44.875  44.110  17.149  1.00  0.00    -0.550 OA
ENDBRANCH  11  12
ENDBRANCH  10  11
ENDBRANCH   9  10
ENDBRANCH   8   9
ENDBRANCH   1   8
TORSDOF 9
ENDMDL
MODEL 8
REMARK VINA RESULT:    -3.259      1.603      7.567
REMARK INTER + INTRA:          -5.312
REMARK INTER:                  -4.802
REMARK INTRA:                  -0.510
REMARK UNBOUND:                -0.337
REMARK SMILES O=C([O-])CCCCCCCCC(=O)[O-]
REMARK SMILES IDX 7 1 6 2 5 3 4 4 2 5 1 6 3 7 8 8 9 9 10 10 11 11 12 12 13 13
REMARK SMILES IDX 14 14
REMARK H PARENT
REMARK Flexibility Score: inf
ROOT
ATOM      1  C   UNL     1      49.869  45.837  14.344  1.00  0.00     0.000 C 
ENDROOT
BRANCH   1   2
ATOM      2  C   UNL     1      50.960  46.755  13.764  1.00  0.00     0.000 C 
BRANCH   2   3
ATOM      3  C   UNL     1      51.033  48.117  14.480  1.00  0.00     0.006 C 
BRANCH   3   4
ATOM      4  C   UNL     1      51.291  49.311  13.549  1.00  0.00     0.053 C 
BRANCH   4   5
ATOM      5  C   UNL     1      50.069  49.687  12.768  1.00  0.00     0.041 C 
ATOM      6  O   UNL     1      48.965  49.845  13.355  1.00  0.00    -0.550 OA
ATOM      7  O   UNL     1      50.143  49.832  11.389  1.00  0.00    -0.550 OA
ENDBRANCH   4   5
ENDBRANCH   3   4
ENDBRANCH   2   3
ENDBRANCH   1   2
BRANCH   1   8
ATOM      8  C   UNL     1      48.689  46.626  14.936  1.00  0.00     0.000 C 
BRANCH   8   9
ATOM      9  C   UNL     1      47.858  45.790  15.925  1.00  0.00     0.000 C 
BRANCH   9  10
ATOM     10  C   UNL     1      47.697  44.330  15.473  1.00  0.00     0.006 C 
BRANCH  10  11
ATOM     11  C   UNL     1      46.341  44.060  14.810  1.00  0.00     0.053 C 
BRANCH  11  12
ATOM     12  C   UNL     1      46.145  42.591  14.602  1.00  0.00     0.041 C 
ATOM     13  O   UNL     1      46.984  41.927  13.940  1.00  0.00    -0.550 OA
ATOM     14  O   UNL     1      45.009  41.964  15.098  1.00  0.00    -0.550 OA
ENDBRANCH  11  12
ENDBRANCH  10  11
ENDBRANCH   9  10
ENDBRANCH   8   9
ENDBRANCH   1   8
TORSDOF 9
ENDMDL
MODEL 9
REMARK VINA RESULT:    -3.227      3.269      7.534
REMARK INTER + INTRA:          -5.263
REMARK INTER:                  -4.264
REMARK INTRA:                  -0.999
REMARK UNBOUND:                -0.337
REMARK SMILES O=C([O-])CCCCCCCCC(=O)[O-]
REMARK SMILES IDX 7 1 6 2 5 3 4 4 2 5 1 6 3 7 8 8 9 9 10 10 11 11 12 12 13 13
REMARK SMILES IDX 14 14
REMARK H PARENT
REMARK Flexibility Score: inf
ROOT
ATOM      1  C   UNL     1      49.438  49.782  14.238  1.00  0.00     0.000 C 
ENDROOT
BRANCH   1   2
ATOM      2  C   UNL     1      49.670  50.098  12.750  1.00  0.00     0.000 C 
BRANCH   2   3
ATOM      3  C   UNL     1      50.742  49.195  12.111  1.00  0.00     0.006 C 
BRANCH   3   4
ATOM      4  C   UNL     1      52.175  49.738  12.217  1.00  0.00     0.053 C 
BRANCH   4   5
ATOM      5  C   UNL     1      52.990  48.976  13.216  1.00  0.00     0.041 C 
ATOM      6  O   UNL     1      53.477  47.854  12.914  1.00  0.00    -0.550 OA
ATOM      7  O   UNL     1      53.186  49.491  14.491  1.00  0.00    -0.550 OA
ENDBRANCH   4   5
ENDBRANCH   3   4
ENDBRANCH   2   3
ENDBRANCH   1   2
BRANCH   1   8
ATOM      8  C   UNL     1      49.296  48.274  14.504  1.00  0.00     0.000 C 
BRANCH   8   9
ATOM      9  C   UNL     1      50.275  47.770  15.579  1.00  0.00     0.000 C 
BRANCH   9  10
ATOM     10  C   UNL     1      51.017  46.494  15.150  1.00  0.00     0.006 C 
BRANCH  10  11
ATOM     11  C   UNL     1      50.214  45.648  14.155  1.00  0.00     0.053 C 
BRANCH  11  12
ATOM     12  C   UNL     1      49.359  44.658  14.882  1.00  0.00     0.041 C 
ATOM     13  O   UNL     1      48.104  44.733  14.812  1.00  0.00    -0.550 OA
ATOM     14  O   UNL     1      49.947  43.683  15.678  1.00  0.00    -0.550 OA
ENDBRANCH  11  12
ENDBRANCH  10  11
ENDBRANCH   9  10
ENDBRANCH   8   9
ENDBRANCH   1   8
TORSDOF 9
ENDMDL
