MODEL 1
REMARK VINA RESULT:    -4.351      0.000      0.000
REMARK INTER + INTRA:          -5.933
REMARK INTER:                  -5.877
REMARK INTRA:                  -0.057
REMARK UNBOUND:                -0.057
REMARK SMILES C=C1CCC=C(C)CC[C@H]2[C@H]1CC2(C)C
REMARK SMILES IDX 11 1 12 2 13 3 10 4 14 5 15 6 9 7 8 8 6 9 7 10 5 11 2 13
REMARK SMILES IDX 1 14 3 15 4 16
REMARK H PARENT
REMARK Flexibility Score: 70.00
ROOT
ATOM      1  C   UNL     1       3.604  -1.515  16.820  1.00  0.00     0.018 C 
ATOM      2  C   UNL     1       2.362  -1.163  15.991  1.00  0.00     0.015 C 
ATOM      3  C   UNL     1       2.986  -1.823  14.752  1.00  0.00    -0.031 C 
ATOM      4  C   UNL     1       4.206  -2.248  15.606  1.00  0.00     0.002 C 
ATOM      5  C   UNL     1       3.253  -0.815  13.616  1.00  0.00     0.011 C 
ATOM      6  C   UNL     1       2.167  -3.026  14.249  1.00  0.00     0.011 C 
ENDROOT
BRANCH   4   7
ATOM      7  C   UNL     1       5.594  -1.712  15.197  1.00  0.00     0.009 C 
BRANCH   7   8
ATOM      8  C   UNL     1       6.730  -2.643  15.649  1.00  0.00     0.030 C 
BRANCH   8   9
ATOM      9  C   UNL     1       7.304  -2.241  16.995  1.00  0.00    -0.077 C 
ATOM     10  C   UNL     1       8.568  -1.420  17.011  1.00  0.00     0.039 C 
ATOM     11  C   UNL     1       6.776  -2.620  18.184  1.00  0.00    -0.028 CG0
ATOM     12  G   UNL     1       5.545  -3.474  18.387  1.00  0.00     0.000 G0
ENDBRANCH   8   9
ENDBRANCH   7   8
ENDBRANCH   4   7
BRANCH   1  13
ATOM     13  C   UNL     1       3.298  -2.341  18.064  1.00  0.00    -0.074 C 
ATOM     14  C   UNL     1       2.009  -2.593  18.349  1.00  0.00     0.008 C 
BRANCH  13  15
ATOM     15  C   UNL     1       4.366  -2.751  19.066  1.00  0.00     0.035 C 
BRANCH  15  16
ATOM     16  C   UNL     1       5.541  -3.494  18.397  1.00  0.00     0.032 CG0
ATOM     17  G   UNL     1       6.746  -2.603  18.196  1.00  0.00     0.000 G0
ENDBRANCH  15  16
ENDBRANCH  13  15
ENDBRANCH   1  13
TORSDOF 0
ENDMDL
MODEL 2
REMARK VINA RESULT:    -4.332      2.260      4.756
REMARK INTER + INTRA:          -5.909
REMARK INTER:                  -5.837
REMARK INTRA:                  -0.072
REMARK UNBOUND:                -0.057
REMARK SMILES C=C1CCC=C(C)CC[C@H]2[C@H]1CC2(C)C
REMARK SMILES IDX 11 1 12 2 13 3 10 4 14 5 15 6 9 7 8 8 6 9 7 10 5 11 2 13
REMARK SMILES IDX 1 14 3 15 4 16
REMARK H PARENT
REMARK Flexibility Score: 70.00
ROOT
ATOM      1  C   UNL     1       3.712  -3.543  18.473  1.00  0.00     0.018 C 
ATOM      2  C   UNL     1       4.977  -3.716  19.325  1.00  0.00     0.015 C 
ATOM      3  C   UNL     1       5.594  -2.463  18.684  1.00  0.00    -0.031 C 
ATOM      4  C   UNL     1       4.288  -2.243  17.882  1.00  0.00     0.002 C 
ATOM      5  C   UNL     1       6.864  -2.781  17.868  1.00  0.00     0.011 C 
ATOM      6  C   UNL     1       5.856  -1.345  19.710  1.00  0.00     0.011 C 
ENDROOT
BRANCH   4   7
ATOM      7  C   UNL     1       4.377  -2.259  16.341  1.00  0.00     0.009 C 
BRANCH   7   8
ATOM      8  C   UNL     1       3.216  -1.493  15.687  1.00  0.00     0.030 C 
BRANCH   8   9
ATOM      9  C   UNL     1       2.048  -2.400  15.343  1.00  0.00    -0.077 C 
ATOM     10  C   UNL     1       1.965  -2.949  13.942  1.00  0.00     0.039 C 
ATOM     11  C   UNL     1       1.050  -2.704  16.207  1.00  0.00    -0.028 CG0
ATOM     12  G   UNL     1       0.923  -2.225  17.636  1.00  0.00     0.000 G0
ENDBRANCH   8   9
ENDBRANCH   7   8
ENDBRANCH   4   7
BRANCH   1  13
ATOM     13  C   UNL     1       2.431  -3.442  19.292  1.00  0.00    -0.074 C 
ATOM     14  C   UNL     1       2.530  -3.538  20.628  1.00  0.00     0.008 C 
BRANCH  13  15
ATOM     15  C   UNL     1       1.049  -3.393  18.659  1.00  0.00     0.035 C 
BRANCH  15  16
ATOM     16  C   UNL     1       0.909  -2.239  17.645  1.00  0.00     0.032 CG0
ATOM     17  G   UNL     1       1.049  -2.709  16.214  1.00  0.00     0.000 G0
ENDBRANCH  15  16
ENDBRANCH  13  15
ENDBRANCH   1  13
TORSDOF 0
ENDMDL
MODEL 3
REMARK VINA RESULT:    -4.167      2.148      4.469
REMARK INTER + INTRA:          -5.685
REMARK INTER:                  -5.878
REMARK INTRA:                   0.193
REMARK UNBOUND:                -0.057
REMARK SMILES C=C1CCC=C(C)CC[C@H]2[C@H]1CC2(C)C
REMARK SMILES IDX 11 1 12 2 13 3 10 4 14 5 15 6 9 7 8 8 6 9 7 10 5 11 2 13
REMARK SMILES IDX 1 14 3 15 4 16
REMARK H PARENT
REMARK Flexibility Score: 70.00
ROOT
ATOM      1  C   UNL     1       2.746  -3.984  18.169  1.00  0.00     0.018 C 
ATOM      2  C   UNL     1       1.248  -3.975  17.831  1.00  0.00     0.015 C 
ATOM      3  C   UNL     1       0.898  -3.956  19.328  1.00  0.00    -0.031 C 
ATOM      4  C   UNL     1       2.408  -3.888  19.669  1.00  0.00     0.002 C 
ATOM      5  C   UNL     1       0.144  -5.226  19.774  1.00  0.00     0.011 C 
ATOM      6  C   UNL     1       0.138  -2.682  19.740  1.00  0.00     0.011 C 
ENDROOT
BRANCH   4   7
ATOM      7  C   UNL     1       3.010  -5.035  20.506  1.00  0.00     0.009 C 
BRANCH   7   8
ATOM      8  C   UNL     1       4.507  -5.236  20.218  1.00  0.00     0.030 C 
BRANCH   8   9
ATOM      9  C   UNL     1       5.365  -4.156  20.851  1.00  0.00    -0.077 C 
ATOM     10  C   UNL     1       5.560  -4.190  22.346  1.00  0.00     0.039 C 
ATOM     11  C   UNL     1       5.925  -3.135  20.159  1.00  0.00    -0.028 CG0
ATOM     12  G   UNL     1       5.815  -2.895  18.670  1.00  0.00     0.000 G0
ENDBRANCH   8   9
ENDBRANCH   7   8
ENDBRANCH   4   7
BRANCH   1  13
ATOM     13  C   UNL     1       3.523  -2.833  17.543  1.00  0.00    -0.074 C 
ATOM     14  C   UNL     1       3.359  -2.605  16.229  1.00  0.00     0.008 C 
BRANCH  13  15
ATOM     15  C   UNL     1       4.580  -2.043  18.299  1.00  0.00     0.035 C 
BRANCH  15  16
ATOM     16  C   UNL     1       5.808  -2.904  18.660  1.00  0.00     0.032 CG0
ATOM     17  G   UNL     1       5.936  -3.130  20.150  1.00  0.00     0.000 G0
ENDBRANCH  15  16
ENDBRANCH  13  15
ENDBRANCH   1  13
TORSDOF 0
ENDMDL
MODEL 4
REMARK VINA RESULT:    -4.075      2.051      5.236
REMARK INTER + INTRA:          -5.562
REMARK INTER:                  -5.531
REMARK INTRA:                  -0.030
REMARK UNBOUND:                -0.057
REMARK SMILES C=C1CCC=C(C)CC[C@H]2[C@H]1CC2(C)C
REMARK SMILES IDX 11 1 12 2 13 3 10 4 14 5 15 6 9 7 8 8 6 9 7 10 5 11 2 13
REMARK SMILES IDX 1 14 3 15 4 16
REMARK H PARENT
REMARK Flexibility Score: 70.00
ROOT
ATOM      1  C   UNL     1       4.435  -2.168  17.838  1.00  0.00     0.018 C 
ATOM      2  C   UNL     1       5.226  -2.604  19.079  1.00  0.00     0.015 C 
ATOM      3  C   UNL     1       4.152  -3.651  19.411  1.00  0.00    -0.031 C 
ATOM      4  C   UNL     1       3.392  -3.266  18.118  1.00  0.00     0.002 C 
ATOM      5  C   UNL     1       3.437  -3.362  20.747  1.00  0.00     0.011 C 
ATOM      6  C   UNL     1       4.699  -5.091  19.372  1.00  0.00     0.011 C 
ENDROOT
BRANCH   4   7
ATOM      7  C   UNL     1       1.955  -2.721  18.260  1.00  0.00     0.009 C 
BRANCH   7   8
ATOM      8  C   UNL     1       1.120  -2.954  16.992  1.00  0.00     0.030 C 
BRANCH   8   9
ATOM      9  C   UNL     1       1.171  -1.771  16.043  1.00  0.00    -0.077 C 
ATOM     10  C   UNL     1       0.050  -0.764  16.104  1.00  0.00     0.039 C 
ATOM     11  C   UNL     1       2.137  -1.593  15.110  1.00  0.00    -0.028 CG0
ATOM     12  G   UNL     1       3.318  -2.503  14.857  1.00  0.00     0.000 G0
ENDBRANCH   8   9
ENDBRANCH   7   8
ENDBRANCH   4   7
BRANCH   1  13
ATOM     13  C   UNL     1       5.229  -2.260  16.541  1.00  0.00    -0.074 C 
ATOM     14  C   UNL     1       6.521  -2.624  16.619  1.00  0.00     0.008 C 
BRANCH  13  15
ATOM     15  C   UNL     1       4.672  -1.813  15.198  1.00  0.00     0.035 C 
BRANCH  15  16
ATOM     16  C   UNL     1       3.327  -2.493  14.868  1.00  0.00     0.032 CG0
ATOM     17  G   UNL     1       2.146  -1.579  15.107  1.00  0.00     0.000 G0
ENDBRANCH  15  16
ENDBRANCH  13  15
ENDBRANCH   1  13
TORSDOF 0
ENDMDL
MODEL 5
REMARK VINA RESULT:    -4.048      1.896      2.500
REMARK INTER + INTRA:          -5.525
REMARK INTER:                  -5.471
REMARK INTRA:                  -0.054
REMARK UNBOUND:                -0.057
REMARK SMILES C=C1CCC=C(C)CC[C@H]2[C@H]1CC2(C)C
REMARK SMILES IDX 11 1 12 2 13 3 10 4 14 5 15 6 9 7 8 8 6 9 7 10 5 11 2 13
REMARK SMILES IDX 1 14 3 15 4 16
REMARK H PARENT
REMARK Flexibility Score: 70.00
ROOT
ATOM      1  C   UNL     1       2.084  -2.644  18.474  1.00  0.00     0.018 C 
ATOM      2  C   UNL     1       0.876  -2.181  17.647  1.00  0.00     0.015 C 
ATOM      3  C   UNL     1       1.738  -2.163  16.375  1.00  0.00    -0.031 C 
ATOM      4  C   UNL     1       2.937  -2.704  17.192  1.00  0.00     0.002 C 
ATOM      5  C   UNL     1       1.886  -0.748  15.782  1.00  0.00     0.011 C 
ATOM      6  C   UNL     1       1.243  -3.164  15.314  1.00  0.00     0.011 C 
ENDROOT
BRANCH   4   7
ATOM      7  C   UNL     1       4.210  -1.836  17.265  1.00  0.00     0.009 C 
BRANCH   7   8
ATOM      8  C   UNL     1       5.425  -2.632  17.769  1.00  0.00     0.030 C 
BRANCH   8   9
ATOM      9  C   UNL     1       5.609  -2.514  19.271  1.00  0.00    -0.077 C 
ATOM     10  C   UNL     1       6.469  -1.392  19.794  1.00  0.00     0.039 C 
ATOM     11  C   UNL     1       5.086  -3.387  20.165  1.00  0.00    -0.028 CG0
ATOM     12  G   UNL     1       4.236  -4.597  19.847  1.00  0.00     0.000 G0
ENDBRANCH   8   9
ENDBRANCH   7   8
ENDBRANCH   4   7
BRANCH   1  13
ATOM     13  C   UNL     1       1.848  -3.946  19.229  1.00  0.00    -0.074 C 
ATOM     14  C   UNL     1       0.705  -4.612  18.992  1.00  0.00     0.008 C 
BRANCH  13  15
ATOM     15  C   UNL     1       2.766  -4.435  20.338  1.00  0.00     0.035 C 
BRANCH  15  16
ATOM     16  C   UNL     1       4.224  -4.602  19.860  1.00  0.00     0.032 CG0
ATOM     17  G   UNL     1       5.070  -3.384  20.155  1.00  0.00     0.000 G0
ENDBRANCH  15  16
ENDBRANCH  13  15
ENDBRANCH   1  13
TORSDOF 0
ENDMDL
MODEL 6
REMARK VINA RESULT:    -3.988      2.517      5.136
REMARK INTER + INTRA:          -5.443
REMARK INTER:                  -5.403
REMARK INTRA:                  -0.041
REMARK UNBOUND:                -0.057
REMARK SMILES C=C1CCC=C(C)CC[C@H]2[C@H]1CC2(C)C
REMARK SMILES IDX 11 1 12 2 13 3 10 4 14 5 15 6 9 7 8 8 6 9 7 10 5 11 2 13
REMARK SMILES IDX 1 14 3 15 4 16
REMARK H PARENT
REMARK Flexibility Score: 70.00
ROOT
ATOM      1  C   UNL     1       3.670  -4.571  20.104  1.00  0.00     0.018 C 
ATOM      2  C   UNL     1       3.389  -5.403  21.364  1.00  0.00     0.015 C 
ATOM      3  C   UNL     1       4.093  -4.349  22.232  1.00  0.00    -0.031 C 
ATOM      4  C   UNL     1       4.308  -3.471  20.974  1.00  0.00     0.002 C 
ATOM      5  C   UNL     1       5.360  -4.898  22.919  1.00  0.00     0.011 C 
ATOM      6  C   UNL     1       3.142  -3.697  23.254  1.00  0.00     0.011 C 
ENDROOT
BRANCH   4   7
ATOM      7  C   UNL     1       5.759  -3.137  20.568  1.00  0.00     0.009 C 
BRANCH   7   8
ATOM      8  C   UNL     1       5.826  -1.964  19.578  1.00  0.00     0.030 C 
BRANCH   8   9
ATOM      9  C   UNL     1       5.829  -2.428  18.133  1.00  0.00    -0.077 C 
ATOM     10  C   UNL     1       7.160  -2.684  17.473  1.00  0.00     0.039 C 
ATOM     11  C   UNL     1       4.708  -2.578  17.386  1.00  0.00    -0.028 CG0
ATOM     12  G   UNL     1       3.288  -2.332  17.842  1.00  0.00     0.000 G0
ENDBRANCH   8   9
ENDBRANCH   7   8
ENDBRANCH   4   7
BRANCH   1  13
ATOM     13  C   UNL     1       2.417  -4.212  19.315  1.00  0.00    -0.074 C 
ATOM     14  C   UNL     1       1.226  -4.542  19.842  1.00  0.00     0.008 C 
BRANCH  13  15
ATOM     15  C   UNL     1       2.465  -3.643  17.905  1.00  0.00     0.035 C 
BRANCH  15  16
ATOM     16  C   UNL     1       3.280  -2.336  17.829  1.00  0.00     0.032 CG0
ATOM     17  G   UNL     1       4.711  -2.573  17.398  1.00  0.00     0.000 G0
ENDBRANCH  15  16
ENDBRANCH  13  15
ENDBRANCH   1  13
TORSDOF 0
ENDMDL
MODEL 7
REMARK VINA RESULT:    -3.874      2.556      5.825
REMARK INTER + INTRA:          -5.289
REMARK INTER:                  -5.228
REMARK INTRA:                  -0.061
REMARK UNBOUND:                -0.057
REMARK SMILES C=C1CCC=C(C)CC[C@H]2[C@H]1CC2(C)C
REMARK SMILES IDX 11 1 12 2 13 3 10 4 14 5 15 6 9 7 8 8 6 9 7 10 5 11 2 13
REMARK SMILES IDX 1 14 3 15 4 16
REMARK H PARENT
REMARK Flexibility Score: 70.00
ROOT
ATOM      1  C   UNL     1       3.635  -2.105  18.298  1.00  0.00     0.018 C 
ATOM      2  C   UNL     1       4.997  -2.477  18.900  1.00  0.00     0.015 C 
ATOM      3  C   UNL     1       4.362  -3.670  19.632  1.00  0.00    -0.031 C 
ATOM      4  C   UNL     1       3.003  -3.343  18.965  1.00  0.00     0.002 C 
ATOM      5  C   UNL     1       4.432  -3.528  21.166  1.00  0.00     0.011 C 
ATOM      6  C   UNL     1       4.940  -5.021  19.170  1.00  0.00     0.011 C 
ENDROOT
BRANCH   4   7
ATOM      7  C   UNL     1       1.812  -3.000  19.884  1.00  0.00     0.009 C 
BRANCH   7   8
ATOM      8  C   UNL     1       0.461  -3.251  19.197  1.00  0.00     0.030 C 
BRANCH   8   9
ATOM      9  C   UNL     1      -0.076  -2.009  18.509  1.00  0.00    -0.077 C 
ATOM     10  C   UNL     1      -1.060  -1.151  19.262  1.00  0.00     0.039 C 
ATOM     11  C   UNL     1       0.238  -1.655  17.240  1.00  0.00    -0.028 CG0
ATOM     12  G   UNL     1       1.165  -2.398  16.305  1.00  0.00     0.000 G0
ENDBRANCH   8   9
ENDBRANCH   7   8
ENDBRANCH   4   7
BRANCH   1  13
ATOM     13  C   UNL     1       3.633  -2.043  16.776  1.00  0.00    -0.074 C 
ATOM     14  C   UNL     1       4.790  -2.283  16.136  1.00  0.00     0.008 C 
BRANCH  13  15
ATOM     15  C   UNL     1       2.431  -1.574  15.970  1.00  0.00     0.035 C 
BRANCH  15  16
ATOM     16  C   UNL     1       1.161  -2.391  16.285  1.00  0.00     0.032 CG0
ATOM     17  G   UNL     1       0.233  -1.671  17.236  1.00  0.00     0.000 G0
ENDBRANCH  15  16
ENDBRANCH  13  15
ENDBRANCH   1  13
TORSDOF 0
ENDMDL
MODEL 8
REMARK VINA RESULT:    -3.810      2.778      5.713
REMARK INTER + INTRA:          -5.203
REMARK INTER:                  -5.678
REMARK INTRA:                   0.475
REMARK UNBOUND:                -0.057
REMARK SMILES C=C1CCC=C(C)CC[C@H]2[C@H]1CC2(C)C
REMARK SMILES IDX 11 1 12 2 13 3 10 4 14 5 15 6 9 7 8 8 6 9 7 10 5 11 2 13
REMARK SMILES IDX 1 14 3 15 4 16
REMARK H PARENT
REMARK Flexibility Score: 70.00
ROOT
ATOM      1  C   UNL     1       3.090  -1.772  16.443  1.00  0.00     0.018 C 
ATOM      2  C   UNL     1       3.656  -2.099  17.832  1.00  0.00     0.015 C 
ATOM      3  C   UNL     1       2.496  -3.074  18.089  1.00  0.00    -0.031 C 
ATOM      4  C   UNL     1       1.967  -2.804  16.658  1.00  0.00     0.002 C 
ATOM      5  C   UNL     1       1.595  -2.625  19.257  1.00  0.00     0.011 C 
ATOM      6  C   UNL     1       2.977  -4.524  18.280  1.00  0.00     0.011 C 
ENDROOT
BRANCH   4   7
ATOM      7  C   UNL     1       0.552  -2.206  16.514  1.00  0.00     0.009 C 
BRANCH   7   8
ATOM      8  C   UNL     1       0.558  -0.894  15.713  1.00  0.00     0.030 C 
BRANCH   8   9
ATOM      9  C   UNL     1       0.360  -1.126  14.226  1.00  0.00    -0.077 C 
ATOM     10  C   UNL     1      -1.005  -1.554  13.751  1.00  0.00     0.039 C 
ATOM     11  C   UNL     1       1.350  -1.019  13.308  1.00  0.00    -0.028 CG0
ATOM     12  G   UNL     1       2.790  -0.646  13.581  1.00  0.00     0.000 G0
ENDBRANCH   8   9
ENDBRANCH   7   8
ENDBRANCH   4   7
BRANCH   1  13
ATOM     13  C   UNL     1       4.073  -2.022  15.306  1.00  0.00    -0.074 C 
ATOM     14  C   UNL     1       5.358  -2.250  15.625  1.00  0.00     0.008 C 
BRANCH  13  15
ATOM     15  C   UNL     1       3.695  -1.873  13.840  1.00  0.00     0.035 C 
BRANCH  15  16
ATOM     16  C   UNL     1       2.793  -0.646  13.591  1.00  0.00     0.032 CG0
ATOM     17  G   UNL     1       1.359  -1.034  13.308  1.00  0.00     0.000 G0
ENDBRANCH  15  16
ENDBRANCH  13  15
ENDBRANCH   1  13
TORSDOF 0
ENDMDL
MODEL 9
REMARK VINA RESULT:    -3.673      1.376      3.615
REMARK INTER + INTRA:          -5.018
REMARK INTER:                  -5.130
REMARK INTRA:                   0.112
REMARK UNBOUND:                -0.057
REMARK SMILES C=C1CCC=C(C)CC[C@H]2[C@H]1CC2(C)C
REMARK SMILES IDX 11 1 12 2 13 3 10 4 14 5 15 6 9 7 8 8 6 9 7 10 5 11 2 13
REMARK SMILES IDX 1 14 3 15 4 16
REMARK H PARENT
REMARK Flexibility Score: 70.00
ROOT
ATOM      1  C   UNL     1       4.809  -2.664  16.353  1.00  0.00     0.018 C 
ATOM      2  C   UNL     1       4.669  -1.855  15.056  1.00  0.00     0.015 C 
ATOM      3  C   UNL     1       3.235  -1.461  15.443  1.00  0.00    -0.031 C 
ATOM      4  C   UNL     1       3.402  -2.211  16.787  1.00  0.00     0.002 C 
ATOM      5  C   UNL     1       2.183  -2.020  14.463  1.00  0.00     0.011 C 
ATOM      6  C   UNL     1       3.072   0.059  15.628  1.00  0.00     0.011 C 
ENDROOT
BRANCH   4   7
ATOM      7  C   UNL     1       2.446  -3.386  17.081  1.00  0.00     0.009 C 
BRANCH   7   8
ATOM      8  C   UNL     1       2.971  -4.292  18.206  1.00  0.00     0.030 C 
BRANCH   8   9
ATOM      9  C   UNL     1       2.994  -3.586  19.550  1.00  0.00    -0.077 C 
ATOM     10  C   UNL     1       1.684  -3.381  20.266  1.00  0.00     0.039 C 
ATOM     11  C   UNL     1       4.117  -3.085  20.119  1.00  0.00    -0.028 CG0
ATOM     12  G   UNL     1       5.516  -3.146  19.548  1.00  0.00     0.000 G0
ENDBRANCH   8   9
ENDBRANCH   7   8
ENDBRANCH   4   7
BRANCH   1  13
ATOM     13  C   UNL     1       5.988  -2.236  17.219  1.00  0.00    -0.074 C 
ATOM     14  C   UNL     1       7.218  -2.300  16.681  1.00  0.00     0.008 C 
BRANCH  13  15
ATOM     15  C   UNL     1       5.849  -1.894  18.694  1.00  0.00     0.035 C 
BRANCH  15  16
ATOM     16  C   UNL     1       5.523  -3.133  19.554  1.00  0.00     0.032 CG0
ATOM     17  G   UNL     1       4.122  -3.090  20.120  1.00  0.00     0.000 G0
ENDBRANCH  15  16
ENDBRANCH  13  15
ENDBRANCH   1  13
TORSDOF 0
ENDMDL
