MODEL 1
REMARK VINA RESULT:    -5.110      0.000      0.000
REMARK INTER + INTRA:         -10.008
REMARK INTER:                  -8.993
REMARK INTRA:                  -1.015
REMARK UNBOUND:                -1.015
REMARK SMILES CCCCCCCCCCCCCCC(=O)[O-]
REMARK SMILES IDX 9 1 10 2 11 3 12 4 13 5 14 6 15 7 16 8 17 9 8 10 7 11 6 12
REMARK SMILES IDX 5 13 4 14 3 15 2 16 1 17
REMARK H PARENT
REMARK Flexibility Score: inf
ROOT
ATOM      1  C   UNL     1      48.093  27.518  16.486  1.00  0.00     0.000 C 
ENDROOT
BRANCH   1   2
ATOM      2  C   UNL     1      48.747  26.151  16.212  1.00  0.00     0.000 C 
BRANCH   2   3
ATOM      3  C   UNL     1      49.378  25.465  17.441  1.00  0.00     0.000 C 
BRANCH   3   4
ATOM      4  C   UNL     1      49.145  26.181  18.783  1.00  0.00     0.000 C 
BRANCH   4   5
ATOM      5  C   UNL     1      48.953  25.204  19.955  1.00  0.00     0.006 C 
BRANCH   5   6
ATOM      6  C   UNL     1      48.231  25.859  21.141  1.00  0.00     0.053 C 
BRANCH   6   7
ATOM      7  C   UNL     1      49.186  26.258  22.224  1.00  0.00     0.041 C 
ATOM      8  O   UNL     1      50.136  25.495  22.544  1.00  0.00    -0.550 OA
ATOM      9  O   UNL     1      49.010  27.458  22.901  1.00  0.00    -0.550 OA
ENDBRANCH   6   7
ENDBRANCH   5   6
ENDBRANCH   4   5
ENDBRANCH   3   4
ENDBRANCH   2   3
ENDBRANCH   1   2
BRANCH   1  10
ATOM     10  C   UNL     1      48.594  28.619  15.536  1.00  0.00     0.000 C 
BRANCH  10  11
ATOM     11  C   UNL     1      48.890  29.938  16.269  1.00  0.00    -0.000 C 
BRANCH  11  12
ATOM     12  C   UNL     1      47.782  30.324  17.265  1.00  0.00    -0.000 C 
BRANCH  12  13
ATOM     13  C   UNL     1      48.185  31.502  18.168  1.00  0.00    -0.000 C 
BRANCH  13  14
ATOM     14  C   UNL     1      49.254  32.399  17.528  1.00  0.00    -0.000 C 
BRANCH  14  15
ATOM     15  C   UNL     1      48.779  33.856  17.458  1.00  0.00    -0.000 C 
BRANCH  15  16
ATOM     16  C   UNL     1      47.572  33.998  16.524  1.00  0.00    -0.003 C 
ATOM     17  C   UNL     1      47.945  33.647  15.087  1.00  0.00     0.004 C 
ENDBRANCH  15  16
ENDBRANCH  14  15
ENDBRANCH  13  14
ENDBRANCH  12  13
ENDBRANCH  11  12
ENDBRANCH  10  11
ENDBRANCH   1  10
TORSDOF 13
ENDMDL
MODEL 2
REMARK VINA RESULT:    -5.060      4.601      8.550
REMARK INTER + INTRA:          -9.920
REMARK INTER:                  -8.879
REMARK INTRA:                  -1.041
REMARK UNBOUND:                -1.015
REMARK SMILES CCCCCCCCCCCCCCC(=O)[O-]
REMARK SMILES IDX 9 1 10 2 11 3 12 4 13 5 14 6 15 7 16 8 17 9 8 10 7 11 6 12
REMARK SMILES IDX 5 13 4 14 3 15 2 16 1 17
REMARK H PARENT
REMARK Flexibility Score: inf
ROOT
ATOM      1  C   UNL     1      48.129  31.530  18.111  1.00  0.00     0.000 C 
ENDROOT
BRANCH   1   2
ATOM      2  C   UNL     1      49.092  32.554  17.482  1.00  0.00     0.000 C 
BRANCH   2   3
ATOM      3  C   UNL     1      48.458  33.911  17.111  1.00  0.00     0.000 C 
BRANCH   3   4
ATOM      4  C   UNL     1      47.483  33.877  15.921  1.00  0.00     0.000 C 
BRANCH   4   5
ATOM      5  C   UNL     1      48.126  33.320  14.639  1.00  0.00     0.006 C 
BRANCH   5   6
ATOM      6  C   UNL     1      48.423  34.424  13.614  1.00  0.00     0.053 C 
BRANCH   6   7
ATOM      7  C   UNL     1      48.530  33.880  12.223  1.00  0.00     0.041 C 
ATOM      8  O   UNL     1      49.636  33.458  11.792  1.00  0.00    -0.550 OA
ATOM      9  O   UNL     1      47.417  33.867  11.393  1.00  0.00    -0.550 OA
ENDBRANCH   6   7
ENDBRANCH   5   6
ENDBRANCH   4   5
ENDBRANCH   3   4
ENDBRANCH   2   3
ENDBRANCH   1   2
BRANCH   1  10
ATOM     10  C   UNL     1      48.157  30.169  17.396  1.00  0.00     0.000 C 
BRANCH  10  11
ATOM     11  C   UNL     1      49.579  29.742  16.998  1.00  0.00    -0.000 C 
BRANCH  11  12
ATOM     12  C   UNL     1      49.596  28.784  15.793  1.00  0.00    -0.000 C 
BRANCH  12  13
ATOM     13  C   UNL     1      48.449  27.761  15.836  1.00  0.00    -0.000 C 
BRANCH  13  14
ATOM     14  C   UNL     1      48.917  26.335  15.516  1.00  0.00    -0.000 C 
BRANCH  14  15
ATOM     15  C   UNL     1      49.422  25.625  16.779  1.00  0.00    -0.000 C 
BRANCH  15  16
ATOM     16  C   UNL     1      48.570  25.998  17.997  1.00  0.00    -0.003 C 
ATOM     17  C   UNL     1      49.035  25.250  19.244  1.00  0.00     0.004 C 
ENDBRANCH  15  16
ENDBRANCH  14  15
ENDBRANCH  13  14
ENDBRANCH  12  13
ENDBRANCH  11  12
ENDBRANCH  10  11
ENDBRANCH   1  10
TORSDOF 13
ENDMDL
MODEL 3
REMARK VINA RESULT:    -4.978      2.230      4.153
REMARK INTER + INTRA:          -9.777
REMARK INTER:                  -8.885
REMARK INTRA:                  -0.891
REMARK UNBOUND:                -1.015
REMARK SMILES CCCCCCCCCCCCCCC(=O)[O-]
REMARK SMILES IDX 9 1 10 2 11 3 12 4 13 5 14 6 15 7 16 8 17 9 8 10 7 11 6 12
REMARK SMILES IDX 5 13 4 14 3 15 2 16 1 17
REMARK H PARENT
REMARK Flexibility Score: inf
ROOT
ATOM      1  C   UNL     1      49.313  30.545  17.007  1.00  0.00     0.000 C 
ENDROOT
BRANCH   1   2
ATOM      2  C   UNL     1      47.847  30.074  17.033  1.00  0.00     0.000 C 
BRANCH   2   3
ATOM      3  C   UNL     1      47.548  28.810  16.199  1.00  0.00     0.000 C 
BRANCH   3   4
ATOM      4  C   UNL     1      48.787  28.049  15.696  1.00  0.00     0.000 C 
BRANCH   4   5
ATOM      5  C   UNL     1      48.609  26.522  15.742  1.00  0.00     0.006 C 
BRANCH   5   6
ATOM      6  C   UNL     1      48.036  26.046  17.085  1.00  0.00     0.053 C 
BRANCH   6   7
ATOM      7  C   UNL     1      49.117  25.659  18.047  1.00  0.00     0.041 C 
ATOM      8  O   UNL     1      50.111  24.996  17.648  1.00  0.00    -0.550 OA
ATOM      9  O   UNL     1      49.012  26.004  19.388  1.00  0.00    -0.550 OA
ENDBRANCH   6   7
ENDBRANCH   5   6
ENDBRANCH   4   5
ENDBRANCH   3   4
ENDBRANCH   2   3
ENDBRANCH   1   2
BRANCH   1  10
ATOM     10  C   UNL     1      49.479  31.999  17.482  1.00  0.00     0.000 C 
BRANCH  10  11
ATOM     11  C   UNL     1      48.185  32.816  17.338  1.00  0.00    -0.000 C 
BRANCH  11  12
ATOM     12  C   UNL     1      48.296  33.921  16.272  1.00  0.00    -0.000 C 
BRANCH  12  13
ATOM     13  C   UNL     1      48.063  33.391  14.847  1.00  0.00    -0.000 C 
BRANCH  13  14
ATOM     14  C   UNL     1      48.644  34.318  13.770  1.00  0.00    -0.000 C 
BRANCH  14  15
ATOM     15  C   UNL     1      47.798  34.273  12.491  1.00  0.00    -0.000 C 
BRANCH  15  16
ATOM     16  C   UNL     1      48.485  33.435  11.406  1.00  0.00    -0.003 C 
ATOM     17  C   UNL     1      49.998  33.634  11.434  1.00  0.00     0.004 C 
ENDBRANCH  15  16
ENDBRANCH  14  15
ENDBRANCH  13  14
ENDBRANCH  12  13
ENDBRANCH  11  12
ENDBRANCH  10  11
ENDBRANCH   1  10
TORSDOF 13
ENDMDL
MODEL 4
REMARK VINA RESULT:    -4.864      3.328      6.835
REMARK INTER + INTRA:          -9.574
REMARK INTER:                  -8.036
REMARK INTRA:                  -1.539
REMARK UNBOUND:                -1.015
REMARK SMILES CCCCCCCCCCCCCCC(=O)[O-]
REMARK SMILES IDX 9 1 10 2 11 3 12 4 13 5 14 6 15 7 16 8 17 9 8 10 7 11 6 12
REMARK SMILES IDX 5 13 4 14 3 15 2 16 1 17
REMARK H PARENT
REMARK Flexibility Score: inf
ROOT
ATOM      1  C   UNL     1      48.470  25.548  19.259  1.00  0.00     0.000 C 
ENDROOT
BRANCH   1   2
ATOM      2  C   UNL     1      49.831  25.207  18.624  1.00  0.00     0.000 C 
BRANCH   2   3
ATOM      3  C   UNL     1      50.041  25.740  17.192  1.00  0.00     0.000 C 
BRANCH   3   4
ATOM      4  C   UNL     1      48.751  25.991  16.390  1.00  0.00     0.000 C 
BRANCH   4   5
ATOM      5  C   UNL     1      48.658  27.426  15.845  1.00  0.00     0.006 C 
BRANCH   5   6
ATOM      6  C   UNL     1      48.535  28.465  16.968  1.00  0.00     0.053 C 
BRANCH   6   7
ATOM      7  C   UNL     1      47.724  29.651  16.544  1.00  0.00     0.041 C 
ATOM      8  O   UNL     1      47.014  29.594  15.505  1.00  0.00    -0.550 OA
ATOM      9  O   UNL     1      47.775  30.828  17.280  1.00  0.00    -0.550 OA
ENDBRANCH   6   7
ENDBRANCH   5   6
ENDBRANCH   4   5
ENDBRANCH   3   4
ENDBRANCH   2   3
ENDBRANCH   1   2
BRANCH   1  10
ATOM     10  C   UNL     1      48.422  25.243  20.766  1.00  0.00     0.000 C 
BRANCH  10  11
ATOM     11  C   UNL     1      48.360  26.519  21.622  1.00  0.00    -0.000 C 
BRANCH  11  12
ATOM     12  C   UNL     1      49.545  26.638  22.597  1.00  0.00    -0.000 C 
BRANCH  12  13
ATOM     13  C   UNL     1      50.334  25.326  22.730  1.00  0.00    -0.000 C 
BRANCH  13  14
ATOM     14  C   UNL     1      51.801  25.471  22.302  1.00  0.00    -0.000 C 
BRANCH  14  15
ATOM     15  C   UNL     1      52.116  26.919  21.903  1.00  0.00    -0.000 C 
BRANCH  15  16
ATOM     16  C   UNL     1      52.831  26.973  20.548  1.00  0.00    -0.003 C 
ATOM     17  C   UNL     1      53.223  25.575  20.076  1.00  0.00     0.004 C 
ENDBRANCH  15  16
ENDBRANCH  14  15
ENDBRANCH  13  14
ENDBRANCH  12  13
ENDBRANCH  11  12
ENDBRANCH  10  11
ENDBRANCH   1  10
TORSDOF 13
ENDMDL
MODEL 5
REMARK VINA RESULT:    -4.851      3.371      7.179
REMARK INTER + INTRA:          -9.552
REMARK INTER:                  -8.813
REMARK INTRA:                  -0.739
REMARK UNBOUND:                -1.015
REMARK SMILES CCCCCCCCCCCCCCC(=O)[O-]
REMARK SMILES IDX 9 1 10 2 11 3 12 4 13 5 14 6 15 7 16 8 17 9 8 10 7 11 6 12
REMARK SMILES IDX 5 13 4 14 3 15 2 16 1 17
REMARK H PARENT
REMARK Flexibility Score: inf
ROOT
ATOM      1  C   UNL     1      48.898  27.492  15.376  1.00  0.00     0.000 C 
ENDROOT
BRANCH   1   2
ATOM      2  C   UNL     1      47.972  28.481  16.107  1.00  0.00     0.000 C 
BRANCH   2   3
ATOM      3  C   UNL     1      47.606  29.751  15.310  1.00  0.00     0.000 C 
BRANCH   3   4
ATOM      4  C   UNL     1      48.575  30.935  15.482  1.00  0.00     0.000 C 
BRANCH   4   5
ATOM      5  C   UNL     1      49.025  31.131  16.939  1.00  0.00     0.006 C 
BRANCH   5   6
ATOM      6  C   UNL     1      48.064  32.036  17.724  1.00  0.00     0.053 C 
BRANCH   6   7
ATOM      7  C   UNL     1      48.172  33.467  17.298  1.00  0.00     0.041 C 
ATOM      8  O   UNL     1      49.225  34.119  17.529  1.00  0.00    -0.550 OA
ATOM      9  O   UNL     1      47.100  34.091  16.673  1.00  0.00    -0.550 OA
ENDBRANCH   6   7
ENDBRANCH   5   6
ENDBRANCH   4   5
ENDBRANCH   3   4
ENDBRANCH   2   3
ENDBRANCH   1   2
BRANCH   1  10
ATOM     10  C   UNL     1      48.748  26.048  15.885  1.00  0.00     0.000 C 
BRANCH  10  11
ATOM     11  C   UNL     1      48.534  25.980  17.406  1.00  0.00    -0.000 C 
BRANCH  11  12
ATOM     12  C   UNL     1      49.644  25.192  18.126  1.00  0.00    -0.000 C 
BRANCH  12  13
ATOM     13  C   UNL     1      49.963  25.761  19.518  1.00  0.00    -0.000 C 
BRANCH  13  14
ATOM     14  C   UNL     1      48.962  25.302  20.588  1.00  0.00    -0.000 C 
BRANCH  14  15
ATOM     15  C   UNL     1      49.648  25.136  21.949  1.00  0.00    -0.000 C 
BRANCH  15  16
ATOM     16  C   UNL     1      50.245  26.464  22.430  1.00  0.00    -0.003 C 
ATOM     17  C   UNL     1      49.157  27.400  22.948  1.00  0.00     0.004 C 
ENDBRANCH  15  16
ENDBRANCH  14  15
ENDBRANCH  13  14
ENDBRANCH  12  13
ENDBRANCH  11  12
ENDBRANCH  10  11
ENDBRANCH   1  10
TORSDOF 13
ENDMDL
MODEL 6
REMARK VINA RESULT:    -4.823      6.736     10.363
REMARK INTER + INTRA:          -9.504
REMARK INTER:                  -8.496
REMARK INTRA:                  -1.008
REMARK UNBOUND:                -1.015
REMARK SMILES CCCCCCCCCCCCCCC(=O)[O-]
REMARK SMILES IDX 9 1 10 2 11 3 12 4 13 5 14 6 15 7 16 8 17 9 8 10 7 11 6 12
REMARK SMILES IDX 5 13 4 14 3 15 2 16 1 17
REMARK H PARENT
REMARK Flexibility Score: inf
ROOT
ATOM      1  C   UNL     1      48.408  34.492  13.455  1.00  0.00     0.000 C 
ENDROOT
BRANCH   1   2
ATOM      2  C   UNL     1      47.213  34.491  12.484  1.00  0.00     0.000 C 
BRANCH   2   3
ATOM      3  C   UNL     1      46.374  35.785  12.472  1.00  0.00     0.000 C 
BRANCH   3   4
ATOM      4  C   UNL     1      45.093  35.744  13.325  1.00  0.00     0.000 C 
BRANCH   4   5
ATOM      5  C   UNL     1      43.811  35.825  12.480  1.00  0.00     0.006 C 
BRANCH   5   6
ATOM      6  C   UNL     1      43.208  37.237  12.476  1.00  0.00     0.053 C 
BRANCH   6   7
ATOM      7  C   UNL     1      41.716  37.206  12.357  1.00  0.00     0.041 C 
ATOM      8  O   UNL     1      41.002  37.849  13.174  1.00  0.00    -0.550 OA
ATOM      9  O   UNL     1      41.111  36.446  11.365  1.00  0.00    -0.550 OA
ENDBRANCH   6   7
ENDBRANCH   5   6
ENDBRANCH   4   5
ENDBRANCH   3   4
ENDBRANCH   2   3
ENDBRANCH   1   2
BRANCH   1  10
ATOM     10  C   UNL     1      48.296  33.406  14.539  1.00  0.00     0.000 C 
BRANCH  10  11
ATOM     11  C   UNL     1      47.480  33.873  15.756  1.00  0.00    -0.000 C 
BRANCH  11  12
ATOM     12  C   UNL     1      48.353  34.103  17.002  1.00  0.00    -0.000 C 
BRANCH  12  13
ATOM     13  C   UNL     1      49.097  32.833  17.445  1.00  0.00    -0.000 C 
BRANCH  13  14
ATOM     14  C   UNL     1      48.145  31.675  17.777  1.00  0.00    -0.000 C 
BRANCH  14  15
ATOM     15  C   UNL     1      48.740  30.331  17.342  1.00  0.00    -0.000 C 
BRANCH  15  16
ATOM     16  C   UNL     1      48.619  30.141  15.825  1.00  0.00    -0.003 C 
ATOM     17  C   UNL     1      47.191  29.778  15.428  1.00  0.00     0.004 C 
ENDBRANCH  15  16
ENDBRANCH  14  15
ENDBRANCH  13  14
ENDBRANCH  12  13
ENDBRANCH  11  12
ENDBRANCH  10  11
ENDBRANCH   1  10
TORSDOF 13
ENDMDL
MODEL 7
REMARK VINA RESULT:    -4.802      6.876     10.376
REMARK INTER + INTRA:          -9.467
REMARK INTER:                  -8.566
REMARK INTRA:                  -0.900
REMARK UNBOUND:                -1.015
REMARK SMILES CCCCCCCCCCCCCCC(=O)[O-]
REMARK SMILES IDX 9 1 10 2 11 3 12 4 13 5 14 6 15 7 16 8 17 9 8 10 7 11 6 12
REMARK SMILES IDX 5 13 4 14 3 15 2 16 1 17
REMARK H PARENT
REMARK Flexibility Score: inf
ROOT
ATOM      1  C   UNL     1      45.078  35.452  12.914  1.00  0.00     0.000 C 
ENDROOT
BRANCH   1   2
ATOM      2  C   UNL     1      46.560  35.595  12.522  1.00  0.00     0.000 C 
BRANCH   2   3
ATOM      3  C   UNL     1      47.160  34.392  11.766  1.00  0.00     0.000 C 
BRANCH   3   4
ATOM      4  C   UNL     1      48.226  33.596  12.540  1.00  0.00     0.000 C 
BRANCH   4   5
ATOM      5  C   UNL     1      48.506  34.176  13.937  1.00  0.00     0.006 C 
BRANCH   5   6
ATOM      6  C   UNL     1      48.078  33.220  15.058  1.00  0.00     0.053 C 
BRANCH   6   7
ATOM      7  C   UNL     1      47.776  33.950  16.330  1.00  0.00     0.041 C 
ATOM      8  O   UNL     1      46.614  34.384  16.550  1.00  0.00    -0.550 OA
ATOM      9  O   UNL     1      48.783  34.177  17.259  1.00  0.00    -0.550 OA
ENDBRANCH   6   7
ENDBRANCH   5   6
ENDBRANCH   4   5
ENDBRANCH   3   4
ENDBRANCH   2   3
ENDBRANCH   1   2
BRANCH   1  10
ATOM     10  C   UNL     1      44.228  36.659  12.483  1.00  0.00     0.000 C 
BRANCH  10  11
ATOM     11  C   UNL     1      42.724  36.342  12.461  1.00  0.00    -0.000 C 
BRANCH  11  12
ATOM     12  C   UNL     1      41.941  37.242  11.488  1.00  0.00    -0.000 C 
BRANCH  12  13
ATOM     13  C   UNL     1      41.790  36.611  10.094  1.00  0.00    -0.000 C 
BRANCH  13  14
ATOM     14  C   UNL     1      41.173  35.206  10.144  1.00  0.00    -0.000 C 
BRANCH  14  15
ATOM     15  C   UNL     1      39.663  35.258   9.882  1.00  0.00    -0.000 C 
BRANCH  15  16
ATOM     16  C   UNL     1      38.872  34.931  11.154  1.00  0.00    -0.003 C 
ATOM     17  C   UNL     1      38.395  36.203  11.848  1.00  0.00     0.004 C 
ENDBRANCH  15  16
ENDBRANCH  14  15
ENDBRANCH  13  14
ENDBRANCH  12  13
ENDBRANCH  11  12
ENDBRANCH  10  11
ENDBRANCH   1  10
TORSDOF 13
ENDMDL
MODEL 8
REMARK VINA RESULT:    -4.750      3.908      6.641
REMARK INTER + INTRA:          -9.374
REMARK INTER:                  -8.022
REMARK INTRA:                  -1.352
REMARK UNBOUND:                -1.015
REMARK SMILES CCCCCCCCCCCCCCC(=O)[O-]
REMARK SMILES IDX 9 1 10 2 11 3 12 4 13 5 14 6 15 7 16 8 17 9 8 10 7 11 6 12
REMARK SMILES IDX 5 13 4 14 3 15 2 16 1 17
REMARK H PARENT
REMARK Flexibility Score: inf
ROOT
ATOM      1  C   UNL     1      48.137  26.372  21.866  1.00  0.00     0.000 C 
ENDROOT
BRANCH   1   2
ATOM      2  C   UNL     1      48.582  25.260  20.898  1.00  0.00     0.000 C 
BRANCH   2   3
ATOM      3  C   UNL     1      48.445  25.599  19.399  1.00  0.00     0.000 C 
BRANCH   3   4
ATOM      4  C   UNL     1      49.612  25.129  18.512  1.00  0.00     0.000 C 
BRANCH   4   5
ATOM      5  C   UNL     1      49.467  25.580  17.049  1.00  0.00     0.006 C 
BRANCH   5   6
ATOM      6  C   UNL     1      48.174  26.372  16.812  1.00  0.00     0.053 C 
BRANCH   6   7
ATOM      7  C   UNL     1      48.451  27.799  16.452  1.00  0.00     0.041 C 
ATOM      8  O   UNL     1      49.637  28.222  16.408  1.00  0.00    -0.550 OA
ATOM      9  O   UNL     1      47.400  28.669  16.195  1.00  0.00    -0.550 OA
ENDBRANCH   6   7
ENDBRANCH   5   6
ENDBRANCH   4   5
ENDBRANCH   3   4
ENDBRANCH   2   3
ENDBRANCH   1   2
BRANCH   1  10
ATOM     10  C   UNL     1      49.317  27.022  22.609  1.00  0.00     0.000 C 
BRANCH  10  11
ATOM     11  C   UNL     1      50.588  26.158  22.563  1.00  0.00    -0.000 C 
BRANCH  11  12
ATOM     12  C   UNL     1      51.867  26.995  22.378  1.00  0.00    -0.000 C 
BRANCH  12  13
ATOM     13  C   UNL     1      53.074  26.142  21.955  1.00  0.00    -0.000 C 
BRANCH  13  14
ATOM     14  C   UNL     1      52.991  25.684  20.492  1.00  0.00    -0.000 C 
BRANCH  14  15
ATOM     15  C   UNL     1      52.562  26.838  19.578  1.00  0.00    -0.000 C 
BRANCH  15  16
ATOM     16  C   UNL     1      53.698  27.242  18.631  1.00  0.00    -0.003 C 
ATOM     17  C   UNL     1      54.157  28.672  18.901  1.00  0.00     0.004 C 
ENDBRANCH  15  16
ENDBRANCH  14  15
ENDBRANCH  13  14
ENDBRANCH  12  13
ENDBRANCH  11  12
ENDBRANCH  10  11
ENDBRANCH   1  10
TORSDOF 13
ENDMDL
MODEL 9
REMARK VINA RESULT:    -4.746      3.499      7.152
REMARK INTER + INTRA:          -9.367
REMARK INTER:                  -8.221
REMARK INTRA:                  -1.146
REMARK UNBOUND:                -1.015
REMARK SMILES CCCCCCCCCCCCCCC(=O)[O-]
REMARK SMILES IDX 9 1 10 2 11 3 12 4 13 5 14 6 15 7 16 8 17 9 8 10 7 11 6 12
REMARK SMILES IDX 5 13 4 14 3 15 2 16 1 17
REMARK H PARENT
REMARK Flexibility Score: inf
ROOT
ATOM      1  C   UNL     1      49.843  26.573  17.851  1.00  0.00     0.000 C 
ENDROOT
BRANCH   1   2
ATOM      2  C   UNL     1      48.764  26.498  16.755  1.00  0.00     0.000 C 
BRANCH   2   3
ATOM      3  C   UNL     1      48.251  27.860  16.243  1.00  0.00     0.000 C 
BRANCH   3   4
ATOM      4  C   UNL     1      48.739  29.085  17.036  1.00  0.00     0.000 C 
BRANCH   4   5
ATOM      5  C   UNL     1      47.671  30.186  17.150  1.00  0.00     0.006 C 
BRANCH   5   6
ATOM      6  C   UNL     1      48.290  31.590  17.191  1.00  0.00     0.053 C 
BRANCH   6   7
ATOM      7  C   UNL     1      48.210  32.275  15.861  1.00  0.00     0.041 C 
ATOM      8  O   UNL     1      47.911  33.497  15.795  1.00  0.00    -0.550 OA
ATOM      9  O   UNL     1      48.436  31.558  14.693  1.00  0.00    -0.550 OA
ENDBRANCH   6   7
ENDBRANCH   5   6
ENDBRANCH   4   5
ENDBRANCH   3   4
ENDBRANCH   2   3
ENDBRANCH   1   2
BRANCH   1  10
ATOM     10  C   UNL     1      49.770  25.398  18.841  1.00  0.00     0.000 C 
BRANCH  10  11
ATOM     11  C   UNL     1      48.433  25.350  19.599  1.00  0.00    -0.000 C 
BRANCH  11  12
ATOM     12  C   UNL     1      48.617  25.360  21.127  1.00  0.00    -0.000 C 
BRANCH  12  13
ATOM     13  C   UNL     1      48.392  26.753  21.739  1.00  0.00    -0.000 C 
BRANCH  13  14
ATOM     14  C   UNL     1      49.465  27.125  22.772  1.00  0.00    -0.000 C 
BRANCH  14  15
ATOM     15  C   UNL     1      50.708  26.240  22.616  1.00  0.00    -0.000 C 
BRANCH  15  16
ATOM     16  C   UNL     1      51.939  27.080  22.256  1.00  0.00    -0.003 C 
ATOM     17  C   UNL     1      52.687  26.479  21.069  1.00  0.00     0.004 C 
ENDBRANCH  15  16
ENDBRANCH  14  15
ENDBRANCH  13  14
ENDBRANCH  12  13
ENDBRANCH  11  12
ENDBRANCH  10  11
ENDBRANCH   1  10
TORSDOF 13
ENDMDL
