MODEL 1
REMARK VINA RESULT:    -0.913      0.000      0.000
REMARK INTER + INTRA:          -4.179
REMARK INTER:                  -1.661
REMARK INTRA:                  -2.518
REMARK UNBOUND:                -2.518
REMARK SMILES CCCCCCCCCCCCCCCC(=O)[O-]
REMARK SMILES IDX 9 1 10 2 11 3 12 4 13 5 14 6 15 7 16 8 17 9 18 10 8 11 7 12
REMARK SMILES IDX 6 13 5 14 4 15 3 16 2 17 1 18
REMARK H PARENT
REMARK Flexibility Score: inf
ROOT
ATOM      1  C   UNL     1      36.082   3.689  37.799  1.00  0.00     0.000 C 
ENDROOT
BRANCH   1   2
ATOM      2  C   UNL     1      36.341   2.261  38.304  1.00  0.00     0.000 C 
BRANCH   2   3
ATOM      3  C   UNL     1      35.714   2.004  39.686  1.00  0.00     0.000 C 
BRANCH   3   4
ATOM      4  C   UNL     1      36.420   0.875  40.455  1.00  0.00     0.000 C 
BRANCH   4   5
ATOM      5  C   UNL     1      36.753   1.264  41.906  1.00  0.00     0.000 C 
BRANCH   5   6
ATOM      6  C   UNL     1      38.257   1.495  42.125  1.00  0.00     0.006 C 
BRANCH   6   7
ATOM      7  C   UNL     1      39.074   1.315  40.839  1.00  0.00     0.053 C 
BRANCH   7   8
ATOM      8  C   UNL     1      40.426   1.939  40.989  1.00  0.00     0.041 C 
ATOM      9  O   UNL     1      41.433   1.222  41.226  1.00  0.00    -0.550 OA
ATOM     10  O   UNL     1      40.565   3.320  40.920  1.00  0.00    -0.550 OA
ENDBRANCH   7   8
ENDBRANCH   6   7
ENDBRANCH   5   6
ENDBRANCH   4   5
ENDBRANCH   3   4
ENDBRANCH   2   3
ENDBRANCH   1   2
BRANCH   1  11
ATOM     11  C   UNL     1      37.385   4.452  37.498  1.00  0.00     0.000 C 
BRANCH  11  12
ATOM     12  C   UNL     1      38.126   4.879  38.775  1.00  0.00    -0.000 C 
BRANCH  12  13
ATOM     13  C   UNL     1      37.188   5.499  39.827  1.00  0.00    -0.000 C 
BRANCH  13  14
ATOM     14  C   UNL     1      37.466   4.979  41.246  1.00  0.00    -0.000 C 
BRANCH  14  15
ATOM     15  C   UNL     1      36.187   4.838  42.086  1.00  0.00    -0.000 C 
BRANCH  15  16
ATOM     16  C   UNL     1      35.034   5.641  41.467  1.00  0.00    -0.000 C 
BRANCH  16  17
ATOM     17  C   UNL     1      33.744   4.817  41.332  1.00  0.00    -0.003 C 
ATOM     18  C   UNL     1      33.233   4.748  39.893  1.00  0.00     0.004 C 
ENDBRANCH  16  17
ENDBRANCH  15  16
ENDBRANCH  14  15
ENDBRANCH  13  14
ENDBRANCH  12  13
ENDBRANCH  11  12
ENDBRANCH   1  11
TORSDOF 14
ENDMDL
MODEL 2
REMARK VINA RESULT:    -0.879      2.915      5.421
REMARK INTER + INTRA:          -4.116
REMARK INTER:                  -1.565
REMARK INTRA:                  -2.551
REMARK UNBOUND:                -2.518
REMARK SMILES CCCCCCCCCCCCCCCC(=O)[O-]
REMARK SMILES IDX 9 1 10 2 11 3 12 4 13 5 14 6 15 7 16 8 17 9 18 10 8 11 7 12
REMARK SMILES IDX 6 13 5 14 4 15 3 16 2 17 1 18
REMARK H PARENT
REMARK Flexibility Score: inf
ROOT
ATOM      1  C   UNL     1      39.854   4.861  37.620  1.00  0.00     0.000 C 
ENDROOT
BRANCH   1   2
ATOM      2  C   UNL     1      40.182   4.712  39.115  1.00  0.00     0.000 C 
BRANCH   2   3
ATOM      3  C   UNL     1      39.106   5.341  40.017  1.00  0.00     0.000 C 
BRANCH   3   4
ATOM      4  C   UNL     1      39.311   5.005  41.503  1.00  0.00     0.000 C 
BRANCH   4   5
ATOM      5  C   UNL     1      38.246   4.034  42.044  1.00  0.00     0.000 C 
BRANCH   5   6
ATOM      6  C   UNL     1      36.821   4.426  41.623  1.00  0.00     0.006 C 
BRANCH   6   7
ATOM      7  C   UNL     1      35.815   3.284  41.813  1.00  0.00     0.053 C 
BRANCH   7   8
ATOM      8  C   UNL     1      34.414   3.794  41.677  1.00  0.00     0.041 C 
ATOM      9  O   UNL     1      34.200   4.940  41.204  1.00  0.00    -0.550 OA
ATOM     10  O   UNL     1      33.348   3.023  42.125  1.00  0.00    -0.550 OA
ENDBRANCH   7   8
ENDBRANCH   6   7
ENDBRANCH   5   6
ENDBRANCH   4   5
ENDBRANCH   3   4
ENDBRANCH   2   3
ENDBRANCH   1   2
BRANCH   1  11
ATOM     11  C   UNL     1      39.105   3.640  37.058  1.00  0.00     0.000 C 
BRANCH  11  12
ATOM     12  C   UNL     1      37.578   3.785  37.162  1.00  0.00    -0.000 C 
BRANCH  12  13
ATOM     13  C   UNL     1      36.969   2.882  38.249  1.00  0.00    -0.000 C 
BRANCH  13  14
ATOM     14  C   UNL     1      37.681   1.524  38.357  1.00  0.00    -0.000 C 
BRANCH  14  15
ATOM     15  C   UNL     1      38.259   1.267  39.757  1.00  0.00    -0.000 C 
BRANCH  15  16
ATOM     16  C   UNL     1      39.779   1.065  39.693  1.00  0.00    -0.000 C 
BRANCH  16  17
ATOM     17  C   UNL     1      40.451   1.185  41.071  1.00  0.00    -0.003 C 
ATOM     18  C   UNL     1      41.755   1.981  41.026  1.00  0.00     0.004 C 
ENDBRANCH  16  17
ENDBRANCH  15  16
ENDBRANCH  14  15
ENDBRANCH  13  14
ENDBRANCH  12  13
ENDBRANCH  11  12
ENDBRANCH   1  11
TORSDOF 14
ENDMDL
MODEL 3
REMARK VINA RESULT:    -0.840      2.679      4.134
REMARK INTER + INTRA:          -4.045
REMARK INTER:                  -1.242
REMARK INTRA:                  -2.803
REMARK UNBOUND:                -2.518
REMARK SMILES CCCCCCCCCCCCCCCC(=O)[O-]
REMARK SMILES IDX 9 1 10 2 11 3 12 4 13 5 14 6 15 7 16 8 17 9 18 10 8 11 7 12
REMARK SMILES IDX 6 13 5 14 4 15 3 16 2 17 1 18
REMARK H PARENT
REMARK Flexibility Score: inf
ROOT
ATOM      1  C   UNL     1      39.900   5.149  38.477  1.00  0.00     0.000 C 
ENDROOT
BRANCH   1   2
ATOM      2  C   UNL     1      38.402   4.807  38.438  1.00  0.00     0.000 C 
BRANCH   2   3
ATOM      3  C   UNL     1      37.575   5.680  39.398  1.00  0.00     0.000 C 
BRANCH   3   4
ATOM      4  C   UNL     1      36.659   4.851  40.312  1.00  0.00     0.000 C 
BRANCH   4   5
ATOM      5  C   UNL     1      37.132   4.841  41.776  1.00  0.00     0.000 C 
BRANCH   5   6
ATOM      6  C   UNL     1      37.946   3.585  42.125  1.00  0.00     0.006 C 
BRANCH   6   7
ATOM      7  C   UNL     1      37.398   2.321  41.449  1.00  0.00     0.053 C 
BRANCH   7   8
ATOM      8  C   UNL     1      38.500   1.576  40.763  1.00  0.00     0.041 C 
ATOM      9  O   UNL     1      39.510   1.199  41.412  1.00  0.00    -0.550 OA
ATOM     10  O   UNL     1      38.436   1.347  39.394  1.00  0.00    -0.550 OA
ENDBRANCH   7   8
ENDBRANCH   6   7
ENDBRANCH   5   6
ENDBRANCH   4   5
ENDBRANCH   3   4
ENDBRANCH   2   3
ENDBRANCH   1   2
BRANCH   1  11
ATOM     11  C   UNL     1      40.747   4.013  39.076  1.00  0.00     0.000 C 
BRANCH  11  12
ATOM     12  C   UNL     1      41.176   4.297  40.525  1.00  0.00    -0.000 C 
BRANCH  12  13
ATOM     13  C   UNL     1      41.333   5.801  40.812  1.00  0.00    -0.000 C 
BRANCH  13  14
ATOM     14  C   UNL     1      40.543   6.252  42.051  1.00  0.00    -0.000 C 
BRANCH  14  15
ATOM     15  C   UNL     1      40.346   7.775  42.106  1.00  0.00    -0.000 C 
BRANCH  15  16
ATOM     16  C   UNL     1      38.903   8.153  41.743  1.00  0.00    -0.000 C 
BRANCH  16  17
ATOM     17  C   UNL     1      38.831   9.220  40.639  1.00  0.00    -0.003 C 
ATOM     18  C   UNL     1      39.582   8.811  39.371  1.00  0.00     0.004 C 
ENDBRANCH  16  17
ENDBRANCH  15  16
ENDBRANCH  14  15
ENDBRANCH  13  14
ENDBRANCH  12  13
ENDBRANCH  11  12
ENDBRANCH   1  11
TORSDOF 14
ENDMDL
MODEL 4
REMARK VINA RESULT:    -0.826      1.950      3.428
REMARK INTER + INTRA:          -4.019
REMARK INTER:                  -1.196
REMARK INTRA:                  -2.823
REMARK UNBOUND:                -2.518
REMARK SMILES CCCCCCCCCCCCCCCC(=O)[O-]
REMARK SMILES IDX 9 1 10 2 11 3 12 4 13 5 14 6 15 7 16 8 17 9 18 10 8 11 7 12
REMARK SMILES IDX 6 13 5 14 4 15 3 16 2 17 1 18
REMARK H PARENT
REMARK Flexibility Score: inf
ROOT
ATOM      1  C   UNL     1      33.875   3.125  37.134  1.00  0.00     0.000 C 
ENDROOT
BRANCH   1   2
ATOM      2  C   UNL     1      34.109   4.470  37.841  1.00  0.00     0.000 C 
BRANCH   2   3
ATOM      3  C   UNL     1      35.566   4.645  38.303  1.00  0.00     0.000 C 
BRANCH   3   4
ATOM      4  C   UNL     1      35.687   4.821  39.825  1.00  0.00     0.000 C 
BRANCH   4   5
ATOM      5  C   UNL     1      36.848   4.010  40.426  1.00  0.00     0.000 C 
BRANCH   5   6
ATOM      6  C   UNL     1      37.730   3.356  39.351  1.00  0.00     0.006 C 
BRANCH   6   7
ATOM      7  C   UNL     1      38.130   1.919  39.710  1.00  0.00     0.053 C 
BRANCH   7   8
ATOM      8  C   UNL     1      38.915   1.899  40.984  1.00  0.00     0.041 C 
ATOM      9  O   UNL     1      40.082   2.371  41.019  1.00  0.00    -0.550 OA
ATOM     10  O   UNL     1      38.377   1.309  42.122  1.00  0.00    -0.550 OA
ENDBRANCH   7   8
ENDBRANCH   6   7
ENDBRANCH   5   6
ENDBRANCH   4   5
ENDBRANCH   3   4
ENDBRANCH   2   3
ENDBRANCH   1   2
BRANCH   1  11
ATOM     11  C   UNL     1      33.369   2.036  38.096  1.00  0.00     0.000 C 
BRANCH  11  12
ATOM     12  C   UNL     1      34.479   1.063  38.522  1.00  0.00    -0.000 C 
BRANCH  12  13
ATOM     13  C   UNL     1      34.658   0.998  40.050  1.00  0.00    -0.000 C 
BRANCH  13  14
ATOM     14  C   UNL     1      33.451   1.570  40.810  1.00  0.00    -0.000 C 
BRANCH  14  15
ATOM     15  C   UNL     1      33.862   2.402  42.034  1.00  0.00    -0.000 C 
BRANCH  15  16
ATOM     16  C   UNL     1      33.032   3.690  42.125  1.00  0.00    -0.000 C 
BRANCH  16  17
ATOM     17  C   UNL     1      32.069   3.858  40.939  1.00  0.00    -0.003 C 
ATOM     18  C   UNL     1      31.880   5.320  40.533  1.00  0.00     0.004 C 
ENDBRANCH  16  17
ENDBRANCH  15  16
ENDBRANCH  14  15
ENDBRANCH  13  14
ENDBRANCH  12  13
ENDBRANCH  11  12
ENDBRANCH   1  11
TORSDOF 14
ENDMDL
MODEL 5
REMARK VINA RESULT:    -0.806      2.768      5.513
REMARK INTER + INTRA:          -3.983
REMARK INTER:                  -1.243
REMARK INTRA:                  -2.740
REMARK UNBOUND:                -2.518
REMARK SMILES CCCCCCCCCCCCCCCC(=O)[O-]
REMARK SMILES IDX 9 1 10 2 11 3 12 4 13 5 14 6 15 7 16 8 17 9 18 10 8 11 7 12
REMARK SMILES IDX 6 13 5 14 4 15 3 16 2 17 1 18
REMARK H PARENT
REMARK Flexibility Score: inf
ROOT
ATOM      1  C   UNL     1      40.196   5.288  38.627  1.00  0.00     0.000 C 
ENDROOT
BRANCH   1   2
ATOM      2  C   UNL     1      39.868   4.176  37.617  1.00  0.00     0.000 C 
BRANCH   2   3
ATOM      3  C   UNL     1      38.524   3.488  37.917  1.00  0.00     0.000 C 
BRANCH   3   4
ATOM      4  C   UNL     1      38.670   1.973  38.131  1.00  0.00     0.000 C 
BRANCH   4   5
ATOM      5  C   UNL     1      38.293   1.538  39.559  1.00  0.00     0.000 C 
BRANCH   5   6
ATOM      6  C   UNL     1      36.982   2.176  40.044  1.00  0.00     0.006 C 
BRANCH   6   7
ATOM      7  C   UNL     1      36.941   2.352  41.568  1.00  0.00     0.053 C 
BRANCH   7   8
ATOM      8  C   UNL     1      36.105   3.538  41.934  1.00  0.00     0.041 C 
ATOM      9  O   UNL     1      36.644   4.660  42.125  1.00  0.00    -0.550 OA
ATOM     10  O   UNL     1      34.736   3.393  42.117  1.00  0.00    -0.550 OA
ENDBRANCH   7   8
ENDBRANCH   6   7
ENDBRANCH   5   6
ENDBRANCH   4   5
ENDBRANCH   3   4
ENDBRANCH   2   3
ENDBRANCH   1   2
BRANCH   1  11
ATOM     11  C   UNL     1      39.384   5.158  39.928  1.00  0.00     0.000 C 
BRANCH  11  12
ATOM     12  C   UNL     1      40.172   4.456  41.047  1.00  0.00    -0.000 C 
BRANCH  12  13
ATOM     13  C   UNL     1      41.678   4.769  40.998  1.00  0.00    -0.000 C 
BRANCH  13  14
ATOM     14  C   UNL     1      42.543   3.503  40.893  1.00  0.00    -0.000 C 
BRANCH  14  15
ATOM     15  C   UNL     1      41.723   2.212  41.040  1.00  0.00    -0.000 C 
BRANCH  15  16
ATOM     16  C   UNL     1      41.902   1.307  39.813  1.00  0.00    -0.000 C 
BRANCH  16  17
ATOM     17  C   UNL     1      42.591   2.026  38.642  1.00  0.00    -0.003 C 
ATOM     18  C   UNL     1      42.332   1.348  37.297  1.00  0.00     0.004 C 
ENDBRANCH  16  17
ENDBRANCH  15  16
ENDBRANCH  14  15
ENDBRANCH  13  14
ENDBRANCH  12  13
ENDBRANCH  11  12
ENDBRANCH   1  11
TORSDOF 14
ENDMDL
MODEL 6
REMARK VINA RESULT:    -0.797      2.600      5.309
REMARK INTER + INTRA:          -3.968
REMARK INTER:                  -1.594
REMARK INTRA:                  -2.374
REMARK UNBOUND:                -2.518
REMARK SMILES CCCCCCCCCCCCCCCC(=O)[O-]
REMARK SMILES IDX 9 1 10 2 11 3 12 4 13 5 14 6 15 7 16 8 17 9 18 10 8 11 7 12
REMARK SMILES IDX 6 13 5 14 4 15 3 16 2 17 1 18
REMARK H PARENT
REMARK Flexibility Score: inf
ROOT
ATOM      1  C   UNL     1      36.331   4.299  39.996  1.00  0.00     0.000 C 
ENDROOT
BRANCH   1   2
ATOM      2  C   UNL     1      35.955   5.045  41.287  1.00  0.00     0.000 C 
BRANCH   2   3
ATOM      3  C   UNL     1      37.189   5.574  42.039  1.00  0.00     0.000 C 
BRANCH   3   4
ATOM      4  C   UNL     1      38.434   4.700  41.823  1.00  0.00     0.000 C 
BRANCH   4   5
ATOM      5  C   UNL     1      39.746   5.493  41.958  1.00  0.00     0.000 C 
BRANCH   5   6
ATOM      6  C   UNL     1      40.314   5.930  40.598  1.00  0.00     0.006 C 
BRANCH   6   7
ATOM      7  C   UNL     1      40.222   7.446  40.380  1.00  0.00     0.053 C 
BRANCH   7   8
ATOM      8  C   UNL     1      39.394   7.750  39.171  1.00  0.00     0.041 C 
ATOM      9  O   UNL     1      39.834   8.521  38.278  1.00  0.00    -0.550 OA
ATOM     10  O   UNL     1      38.113   7.224  39.057  1.00  0.00    -0.550 OA
ENDBRANCH   7   8
ENDBRANCH   6   7
ENDBRANCH   5   6
ENDBRANCH   4   5
ENDBRANCH   3   4
ENDBRANCH   2   3
ENDBRANCH   1   2
BRANCH   1  11
ATOM     11  C   UNL     1      35.712   2.892  39.929  1.00  0.00     0.000 C 
BRANCH  11  12
ATOM     12  C   UNL     1      35.151   2.429  41.283  1.00  0.00    -0.000 C 
BRANCH  12  13
ATOM     13  C   UNL     1      36.186   1.659  42.123  1.00  0.00    -0.000 C 
BRANCH  13  14
ATOM     14  C   UNL     1      37.235   0.943  41.257  1.00  0.00    -0.000 C 
BRANCH  14  15
ATOM     15  C   UNL     1      38.624   0.913  41.913  1.00  0.00    -0.000 C 
BRANCH  15  16
ATOM     16  C   UNL     1      39.701   1.406  40.936  1.00  0.00    -0.000 C 
BRANCH  16  17
ATOM     17  C   UNL     1      39.134   1.735  39.546  1.00  0.00    -0.003 C 
ATOM     18  C   UNL     1      40.039   2.670  38.744  1.00  0.00     0.004 C 
ENDBRANCH  16  17
ENDBRANCH  15  16
ENDBRANCH  14  15
ENDBRANCH  13  14
ENDBRANCH  12  13
ENDBRANCH  11  12
ENDBRANCH   1  11
TORSDOF 14
ENDMDL
MODEL 7
REMARK VINA RESULT:    -0.793      2.950      4.879
REMARK INTER + INTRA:          -3.960
REMARK INTER:                  -1.407
REMARK INTRA:                  -2.553
REMARK UNBOUND:                -2.518
REMARK SMILES CCCCCCCCCCCCCCCC(=O)[O-]
REMARK SMILES IDX 9 1 10 2 11 3 12 4 13 5 14 6 15 7 16 8 17 9 18 10 8 11 7 12
REMARK SMILES IDX 6 13 5 14 4 15 3 16 2 17 1 18
REMARK H PARENT
REMARK Flexibility Score: inf
ROOT
ATOM      1  C   UNL     1      39.148   4.795  37.972  1.00  0.00     0.000 C 
ENDROOT
BRANCH   1   2
ATOM      2  C   UNL     1      37.687   4.475  37.616  1.00  0.00     0.000 C 
BRANCH   2   3
ATOM      3  C   UNL     1      36.693   5.048  38.642  1.00  0.00     0.000 C 
BRANCH   3   4
ATOM      4  C   UNL     1      35.228   4.797  38.250  1.00  0.00     0.000 C 
BRANCH   4   5
ATOM      5  C   UNL     1      34.795   3.337  38.473  1.00  0.00     0.000 C 
BRANCH   5   6
ATOM      6  C   UNL     1      35.156   2.822  39.875  1.00  0.00     0.006 C 
BRANCH   6   7
ATOM      7  C   UNL     1      33.918   2.538  40.736  1.00  0.00     0.053 C 
BRANCH   7   8
ATOM      8  C   UNL     1      33.375   3.811  41.306  1.00  0.00     0.041 C 
ATOM      9  O   UNL     1      34.158   4.712  41.707  1.00  0.00    -0.550 OA
ATOM     10  O   UNL     1      32.003   3.981  41.443  1.00  0.00    -0.550 OA
ENDBRANCH   7   8
ENDBRANCH   6   7
ENDBRANCH   5   6
ENDBRANCH   4   5
ENDBRANCH   3   4
ENDBRANCH   2   3
ENDBRANCH   1   2
BRANCH   1  11
ATOM     11  C   UNL     1      39.825   3.656  38.754  1.00  0.00     0.000 C 
BRANCH  11  12
ATOM     12  C   UNL     1      39.092   2.314  38.595  1.00  0.00    -0.000 C 
BRANCH  12  13
ATOM     13  C   UNL     1      38.621   1.732  39.940  1.00  0.00    -0.000 C 
BRANCH  13  14
ATOM     14  C   UNL     1      39.057   2.589  41.140  1.00  0.00    -0.000 C 
BRANCH  14  15
ATOM     15  C   UNL     1      37.885   2.955  42.062  1.00  0.00    -0.000 C 
BRANCH  15  16
ATOM     16  C   UNL     1      37.693   4.478  42.125  1.00  0.00    -0.000 C 
BRANCH  16  17
ATOM     17  C   UNL     1      39.013   5.248  41.968  1.00  0.00    -0.003 C 
ATOM     18  C   UNL     1      38.827   6.611  41.300  1.00  0.00     0.004 C 
ENDBRANCH  16  17
ENDBRANCH  15  16
ENDBRANCH  14  15
ENDBRANCH  13  14
ENDBRANCH  12  13
ENDBRANCH  11  12
ENDBRANCH   1  11
TORSDOF 14
ENDMDL
MODEL 8
REMARK VINA RESULT:    -0.782      3.360      4.922
REMARK INTER + INTRA:          -3.939
REMARK INTER:                  -1.746
REMARK INTRA:                  -2.193
REMARK UNBOUND:                -2.518
REMARK SMILES CCCCCCCCCCCCCCCC(=O)[O-]
REMARK SMILES IDX 9 1 10 2 11 3 12 4 13 5 14 6 15 7 16 8 17 9 18 10 8 11 7 12
REMARK SMILES IDX 6 13 5 14 4 15 3 16 2 17 1 18
REMARK H PARENT
REMARK Flexibility Score: inf
ROOT
ATOM      1  C   UNL     1      39.764   1.964  40.600  1.00  0.00     0.000 C 
ENDROOT
BRANCH   1   2
ATOM      2  C   UNL     1      38.696   2.320  41.647  1.00  0.00     0.000 C 
BRANCH   2   3
ATOM      3  C   UNL     1      37.908   1.087  42.125  1.00  0.00     0.000 C 
BRANCH   3   4
ATOM      4  C   UNL     1      36.388   1.315  42.113  1.00  0.00     0.000 C 
BRANCH   4   5
ATOM      5  C   UNL     1      35.789   1.243  40.698  1.00  0.00     0.000 C 
BRANCH   5   6
ATOM      6  C   UNL     1      34.416   1.928  40.603  1.00  0.00     0.006 C 
BRANCH   6   7
ATOM      7  C   UNL     1      33.766   2.140  41.976  1.00  0.00     0.053 C 
BRANCH   7   8
ATOM      8  C   UNL     1      32.349   2.593  41.819  1.00  0.00     0.041 C 
ATOM      9  O   UNL     1      31.478   1.807  41.363  1.00  0.00    -0.550 OA
ATOM     10  O   UNL     1      32.001   3.903  42.125  1.00  0.00    -0.550 OA
ENDBRANCH   7   8
ENDBRANCH   6   7
ENDBRANCH   5   6
ENDBRANCH   4   5
ENDBRANCH   3   4
ENDBRANCH   2   3
ENDBRANCH   1   2
BRANCH   1  11
ATOM     11  C   UNL     1      39.174   1.217  39.390  1.00  0.00     0.000 C 
BRANCH  11  12
ATOM     12  C   UNL     1      39.173   2.072  38.113  1.00  0.00    -0.000 C 
BRANCH  12  13
ATOM     13  C   UNL     1      38.151   3.222  38.170  1.00  0.00    -0.000 C 
BRANCH  13  14
ATOM     14  C   UNL     1      38.811   4.606  38.065  1.00  0.00    -0.000 C 
BRANCH  14  15
ATOM     15  C   UNL     1      38.160   5.645  38.991  1.00  0.00    -0.000 C 
BRANCH  15  16
ATOM     16  C   UNL     1      36.973   5.033  39.750  1.00  0.00    -0.000 C 
BRANCH  16  17
ATOM     17  C   UNL     1      36.989   5.377  41.248  1.00  0.00    -0.003 C 
ATOM     18  C   UNL     1      35.619   5.210  41.907  1.00  0.00     0.004 C 
ENDBRANCH  16  17
ENDBRANCH  15  16
ENDBRANCH  14  15
ENDBRANCH  13  14
ENDBRANCH  12  13
ENDBRANCH  11  12
ENDBRANCH   1  11
TORSDOF 14
ENDMDL
