MODEL 1
REMARK VINA RESULT:    -8.514      0.000      0.000
REMARK INTER + INTRA:         -10.370
REMARK INTER:                 -10.256
REMARK INTRA:                  -0.114
REMARK UNBOUND:                -0.114
REMARK SMILES O=c1c(O)c(-c2ccc(O)cc2O)oc2cc(O)cc(O)c12
REMARK SMILES IDX 5 1 3 2 2 3 1 4 22 5 20 6 19 7 17 8 16 9 15 10 14 11 6 12
REMARK SMILES IDX 8 13 7 14 9 15 11 16 12 17 10 18 13 20 4 22 21 24 18 26
REMARK H PARENT 10 19 13 21 4 23 21 25 18 27
REMARK Flexibility Score: inf
ROOT
ATOM      1  C   UNL     1     139.982 -18.721  80.782  1.00  0.00     0.184 A 
ATOM      2  C   UNL     1     139.586 -17.375  80.749  1.00  0.00     0.208 A 
ATOM      3  C   UNL     1     139.461 -16.733  79.508  1.00  0.00     0.238 A 
ATOM      4  O   UNL     1     139.166 -15.509  79.487  1.00  0.00    -0.285 OA
ATOM      5  C   UNL     1     139.709 -17.454  78.314  1.00  0.00     0.111 A 
ATOM      6  C   UNL     1     139.575 -16.916  76.999  1.00  0.00     0.134 A 
ATOM      7  C   UNL     1     139.964 -17.686  75.895  1.00  0.00     0.093 A 
ATOM      8  C   UNL     1     140.420 -18.996  76.055  1.00  0.00     0.123 A 
ATOM      9  C   UNL     1     140.499 -19.550  77.331  1.00  0.00     0.094 A 
ATOM     10  C   UNL     1     140.154 -18.796  78.453  1.00  0.00     0.146 A 
ATOM     11  O   UNL     1     140.256 -19.358  79.652  1.00  0.00    -0.451 OA
ENDROOT
BRANCH   1  12
ATOM     12  C   UNL     1     140.107 -19.455  82.060  1.00  0.00     0.063 A 
ATOM     13  C   UNL     1     140.874 -19.503  84.369  1.00  0.00     0.047 A 
ATOM     14  C   UNL     1     140.789 -18.858  83.134  1.00  0.00     0.020 A 
ATOM     15  C   UNL     1     140.271 -20.753  84.551  1.00  0.00     0.119 A 
ATOM     16  C   UNL     1     139.589 -21.355  83.491  1.00  0.00     0.093 A 
ATOM     17  C   UNL     1     139.506 -20.721  82.244  1.00  0.00     0.130 A 
BRANCH  15  18
ATOM     18  O   UNL     1     140.345 -21.405  85.781  1.00  0.00    -0.508 OA
ATOM     19  H   UNL     1     139.815 -21.083  86.583  1.00  0.00     0.293 HD
ENDBRANCH  15  18
BRANCH  17  20
ATOM     20  O   UNL     1     138.843 -21.386  81.211  1.00  0.00    -0.507 OA
ATOM     21  H   UNL     1     138.980 -22.368  81.007  1.00  0.00     0.293 HD
ENDBRANCH  17  20
ENDBRANCH   1  12
BRANCH   2  22
ATOM     22  O   UNL     1     139.344 -16.689  81.943  1.00  0.00    -0.502 OA
ATOM     23  H   UNL     1     139.716 -15.764  82.122  1.00  0.00     0.293 HD
ENDBRANCH   2  22
BRANCH   6  24
ATOM     24  O   UNL     1     139.046 -15.652  76.721  1.00  0.00    -0.507 OA
ATOM     25  H   UNL     1     138.073 -15.463  76.538  1.00  0.00     0.293 HD
ENDBRANCH   6  24
BRANCH   8  26
ATOM     26  O   UNL     1     140.789 -19.760  74.950  1.00  0.00    -0.508 OA
ATOM     27  H   UNL     1     141.168 -19.334  74.113  1.00  0.00     0.293 HD
ENDBRANCH   8  26
TORSDOF 6
ENDMDL
MODEL 2
REMARK VINA RESULT:    -8.328      1.451      1.892
REMARK INTER + INTRA:         -10.147
REMARK INTER:                  -9.968
REMARK INTRA:                  -0.179
REMARK UNBOUND:                -0.114
REMARK SMILES O=c1c(O)c(-c2ccc(O)cc2O)oc2cc(O)cc(O)c12
REMARK SMILES IDX 5 1 3 2 2 3 1 4 22 5 20 6 19 7 17 8 16 9 15 10 14 11 6 12
REMARK SMILES IDX 8 13 7 14 9 15 11 16 12 17 10 18 13 20 4 22 21 24 18 26
REMARK H PARENT 10 19 13 21 4 23 21 25 18 27
REMARK Flexibility Score: inf
ROOT
ATOM      1  C   UNL     1     140.114 -19.103  80.428  1.00  0.00     0.184 A 
ATOM      2  C   UNL     1     140.041 -17.714  80.611  1.00  0.00     0.208 A 
ATOM      3  C   UNL     1     140.411 -16.868  79.553  1.00  0.00     0.238 A 
ATOM      4  O   UNL     1     140.403 -15.624  79.743  1.00  0.00    -0.285 OA
ATOM      5  C   UNL     1     140.823 -17.425  78.318  1.00  0.00     0.111 A 
ATOM      6  C   UNL     1     141.182 -16.664  77.165  1.00  0.00     0.134 A 
ATOM      7  C   UNL     1     141.691 -17.320  76.036  1.00  0.00     0.093 A 
ATOM      8  C   UNL     1     141.791 -18.712  75.995  1.00  0.00     0.123 A 
ATOM      9  C   UNL     1     141.387 -19.467  77.094  1.00  0.00     0.094 A 
ATOM     10  C   UNL     1     140.912 -18.841  78.248  1.00  0.00     0.146 A 
ATOM     11  O   UNL     1     140.550 -19.597  79.277  1.00  0.00    -0.451 OA
ENDROOT
BRANCH   1  12
ATOM     12  C   UNL     1     139.714 -20.041  81.499  1.00  0.00     0.063 A 
ATOM     13  C   UNL     1     138.335 -21.911  82.223  1.00  0.00     0.047 A 
ATOM     14  C   UNL     1     138.694 -20.977  81.251  1.00  0.00     0.020 A 
ATOM     15  C   UNL     1     138.995 -21.929  83.458  1.00  0.00     0.119 A 
ATOM     16  C   UNL     1     140.012 -21.005  83.714  1.00  0.00     0.093 A 
ATOM     17  C   UNL     1     140.373 -20.056  82.750  1.00  0.00     0.130 A 
BRANCH  15  18
ATOM     18  O   UNL     1     138.649 -22.861  84.434  1.00  0.00    -0.508 OA
ATOM     19  H   UNL     1     139.354 -23.352  84.972  1.00  0.00     0.293 HD
ENDBRANCH  15  18
BRANCH  17  20
ATOM     20  O   UNL     1     141.370 -19.135  83.074  1.00  0.00    -0.507 OA
ATOM     21  H   UNL     1     142.211 -19.385  83.579  1.00  0.00     0.293 HD
ENDBRANCH  17  20
ENDBRANCH   1  12
BRANCH   2  22
ATOM     22  O   UNL     1     139.628 -17.191  81.839  1.00  0.00    -0.502 OA
ATOM     23  H   UNL     1     139.801 -17.666  82.717  1.00  0.00     0.293 HD
ENDBRANCH   2  22
BRANCH   6  24
ATOM     24  O   UNL     1     141.037 -15.277  77.067  1.00  0.00    -0.507 OA
ATOM     25  H   UNL     1     141.359 -14.718  76.292  1.00  0.00     0.293 HD
ENDBRANCH   6  24
BRANCH   8  26
ATOM     26  O   UNL     1     142.282 -19.356  74.862  1.00  0.00    -0.508 OA
ATOM     27  H   UNL     1     143.242 -19.676  74.807  1.00  0.00     0.293 HD
ENDBRANCH   8  26
TORSDOF 6
ENDMDL
MODEL 3
REMARK VINA RESULT:    -7.819      2.009      3.022
REMARK INTER + INTRA:          -9.533
REMARK INTER:                  -9.187
REMARK INTRA:                  -0.346
REMARK UNBOUND:                -0.114
REMARK SMILES O=c1c(O)c(-c2ccc(O)cc2O)oc2cc(O)cc(O)c12
REMARK SMILES IDX 5 1 3 2 2 3 1 4 22 5 20 6 19 7 17 8 16 9 15 10 14 11 6 12
REMARK SMILES IDX 8 13 7 14 9 15 11 16 12 17 10 18 13 20 4 22 21 24 18 26
REMARK H PARENT 10 19 13 21 4 23 21 25 18 27
REMARK Flexibility Score: inf
ROOT
ATOM      1  C   UNL     1     139.285 -20.152  81.562  1.00  0.00     0.184 A 
ATOM      2  C   UNL     1     139.404 -18.977  82.318  1.00  0.00     0.208 A 
ATOM      3  C   UNL     1     139.893 -17.815  81.700  1.00  0.00     0.238 A 
ATOM      4  O   UNL     1     140.055 -16.781  82.399  1.00  0.00    -0.285 OA
ATOM      5  C   UNL     1     140.231 -17.839  80.325  1.00  0.00     0.111 A 
ATOM      6  C   UNL     1     140.699 -16.712  79.585  1.00  0.00     0.134 A 
ATOM      7  C   UNL     1     141.118 -16.883  78.259  1.00  0.00     0.093 A 
ATOM      8  C   UNL     1     141.025 -18.125  77.628  1.00  0.00     0.123 A 
ATOM      9  C   UNL     1     140.516 -19.218  78.324  1.00  0.00     0.094 A 
ATOM     10  C   UNL     1     140.124 -19.089  79.657  1.00  0.00     0.146 A 
ATOM     11  O   UNL     1     139.656 -20.160  80.288  1.00  0.00    -0.451 OA
ENDROOT
BRANCH   1  12
ATOM     12  C   UNL     1     138.755 -21.398  82.154  1.00  0.00     0.063 A 
ATOM     13  C   UNL     1     136.984 -23.065  82.263  1.00  0.00     0.047 A 
ATOM     14  C   UNL     1     137.486 -21.862  81.763  1.00  0.00     0.020 A 
ATOM     15  C   UNL     1     137.745 -23.826  83.158  1.00  0.00     0.119 A 
ATOM     16  C   UNL     1     139.007 -23.375  83.552  1.00  0.00     0.093 A 
ATOM     17  C   UNL     1     139.517 -22.165  83.065  1.00  0.00     0.130 A 
BRANCH  15  18
ATOM     18  O   UNL     1     137.256 -25.030  83.660  1.00  0.00    -0.508 OA
ATOM     19  H   UNL     1     137.165 -25.851  83.073  1.00  0.00     0.293 HD
ENDBRANCH  15  18
BRANCH  17  20
ATOM     20  O   UNL     1     140.769 -21.747  83.521  1.00  0.00    -0.507 OA
ATOM     21  H   UNL     1     141.425 -22.365  83.981  1.00  0.00     0.293 HD
ENDBRANCH  17  20
ENDBRANCH   1  12
BRANCH   2  22
ATOM     22  O   UNL     1     139.060 -18.981  83.673  1.00  0.00    -0.502 OA
ATOM     23  H   UNL     1     139.685 -18.640  84.393  1.00  0.00     0.293 HD
ENDBRANCH   2  22
BRANCH   6  24
ATOM     24  O   UNL     1     140.746 -15.410  80.091  1.00  0.00    -0.507 OA
ATOM     25  H   UNL     1     140.354 -14.600  79.635  1.00  0.00     0.293 HD
ENDBRANCH   6  24
BRANCH   8  26
ATOM     26  O   UNL     1     141.430 -18.280  76.303  1.00  0.00    -0.508 OA
ATOM     27  H   UNL     1     142.364 -18.591  76.067  1.00  0.00     0.293 HD
ENDBRANCH   8  26
TORSDOF 6
ENDMDL
MODEL 4
REMARK VINA RESULT:    -7.769      3.167      5.485
REMARK INTER + INTRA:          -9.473
REMARK INTER:                  -9.127
REMARK INTRA:                  -0.346
REMARK UNBOUND:                -0.114
REMARK SMILES O=c1c(O)c(-c2ccc(O)cc2O)oc2cc(O)cc(O)c12
REMARK SMILES IDX 5 1 3 2 2 3 1 4 22 5 20 6 19 7 17 8 16 9 15 10 14 11 6 12
REMARK SMILES IDX 8 13 7 14 9 15 11 16 12 17 10 18 13 20 4 22 21 24 18 26
REMARK H PARENT 10 19 13 21 4 23 21 25 18 27
REMARK Flexibility Score: inf
ROOT
ATOM      1  C   UNL     1     138.520 -19.717  77.702  1.00  0.00     0.184 A 
ATOM      2  C   UNL     1     139.030 -19.179  76.512  1.00  0.00     0.208 A 
ATOM      3  C   UNL     1     139.732 -17.964  76.559  1.00  0.00     0.238 A 
ATOM      4  O   UNL     1     140.134 -17.455  75.480  1.00  0.00    -0.285 OA
ATOM      5  C   UNL     1     139.936 -17.318  77.803  1.00  0.00     0.111 A 
ATOM      6  C   UNL     1     140.665 -16.103  77.976  1.00  0.00     0.134 A 
ATOM      7  C   UNL     1     140.699 -15.491  79.236  1.00  0.00     0.093 A 
ATOM      8  C   UNL     1     140.085 -16.084  80.341  1.00  0.00     0.123 A 
ATOM      9  C   UNL     1     139.420 -17.299  80.194  1.00  0.00     0.094 A 
ATOM     10  C   UNL     1     139.337 -17.915  78.944  1.00  0.00     0.146 A 
ATOM     11  O   UNL     1     138.682 -19.065  78.846  1.00  0.00    -0.451 OA
ENDROOT
BRANCH   1  12
ATOM     12  C   UNL     1     137.794 -21.005  77.715  1.00  0.00     0.063 A 
ATOM     13  C   UNL     1     137.716 -23.347  78.373  1.00  0.00     0.047 A 
ATOM     14  C   UNL     1     138.401 -22.133  78.296  1.00  0.00     0.020 A 
ATOM     15  C   UNL     1     136.412 -23.452  77.876  1.00  0.00     0.119 A 
ATOM     16  C   UNL     1     135.799 -22.337  77.298  1.00  0.00     0.093 A 
ATOM     17  C   UNL     1     136.479 -21.116  77.206  1.00  0.00     0.130 A 
BRANCH  15  18
ATOM     18  O   UNL     1     135.718 -24.657  77.952  1.00  0.00    -0.508 OA
ATOM     19  H   UNL     1     134.845 -24.798  77.456  1.00  0.00     0.293 HD
ENDBRANCH  15  18
BRANCH  17  20
ATOM     20  O   UNL     1     135.831 -20.046  76.586  1.00  0.00    -0.507 OA
ATOM     21  H   UNL     1     136.292 -19.171  76.371  1.00  0.00     0.293 HD
ENDBRANCH  17  20
ENDBRANCH   1  12
BRANCH   2  22
ATOM     22  O   UNL     1     138.817 -19.840  75.299  1.00  0.00    -0.502 OA
ATOM     23  H   UNL     1     138.635 -19.344  74.434  1.00  0.00     0.293 HD
ENDBRANCH   2  22
BRANCH   6  24
ATOM     24  O   UNL     1     141.390 -15.475  76.958  1.00  0.00    -0.507 OA
ATOM     25  H   UNL     1     142.021 -15.944  76.327  1.00  0.00     0.293 HD
ENDBRANCH   6  24
BRANCH   8  26
ATOM     26  O   UNL     1     140.138 -15.476  81.594  1.00  0.00    -0.508 OA
ATOM     27  H   UNL     1     140.646 -14.612  81.743  1.00  0.00     0.293 HD
ENDBRANCH   8  26
TORSDOF 6
ENDMDL
MODEL 5
REMARK VINA RESULT:    -7.768      3.177      5.963
REMARK INTER + INTRA:          -9.471
REMARK INTER:                  -9.182
REMARK INTRA:                  -0.290
REMARK UNBOUND:                -0.114
REMARK SMILES O=c1c(O)c(-c2ccc(O)cc2O)oc2cc(O)cc(O)c12
REMARK SMILES IDX 5 1 3 2 2 3 1 4 22 5 20 6 19 7 17 8 16 9 15 10 14 11 6 12
REMARK SMILES IDX 8 13 7 14 9 15 11 16 12 17 10 18 13 20 4 22 21 24 18 26
REMARK H PARENT 10 19 13 21 4 23 21 25 18 27
REMARK Flexibility Score: inf
ROOT
ATOM      1  C   UNL     1     139.534 -17.477  77.914  1.00  0.00     0.184 A 
ATOM      2  C   UNL     1     138.680 -17.438  76.803  1.00  0.00     0.208 A 
ATOM      3  C   UNL     1     137.769 -18.488  76.606  1.00  0.00     0.238 A 
ATOM      4  O   UNL     1     137.048 -18.478  75.574  1.00  0.00    -0.285 OA
ATOM      5  C   UNL     1     137.708 -19.550  77.541  1.00  0.00     0.111 A 
ATOM      6  C   UNL     1     136.797 -20.647  77.464  1.00  0.00     0.134 A 
ATOM      7  C   UNL     1     136.909 -21.702  78.378  1.00  0.00     0.093 A 
ATOM      8  C   UNL     1     137.855 -21.670  79.405  1.00  0.00     0.123 A 
ATOM      9  C   UNL     1     138.710 -20.576  79.523  1.00  0.00     0.094 A 
ATOM     10  C   UNL     1     138.648 -19.526  78.606  1.00  0.00     0.146 A 
ATOM     11  O   UNL     1     139.490 -18.509  78.747  1.00  0.00    -0.451 OA
ENDROOT
BRANCH   1  12
ATOM     12  C   UNL     1     140.497 -16.388  78.184  1.00  0.00     0.063 A 
ATOM     13  C   UNL     1     142.800 -15.601  78.213  1.00  0.00     0.047 A 
ATOM     14  C   UNL     1     141.873 -16.627  78.020  1.00  0.00     0.020 A 
ATOM     15  C   UNL     1     142.365 -14.318  78.566  1.00  0.00     0.119 A 
ATOM     16  C   UNL     1     141.000 -14.070  78.730  1.00  0.00     0.093 A 
ATOM     17  C   UNL     1     140.061 -15.093  78.549  1.00  0.00     0.130 A 
BRANCH  15  18
ATOM     18  O   UNL     1     143.281 -13.286  78.756  1.00  0.00    -0.508 OA
ATOM     19  H   UNL     1     143.200 -12.642  79.534  1.00  0.00     0.293 HD
ENDBRANCH  15  18
BRANCH  17  20
ATOM     20  O   UNL     1     138.714 -14.796  78.761  1.00  0.00    -0.507 OA
ATOM     21  H   UNL     1     138.264 -13.970  78.387  1.00  0.00     0.293 HD
ENDBRANCH  17  20
ENDBRANCH   1  12
BRANCH   2  22
ATOM     22  O   UNL     1     138.759 -16.375  75.898  1.00  0.00    -0.502 OA
ATOM     23  H   UNL     1     138.579 -15.416  76.170  1.00  0.00     0.293 HD
ENDBRANCH   2  22
BRANCH   6  24
ATOM     24  O   UNL     1     135.757 -20.735  76.534  1.00  0.00    -0.507 OA
ATOM     25  H   UNL     1     135.701 -21.421  75.797  1.00  0.00     0.293 HD
ENDBRANCH   6  24
BRANCH   8  26
ATOM     26  O   UNL     1     137.948 -22.717  80.319  1.00  0.00    -0.508 OA
ATOM     27  H   UNL     1     137.175 -22.961  80.927  1.00  0.00     0.293 HD
ENDBRANCH   8  26
TORSDOF 6
ENDMDL
MODEL 6
REMARK VINA RESULT:    -7.740      3.406      6.175
REMARK INTER + INTRA:          -9.438
REMARK INTER:                  -9.096
REMARK INTRA:                  -0.342
REMARK UNBOUND:                -0.114
REMARK SMILES O=c1c(O)c(-c2ccc(O)cc2O)oc2cc(O)cc(O)c12
REMARK SMILES IDX 5 1 3 2 2 3 1 4 22 5 20 6 19 7 17 8 16 9 15 10 14 11 6 12
REMARK SMILES IDX 8 13 7 14 9 15 11 16 12 17 10 18 13 20 4 22 21 24 18 26
REMARK H PARENT 10 19 13 21 4 23 21 25 18 27
REMARK Flexibility Score: inf
ROOT
ATOM      1  C   UNL     1     139.395 -18.567  77.484  1.00  0.00     0.184 A 
ATOM      2  C   UNL     1     138.350 -18.422  76.559  1.00  0.00     0.208 A 
ATOM      3  C   UNL     1     137.262 -19.306  76.616  1.00  0.00     0.238 A 
ATOM      4  O   UNL     1     136.358 -19.210  75.746  1.00  0.00    -0.285 OA
ATOM      5  C   UNL     1     137.221 -20.307  77.617  1.00  0.00     0.111 A 
ATOM      6  C   UNL     1     136.149 -21.232  77.795  1.00  0.00     0.134 A 
ATOM      7  C   UNL     1     136.272 -22.258  78.743  1.00  0.00     0.093 A 
ATOM      8  C   UNL     1     137.399 -22.351  79.561  1.00  0.00     0.123 A 
ATOM      9  C   UNL     1     138.425 -21.417  79.435  1.00  0.00     0.094 A 
ATOM     10  C   UNL     1     138.348 -20.406  78.475  1.00  0.00     0.146 A 
ATOM     11  O   UNL     1     139.355 -19.545  78.380  1.00  0.00    -0.451 OA
ENDROOT
BRANCH   1  12
ATOM     12  C   UNL     1     140.555 -17.650  77.485  1.00  0.00     0.063 A 
ATOM     13  C   UNL     1     141.836 -15.911  78.607  1.00  0.00     0.047 A 
ATOM     14  C   UNL     1     140.721 -16.749  78.552  1.00  0.00     0.020 A 
ATOM     15  C   UNL     1     142.806 -15.966  77.600  1.00  0.00     0.119 A 
ATOM     16  C   UNL     1     142.652 -16.859  76.537  1.00  0.00     0.093 A 
ATOM     17  C   UNL     1     141.533 -17.697  76.465  1.00  0.00     0.130 A 
BRANCH  15  18
ATOM     18  O   UNL     1     143.926 -15.138  77.648  1.00  0.00    -0.508 OA
ATOM     19  H   UNL     1     144.478 -14.945  76.820  1.00  0.00     0.293 HD
ENDBRANCH  15  18
BRANCH  17  20
ATOM     20  O   UNL     1     141.413 -18.543  75.361  1.00  0.00    -0.507 OA
ATOM     21  H   UNL     1     141.257 -18.205  74.419  1.00  0.00     0.293 HD
ENDBRANCH  17  20
ENDBRANCH   1  12
BRANCH   2  22
ATOM     22  O   UNL     1     138.415 -17.423  75.584  1.00  0.00    -0.502 OA
ATOM     23  H   UNL     1     137.662 -16.763  75.431  1.00  0.00     0.293 HD
ENDBRANCH   2  22
BRANCH   6  24
ATOM     24  O   UNL     1     134.941 -21.175  77.093  1.00  0.00    -0.507 OA
ATOM     25  H   UNL     1     134.859 -21.010  76.101  1.00  0.00     0.293 HD
ENDBRANCH   6  24
BRANCH   8  26
ATOM     26  O   UNL     1     137.505 -23.364  80.512  1.00  0.00    -0.508 OA
ATOM     27  H   UNL     1     138.388 -23.583  80.958  1.00  0.00     0.293 HD
ENDBRANCH   8  26
TORSDOF 6
ENDMDL
MODEL 7
REMARK VINA RESULT:    -7.716      1.456      2.952
REMARK INTER + INTRA:          -9.409
REMARK INTER:                  -9.414
REMARK INTRA:                   0.005
REMARK UNBOUND:                -0.114
REMARK SMILES O=c1c(O)c(-c2ccc(O)cc2O)oc2cc(O)cc(O)c12
REMARK SMILES IDX 5 1 3 2 2 3 1 4 22 5 20 6 19 7 17 8 16 9 15 10 14 11 6 12
REMARK SMILES IDX 8 13 7 14 9 15 11 16 12 17 10 18 13 20 4 22 21 24 18 26
REMARK H PARENT 10 19 13 21 4 23 21 25 18 27
REMARK Flexibility Score: inf
ROOT
ATOM      1  C   UNL     1     139.837 -19.602  80.265  1.00  0.00     0.184 A 
ATOM      2  C   UNL     1     139.048 -20.487  79.515  1.00  0.00     0.208 A 
ATOM      3  C   UNL     1     138.985 -20.330  78.122  1.00  0.00     0.238 A 
ATOM      4  O   UNL     1     138.228 -21.088  77.461  1.00  0.00    -0.285 OA
ATOM      5  C   UNL     1     139.734 -19.305  77.495  1.00  0.00     0.111 A 
ATOM      6  C   UNL     1     139.778 -19.077  76.087  1.00  0.00     0.134 A 
ATOM      7  C   UNL     1     140.457 -17.957  75.589  1.00  0.00     0.093 A 
ATOM      8  C   UNL     1     141.147 -17.095  76.443  1.00  0.00     0.123 A 
ATOM      9  C   UNL     1     141.160 -17.342  77.813  1.00  0.00     0.094 A 
ATOM     10  C   UNL     1     140.462 -18.428  78.344  1.00  0.00     0.146 A 
ATOM     11  O   UNL     1     140.488 -18.619  79.657  1.00  0.00    -0.451 OA
ENDROOT
BRANCH   1  12
ATOM     12  C   UNL     1     139.959 -19.735  81.732  1.00  0.00     0.063 A 
ATOM     13  C   UNL     1     140.200 -21.172  83.682  1.00  0.00     0.047 A 
ATOM     14  C   UNL     1     140.028 -21.017  82.306  1.00  0.00     0.020 A 
ATOM     15  C   UNL     1     140.312 -20.047  84.507  1.00  0.00     0.119 A 
ATOM     16  C   UNL     1     140.247 -18.768  83.948  1.00  0.00     0.093 A 
ATOM     17  C   UNL     1     140.065 -18.600  82.570  1.00  0.00     0.130 A 
BRANCH  15  18
ATOM     18  O   UNL     1     140.490 -20.189  85.882  1.00  0.00    -0.508 OA
ATOM     19  H   UNL     1     141.244 -19.720  86.370  1.00  0.00     0.293 HD
ENDBRANCH  15  18
BRANCH  17  20
ATOM     20  O   UNL     1     139.970 -17.299  82.071  1.00  0.00    -0.507 OA
ATOM     21  H   UNL     1     139.087 -16.833  81.907  1.00  0.00     0.293 HD
ENDBRANCH  17  20
ENDBRANCH   1  12
BRANCH   2  22
ATOM     22  O   UNL     1     138.322 -21.493  80.160  1.00  0.00    -0.502 OA
ATOM     23  H   UNL     1     138.750 -22.356  80.472  1.00  0.00     0.293 HD
ENDBRANCH   2  22
BRANCH   6  24
ATOM     24  O   UNL     1     139.198 -19.926  75.139  1.00  0.00    -0.507 OA
ATOM     25  H   UNL     1     139.677 -20.682  74.674  1.00  0.00     0.293 HD
ENDBRANCH   6  24
BRANCH   8  26
ATOM     26  O   UNL     1     141.834 -15.993  75.936  1.00  0.00    -0.508 OA
ATOM     27  H   UNL     1     141.818 -15.096  76.407  1.00  0.00     0.293 HD
ENDBRANCH   8  26
TORSDOF 6
ENDMDL
MODEL 8
REMARK VINA RESULT:    -7.603      2.149      6.483
REMARK INTER + INTRA:          -9.274
REMARK INTER:                  -9.015
REMARK INTRA:                  -0.258
REMARK UNBOUND:                -0.114
REMARK SMILES O=c1c(O)c(-c2ccc(O)cc2O)oc2cc(O)cc(O)c12
REMARK SMILES IDX 5 1 3 2 2 3 1 4 22 5 20 6 19 7 17 8 16 9 15 10 14 11 6 12
REMARK SMILES IDX 8 13 7 14 9 15 11 16 12 17 10 18 13 20 4 22 21 24 18 26
REMARK H PARENT 10 19 13 21 4 23 21 25 18 27
REMARK Flexibility Score: inf
ROOT
ATOM      1  C   UNL     1     139.680 -19.645  80.125  1.00  0.00     0.184 A 
ATOM      2  C   UNL     1     140.093 -19.504  81.458  1.00  0.00     0.208 A 
ATOM      3  C   UNL     1     139.624 -20.416  82.417  1.00  0.00     0.238 A 
ATOM      4  O   UNL     1     139.948 -20.248  83.621  1.00  0.00    -0.285 OA
ATOM      5  C   UNL     1     138.768 -21.474  82.021  1.00  0.00     0.111 A 
ATOM      6  C   UNL     1     138.263 -22.479  82.899  1.00  0.00     0.134 A 
ATOM      7  C   UNL     1     137.327 -23.406  82.421  1.00  0.00     0.093 A 
ATOM      8  C   UNL     1     136.929 -23.403  81.083  1.00  0.00     0.123 A 
ATOM      9  C   UNL     1     137.460 -22.462  80.205  1.00  0.00     0.094 A 
ATOM     10  C   UNL     1     138.367 -21.502  80.659  1.00  0.00     0.146 A 
ATOM     11  O   UNL     1     138.839 -20.615  79.791  1.00  0.00    -0.451 OA
ENDROOT
BRANCH   1  12
ATOM     12  C   UNL     1     140.162 -18.728  79.070  1.00  0.00     0.063 A 
ATOM     13  C   UNL     1     141.331 -18.410  76.959  1.00  0.00     0.047 A 
ATOM     14  C   UNL     1     140.912 -19.243  77.998  1.00  0.00     0.020 A 
ATOM     15  C   UNL     1     141.001 -17.050  76.972  1.00  0.00     0.119 A 
ATOM     16  C   UNL     1     140.254 -16.528  78.031  1.00  0.00     0.093 A 
ATOM     17  C   UNL     1     139.836 -17.352  79.084  1.00  0.00     0.130 A 
BRANCH  15  18
ATOM     18  O   UNL     1     141.410 -16.211  75.937  1.00  0.00    -0.508 OA
ATOM     19  H   UNL     1     142.319 -15.763  75.946  1.00  0.00     0.293 HD
ENDBRANCH  15  18
BRANCH  17  20
ATOM     20  O   UNL     1     139.124 -16.769  80.133  1.00  0.00    -0.507 OA
ATOM     21  H   UNL     1     139.561 -16.450  80.989  1.00  0.00     0.293 HD
ENDBRANCH  17  20
ENDBRANCH   1  12
BRANCH   2  22
ATOM     22  O   UNL     1     140.941 -18.453  81.820  1.00  0.00    -0.502 OA
ATOM     23  H   UNL     1     141.918 -18.596  82.045  1.00  0.00     0.293 HD
ENDBRANCH   2  22
BRANCH   6  24
ATOM     24  O   UNL     1     138.664 -22.628  84.230  1.00  0.00    -0.507 OA
ATOM     25  H   UNL     1     138.070 -22.474  85.031  1.00  0.00     0.293 HD
ENDBRANCH   6  24
BRANCH   8  26
ATOM     26  O   UNL     1     136.010 -24.339  80.614  1.00  0.00    -0.508 OA
ATOM     27  H   UNL     1     135.630 -24.286  79.676  1.00  0.00     0.293 HD
ENDBRANCH   8  26
TORSDOF 6
ENDMDL
MODEL 9
REMARK VINA RESULT:    -7.593      3.804      5.243
REMARK INTER + INTRA:          -9.261
REMARK INTER:                  -8.904
REMARK INTRA:                  -0.357
REMARK UNBOUND:                -0.114
REMARK SMILES O=c1c(O)c(-c2ccc(O)cc2O)oc2cc(O)cc(O)c12
REMARK SMILES IDX 5 1 3 2 2 3 1 4 22 5 20 6 19 7 17 8 16 9 15 10 14 11 6 12
REMARK SMILES IDX 8 13 7 14 9 15 11 16 12 17 10 18 13 20 4 22 21 24 18 26
REMARK H PARENT 10 19 13 21 4 23 21 25 18 27
REMARK Flexibility Score: inf
ROOT
ATOM      1  C   UNL     1     138.310 -21.208  78.218  1.00  0.00     0.184 A 
ATOM      2  C   UNL     1     138.739 -20.791  79.486  1.00  0.00     0.208 A 
ATOM      3  C   UNL     1     139.547 -19.648  79.590  1.00  0.00     0.238 A 
ATOM      4  O   UNL     1     139.979 -19.314  80.724  1.00  0.00    -0.285 OA
ATOM      5  C   UNL     1     139.892 -18.922  78.424  1.00  0.00     0.111 A 
ATOM      6  C   UNL     1     140.672 -17.727  78.413  1.00  0.00     0.134 A 
ATOM      7  C   UNL     1     141.053 -17.162  77.189  1.00  0.00     0.093 A 
ATOM      8  C   UNL     1     140.627 -17.711  75.978  1.00  0.00     0.123 A 
ATOM      9  C   UNL     1     139.817 -18.844  75.979  1.00  0.00     0.094 A 
ATOM     10  C   UNL     1     139.451 -19.452  77.182  1.00  0.00     0.146 A 
ATOM     11  O   UNL     1     138.689 -20.538  77.137  1.00  0.00    -0.451 OA
ENDROOT
BRANCH   1  12
ATOM     12  C   UNL     1     137.438 -22.391  78.051  1.00  0.00     0.063 A 
ATOM     13  C   UNL     1     137.143 -24.802  78.210  1.00  0.00     0.047 A 
ATOM     14  C   UNL     1     137.958 -23.672  78.305  1.00  0.00     0.020 A 
ATOM     15  C   UNL     1     135.793 -24.667  77.866  1.00  0.00     0.119 A 
ATOM     16  C   UNL     1     135.266 -23.398  77.614  1.00  0.00     0.093 A 
ATOM     17  C   UNL     1     136.076 -22.259  77.696  1.00  0.00     0.130 A 
BRANCH  15  18
ATOM     18  O   UNL     1     134.969 -25.787  77.774  1.00  0.00    -0.508 OA
ATOM     19  H   UNL     1     134.572 -26.222  78.599  1.00  0.00     0.293 HD
ENDBRANCH  15  18
BRANCH  17  20
ATOM     20  O   UNL     1     135.504 -21.021  77.397  1.00  0.00    -0.507 OA
ATOM     21  H   UNL     1     134.820 -20.891  76.662  1.00  0.00     0.293 HD
ENDBRANCH  17  20
ENDBRANCH   1  12
BRANCH   2  22
ATOM     22  O   UNL     1     138.380 -21.525  80.621  1.00  0.00    -0.502 OA
ATOM     23  H   UNL     1     138.992 -21.617  81.423  1.00  0.00     0.293 HD
ENDBRANCH   2  22
BRANCH   6  24
ATOM     24  O   UNL     1     141.074 -17.046  79.566  1.00  0.00    -0.507 OA
ATOM     25  H   UNL     1     141.031 -17.421  80.501  1.00  0.00     0.293 HD
ENDBRANCH   6  24
BRANCH   8  26
ATOM     26  O   UNL     1     140.998 -17.132  74.766  1.00  0.00    -0.508 OA
ATOM     27  H   UNL     1     140.584 -16.266  74.443  1.00  0.00     0.293 HD
ENDBRANCH   8  26
TORSDOF 6
ENDMDL
