MODEL 1
REMARK VINA RESULT:    -7.441      0.000      0.000
REMARK INTER + INTRA:          -7.441
REMARK INTER:                  -7.441
REMARK INTRA:                   0.000
REMARK UNBOUND:                 0.000
REMARK SMILES C=C1CCCC(C)(C)[C@@]12CC=C(C)CC2
REMARK SMILES IDX 13 1 12 2 11 3 10 4 9 5 15 6 14 7 2 8 1 9 3 10 4 11 5 12
REMARK SMILES IDX 6 13 7 14 8 15
REMARK H PARENT
REMARK Flexibility Score: inf
ROOT
ATOM      1  C   UNL     1     109.373 110.250 107.458  1.00  0.00     0.039 C 
ATOM      2  C   UNL     1     109.384 110.618 108.916  1.00  0.00    -0.077 C 
ATOM      3  C   UNL     1     109.427 109.661 109.854  1.00  0.00    -0.027 C 
ATOM      4  C   UNL     1     109.443 110.047 111.310  1.00  0.00     0.039 C 
ATOM      5  C   UNL     1     110.448 111.219 111.641  1.00  0.00    -0.000 C 
ATOM      6  C   UNL     1     110.596 112.186 110.386  1.00  0.00     0.017 C 
ATOM      7  C   UNL     1     109.456 112.055 109.364  1.00  0.00     0.031 C 
ATOM      8  C   UNL     1     109.835 111.966 112.857  1.00  0.00    -0.070 C 
ATOM      9  C   UNL     1     109.018 113.033 112.729  1.00  0.00     0.008 C 
ATOM     10  C   UNL     1     109.879 111.297 114.217  1.00  0.00     0.031 C 
ATOM     11  C   UNL     1     111.283 110.821 114.561  1.00  0.00     0.005 C 
ATOM     12  C   UNL     1     111.848 109.938 113.448  1.00  0.00     0.008 C 
ATOM     13  C   UNL     1     111.893 110.658 112.065  1.00  0.00    -0.026 C 
ATOM     14  C   UNL     1     112.441 109.622 111.045  1.00  0.00     0.012 C 
ATOM     15  C   UNL     1     112.934 111.814 112.162  1.00  0.00     0.012 C 
ENDROOT
TORSDOF 0
ENDMDL
MODEL 2
REMARK VINA RESULT:    -7.440      1.692      3.450
REMARK INTER + INTRA:          -7.440
REMARK INTER:                  -7.440
REMARK INTRA:                   0.000
REMARK UNBOUND:                 0.000
REMARK SMILES C=C1CCCC(C)(C)[C@@]12CC=C(C)CC2
REMARK SMILES IDX 13 1 12 2 11 3 10 4 9 5 15 6 14 7 2 8 1 9 3 10 4 11 5 12
REMARK SMILES IDX 6 13 7 14 8 15
REMARK H PARENT
REMARK Flexibility Score: inf
ROOT
ATOM      1  C   UNL     1     112.875 112.123 107.601  1.00  0.00     0.039 C 
ATOM      2  C   UNL     1     112.870 111.694 109.041  1.00  0.00    -0.077 C 
ATOM      3  C   UNL     1     112.859 112.611 110.020  1.00  0.00    -0.027 C 
ATOM      4  C   UNL     1     112.849 112.164 111.458  1.00  0.00     0.039 C 
ATOM      5  C   UNL     1     111.820 111.002 111.751  1.00  0.00    -0.000 C 
ATOM      6  C   UNL     1     111.637 110.093 110.457  1.00  0.00     0.017 C 
ATOM      7  C   UNL     1     112.768 110.241 109.429  1.00  0.00     0.031 C 
ATOM      8  C   UNL     1     112.427 110.189 112.926  1.00  0.00    -0.070 C 
ATOM      9  C   UNL     1     113.218 109.110 112.744  1.00  0.00     0.008 C 
ATOM     10  C   UNL     1     112.414 110.801 114.314  1.00  0.00     0.031 C 
ATOM     11  C   UNL     1     111.025 111.293 114.693  1.00  0.00     0.005 C 
ATOM     12  C   UNL     1     110.470 112.236 113.626  1.00  0.00     0.008 C 
ATOM     13  C   UNL     1     110.394 111.578 112.214  1.00  0.00    -0.026 C 
ATOM     14  C   UNL     1     109.859 112.669 111.245  1.00  0.00     0.012 C 
ATOM     15  C   UNL     1     109.326 110.443 112.273  1.00  0.00     0.012 C 
ENDROOT
TORSDOF 0
ENDMDL
MODEL 3
REMARK VINA RESULT:    -7.338      3.574      6.062
REMARK INTER + INTRA:          -7.338
REMARK INTER:                  -7.338
REMARK INTRA:                   0.000
REMARK UNBOUND:                 0.000
REMARK SMILES C=C1CCCC(C)(C)[C@@]12CC=C(C)CC2
REMARK SMILES IDX 13 1 12 2 11 3 10 4 9 5 15 6 14 7 2 8 1 9 3 10 4 11 5 12
REMARK SMILES IDX 6 13 7 14 8 15
REMARK H PARENT
REMARK Flexibility Score: inf
ROOT
ATOM      1  C   UNL     1     112.894 112.109 112.481  1.00  0.00     0.039 C 
ATOM      2  C   UNL     1     112.883 111.665 113.917  1.00  0.00    -0.077 C 
ATOM      3  C   UNL     1     112.863 112.572 114.905  1.00  0.00    -0.027 C 
ATOM      4  C   UNL     1     112.847 112.110 116.339  1.00  0.00     0.039 C 
ATOM      5  C   UNL     1     111.821 110.941 116.613  1.00  0.00    -0.000 C 
ATOM      6  C   UNL     1     111.648 110.044 115.310  1.00  0.00     0.017 C 
ATOM      7  C   UNL     1     112.785 110.208 114.289  1.00  0.00     0.031 C 
ATOM      8  C   UNL     1     112.425 110.119 117.784  1.00  0.00    -0.070 C 
ATOM      9  C   UNL     1     113.221 109.045 117.595  1.00  0.00     0.008 C 
ATOM     10  C   UNL     1     112.401 110.716 119.178  1.00  0.00     0.031 C 
ATOM     11  C   UNL     1     111.008 111.199 119.554  1.00  0.00     0.005 C 
ATOM     12  C   UNL     1     110.455 112.151 118.494  1.00  0.00     0.008 C 
ATOM     13  C   UNL     1     110.389 111.506 117.074  1.00  0.00    -0.026 C 
ATOM     14  C   UNL     1     109.856 112.605 116.114  1.00  0.00     0.012 C 
ATOM     15  C   UNL     1     109.326 110.367 117.116  1.00  0.00     0.012 C 
ENDROOT
TORSDOF 0
ENDMDL
MODEL 4
REMARK VINA RESULT:    -7.310      2.791      4.679
REMARK INTER + INTRA:          -7.310
REMARK INTER:                  -7.310
REMARK INTRA:                   0.000
REMARK UNBOUND:                 0.000
REMARK SMILES C=C1CCCC(C)(C)[C@@]12CC=C(C)CC2
REMARK SMILES IDX 13 1 12 2 11 3 10 4 9 5 15 6 14 7 2 8 1 9 3 10 4 11 5 12
REMARK SMILES IDX 6 13 7 14 8 15
REMARK H PARENT
REMARK Flexibility Score: inf
ROOT
ATOM      1  C   UNL     1     109.367 110.153 102.802  1.00  0.00     0.039 C 
ATOM      2  C   UNL     1     109.372 110.552 104.251  1.00  0.00    -0.077 C 
ATOM      3  C   UNL     1     109.444 109.617 105.209  1.00  0.00    -0.027 C 
ATOM      4  C   UNL     1     109.453 110.035 106.657  1.00  0.00     0.039 C 
ATOM      5  C   UNL     1     110.427 111.241 106.959  1.00  0.00    -0.000 C 
ATOM      6  C   UNL     1     110.545 112.184 105.683  1.00  0.00     0.017 C 
ATOM      7  C   UNL     1     109.406 112.000 104.668  1.00  0.00     0.031 C 
ATOM      8  C   UNL     1     109.797 111.997 108.160  1.00  0.00    -0.070 C 
ATOM      9  C   UNL     1     108.951 113.039 108.012  1.00  0.00     0.008 C 
ATOM     10  C   UNL     1     109.863 111.359 109.535  1.00  0.00     0.031 C 
ATOM     11  C   UNL     1     111.281 110.930 109.883  1.00  0.00     0.005 C 
ATOM     12  C   UNL     1     111.866 110.038 108.789  1.00  0.00     0.008 C 
ATOM     13  C   UNL     1     111.887 110.729 107.389  1.00  0.00    -0.026 C 
ATOM     14  C   UNL     1     112.461 109.687 106.391  1.00  0.00     0.012 C 
ATOM     15  C   UNL     1     112.897 111.915 107.458  1.00  0.00     0.012 C 
ENDROOT
TORSDOF 0
ENDMDL
MODEL 5
REMARK VINA RESULT:    -7.297      3.410      5.876
REMARK INTER + INTRA:          -7.297
REMARK INTER:                  -7.297
REMARK INTRA:                   0.000
REMARK UNBOUND:                 0.000
REMARK SMILES C=C1CCCC(C)(C)[C@@]12CC=C(C)CC2
REMARK SMILES IDX 13 1 12 2 11 3 10 4 9 5 15 6 14 7 2 8 1 9 3 10 4 11 5 12
REMARK SMILES IDX 6 13 7 14 8 15
REMARK H PARENT
REMARK Flexibility Score: inf
ROOT
ATOM      1  C   UNL     1     112.861 112.110 102.726  1.00  0.00     0.039 C 
ATOM      2  C   UNL     1     112.866 111.688 104.168  1.00  0.00    -0.077 C 
ATOM      3  C   UNL     1     112.813 112.608 105.142  1.00  0.00    -0.027 C 
ATOM      4  C   UNL     1     112.814 112.169 106.583  1.00  0.00     0.039 C 
ATOM      5  C   UNL     1     111.833 110.967 106.876  1.00  0.00    -0.000 C 
ATOM      6  C   UNL     1     111.693 110.044 105.587  1.00  0.00     0.017 C 
ATOM      7  C   UNL     1     112.823 110.234 104.563  1.00  0.00     0.031 C 
ATOM      8  C   UNL     1     112.467 110.186 108.059  1.00  0.00    -0.070 C 
ATOM      9  C   UNL     1     113.303 109.139 107.886  1.00  0.00     0.008 C 
ATOM     10  C   UNL     1     112.421 110.803 109.444  1.00  0.00     0.031 C 
ATOM     11  C   UNL     1     111.011 111.239 109.813  1.00  0.00     0.005 C 
ATOM     12  C   UNL     1     110.422 112.153 108.739  1.00  0.00     0.008 C 
ATOM     13  C   UNL     1     110.381 111.485 107.329  1.00  0.00    -0.026 C 
ATOM     14  C   UNL     1     109.806 112.547 106.353  1.00  0.00     0.012 C 
ATOM     15  C   UNL     1     109.361 110.307 107.389  1.00  0.00     0.012 C 
ENDROOT
TORSDOF 0
ENDMDL
MODEL 6
REMARK VINA RESULT:    -7.287      2.656      4.515
REMARK INTER + INTRA:          -7.287
REMARK INTER:                  -7.287
REMARK INTRA:                   0.000
REMARK UNBOUND:                 0.000
REMARK SMILES C=C1CCCC(C)(C)[C@@]12CC=C(C)CC2
REMARK SMILES IDX 13 1 12 2 11 3 10 4 9 5 15 6 14 7 2 8 1 9 3 10 4 11 5 12
REMARK SMILES IDX 6 13 7 14 8 15
REMARK H PARENT
REMARK Flexibility Score: inf
ROOT
ATOM      1  C   UNL     1     109.123 110.751 112.027  1.00  0.00     0.039 C 
ATOM      2  C   UNL     1     109.267 110.973 113.506  1.00  0.00    -0.077 C 
ATOM      3  C   UNL     1     109.441 109.932 114.333  1.00  0.00    -0.027 C 
ATOM      4  C   UNL     1     109.589 110.172 115.812  1.00  0.00     0.039 C 
ATOM      5  C   UNL     1     110.575 111.354 116.164  1.00  0.00    -0.000 C 
ATOM      6  C   UNL     1     110.558 112.446 115.007  1.00  0.00     0.017 C 
ATOM      7  C   UNL     1     109.327 112.361 114.091  1.00  0.00     0.031 C 
ATOM      8  C   UNL     1     110.060 111.947 117.503  1.00  0.00    -0.070 C 
ATOM      9  C   UNL     1     109.192 112.980 117.565  1.00  0.00     0.008 C 
ATOM     10  C   UNL     1     110.266 111.149 118.777  1.00  0.00     0.031 C 
ATOM     11  C   UNL     1     111.716 110.712 118.933  1.00  0.00     0.005 C 
ATOM     12  C   UNL     1     112.199 109.972 117.686  1.00  0.00     0.008 C 
ATOM     13  C   UNL     1     112.076 110.826 116.386  1.00  0.00    -0.026 C 
ATOM     14  C   UNL     1     112.560 109.924 115.217  1.00  0.00     0.012 C 
ATOM     15  C   UNL     1     113.076 112.016 116.501  1.00  0.00     0.012 C 
ENDROOT
TORSDOF 0
ENDMDL
MODEL 7
REMARK VINA RESULT:    -7.278      1.876      4.732
REMARK INTER + INTRA:          -7.278
REMARK INTER:                  -7.278
REMARK INTRA:                   0.000
REMARK UNBOUND:                 0.000
REMARK SMILES C=C1CCCC(C)(C)[C@@]12CC=C(C)CC2
REMARK SMILES IDX 13 1 12 2 11 3 10 4 9 5 15 6 14 7 2 8 1 9 3 10 4 11 5 12
REMARK SMILES IDX 6 13 7 14 8 15
REMARK H PARENT
REMARK Flexibility Score: inf
ROOT
ATOM      1  C   UNL     1     109.203 111.107 113.224  1.00  0.00     0.039 C 
ATOM      2  C   UNL     1     109.414 111.181 111.738  1.00  0.00    -0.077 C 
ATOM      3  C   UNL     1     109.956 112.276 111.185  1.00  0.00    -0.027 C 
ATOM      4  C   UNL     1     110.166 112.332 109.694  1.00  0.00     0.039 C 
ATOM      5  C   UNL     1     110.800 111.015 109.097  1.00  0.00    -0.000 C 
ATOM      6  C   UNL     1     110.363 109.753 109.962  1.00  0.00     0.017 C 
ATOM      7  C   UNL     1     109.128 110.002 110.843  1.00  0.00     0.031 C 
ATOM      8  C   UNL     1     110.263 110.913 107.644  1.00  0.00    -0.070 C 
ATOM      9  C   UNL     1     109.146 110.228 107.319  1.00  0.00     0.008 C 
ATOM     10  C   UNL     1     110.808 111.869 106.600  1.00  0.00     0.031 C 
ATOM     11  C   UNL     1     112.329 111.873 106.586  1.00  0.00     0.005 C 
ATOM     12  C   UNL     1     112.887 112.143 107.984  1.00  0.00     0.008 C 
ATOM     13  C   UNL     1     112.404 111.103 109.042  1.00  0.00    -0.026 C 
ATOM     14  C   UNL     1     113.014 111.539 110.402  1.00  0.00     0.012 C 
ATOM     15  C   UNL     1     113.026 109.722 108.673  1.00  0.00     0.012 C 
ENDROOT
TORSDOF 0
ENDMDL
MODEL 8
REMARK VINA RESULT:    -7.266      1.997      5.002
REMARK INTER + INTRA:          -7.266
REMARK INTER:                  -7.266
REMARK INTRA:                   0.000
REMARK UNBOUND:                 0.000
REMARK SMILES C=C1CCCC(C)(C)[C@@]12CC=C(C)CC2
REMARK SMILES IDX 13 1 12 2 11 3 10 4 9 5 15 6 14 7 2 8 1 9 3 10 4 11 5 12
REMARK SMILES IDX 6 13 7 14 8 15
REMARK H PARENT
REMARK Flexibility Score: inf
ROOT
ATOM      1  C   UNL     1     109.222 111.379 118.015  1.00  0.00     0.039 C 
ATOM      2  C   UNL     1     109.429 111.380 116.527  1.00  0.00    -0.077 C 
ATOM      3  C   UNL     1     109.974 112.445 115.920  1.00  0.00    -0.027 C 
ATOM      4  C   UNL     1     110.179 112.427 114.428  1.00  0.00     0.039 C 
ATOM      5  C   UNL     1     110.807 111.081 113.894  1.00  0.00    -0.000 C 
ATOM      6  C   UNL     1     110.368 109.864 114.820  1.00  0.00     0.017 C 
ATOM      7  C   UNL     1     109.137 110.160 115.691  1.00  0.00     0.031 C 
ATOM      8  C   UNL     1     110.266 110.910 112.448  1.00  0.00    -0.070 C 
ATOM      9  C   UNL     1     109.145 110.214 112.160  1.00  0.00     0.008 C 
ATOM     10  C   UNL     1     110.811 111.812 111.358  1.00  0.00     0.031 C 
ATOM     11  C   UNL     1     112.333 111.810 111.340  1.00  0.00     0.005 C 
ATOM     12  C   UNL     1     112.895 112.146 112.721  1.00  0.00     0.008 C 
ATOM     13  C   UNL     1     112.411 111.160 113.830  1.00  0.00    -0.026 C 
ATOM     14  C   UNL     1     113.027 111.660 115.166  1.00  0.00     0.012 C 
ATOM     15  C   UNL     1     113.028 109.761 113.527  1.00  0.00     0.012 C 
ENDROOT
TORSDOF 0
ENDMDL
MODEL 9
REMARK VINA RESULT:    -7.262      1.878      5.249
REMARK INTER + INTRA:          -7.262
REMARK INTER:                  -7.262
REMARK INTRA:                   0.000
REMARK UNBOUND:                 0.000
REMARK SMILES C=C1CCCC(C)(C)[C@@]12CC=C(C)CC2
REMARK SMILES IDX 13 1 12 2 11 3 10 4 9 5 15 6 14 7 2 8 1 9 3 10 4 11 5 12
REMARK SMILES IDX 6 13 7 14 8 15
REMARK H PARENT
REMARK Flexibility Score: inf
ROOT
ATOM      1  C   UNL     1     113.073 111.096 113.075  1.00  0.00     0.039 C 
ATOM      2  C   UNL     1     112.849 111.056 111.590  1.00  0.00    -0.077 C 
ATOM      3  C   UNL     1     112.365 109.948 111.009  1.00  0.00    -0.027 C 
ATOM      4  C   UNL     1     112.141 109.925 109.519  1.00  0.00     0.039 C 
ATOM      5  C   UNL     1     111.424 111.220 108.970  1.00  0.00    -0.000 C 
ATOM      6  C   UNL     1     111.797 112.479 109.869  1.00  0.00     0.017 C 
ATOM      7  C   UNL     1     113.054 112.276 110.729  1.00  0.00     0.031 C 
ATOM      8  C   UNL     1     111.936 111.398 107.515  1.00  0.00    -0.070 C 
ATOM      9  C   UNL     1     113.008 112.157 107.200  1.00  0.00     0.008 C 
ATOM     10  C   UNL     1     111.436 110.444 106.447  1.00  0.00     0.031 C 
ATOM     11  C   UNL     1     109.917 110.351 106.449  1.00  0.00     0.005 C 
ATOM     12  C   UNL     1     109.393 110.007 107.843  1.00  0.00     0.008 C 
ATOM     13  C   UNL     1     109.828 111.040 108.928  1.00  0.00    -0.026 C 
ATOM     14  C   UNL     1     109.260 110.528 110.280  1.00  0.00     0.012 C 
ATOM     15  C   UNL     1     109.121 112.393 108.608  1.00  0.00     0.012 C 
ENDROOT
TORSDOF 0
ENDMDL
