MODEL 1
REMARK VINA RESULT:    -3.967      0.000      0.000
REMARK INTER + INTRA:          -5.100
REMARK INTER:                  -4.895
REMARK INTRA:                  -0.206
REMARK UNBOUND:                -0.206
REMARK SMILES CCCCCC(=O)[O-]
REMARK SMILES IDX 4 1 5 2 6 3 7 4 8 5 3 6 2 7 1 8
REMARK H PARENT
REMARK Flexibility Score: inf
ROOT
ATOM      1  C   UNL     1     -26.632 -34.702 -11.609  1.00  0.00     0.006 C 
ENDROOT
BRANCH   1   2
ATOM      2  C   UNL     1     -25.258 -34.120 -11.952  1.00  0.00     0.053 C 
BRANCH   2   3
ATOM      3  C   UNL     1     -24.377 -35.173 -12.549  1.00  0.00     0.041 C 
ATOM      4  O   UNL     1     -24.874 -36.253 -12.964  1.00  0.00    -0.550 OA
ATOM      5  O   UNL     1     -23.015 -34.941 -12.692  1.00  0.00    -0.550 OA
ENDBRANCH   2   3
ENDBRANCH   1   2
BRANCH   1   6
ATOM      6  C   UNL     1     -27.755 -33.864 -12.229  1.00  0.00     0.000 C 
BRANCH   6   7
ATOM      7  C   UNL     1     -27.559 -33.716 -13.742  1.00  0.00    -0.003 C 
ATOM      8  C   UNL     1     -27.769 -35.047 -14.458  1.00  0.00     0.004 C 
ENDBRANCH   6   7
ENDBRANCH   1   6
TORSDOF 4
ENDMDL
MODEL 2
REMARK VINA RESULT:    -3.951      0.156      1.152
REMARK INTER + INTRA:          -5.080
REMARK INTER:                  -4.892
REMARK INTRA:                  -0.188
REMARK UNBOUND:                -0.206
REMARK SMILES CCCCCC(=O)[O-]
REMARK SMILES IDX 4 1 5 2 6 3 7 4 8 5 3 6 2 7 1 8
REMARK H PARENT
REMARK Flexibility Score: inf
ROOT
ATOM      1  C   UNL     1     -26.660 -34.722 -11.546  1.00  0.00     0.006 C 
ENDROOT
BRANCH   1   2
ATOM      2  C   UNL     1     -25.364 -34.025 -11.972  1.00  0.00     0.053 C 
BRANCH   2   3
ATOM      3  C   UNL     1     -24.404 -35.014 -12.554  1.00  0.00     0.041 C 
ATOM      4  O   UNL     1     -23.177 -34.740 -12.626  1.00  0.00    -0.550 OA
ATOM      5  O   UNL     1     -24.857 -36.259 -12.973  1.00  0.00    -0.550 OA
ENDBRANCH   2   3
ENDBRANCH   1   2
BRANCH   1   6
ATOM      6  C   UNL     1     -27.880 -34.053 -12.190  1.00  0.00     0.000 C 
BRANCH   6   7
ATOM      7  C   UNL     1     -27.643 -33.793 -13.681  1.00  0.00    -0.003 C 
ATOM      8  C   UNL     1     -27.777 -35.077 -14.494  1.00  0.00     0.004 C 
ENDBRANCH   6   7
ENDBRANCH   1   6
TORSDOF 4
ENDMDL
MODEL 3
REMARK VINA RESULT:    -3.823      2.978      3.327
REMARK INTER + INTRA:          -4.923
REMARK INTER:                  -4.738
REMARK INTRA:                  -0.185
REMARK UNBOUND:                -0.206
REMARK SMILES CCCCCC(=O)[O-]
REMARK SMILES IDX 4 1 5 2 6 3 7 4 8 5 3 6 2 7 1 8
REMARK H PARENT
REMARK Flexibility Score: inf
ROOT
ATOM      1  C   UNL     1     -26.412 -34.178 -11.452  1.00  0.00     0.006 C 
ENDROOT
BRANCH   1   2
ATOM      2  C   UNL     1     -25.865 -32.840 -11.959  1.00  0.00     0.053 C 
BRANCH   2   3
ATOM      3  C   UNL     1     -26.137 -31.753 -10.967  1.00  0.00     0.041 C 
ATOM      4  O   UNL     1     -25.239 -31.392 -10.161  1.00  0.00    -0.550 OA
ATOM      5  O   UNL     1     -27.365 -31.105 -10.966  1.00  0.00    -0.550 OA
ENDBRANCH   2   3
ENDBRANCH   1   2
BRANCH   1   6
ATOM      6  C   UNL     1     -27.814 -34.446 -12.012  1.00  0.00     0.000 C 
BRANCH   6   7
ATOM      7  C   UNL     1     -27.927 -33.967 -13.463  1.00  0.00    -0.003 C 
ATOM      8  C   UNL     1     -27.668 -35.108 -14.442  1.00  0.00     0.004 C 
ENDBRANCH   6   7
ENDBRANCH   1   6
TORSDOF 4
ENDMDL
MODEL 4
REMARK VINA RESULT:    -3.769      2.425      3.747
REMARK INTER + INTRA:          -4.857
REMARK INTER:                  -4.628
REMARK INTRA:                  -0.228
REMARK UNBOUND:                -0.206
REMARK SMILES CCCCCC(=O)[O-]
REMARK SMILES IDX 4 1 5 2 6 3 7 4 8 5 3 6 2 7 1 8
REMARK H PARENT
REMARK Flexibility Score: inf
ROOT
ATOM      1  C   UNL     1     -26.750 -34.696 -11.533  1.00  0.00     0.006 C 
ENDROOT
BRANCH   1   2
ATOM      2  C   UNL     1     -28.123 -34.074 -11.803  1.00  0.00     0.053 C 
BRANCH   2   3
ATOM      3  C   UNL     1     -28.134 -33.385 -13.131  1.00  0.00     0.041 C 
ATOM      4  O   UNL     1     -28.518 -32.190 -13.222  1.00  0.00    -0.550 OA
ATOM      5  O   UNL     1     -27.673 -34.049 -14.261  1.00  0.00    -0.550 OA
ENDBRANCH   2   3
ENDBRANCH   1   2
BRANCH   1   6
ATOM      6  C   UNL     1     -25.657 -33.622 -11.495  1.00  0.00     0.000 C 
BRANCH   6   7
ATOM      7  C   UNL     1     -24.411 -34.079 -12.260  1.00  0.00    -0.003 C 
ATOM      8  C   UNL     1     -24.495 -35.559 -12.619  1.00  0.00     0.004 C 
ENDBRANCH   6   7
ENDBRANCH   1   6
TORSDOF 4
ENDMDL
MODEL 5
REMARK VINA RESULT:    -3.700      3.135      4.100
REMARK INTER + INTRA:          -4.771
REMARK INTER:                  -4.627
REMARK INTRA:                  -0.144
REMARK UNBOUND:                -0.206
REMARK SMILES CCCCCC(=O)[O-]
REMARK SMILES IDX 4 1 5 2 6 3 7 4 8 5 3 6 2 7 1 8
REMARK H PARENT
REMARK Flexibility Score: inf
ROOT
ATOM      1  C   UNL     1     -27.720 -33.807 -13.847  1.00  0.00     0.006 C 
ENDROOT
BRANCH   1   2
ATOM      2  C   UNL     1     -28.219 -33.051 -12.613  1.00  0.00     0.053 C 
BRANCH   2   3
ATOM      3  C   UNL     1     -27.624 -31.679 -12.564  1.00  0.00     0.041 C 
ATOM      4  O   UNL     1     -26.584 -31.415 -13.223  1.00  0.00    -0.550 OA
ATOM      5  O   UNL     1     -28.245 -30.677 -11.829  1.00  0.00    -0.550 OA
ENDBRANCH   2   3
ENDBRANCH   1   2
BRANCH   1   6
ATOM      6  C   UNL     1     -27.109 -35.158 -13.455  1.00  0.00     0.000 C 
BRANCH   6   7
ATOM      7  C   UNL     1     -25.951 -34.972 -12.469  1.00  0.00    -0.003 C 
ATOM      8  C   UNL     1     -24.784 -35.894 -12.808  1.00  0.00     0.004 C 
ENDBRANCH   6   7
ENDBRANCH   1   6
TORSDOF 4
ENDMDL
MODEL 6
REMARK VINA RESULT:    -3.652      2.255      3.545
REMARK INTER + INTRA:          -4.712
REMARK INTER:                  -4.453
REMARK INTRA:                  -0.259
REMARK UNBOUND:                -0.206
REMARK SMILES CCCCCC(=O)[O-]
REMARK SMILES IDX 4 1 5 2 6 3 7 4 8 5 3 6 2 7 1 8
REMARK H PARENT
REMARK Flexibility Score: inf
ROOT
ATOM      1  C   UNL     1     -28.366 -32.525 -13.060  1.00  0.00     0.006 C 
ENDROOT
BRANCH   1   2
ATOM      2  C   UNL     1     -27.742 -33.721 -13.785  1.00  0.00     0.053 C 
BRANCH   2   3
ATOM      3  C   UNL     1     -27.159 -34.684 -12.799  1.00  0.00     0.041 C 
ATOM      4  O   UNL     1     -26.179 -35.406 -13.122  1.00  0.00    -0.550 OA
ATOM      5  O   UNL     1     -27.668 -34.751 -11.508  1.00  0.00    -0.550 OA
ENDBRANCH   2   3
ENDBRANCH   1   2
BRANCH   1   6
ATOM      6  C   UNL     1     -27.317 -31.443 -12.780  1.00  0.00     0.000 C 
BRANCH   6   7
ATOM      7  C   UNL     1     -27.188 -31.179 -11.276  1.00  0.00    -0.003 C 
ATOM      8  C   UNL     1     -25.882 -31.744 -10.726  1.00  0.00     0.004 C 
ENDBRANCH   6   7
ENDBRANCH   1   6
TORSDOF 4
ENDMDL
MODEL 7
REMARK VINA RESULT:    -3.636      1.723      2.453
REMARK INTER + INTRA:          -4.693
REMARK INTER:                  -4.455
REMARK INTRA:                  -0.237
REMARK UNBOUND:                -0.206
REMARK SMILES CCCCCC(=O)[O-]
REMARK SMILES IDX 4 1 5 2 6 3 7 4 8 5 3 6 2 7 1 8
REMARK H PARENT
REMARK Flexibility Score: inf
ROOT
ATOM      1  C   UNL     1     -27.955 -34.146 -12.294  1.00  0.00     0.006 C 
ENDROOT
BRANCH   1   2
ATOM      2  C   UNL     1     -27.157 -35.066 -13.222  1.00  0.00     0.053 C 
BRANCH   2   3
ATOM      3  C   UNL     1     -25.752 -35.217 -12.729  1.00  0.00     0.041 C 
ATOM      4  O   UNL     1     -25.291 -34.415 -11.875  1.00  0.00    -0.550 OA
ATOM      5  O   UNL     1     -24.968 -36.273 -13.177  1.00  0.00    -0.550 OA
ENDBRANCH   2   3
ENDBRANCH   1   2
BRANCH   1   6
ATOM      6  C   UNL     1     -28.342 -32.846 -13.009  1.00  0.00     0.000 C 
BRANCH   6   7
ATOM      7  C   UNL     1     -27.709 -31.631 -12.322  1.00  0.00    -0.003 C 
ATOM      8  C   UNL     1     -26.424 -31.207 -13.027  1.00  0.00     0.004 C 
ENDBRANCH   6   7
ENDBRANCH   1   6
TORSDOF 4
ENDMDL
MODEL 8
REMARK VINA RESULT:    -3.525      2.020      2.735
REMARK INTER + INTRA:          -4.555
REMARK INTER:                  -4.306
REMARK INTRA:                  -0.248
REMARK UNBOUND:                -0.206
REMARK SMILES CCCCCC(=O)[O-]
REMARK SMILES IDX 4 1 5 2 6 3 7 4 8 5 3 6 2 7 1 8
REMARK H PARENT
REMARK Flexibility Score: inf
ROOT
ATOM      1  C   UNL     1     -25.671 -33.201 -11.649  1.00  0.00     0.006 C 
ENDROOT
BRANCH   1   2
ATOM      2  C   UNL     1     -26.682 -34.350 -11.600  1.00  0.00     0.053 C 
BRANCH   2   3
ATOM      3  C   UNL     1     -26.739 -35.054 -12.919  1.00  0.00     0.041 C 
ATOM      4  O   UNL     1     -27.759 -34.949 -13.650  1.00  0.00    -0.550 OA
ATOM      5  O   UNL     1     -25.646 -35.787 -13.363  1.00  0.00    -0.550 OA
ENDBRANCH   2   3
ENDBRANCH   1   2
BRANCH   1   6
ATOM      6  C   UNL     1     -26.246 -31.996 -12.403  1.00  0.00     0.000 C 
BRANCH   6   7
ATOM      7  C   UNL     1     -27.628 -31.616 -11.860  1.00  0.00    -0.003 C 
ATOM      8  C   UNL     1     -28.616 -31.366 -12.995  1.00  0.00     0.004 C 
ENDBRANCH   6   7
ENDBRANCH   1   6
TORSDOF 4
ENDMDL
MODEL 9
REMARK VINA RESULT:    -3.492      3.547      4.180
REMARK INTER + INTRA:          -4.514
REMARK INTER:                  -4.407
REMARK INTRA:                  -0.107
REMARK UNBOUND:                -0.206
REMARK SMILES CCCCCC(=O)[O-]
REMARK SMILES IDX 4 1 5 2 6 3 7 4 8 5 3 6 2 7 1 8
REMARK H PARENT
REMARK Flexibility Score: inf
ROOT
ATOM      1  C   UNL     1     -28.161 -32.441 -13.062  1.00  0.00     0.006 C 
ENDROOT
BRANCH   1   2
ATOM      2  C   UNL     1     -26.958 -31.552 -12.735  1.00  0.00     0.053 C 
BRANCH   2   3
ATOM      3  C   UNL     1     -27.105 -30.950 -11.373  1.00  0.00     0.041 C 
ATOM      4  O   UNL     1     -28.048 -30.150 -11.133  1.00  0.00    -0.550 OA
ATOM      5  O   UNL     1     -26.231 -31.309 -10.356  1.00  0.00    -0.550 OA
ENDBRANCH   2   3
ENDBRANCH   1   2
BRANCH   1   6
ATOM      6  C   UNL     1     -27.718 -33.731 -13.762  1.00  0.00     0.000 C 
BRANCH   6   7
ATOM      7  C   UNL     1     -27.063 -34.698 -12.770  1.00  0.00    -0.003 C 
ATOM      8  C   UNL     1     -27.803 -34.706 -11.436  1.00  0.00     0.004 C 
ENDBRANCH   6   7
ENDBRANCH   1   6
TORSDOF 4
ENDMDL
