MODEL 1
REMARK VINA RESULT:    -4.874      0.000      0.000
REMARK INTER + INTRA:          -6.016
REMARK INTER:                  -5.729
REMARK INTRA:                  -0.287
REMARK UNBOUND:                -0.287
REMARK SMILES O=c1c(O)c(-c2ccc(O)cc2)oc2cc(O)cc(O)c12
REMARK SMILES IDX 5 1 3 2 2 3 1 4 21 5 19 6 18 7 16 8 15 9 14 10 13 11 6 12
REMARK SMILES IDX 7 13 8 14 9 15 12 16 11 17 10 18 4 20 20 22 17 24
REMARK H PARENT 10 19 4 21 20 23 17 25
REMARK Flexibility Score: inf
ROOT
ATOM      1  C   UNL     1     147.358 150.945 137.039  1.00  0.00     0.180 A 
ATOM      2  C   UNL     1     148.081 151.926 136.340  1.00  0.00     0.208 A 
ATOM      3  C   UNL     1     149.477 151.974 136.481  1.00  0.00     0.238 A 
ATOM      4  O   UNL     1     150.110 152.901 135.911  1.00  0.00    -0.285 OA
ATOM      5  C   UNL     1     150.139 151.007 137.276  1.00  0.00     0.111 A 
ATOM      6  C   UNL     1     151.554 150.932 137.454  1.00  0.00     0.134 A 
ATOM      7  C   UNL     1     152.089 149.997 138.350  1.00  0.00     0.093 A 
ATOM      8  C   UNL     1     151.268 149.093 139.022  1.00  0.00     0.123 A 
ATOM      9  C   UNL     1     149.889 149.120 138.813  1.00  0.00     0.094 A 
ATOM     10  C   UNL     1     149.322 150.066 137.957  1.00  0.00     0.146 A 
ATOM     11  O   UNL     1     148.003 150.072 137.803  1.00  0.00    -0.452 OA
ENDROOT
BRANCH   1  12
ATOM     12  C   UNL     1     145.884 150.840 136.952  1.00  0.00     0.021 A 
ATOM     13  C   UNL     1     145.084 151.614 137.810  1.00  0.00     0.016 A 
ATOM     14  C   UNL     1     143.691 151.548 137.731  1.00  0.00     0.047 A 
ATOM     15  C   UNL     1     143.078 150.720 136.782  1.00  0.00     0.115 A 
ATOM     16  C   UNL     1     145.262 150.027 135.987  1.00  0.00     0.016 A 
ATOM     17  C   UNL     1     143.867 149.963 135.909  1.00  0.00     0.047 A 
BRANCH  15  18
ATOM     18  O   UNL     1     141.690 150.646 136.693  1.00  0.00    -0.508 OA
ATOM     19  H   UNL     1     141.233 150.202 135.903  1.00  0.00     0.293 HD
ENDBRANCH  15  18
ENDBRANCH   1  12
BRANCH   2  20
ATOM     20  O   UNL     1     147.418 152.825 135.499  1.00  0.00    -0.502 OA
ATOM     21  H   UNL     1     147.155 153.756 135.797  1.00  0.00     0.293 HD
ENDBRANCH   2  20
BRANCH   6  22
ATOM     22  O   UNL     1     152.474 151.728 136.766  1.00  0.00    -0.507 OA
ATOM     23  H   UNL     1     153.090 151.401 136.038  1.00  0.00     0.293 HD
ENDBRANCH   6  22
BRANCH   8  24
ATOM     24  O   UNL     1     151.836 148.164 139.892  1.00  0.00    -0.508 OA
ATOM     25  H   UNL     1     152.190 148.436 140.801  1.00  0.00     0.293 HD
ENDBRANCH   8  24
TORSDOF 5
ENDMDL
MODEL 2
REMARK VINA RESULT:    -4.871      5.770      8.280
REMARK INTER + INTRA:          -6.012
REMARK INTER:                  -5.728
REMARK INTRA:                  -0.285
REMARK UNBOUND:                -0.287
REMARK SMILES O=c1c(O)c(-c2ccc(O)cc2)oc2cc(O)cc(O)c12
REMARK SMILES IDX 5 1 3 2 2 3 1 4 21 5 19 6 18 7 16 8 15 9 14 10 13 11 6 12
REMARK SMILES IDX 7 13 8 14 9 15 12 16 11 17 10 18 4 20 20 22 17 24
REMARK H PARENT 10 19 4 21 20 23 17 25
REMARK Flexibility Score: inf
ROOT
ATOM      1  C   UNL     1     141.675 147.370 137.010  1.00  0.00     0.180 A 
ATOM      2  C   UNL     1     140.670 148.091 136.344  1.00  0.00     0.208 A 
ATOM      3  C   UNL     1     140.601 149.483 136.514  1.00  0.00     0.238 A 
ATOM      4  O   UNL     1     139.654 150.112 135.975  1.00  0.00    -0.285 OA
ATOM      5  C   UNL     1     141.572 150.145 137.305  1.00  0.00     0.111 A 
ATOM      6  C   UNL     1     141.627 151.557 137.512  1.00  0.00     0.134 A 
ATOM      7  C   UNL     1     142.569 152.089 138.401  1.00  0.00     0.093 A 
ATOM      8  C   UNL     1     143.499 151.270 139.040  1.00  0.00     0.123 A 
ATOM      9  C   UNL     1     143.490 149.895 138.803  1.00  0.00     0.094 A 
ATOM     10  C   UNL     1     142.538 149.330 137.953  1.00  0.00     0.146 A 
ATOM     11  O   UNL     1     142.552 148.015 137.772  1.00  0.00    -0.452 OA
ENDROOT
BRANCH   1  12
ATOM     12  C   UNL     1     141.802 145.900 136.891  1.00  0.00     0.021 A 
ATOM     13  C   UNL     1     141.039 145.071 137.729  1.00  0.00     0.016 A 
ATOM     14  C   UNL     1     141.126 143.680 137.619  1.00  0.00     0.047 A 
ATOM     15  C   UNL     1     141.966 143.101 136.659  1.00  0.00     0.115 A 
ATOM     16  C   UNL     1     142.628 145.312 135.915  1.00  0.00     0.016 A 
ATOM     17  C   UNL     1     142.713 143.920 135.807  1.00  0.00     0.047 A 
BRANCH  15  18
ATOM     18  O   UNL     1     142.062 141.716 136.540  1.00  0.00    -0.508 OA
ATOM     19  H   UNL     1     141.277 141.157 136.224  1.00  0.00     0.293 HD
ENDBRANCH  15  18
ENDBRANCH   1  12
BRANCH   2  20
ATOM     20  O   UNL     1     139.767 147.430 135.506  1.00  0.00    -0.502 OA
ATOM     21  H   UNL     1     140.002 146.574 135.020  1.00  0.00     0.293 HD
ENDBRANCH   2  20
BRANCH   6  22
ATOM     22  O   UNL     1     140.803 152.477 136.857  1.00  0.00    -0.507 OA
ATOM     23  H   UNL     1     139.901 152.782 137.187  1.00  0.00     0.293 HD
ENDBRANCH   6  22
BRANCH   8  24
ATOM     24  O   UNL     1     144.434 151.836 139.905  1.00  0.00    -0.508 OA
ATOM     25  H   UNL     1     144.441 152.829 140.102  1.00  0.00     0.293 HD
ENDBRANCH   8  24
TORSDOF 5
ENDMDL
MODEL 3
REMARK VINA RESULT:    -4.845      8.609     11.785
REMARK INTER + INTRA:          -5.982
REMARK INTER:                  -5.701
REMARK INTRA:                  -0.281
REMARK UNBOUND:                -0.287
REMARK SMILES O=c1c(O)c(-c2ccc(O)cc2)oc2cc(O)cc(O)c12
REMARK SMILES IDX 5 1 3 2 2 3 1 4 21 5 19 6 18 7 16 8 15 9 14 10 13 11 6 12
REMARK SMILES IDX 7 13 8 14 9 15 12 16 11 17 10 18 4 20 20 22 17 24
REMARK H PARENT 10 19 4 21 20 23 17 25
REMARK Flexibility Score: inf
ROOT
ATOM      1  C   UNL     1     145.336 141.516 137.115  1.00  0.00     0.180 A 
ATOM      2  C   UNL     1     144.612 140.537 136.414  1.00  0.00     0.208 A 
ATOM      3  C   UNL     1     143.212 140.513 136.527  1.00  0.00     0.238 A 
ATOM      4  O   UNL     1     142.576 139.589 135.957  1.00  0.00    -0.285 OA
ATOM      5  C   UNL     1     142.550 141.501 137.297  1.00  0.00     0.111 A 
ATOM      6  C   UNL     1     141.134 141.602 137.446  1.00  0.00     0.134 A 
ATOM      7  C   UNL     1     140.597 142.556 138.319  1.00  0.00     0.093 A 
ATOM      8  C   UNL     1     141.418 143.456 138.996  1.00  0.00     0.123 A 
ATOM      9  C   UNL     1     142.801 143.404 138.814  1.00  0.00     0.094 A 
ATOM     10  C   UNL     1     143.369 142.438 137.982  1.00  0.00     0.146 A 
ATOM     11  O   UNL     1     144.691 142.409 137.855  1.00  0.00    -0.452 OA
ENDROOT
BRANCH   1  12
ATOM     12  C   UNL     1     146.814 141.596 137.056  1.00  0.00     0.021 A 
ATOM     13  C   UNL     1     147.584 140.786 137.908  1.00  0.00     0.016 A 
ATOM     14  C   UNL     1     148.979 140.829 137.854  1.00  0.00     0.047 A 
ATOM     15  C   UNL     1     149.623 141.670 136.937  1.00  0.00     0.115 A 
ATOM     16  C   UNL     1     147.467 142.422 136.124  1.00  0.00     0.016 A 
ATOM     17  C   UNL     1     148.864 142.462 136.072  1.00  0.00     0.047 A 
BRANCH  15  18
ATOM     18  O   UNL     1     151.014 141.721 136.874  1.00  0.00    -0.508 OA
ATOM     19  H   UNL     1     151.585 141.662 137.711  1.00  0.00     0.293 HD
ENDBRANCH  15  18
ENDBRANCH   1  12
BRANCH   2  20
ATOM     20  O   UNL     1     145.277 139.617 135.599  1.00  0.00    -0.502 OA
ATOM     21  H   UNL     1     144.786 138.940 135.029  1.00  0.00     0.293 HD
ENDBRANCH   2  20
BRANCH   6  22
ATOM     22  O   UNL     1     140.215 140.811 136.749  1.00  0.00    -0.507 OA
ATOM     23  H   UNL     1     140.409 140.321 135.890  1.00  0.00     0.293 HD
ENDBRANCH   6  22
BRANCH   8  24
ATOM     24  O   UNL     1     140.848 144.405 139.842  1.00  0.00    -0.508 OA
ATOM     25  H   UNL     1     140.923 145.397 139.652  1.00  0.00     0.293 HD
ENDBRANCH   8  24
TORSDOF 5
ENDMDL
MODEL 4
REMARK VINA RESULT:    -4.808      5.742      8.160
REMARK INTER + INTRA:          -5.939
REMARK INTER:                  -5.652
REMARK INTRA:                  -0.287
REMARK UNBOUND:                -0.287
REMARK SMILES O=c1c(O)c(-c2ccc(O)cc2)oc2cc(O)cc(O)c12
REMARK SMILES IDX 5 1 3 2 2 3 1 4 21 5 19 6 18 7 16 8 15 9 14 10 13 11 6 12
REMARK SMILES IDX 7 13 8 14 9 15 12 16 11 17 10 18 4 20 20 22 17 24
REMARK H PARENT 10 19 4 21 20 23 17 25
REMARK Flexibility Score: inf
ROOT
ATOM      1  C   UNL     1     150.834 145.284 136.953  1.00  0.00     0.180 A 
ATOM      2  C   UNL     1     151.856 144.582 136.293  1.00  0.00     0.208 A 
ATOM      3  C   UNL     1     151.961 143.194 136.480  1.00  0.00     0.238 A 
ATOM      4  O   UNL     1     152.923 142.584 135.946  1.00  0.00    -0.285 OA
ATOM      5  C   UNL     1     151.010 142.517 137.282  1.00  0.00     0.111 A 
ATOM      6  C   UNL     1     150.992 141.107 137.505  1.00  0.00     0.134 A 
ATOM      7  C   UNL     1     150.066 140.562 138.404  1.00  0.00     0.093 A 
ATOM      8  C   UNL     1     149.117 141.363 139.036  1.00  0.00     0.123 A 
ATOM      9  C   UNL     1     149.089 142.735 138.782  1.00  0.00     0.094 A 
ATOM     10  C   UNL     1     150.024 143.314 137.922  1.00  0.00     0.146 A 
ATOM     11  O   UNL     1     149.976 144.627 137.725  1.00  0.00    -0.452 OA
ENDROOT
BRANCH   1  12
ATOM     12  C   UNL     1     150.668 146.749 136.817  1.00  0.00     0.021 A 
ATOM     13  C   UNL     1     151.394 147.608 137.659  1.00  0.00     0.016 A 
ATOM     14  C   UNL     1     151.271 148.994 137.532  1.00  0.00     0.047 A 
ATOM     15  C   UNL     1     150.431 149.540 136.553  1.00  0.00     0.115 A 
ATOM     16  C   UNL     1     149.842 147.304 135.822  1.00  0.00     0.016 A 
ATOM     17  C   UNL     1     149.721 148.692 135.698  1.00  0.00     0.047 A 
BRANCH  15  18
ATOM     18  O   UNL     1     150.299 150.921 136.418  1.00  0.00    -0.508 OA
ATOM     19  H   UNL     1     149.429 151.393 136.637  1.00  0.00     0.293 HD
ENDBRANCH  15  18
ENDBRANCH   1  12
BRANCH   2  20
ATOM     20  O   UNL     1     152.739 145.256 135.445  1.00  0.00    -0.502 OA
ATOM     21  H   UNL     1     152.670 146.250 135.265  1.00  0.00     0.293 HD
ENDBRANCH   2  20
BRANCH   6  22
ATOM     22  O   UNL     1     151.838 140.201 136.859  1.00  0.00    -0.507 OA
ATOM     23  H   UNL     1     152.831 140.124 137.017  1.00  0.00     0.293 HD
ENDBRANCH   6  22
BRANCH   8  24
ATOM     24  O   UNL     1     148.199 140.784 139.910  1.00  0.00    -0.508 OA
ATOM     25  H   UNL     1     148.498 140.217 140.692  1.00  0.00     0.293 HD
ENDBRANCH   8  24
TORSDOF 5
ENDMDL
MODEL 5
REMARK VINA RESULT:    -4.731      4.677      7.361
REMARK INTER + INTRA:          -5.848
REMARK INTER:                  -5.557
REMARK INTRA:                  -0.291
REMARK UNBOUND:                -0.287
REMARK SMILES O=c1c(O)c(-c2ccc(O)cc2)oc2cc(O)cc(O)c12
REMARK SMILES IDX 5 1 3 2 2 3 1 4 21 5 19 6 18 7 16 8 15 9 14 10 13 11 6 12
REMARK SMILES IDX 7 13 8 14 9 15 12 16 11 17 10 18 4 20 20 22 17 24
REMARK H PARENT 10 19 4 21 20 23 17 25
REMARK Flexibility Score: inf
ROOT
ATOM      1  C   UNL     1     151.898 147.296 136.827  1.00  0.00     0.180 A 
ATOM      2  C   UNL     1     153.105 146.724 136.395  1.00  0.00     0.208 A 
ATOM      3  C   UNL     1     153.226 145.325 136.367  1.00  0.00     0.238 A 
ATOM      4  O   UNL     1     154.334 144.820 136.050  1.00  0.00    -0.285 OA
ATOM      5  C   UNL     1     152.119 144.515 136.719  1.00  0.00     0.111 A 
ATOM      6  C   UNL     1     152.112 143.088 136.684  1.00  0.00     0.134 A 
ATOM      7  C   UNL     1     150.993 142.390 137.157  1.00  0.00     0.093 A 
ATOM      8  C   UNL     1     149.858 143.066 137.602  1.00  0.00     0.123 A 
ATOM      9  C   UNL     1     149.832 144.461 137.588  1.00  0.00     0.094 A 
ATOM     10  C   UNL     1     150.947 145.185 137.159  1.00  0.00     0.146 A 
ATOM     11  O   UNL     1     150.887 146.511 137.183  1.00  0.00    -0.452 OA
ENDROOT
BRANCH   1  12
ATOM     12  C   UNL     1     151.700 148.762 136.898  1.00  0.00     0.021 A 
ATOM     13  C   UNL     1     151.219 149.449 135.770  1.00  0.00     0.016 A 
ATOM     14  C   UNL     1     151.004 150.829 135.821  1.00  0.00     0.047 A 
ATOM     15  C   UNL     1     151.252 151.537 137.004  1.00  0.00     0.115 A 
ATOM     16  C   UNL     1     151.927 149.476 138.088  1.00  0.00     0.016 A 
ATOM     17  C   UNL     1     151.710 150.857 138.136  1.00  0.00     0.047 A 
BRANCH  15  18
ATOM     18  O   UNL     1     151.041 152.913 137.067  1.00  0.00    -0.508 OA
ATOM     19  H   UNL     1     151.806 153.558 137.233  1.00  0.00     0.293 HD
ENDBRANCH  15  18
ENDBRANCH   1  12
BRANCH   2  20
ATOM     20  O   UNL     1     154.162 147.539 135.978  1.00  0.00    -0.502 OA
ATOM     21  H   UNL     1     154.962 147.178 135.474  1.00  0.00     0.293 HD
ENDBRANCH   2  20
BRANCH   6  22
ATOM     22  O   UNL     1     153.159 142.312 136.178  1.00  0.00    -0.507 OA
ATOM     23  H   UNL     1     154.009 142.678 135.780  1.00  0.00     0.293 HD
ENDBRANCH   6  22
BRANCH   8  24
ATOM     24  O   UNL     1     148.756 142.339 138.048  1.00  0.00    -0.508 OA
ATOM     25  H   UNL     1     147.941 142.201 137.464  1.00  0.00     0.293 HD
ENDBRANCH   8  24
TORSDOF 5
ENDMDL
MODEL 6
REMARK VINA RESULT:    -4.726      9.071     12.115
REMARK INTER + INTRA:          -5.842
REMARK INTER:                  -5.562
REMARK INTRA:                  -0.280
REMARK UNBOUND:                -0.287
REMARK SMILES O=c1c(O)c(-c2ccc(O)cc2)oc2cc(O)cc(O)c12
REMARK SMILES IDX 5 1 3 2 2 3 1 4 21 5 19 6 18 7 16 8 15 9 14 10 13 11 6 12
REMARK SMILES IDX 7 13 8 14 9 15 12 16 11 17 10 18 4 20 20 22 17 24
REMARK H PARENT 10 19 4 21 20 23 17 25
REMARK Flexibility Score: inf
ROOT
ATOM      1  C   UNL     1     147.295 140.719 136.804  1.00  0.00     0.180 A 
ATOM      2  C   UNL     1     146.718 139.509 136.384  1.00  0.00     0.208 A 
ATOM      3  C   UNL     1     145.319 139.395 136.353  1.00  0.00     0.238 A 
ATOM      4  O   UNL     1     144.810 138.285 136.047  1.00  0.00    -0.285 OA
ATOM      5  C   UNL     1     144.513 140.509 136.690  1.00  0.00     0.111 A 
ATOM      6  C   UNL     1     143.086 140.522 136.651  1.00  0.00     0.134 A 
ATOM      7  C   UNL     1     142.392 141.649 137.109  1.00  0.00     0.093 A 
ATOM      8  C   UNL     1     143.071 142.786 137.543  1.00  0.00     0.123 A 
ATOM      9  C   UNL     1     144.467 142.806 137.533  1.00  0.00     0.094 A 
ATOM     10  C   UNL     1     145.187 141.684 137.119  1.00  0.00     0.146 A 
ATOM     11  O   UNL     1     146.513 141.737 137.146  1.00  0.00    -0.452 OA
ENDROOT
BRANCH   1  12
ATOM     12  C   UNL     1     148.761 140.911 136.877  1.00  0.00     0.021 A 
ATOM     13  C   UNL     1     149.466 141.289 135.722  1.00  0.00     0.016 A 
ATOM     14  C   UNL     1     150.847 141.498 135.773  1.00  0.00     0.047 A 
ATOM     15  C   UNL     1     151.538 141.346 136.981  1.00  0.00     0.115 A 
ATOM     16  C   UNL     1     149.458 140.780 138.091  1.00  0.00     0.016 A 
ATOM     17  C   UNL     1     150.840 140.990 138.139  1.00  0.00     0.047 A 
BRANCH  15  18
ATOM     18  O   UNL     1     152.915 141.551 137.044  1.00  0.00    -0.508 OA
ATOM     19  H   UNL     1     153.484 141.109 137.758  1.00  0.00     0.293 HD
ENDBRANCH  15  18
ENDBRANCH   1  12
BRANCH   2  20
ATOM     20  O   UNL     1     147.530 138.444 135.982  1.00  0.00    -0.502 OA
ATOM     21  H   UNL     1     147.182 137.498 135.895  1.00  0.00     0.293 HD
ENDBRANCH   2  20
BRANCH   6  22
ATOM     22  O   UNL     1     142.307 139.473 136.154  1.00  0.00    -0.507 OA
ATOM     23  H   UNL     1     141.308 139.393 136.264  1.00  0.00     0.293 HD
ENDBRANCH   6  22
BRANCH   8  24
ATOM     24  O   UNL     1     142.349 143.897 137.975  1.00  0.00    -0.508 OA
ATOM     25  H   UNL     1     141.629 144.317 137.400  1.00  0.00     0.293 HD
ENDBRANCH   8  24
TORSDOF 5
ENDMDL
MODEL 7
REMARK VINA RESULT:    -4.722      1.885      6.402
REMARK INTER + INTRA:          -5.838
REMARK INTER:                  -5.942
REMARK INTRA:                   0.104
REMARK UNBOUND:                -0.287
REMARK SMILES O=c1c(O)c(-c2ccc(O)cc2)oc2cc(O)cc(O)c12
REMARK SMILES IDX 5 1 3 2 2 3 1 4 21 5 19 6 18 7 16 8 15 9 14 10 13 11 6 12
REMARK SMILES IDX 7 13 8 14 9 15 12 16 11 17 10 18 4 20 20 22 17 24
REMARK H PARENT 10 19 4 21 20 23 17 25
REMARK Flexibility Score: inf
ROOT
ATOM      1  C   UNL     1     148.427 151.762 136.893  1.00  0.00     0.180 A 
ATOM      2  C   UNL     1     148.899 152.641 135.904  1.00  0.00     0.208 A 
ATOM      3  C   UNL     1     147.988 153.490 135.255  1.00  0.00     0.238 A 
ATOM      4  O   UNL     1     148.404 154.220 134.318  1.00  0.00    -0.285 OA
ATOM      5  C   UNL     1     146.625 153.488 135.641  1.00  0.00     0.111 A 
ATOM      6  C   UNL     1     145.622 154.338 135.084  1.00  0.00     0.134 A 
ATOM      7  C   UNL     1     144.285 154.173 135.470  1.00  0.00     0.093 A 
ATOM      8  C   UNL     1     143.925 153.238 136.438  1.00  0.00     0.123 A 
ATOM      9  C   UNL     1     144.905 152.440 137.030  1.00  0.00     0.094 A 
ATOM     10  C   UNL     1     146.240 152.554 136.638  1.00  0.00     0.146 A 
ATOM     11  O   UNL     1     147.138 151.760 137.212  1.00  0.00    -0.452 OA
ENDROOT
BRANCH   1  12
ATOM     12  C   UNL     1     149.324 150.828 137.611  1.00  0.00     0.021 A 
ATOM     13  C   UNL     1     150.529 151.306 138.153  1.00  0.00     0.016 A 
ATOM     14  C   UNL     1     151.380 150.448 138.854  1.00  0.00     0.047 A 
ATOM     15  C   UNL     1     151.030 149.104 139.035  1.00  0.00     0.115 A 
ATOM     16  C   UNL     1     148.970 149.482 137.815  1.00  0.00     0.016 A 
ATOM     17  C   UNL     1     149.823 148.625 138.517  1.00  0.00     0.047 A 
BRANCH  15  18
ATOM     18  O   UNL     1     151.871 148.238 139.732  1.00  0.00    -0.508 OA
ATOM     19  H   UNL     1     152.447 147.556 139.249  1.00  0.00     0.293 HD
ENDBRANCH  15  18
ENDBRANCH   1  12
BRANCH   2  20
ATOM     20  O   UNL     1     150.260 152.682 135.589  1.00  0.00    -0.502 OA
ATOM     21  H   UNL     1     150.843 151.854 135.582  1.00  0.00     0.293 HD
ENDBRANCH   2  20
BRANCH   6  22
ATOM     22  O   UNL     1     145.883 155.366 134.174  1.00  0.00    -0.507 OA
ATOM     23  H   UNL     1     145.437 155.470 133.276  1.00  0.00     0.293 HD
ENDBRANCH   6  22
BRANCH   8  24
ATOM     24  O   UNL     1     142.588 153.114 136.811  1.00  0.00    -0.508 OA
ATOM     25  H   UNL     1     142.240 152.279 137.267  1.00  0.00     0.293 HD
ENDBRANCH   8  24
TORSDOF 5
ENDMDL
MODEL 8
REMARK VINA RESULT:    -4.718      1.672      2.691
REMARK INTER + INTRA:          -5.833
REMARK INTER:                  -5.553
REMARK INTRA:                  -0.280
REMARK UNBOUND:                -0.287
REMARK SMILES O=c1c(O)c(-c2ccc(O)cc2)oc2cc(O)cc(O)c12
REMARK SMILES IDX 5 1 3 2 2 3 1 4 21 5 19 6 18 7 16 8 15 9 14 10 13 11 6 12
REMARK SMILES IDX 7 13 8 14 9 15 12 16 11 17 10 18 4 20 20 22 17 24
REMARK H PARENT 10 19 4 21 20 23 17 25
REMARK Flexibility Score: inf
ROOT
ATOM      1  C   UNL     1     145.191 151.919 136.791  1.00  0.00     0.180 A 
ATOM      2  C   UNL     1     145.754 153.141 136.387  1.00  0.00     0.208 A 
ATOM      3  C   UNL     1     147.152 153.265 136.342  1.00  0.00     0.238 A 
ATOM      4  O   UNL     1     147.650 154.384 136.051  1.00  0.00    -0.285 OA
ATOM      5  C   UNL     1     147.970 152.150 136.649  1.00  0.00     0.111 A 
ATOM      6  C   UNL     1     149.396 152.149 136.593  1.00  0.00     0.134 A 
ATOM      7  C   UNL     1     150.103 151.018 137.022  1.00  0.00     0.093 A 
ATOM      8  C   UNL     1     149.437 149.868 137.442  1.00  0.00     0.123 A 
ATOM      9  C   UNL     1     148.041 149.839 137.448  1.00  0.00     0.094 A 
ATOM     10  C   UNL     1     147.309 150.964 137.064  1.00  0.00     0.146 A 
ATOM     11  O   UNL     1     145.983 150.901 137.105  1.00  0.00    -0.452 OA
ENDROOT
BRANCH   1  12
ATOM     12  C   UNL     1     143.727 151.716 136.877  1.00  0.00     0.021 A 
ATOM     13  C   UNL     1     143.014 151.334 135.729  1.00  0.00     0.016 A 
ATOM     14  C   UNL     1     141.635 151.114 135.792  1.00  0.00     0.047 A 
ATOM     15  C   UNL     1     140.954 151.259 137.007  1.00  0.00     0.115 A 
ATOM     16  C   UNL     1     143.040 151.838 138.099  1.00  0.00     0.016 A 
ATOM     17  C   UNL     1     141.660 151.618 138.159  1.00  0.00     0.047 A 
BRANCH  15  18
ATOM     18  O   UNL     1     139.580 151.043 137.082  1.00  0.00    -0.508 OA
ATOM     19  H   UNL     1     139.109 150.403 136.452  1.00  0.00     0.293 HD
ENDBRANCH  15  18
ENDBRANCH   1  12
BRANCH   2  20
ATOM     20  O   UNL     1     144.931 154.207 136.014  1.00  0.00    -0.502 OA
ATOM     21  H   UNL     1     145.219 154.908 135.343  1.00  0.00     0.293 HD
ENDBRANCH   2  20
BRANCH   6  22
ATOM     22  O   UNL     1     150.162 153.212 136.106  1.00  0.00    -0.507 OA
ATOM     23  H   UNL     1     149.988 154.186 136.301  1.00  0.00     0.293 HD
ENDBRANCH   6  22
BRANCH   8  24
ATOM     24  O   UNL     1     150.172 148.755 137.845  1.00  0.00    -0.508 OA
ATOM     25  H   UNL     1     150.923 148.382 137.278  1.00  0.00     0.293 HD
ENDBRANCH   8  24
TORSDOF 5
ENDMDL
MODEL 9
REMARK VINA RESULT:    -4.690      6.134      9.893
REMARK INTER + INTRA:          -5.800
REMARK INTER:                  -5.511
REMARK INTRA:                  -0.289
REMARK UNBOUND:                -0.287
REMARK SMILES O=c1c(O)c(-c2ccc(O)cc2)oc2cc(O)cc(O)c12
REMARK SMILES IDX 5 1 3 2 2 3 1 4 21 5 19 6 18 7 16 8 15 9 14 10 13 11 6 12
REMARK SMILES IDX 7 13 8 14 9 15 12 16 11 17 10 18 4 20 20 22 17 24
REMARK H PARENT 10 19 4 21 20 23 17 25
REMARK Flexibility Score: inf
ROOT
ATOM      1  C   UNL     1     140.756 145.354 136.803  1.00  0.00     0.180 A 
ATOM      2  C   UNL     1     139.542 145.919 136.378  1.00  0.00     0.208 A 
ATOM      3  C   UNL     1     139.413 147.318 136.351  1.00  0.00     0.238 A 
ATOM      4  O   UNL     1     138.300 147.815 136.041  1.00  0.00    -0.285 OA
ATOM      5  C   UNL     1     140.517 148.134 136.697  1.00  0.00     0.111 A 
ATOM      6  C   UNL     1     140.515 149.561 136.662  1.00  0.00     0.134 A 
ATOM      7  C   UNL     1     141.632 150.266 137.129  1.00  0.00     0.093 A 
ATOM      8  C   UNL     1     142.774 149.597 137.566  1.00  0.00     0.123 A 
ATOM      9  C   UNL     1     142.809 148.202 137.552  1.00  0.00     0.094 A 
ATOM     10  C   UNL     1     141.696 147.472 137.130  1.00  0.00     0.146 A 
ATOM     11  O   UNL     1     141.764 146.145 137.153  1.00  0.00    -0.452 OA
ENDROOT
BRANCH   1  12
ATOM     12  C   UNL     1     140.963 143.890 136.872  1.00  0.00     0.021 A 
ATOM     13  C   UNL     1     140.637 143.201 138.052  1.00  0.00     0.016 A 
ATOM     14  C   UNL     1     140.802 141.816 138.132  1.00  0.00     0.047 A 
ATOM     15  C   UNL     1     141.282 141.099 137.028  1.00  0.00     0.115 A 
ATOM     16  C   UNL     1     141.424 143.161 135.760  1.00  0.00     0.016 A 
ATOM     17  C   UNL     1     141.588 141.775 135.843  1.00  0.00     0.047 A 
BRANCH  15  18
ATOM     18  O   UNL     1     141.451 139.718 137.096  1.00  0.00    -0.508 OA
ATOM     19  H   UNL     1     142.086 139.295 137.765  1.00  0.00     0.293 HD
ENDBRANCH  15  18
ENDBRANCH   1  12
BRANCH   2  20
ATOM     20  O   UNL     1     138.488 145.098 135.967  1.00  0.00    -0.502 OA
ATOM     21  H   UNL     1     137.542 145.218 136.304  1.00  0.00     0.293 HD
ENDBRANCH   2  20
BRANCH   6  22
ATOM     22  O   UNL     1     139.460 150.331 136.162  1.00  0.00    -0.507 OA
ATOM     23  H   UNL     1     138.485 150.086 136.227  1.00  0.00     0.293 HD
ENDBRANCH   6  22
BRANCH   8  24
ATOM     24  O   UNL     1     143.875 150.330 138.006  1.00  0.00    -0.508 OA
ATOM     25  H   UNL     1     144.216 150.254 138.956  1.00  0.00     0.293 HD
ENDBRANCH   8  24
TORSDOF 5
ENDMDL
