MODEL 1
REMARK VINA RESULT:    -7.386      0.000      0.000
REMARK INTER + INTRA:          -8.708
REMARK INTER:                  -9.113
REMARK INTRA:                   0.404
REMARK UNBOUND:                 0.404
REMARK SMILES O=c1c(O)c(-c2cc(O)c(O)c(O)c2)oc2cc(O)cc(O)c12
REMARK SMILES IDX 5 1 3 2 2 3 1 4 23 5 21 6 20 7 18 8 17 9 16 10 15 11 6 12
REMARK SMILES IDX 7 13 8 14 14 15 10 16 12 17 9 18 11 20 13 22 4 24 22 26
REMARK SMILES IDX 19 28
REMARK H PARENT 9 19 11 21 13 23 4 25 22 27 19 29
REMARK Flexibility Score: inf
ROOT
ATOM      1  C   UNL     1      28.407  23.646  49.654  1.00  0.00     0.180 A 
ATOM      2  C   UNL     1      27.378  22.894  50.247  1.00  0.00     0.208 A 
ATOM      3  C   UNL     1      27.466  22.579  51.612  1.00  0.00     0.238 A 
ATOM      4  O   UNL     1      26.569  21.860  52.126  1.00  0.00    -0.285 OA
ATOM      5  C   UNL     1      28.572  23.033  52.371  1.00  0.00     0.111 A 
ATOM      6  C   UNL     1      28.743  22.806  53.769  1.00  0.00     0.134 A 
ATOM      7  C   UNL     1      29.940  23.188  54.389  1.00  0.00     0.093 A 
ATOM      8  C   UNL     1      30.943  23.846  53.675  1.00  0.00     0.123 A 
ATOM      9  C   UNL     1      30.760  24.125  52.322  1.00  0.00     0.094 A 
ATOM     10  C   UNL     1      29.594  23.724  51.668  1.00  0.00     0.146 A 
ATOM     11  O   UNL     1      29.464  24.001  50.376  1.00  0.00    -0.452 OA
ENDROOT
BRANCH   1  12
ATOM     12  C   UNL     1      28.373  24.038  48.226  1.00  0.00     0.029 A 
ATOM     13  C   UNL     1      27.211  23.882  47.452  1.00  0.00     0.062 A 
ATOM     14  C   UNL     1      27.188  24.280  46.112  1.00  0.00     0.162 A 
ATOM     15  C   UNL     1      29.504  24.634  47.646  1.00  0.00     0.062 A 
ATOM     16  C   UNL     1      28.331  24.854  45.530  1.00  0.00     0.200 A 
ATOM     17  C   UNL     1      29.491  25.034  46.303  1.00  0.00     0.162 A 
BRANCH  14  18
ATOM     18  O   UNL     1      26.017  24.101  45.375  1.00  0.00    -0.504 OA
ATOM     19  H   UNL     1      25.205  24.692  45.503  1.00  0.00     0.293 HD
ENDBRANCH  14  18
BRANCH  16  20
ATOM     20  O   UNL     1      28.301  25.244  44.191  1.00  0.00    -0.502 OA
ATOM     21  H   UNL     1      27.545  25.797  43.805  1.00  0.00     0.293 HD
ENDBRANCH  16  20
BRANCH  17  22
ATOM     22  O   UNL     1      30.626  25.610  45.735  1.00  0.00    -0.504 OA
ATOM     23  H   UNL     1      30.559  26.274  44.972  1.00  0.00     0.293 HD
ENDBRANCH  17  22
ENDBRANCH   1  12
BRANCH   2  24
ATOM     24  O   UNL     1      26.306  22.438  49.475  1.00  0.00    -0.502 OA
ATOM     25  H   UNL     1      25.663  23.068  49.012  1.00  0.00     0.293 HD
ENDBRANCH   2  24
BRANCH   6  26
ATOM     26  O   UNL     1      27.767  22.238  54.594  1.00  0.00    -0.507 OA
ATOM     27  H   UNL     1      27.073  21.574  54.287  1.00  0.00     0.293 HD
ENDBRANCH   6  26
BRANCH   8  28
ATOM     28  O   UNL     1      32.124  24.236  54.303  1.00  0.00    -0.508 OA
ATOM     29  H   UNL     1      32.999  24.296  53.796  1.00  0.00     0.293 HD
ENDBRANCH   8  28
TORSDOF 7
ENDMDL
MODEL 2
REMARK VINA RESULT:    -7.265      1.832      3.017
REMARK INTER + INTRA:          -8.560
REMARK INTER:                  -8.395
REMARK INTRA:                  -0.165
REMARK UNBOUND:                 0.404
REMARK SMILES O=c1c(O)c(-c2cc(O)c(O)c(O)c2)oc2cc(O)cc(O)c12
REMARK SMILES IDX 5 1 3 2 2 3 1 4 23 5 21 6 20 7 18 8 17 9 16 10 15 11 6 12
REMARK SMILES IDX 7 13 8 14 14 15 10 16 12 17 9 18 11 20 13 22 4 24 22 26
REMARK SMILES IDX 19 28
REMARK H PARENT 9 19 11 21 13 23 4 25 22 27 19 29
REMARK Flexibility Score: inf
ROOT
ATOM      1  C   UNL     1      29.812  23.347  49.292  1.00  0.00     0.180 A 
ATOM      2  C   UNL     1      30.794  22.345  49.367  1.00  0.00     0.208 A 
ATOM      3  C   UNL     1      31.206  21.891  50.631  1.00  0.00     0.238 A 
ATOM      4  O   UNL     1      32.125  21.032  50.695  1.00  0.00    -0.285 OA
ATOM      5  C   UNL     1      30.620  22.432  51.800  1.00  0.00     0.111 A 
ATOM      6  C   UNL     1      30.933  22.018  53.129  1.00  0.00     0.134 A 
ATOM      7  C   UNL     1      30.387  22.713  54.216  1.00  0.00     0.093 A 
ATOM      8  C   UNL     1      29.490  23.766  54.020  1.00  0.00     0.123 A 
ATOM      9  C   UNL     1      29.132  24.139  52.727  1.00  0.00     0.094 A 
ATOM     10  C   UNL     1      29.688  23.488  51.623  1.00  0.00     0.146 A 
ATOM     11  O   UNL     1      29.328  23.882  50.407  1.00  0.00    -0.452 OA
ENDROOT
BRANCH   1  12
ATOM     12  C   UNL     1      29.308  23.860  47.996  1.00  0.00     0.029 A 
ATOM     13  C   UNL     1      30.159  24.511  47.087  1.00  0.00     0.062 A 
ATOM     14  C   UNL     1      29.674  24.967  45.858  1.00  0.00     0.162 A 
ATOM     15  C   UNL     1      27.969  23.641  47.640  1.00  0.00     0.062 A 
ATOM     16  C   UNL     1      28.325  24.766  45.517  1.00  0.00     0.200 A 
ATOM     17  C   UNL     1      27.472  24.097  46.412  1.00  0.00     0.162 A 
BRANCH  14  18
ATOM     18  O   UNL     1      30.548  25.615  44.985  1.00  0.00    -0.504 OA
ATOM     19  H   UNL     1      30.862  26.565  45.144  1.00  0.00     0.293 HD
ENDBRANCH  14  18
BRANCH  16  20
ATOM     20  O   UNL     1      27.847  25.229  44.290  1.00  0.00    -0.502 OA
ATOM     21  H   UNL     1      27.417  24.614  43.610  1.00  0.00     0.293 HD
ENDBRANCH  16  20
BRANCH  17  22
ATOM     22  O   UNL     1      26.136  23.886  46.077  1.00  0.00    -0.504 OA
ATOM     23  H   UNL     1      25.637  24.518  45.460  1.00  0.00     0.293 HD
ENDBRANCH  17  22
ENDBRANCH   1  12
BRANCH   2  24
ATOM     24  O   UNL     1      31.375  21.840  48.201  1.00  0.00    -0.502 OA
ATOM     25  H   UNL     1      31.193  20.903  47.864  1.00  0.00     0.293 HD
ENDBRANCH   2  24
BRANCH   6  26
ATOM     26  O   UNL     1      31.745  20.922  53.435  1.00  0.00    -0.507 OA
ATOM     27  H   UNL     1      32.732  20.866  53.235  1.00  0.00     0.293 HD
ENDBRANCH   6  26
BRANCH   8  28
ATOM     28  O   UNL     1      28.940  24.442  55.107  1.00  0.00    -0.508 OA
ATOM     29  H   UNL     1      27.966  24.329  55.363  1.00  0.00     0.293 HD
ENDBRANCH   8  28
TORSDOF 7
ENDMDL
MODEL 3
REMARK VINA RESULT:    -7.236      1.825      2.460
REMARK INTER + INTRA:          -8.524
REMARK INTER:                  -8.324
REMARK INTRA:                  -0.200
REMARK UNBOUND:                 0.404
REMARK SMILES O=c1c(O)c(-c2cc(O)c(O)c(O)c2)oc2cc(O)cc(O)c12
REMARK SMILES IDX 5 1 3 2 2 3 1 4 23 5 21 6 20 7 18 8 17 9 16 10 15 11 6 12
REMARK SMILES IDX 7 13 8 14 14 15 10 16 12 17 9 18 11 20 13 22 4 24 22 26
REMARK SMILES IDX 19 28
REMARK H PARENT 9 19 11 21 13 23 4 25 22 27 19 29
REMARK Flexibility Score: inf
ROOT
ATOM      1  C   UNL     1      29.833  23.344  49.338  1.00  0.00     0.180 A 
ATOM      2  C   UNL     1      30.797  22.328  49.447  1.00  0.00     0.208 A 
ATOM      3  C   UNL     1      31.220  21.927  50.725  1.00  0.00     0.238 A 
ATOM      4  O   UNL     1      32.123  21.055  50.817  1.00  0.00    -0.285 OA
ATOM      5  C   UNL     1      30.661  22.534  51.876  1.00  0.00     0.111 A 
ATOM      6  C   UNL     1      30.986  22.177  53.219  1.00  0.00     0.134 A 
ATOM      7  C   UNL     1      30.469  22.933  54.278  1.00  0.00     0.093 A 
ATOM      8  C   UNL     1      29.589  23.992  54.045  1.00  0.00     0.123 A 
ATOM      9  C   UNL     1      29.218  24.310  52.741  1.00  0.00     0.094 A 
ATOM     10  C   UNL     1      29.746  23.597  51.661  1.00  0.00     0.146 A 
ATOM     11  O   UNL     1      29.375  23.940  50.433  1.00  0.00    -0.452 OA
ENDROOT
BRANCH   1  12
ATOM     12  C   UNL     1      29.319  23.805  48.027  1.00  0.00     0.029 A 
ATOM     13  C   UNL     1      27.973  23.628  47.666  1.00  0.00     0.062 A 
ATOM     14  C   UNL     1      27.498  24.089  46.434  1.00  0.00     0.162 A 
ATOM     15  C   UNL     1      30.177  24.485  47.149  1.00  0.00     0.062 A 
ATOM     16  C   UNL     1      28.368  24.748  45.549  1.00  0.00     0.200 A 
ATOM     17  C   UNL     1      29.711  24.949  45.911  1.00  0.00     0.162 A 
BRANCH  14  18
ATOM     18  O   UNL     1      26.157  23.888  46.109  1.00  0.00    -0.504 OA
ATOM     19  H   UNL     1      25.791  22.973  45.873  1.00  0.00     0.293 HD
ENDBRANCH  14  18
BRANCH  16  20
ATOM     20  O   UNL     1      27.888  25.201  44.320  1.00  0.00    -0.502 OA
ATOM     21  H   UNL     1      26.972  25.625  44.220  1.00  0.00     0.293 HD
ENDBRANCH  16  20
BRANCH  17  22
ATOM     22  O   UNL     1      30.578  25.609  45.042  1.00  0.00    -0.504 OA
ATOM     23  H   UNL     1      31.458  25.996  45.361  1.00  0.00     0.293 HD
ENDBRANCH  17  22
ENDBRANCH   1  12
BRANCH   2  24
ATOM     24  O   UNL     1      31.351  21.758  48.299  1.00  0.00    -0.502 OA
ATOM     25  H   UNL     1      31.306  20.764  48.108  1.00  0.00     0.293 HD
ENDBRANCH   2  24
BRANCH   6  26
ATOM     26  O   UNL     1      31.783  21.081  53.564  1.00  0.00    -0.507 OA
ATOM     27  H   UNL     1      31.663  20.148  53.202  1.00  0.00     0.293 HD
ENDBRANCH   6  26
BRANCH   8  28
ATOM     28  O   UNL     1      29.067  24.729  55.106  1.00  0.00    -0.508 OA
ATOM     29  H   UNL     1      29.668  25.149  55.805  1.00  0.00     0.293 HD
ENDBRANCH   8  28
TORSDOF 7
ENDMDL
MODEL 4
REMARK VINA RESULT:    -7.140      1.524      6.883
REMARK INTER + INTRA:          -8.405
REMARK INTER:                  -8.152
REMARK INTRA:                  -0.253
REMARK UNBOUND:                 0.404
REMARK SMILES O=c1c(O)c(-c2cc(O)c(O)c(O)c2)oc2cc(O)cc(O)c12
REMARK SMILES IDX 5 1 3 2 2 3 1 4 23 5 21 6 20 7 18 8 17 9 16 10 15 11 6 12
REMARK SMILES IDX 7 13 8 14 14 15 10 16 12 17 9 18 11 20 13 22 4 24 22 26
REMARK SMILES IDX 19 28
REMARK H PARENT 9 19 11 21 13 23 4 25 22 27 19 29
REMARK Flexibility Score: inf
ROOT
ATOM      1  C   UNL     1      29.153  23.360  50.275  1.00  0.00     0.180 A 
ATOM      2  C   UNL     1      27.759  23.260  50.129  1.00  0.00     0.208 A 
ATOM      3  C   UNL     1      27.178  23.595  48.895  1.00  0.00     0.238 A 
ATOM      4  O   UNL     1      25.924  23.555  48.786  1.00  0.00    -0.285 OA
ATOM      5  C   UNL     1      27.999  24.010  47.819  1.00  0.00     0.111 A 
ATOM      6  C   UNL     1      27.522  24.335  46.514  1.00  0.00     0.134 A 
ATOM      7  C   UNL     1      28.409  24.860  45.566  1.00  0.00     0.093 A 
ATOM      8  C   UNL     1      29.766  25.010  45.855  1.00  0.00     0.123 A 
ATOM      9  C   UNL     1      30.253  24.639  47.106  1.00  0.00     0.094 A 
ATOM     10  C   UNL     1      29.387  24.147  48.085  1.00  0.00     0.146 A 
ATOM     11  O   UNL     1      29.890  23.816  49.269  1.00  0.00    -0.452 OA
ENDROOT
BRANCH   1  12
ATOM     12  C   UNL     1      29.840  23.001  51.537  1.00  0.00     0.029 A 
ATOM     13  C   UNL     1      30.662  21.865  51.624  1.00  0.00     0.062 A 
ATOM     14  C   UNL     1      31.323  21.552  52.815  1.00  0.00     0.162 A 
ATOM     15  C   UNL     1      29.719  23.842  52.654  1.00  0.00     0.062 A 
ATOM     16  C   UNL     1      31.179  22.385  53.938  1.00  0.00     0.200 A 
ATOM     17  C   UNL     1      30.376  23.536  53.853  1.00  0.00     0.162 A 
BRANCH  14  18
ATOM     18  O   UNL     1      32.125  20.412  52.863  1.00  0.00    -0.504 OA
ATOM     19  H   UNL     1      32.282  19.899  53.723  1.00  0.00     0.293 HD
ENDBRANCH  14  18
BRANCH  16  20
ATOM     20  O   UNL     1      31.838  22.064  55.125  1.00  0.00    -0.502 OA
ATOM     21  H   UNL     1      31.671  22.565  55.989  1.00  0.00     0.293 HD
ENDBRANCH  16  20
BRANCH  17  22
ATOM     22  O   UNL     1      30.234  24.371  54.961  1.00  0.00    -0.504 OA
ATOM     23  H   UNL     1      30.146  25.376  54.860  1.00  0.00     0.293 HD
ENDBRANCH  17  22
ENDBRANCH   1  12
BRANCH   2  24
ATOM     24  O   UNL     1      26.965  22.868  51.210  1.00  0.00    -0.502 OA
ATOM     25  H   UNL     1      26.537  21.952  51.267  1.00  0.00     0.293 HD
ENDBRANCH   2  24
BRANCH   6  26
ATOM     26  O   UNL     1      26.203  24.139  46.094  1.00  0.00    -0.507 OA
ATOM     27  H   UNL     1      25.922  23.496  45.369  1.00  0.00     0.293 HD
ENDBRANCH   6  26
BRANCH   8  28
ATOM     28  O   UNL     1      30.645  25.518  44.900  1.00  0.00    -0.508 OA
ATOM     29  H   UNL     1      30.344  26.201  44.214  1.00  0.00     0.293 HD
ENDBRANCH   8  28
TORSDOF 7
ENDMDL
MODEL 5
REMARK VINA RESULT:    -6.725      1.264      7.425
REMARK INTER + INTRA:          -7.894
REMARK INTER:                  -7.869
REMARK INTRA:                  -0.025
REMARK UNBOUND:                 0.404
REMARK SMILES O=c1c(O)c(-c2cc(O)c(O)c(O)c2)oc2cc(O)cc(O)c12
REMARK SMILES IDX 5 1 3 2 2 3 1 4 23 5 21 6 20 7 18 8 17 9 16 10 15 11 6 12
REMARK SMILES IDX 7 13 8 14 14 15 10 16 12 17 9 18 11 20 13 22 4 24 22 26
REMARK SMILES IDX 19 28
REMARK H PARENT 9 19 11 21 13 23 4 25 22 27 19 29
REMARK Flexibility Score: inf
ROOT
ATOM      1  C   UNL     1      29.055  23.674  49.680  1.00  0.00     0.180 A 
ATOM      2  C   UNL     1      30.343  23.718  49.119  1.00  0.00     0.208 A 
ATOM      3  C   UNL     1      30.485  24.089  47.772  1.00  0.00     0.238 A 
ATOM      4  O   UNL     1      31.635  24.074  47.259  1.00  0.00    -0.285 OA
ATOM      5  C   UNL     1      29.342  24.428  47.009  1.00  0.00     0.111 A 
ATOM      6  C   UNL     1      29.374  24.856  45.648  1.00  0.00     0.134 A 
ATOM      7  C   UNL     1      28.172  25.039  44.953  1.00  0.00     0.093 A 
ATOM      8  C   UNL     1      26.940  24.871  45.589  1.00  0.00     0.123 A 
ATOM      9  C   UNL     1      26.898  24.511  46.934  1.00  0.00     0.094 A 
ATOM     10  C   UNL     1      28.080  24.286  47.644  1.00  0.00     0.146 A 
ATOM     11  O   UNL     1      27.996  23.933  48.921  1.00  0.00    -0.452 OA
ENDROOT
BRANCH   1  12
ATOM     12  C   UNL     1      28.826  23.316  51.099  1.00  0.00     0.029 A 
ATOM     13  C   UNL     1      29.574  23.906  52.131  1.00  0.00     0.062 A 
ATOM     14  C   UNL     1      29.330  23.575  53.468  1.00  0.00     0.162 A 
ATOM     15  C   UNL     1      27.802  22.415  51.428  1.00  0.00     0.062 A 
ATOM     16  C   UNL     1      28.319  22.653  53.789  1.00  0.00     0.200 A 
ATOM     17  C   UNL     1      27.551  22.075  52.764  1.00  0.00     0.162 A 
BRANCH  14  18
ATOM     18  O   UNL     1      30.099  24.177  54.464  1.00  0.00    -0.504 OA
ATOM     19  H   UNL     1      30.654  25.006  54.289  1.00  0.00     0.293 HD
ENDBRANCH  14  18
BRANCH  16  20
ATOM     20  O   UNL     1      28.084  22.325  55.125  1.00  0.00    -0.502 OA
ATOM     21  H   UNL     1      28.408  22.906  55.889  1.00  0.00     0.293 HD
ENDBRANCH  16  20
BRANCH  17  22
ATOM     22  O   UNL     1      26.541  21.166  53.076  1.00  0.00    -0.504 OA
ATOM     23  H   UNL     1      25.563  21.432  53.056  1.00  0.00     0.293 HD
ENDBRANCH  17  22
ENDBRANCH   1  12
BRANCH   2  24
ATOM     24  O   UNL     1      31.456  23.360  49.884  1.00  0.00    -0.502 OA
ATOM     25  H   UNL     1      31.811  23.941  50.633  1.00  0.00     0.293 HD
ENDBRANCH   2  24
BRANCH   6  26
ATOM     26  O   UNL     1      30.550  25.141  44.946  1.00  0.00    -0.507 OA
ATOM     27  H   UNL     1      30.583  25.550  44.025  1.00  0.00     0.293 HD
ENDBRANCH   6  26
BRANCH   8  28
ATOM     28  O   UNL     1      25.748  25.070  44.895  1.00  0.00    -0.508 OA
ATOM     29  H   UNL     1      25.130  25.842  45.113  1.00  0.00     0.293 HD
ENDBRANCH   8  28
TORSDOF 7
ENDMDL
MODEL 6
REMARK VINA RESULT:    -6.529     11.527     12.987
REMARK INTER + INTRA:          -7.651
REMARK INTER:                  -7.361
REMARK INTRA:                  -0.290
REMARK UNBOUND:                 0.404
REMARK SMILES O=c1c(O)c(-c2cc(O)c(O)c(O)c2)oc2cc(O)cc(O)c12
REMARK SMILES IDX 5 1 3 2 2 3 1 4 23 5 21 6 20 7 18 8 17 9 16 10 15 11 6 12
REMARK SMILES IDX 7 13 8 14 14 15 10 16 12 17 9 18 11 20 13 22 4 24 22 26
REMARK SMILES IDX 19 28
REMARK H PARENT 9 19 11 21 13 23 4 25 22 27 19 29
REMARK Flexibility Score: inf
ROOT
ATOM      1  C   UNL     1      16.493  26.753  51.600  1.00  0.00     0.180 A 
ATOM      2  C   UNL     1      17.250  27.604  52.423  1.00  0.00     0.208 A 
ATOM      3  C   UNL     1      18.232  27.045  53.258  1.00  0.00     0.238 A 
ATOM      4  O   UNL     1      18.870  27.805  54.033  1.00  0.00    -0.285 OA
ATOM      5  C   UNL     1      18.455  25.647  53.246  1.00  0.00     0.111 A 
ATOM      6  C   UNL     1      19.450  24.979  54.021  1.00  0.00     0.134 A 
ATOM      7  C   UNL     1      19.494  23.579  54.029  1.00  0.00     0.093 A 
ATOM      8  C   UNL     1      18.621  22.827  53.240  1.00  0.00     0.123 A 
ATOM      9  C   UNL     1      17.685  23.471  52.434  1.00  0.00     0.094 A 
ATOM     10  C   UNL     1      17.593  24.865  52.433  1.00  0.00     0.146 A 
ATOM     11  O   UNL     1      16.680  25.440  51.659  1.00  0.00    -0.452 OA
ENDROOT
BRANCH   1  12
ATOM     12  C   UNL     1      15.457  27.270  50.675  1.00  0.00     0.029 A 
ATOM     13  C   UNL     1      14.218  27.731  51.149  1.00  0.00     0.062 A 
ATOM     14  C   UNL     1      13.260  28.238  50.266  1.00  0.00     0.162 A 
ATOM     15  C   UNL     1      15.738  27.358  49.303  1.00  0.00     0.062 A 
ATOM     16  C   UNL     1      13.538  28.301  48.889  1.00  0.00     0.200 A 
ATOM     17  C   UNL     1      14.784  27.862  48.409  1.00  0.00     0.162 A 
BRANCH  14  18
ATOM     18  O   UNL     1      12.039  28.680  50.775  1.00  0.00    -0.504 OA
ATOM     19  H   UNL     1      11.402  29.247  50.229  1.00  0.00     0.293 HD
ENDBRANCH  14  18
BRANCH  16  20
ATOM     20  O   UNL     1      12.575  28.804  48.014  1.00  0.00    -0.502 OA
ATOM     21  H   UNL     1      11.768  28.262  47.729  1.00  0.00     0.293 HD
ENDBRANCH  16  20
BRANCH  17  22
ATOM     22  O   UNL     1      15.070  27.929  47.046  1.00  0.00    -0.504 OA
ATOM     23  H   UNL     1      15.939  27.571  46.668  1.00  0.00     0.293 HD
ENDBRANCH  17  22
ENDBRANCH   1  12
BRANCH   2  24
ATOM     24  O   UNL     1      17.000  28.978  52.435  1.00  0.00    -0.502 OA
ATOM     25  H   UNL     1      16.582  29.462  51.649  1.00  0.00     0.293 HD
ENDBRANCH   2  24
BRANCH   6  26
ATOM     26  O   UNL     1      20.428  25.638  54.772  1.00  0.00    -0.507 OA
ATOM     27  H   UNL     1      20.891  25.248  55.578  1.00  0.00     0.293 HD
ENDBRANCH   6  26
BRANCH   8  28
ATOM     28  O   UNL     1      18.682  21.434  53.242  1.00  0.00    -0.508 OA
ATOM     29  H   UNL     1      17.989  20.873  52.761  1.00  0.00     0.293 HD
ENDBRANCH   8  28
TORSDOF 7
ENDMDL
MODEL 7
REMARK VINA RESULT:    -6.476     11.520     13.032
REMARK INTER + INTRA:          -7.586
REMARK INTER:                  -7.292
REMARK INTRA:                  -0.295
REMARK UNBOUND:                 0.404
REMARK SMILES O=c1c(O)c(-c2cc(O)c(O)c(O)c2)oc2cc(O)cc(O)c12
REMARK SMILES IDX 5 1 3 2 2 3 1 4 23 5 21 6 20 7 18 8 17 9 16 10 15 11 6 12
REMARK SMILES IDX 7 13 8 14 14 15 10 16 12 17 9 18 11 20 13 22 4 24 22 26
REMARK SMILES IDX 19 28
REMARK H PARENT 9 19 11 21 13 23 4 25 22 27 19 29
REMARK Flexibility Score: inf
ROOT
ATOM      1  C   UNL     1      16.566  26.820  51.696  1.00  0.00     0.180 A 
ATOM      2  C   UNL     1      17.343  27.655  52.516  1.00  0.00     0.208 A 
ATOM      3  C   UNL     1      18.295  27.076  53.369  1.00  0.00     0.238 A 
ATOM      4  O   UNL     1      18.950  27.824  54.142  1.00  0.00    -0.285 OA
ATOM      5  C   UNL     1      18.472  25.671  53.379  1.00  0.00     0.111 A 
ATOM      6  C   UNL     1      19.435  24.981  54.173  1.00  0.00     0.134 A 
ATOM      7  C   UNL     1      19.432  23.580  54.200  1.00  0.00     0.093 A 
ATOM      8  C   UNL     1      18.544  22.847  53.411  1.00  0.00     0.123 A 
ATOM      9  C   UNL     1      17.639  23.512  52.587  1.00  0.00     0.094 A 
ATOM     10  C   UNL     1      17.593  24.907  52.566  1.00  0.00     0.146 A 
ATOM     11  O   UNL     1      16.709  25.501  51.774  1.00  0.00    -0.452 OA
ENDROOT
BRANCH   1  12
ATOM     12  C   UNL     1      15.559  27.358  50.752  1.00  0.00     0.029 A 
ATOM     13  C   UNL     1      15.795  27.383  49.367  1.00  0.00     0.062 A 
ATOM     14  C   UNL     1      14.824  27.872  48.488  1.00  0.00     0.162 A 
ATOM     15  C   UNL     1      14.319  27.798  51.241  1.00  0.00     0.062 A 
ATOM     16  C   UNL     1      13.593  28.334  48.986  1.00  0.00     0.200 A 
ATOM     17  C   UNL     1      13.341  28.292  50.368  1.00  0.00     0.162 A 
BRANCH  14  18
ATOM     18  O   UNL     1      15.099  27.888  47.120  1.00  0.00    -0.504 OA
ATOM     19  H   UNL     1      14.607  28.499  46.479  1.00  0.00     0.293 HD
ENDBRANCH  14  18
BRANCH  16  20
ATOM     20  O   UNL     1      12.632  28.825  48.102  1.00  0.00    -0.502 OA
ATOM     21  H   UNL     1      11.639  28.747  48.286  1.00  0.00     0.293 HD
ENDBRANCH  16  20
BRANCH  17  22
ATOM     22  O   UNL     1      12.120  28.740  50.869  1.00  0.00    -0.504 OA
ATOM     23  H   UNL     1      12.002  28.978  51.847  1.00  0.00     0.293 HD
ENDBRANCH  17  22
ENDBRANCH   1  12
BRANCH   2  24
ATOM     24  O   UNL     1      17.137  29.037  52.507  1.00  0.00    -0.502 OA
ATOM     25  H   UNL     1      17.780  29.686  52.946  1.00  0.00     0.293 HD
ENDBRANCH   2  24
BRANCH   6  26
ATOM     26  O   UNL     1      20.426  25.617  54.927  1.00  0.00    -0.507 OA
ATOM     27  H   UNL     1      20.938  25.186  55.682  1.00  0.00     0.293 HD
ENDBRANCH   6  26
BRANCH   8  28
ATOM     28  O   UNL     1      18.558  21.454  53.432  1.00  0.00    -0.508 OA
ATOM     29  H   UNL     1      18.624  20.912  52.578  1.00  0.00     0.293 HD
ENDBRANCH   8  28
TORSDOF 7
ENDMDL
MODEL 8
REMARK VINA RESULT:    -6.203     13.671     16.364
REMARK INTER + INTRA:          -7.249
REMARK INTER:                  -7.335
REMARK INTRA:                   0.086
REMARK UNBOUND:                 0.404
REMARK SMILES O=c1c(O)c(-c2cc(O)c(O)c(O)c2)oc2cc(O)cc(O)c12
REMARK SMILES IDX 5 1 3 2 2 3 1 4 23 5 21 6 20 7 18 8 17 9 16 10 15 11 6 12
REMARK SMILES IDX 7 13 8 14 14 15 10 16 12 17 9 18 11 20 13 22 4 24 22 26
REMARK SMILES IDX 19 28
REMARK H PARENT 9 19 11 21 13 23 4 25 22 27 19 29
REMARK Flexibility Score: inf
ROOT
ATOM      1  C   UNL     1      15.905  21.831  43.083  1.00  0.00     0.180 A 
ATOM      2  C   UNL     1      17.229  22.176  42.764  1.00  0.00     0.208 A 
ATOM      3  C   UNL     1      17.461  23.245  41.885  1.00  0.00     0.238 A 
ATOM      4  O   UNL     1      18.647  23.515  41.560  1.00  0.00    -0.285 OA
ATOM      5  C   UNL     1      16.367  23.967  41.349  1.00  0.00     0.111 A 
ATOM      6  C   UNL     1      16.487  25.093  40.481  1.00  0.00     0.134 A 
ATOM      7  C   UNL     1      15.336  25.648  39.907  1.00  0.00     0.093 A 
ATOM      8  C   UNL     1      14.067  25.159  40.222  1.00  0.00     0.123 A 
ATOM      9  C   UNL     1      13.936  24.098  41.115  1.00  0.00     0.094 A 
ATOM     10  C   UNL     1      15.067  23.500  41.675  1.00  0.00     0.146 A 
ATOM     11  O   UNL     1      14.898  22.484  42.514  1.00  0.00    -0.452 OA
ENDROOT
BRANCH   1  12
ATOM     12  C   UNL     1      15.581  20.732  44.022  1.00  0.00     0.029 A 
ATOM     13  C   UNL     1      14.582  20.875  44.999  1.00  0.00     0.062 A 
ATOM     14  C   UNL     1      14.272  19.820  45.862  1.00  0.00     0.162 A 
ATOM     15  C   UNL     1      16.242  19.500  43.897  1.00  0.00     0.062 A 
ATOM     16  C   UNL     1      14.954  18.596  45.748  1.00  0.00     0.200 A 
ATOM     17  C   UNL     1      15.940  18.437  44.759  1.00  0.00     0.162 A 
BRANCH  14  18
ATOM     18  O   UNL     1      13.278  20.004  46.824  1.00  0.00    -0.504 OA
ATOM     19  H   UNL     1      12.545  19.323  46.978  1.00  0.00     0.293 HD
ENDBRANCH  14  18
BRANCH  16  20
ATOM     20  O   UNL     1      14.642  17.549  46.616  1.00  0.00    -0.502 OA
ATOM     21  H   UNL     1      15.061  17.465  47.535  1.00  0.00     0.293 HD
ENDBRANCH  16  20
BRANCH  17  22
ATOM     22  O   UNL     1      16.615  17.223  44.635  1.00  0.00    -0.504 OA
ATOM     23  H   UNL     1      17.587  17.183  44.352  1.00  0.00     0.293 HD
ENDBRANCH  17  22
ENDBRANCH   1  12
BRANCH   2  24
ATOM     24  O   UNL     1      18.293  21.437  43.288  1.00  0.00    -0.502 OA
ATOM     25  H   UNL     1      18.504  20.495  42.981  1.00  0.00     0.293 HD
ENDBRANCH   2  24
BRANCH   6  26
ATOM     26  O   UNL     1      17.700  25.716  40.173  1.00  0.00    -0.507 OA
ATOM     27  H   UNL     1      18.595  25.252  40.154  1.00  0.00     0.293 HD
ENDBRANCH   6  26
BRANCH   8  28
ATOM     28  O   UNL     1      12.926  25.727  39.659  1.00  0.00    -0.508 OA
ATOM     29  H   UNL     1      11.997  25.412  39.913  1.00  0.00     0.293 HD
ENDBRANCH   8  28
TORSDOF 7
ENDMDL
MODEL 9
REMARK VINA RESULT:    -6.021     11.015     13.562
REMARK INTER + INTRA:          -7.024
REMARK INTER:                  -6.666
REMARK INTRA:                  -0.358
REMARK UNBOUND:                 0.404
REMARK SMILES O=c1c(O)c(-c2cc(O)c(O)c(O)c2)oc2cc(O)cc(O)c12
REMARK SMILES IDX 5 1 3 2 2 3 1 4 23 5 21 6 20 7 18 8 17 9 16 10 15 11 6 12
REMARK SMILES IDX 7 13 8 14 14 15 10 16 12 17 9 18 11 20 13 22 4 24 22 26
REMARK SMILES IDX 19 28
REMARK H PARENT 9 19 11 21 13 23 4 25 22 27 19 29
REMARK Flexibility Score: inf
ROOT
ATOM      1  C   UNL     1      17.121  24.966  52.393  1.00  0.00     0.180 A 
ATOM      2  C   UNL     1      17.673  25.926  53.257  1.00  0.00     0.208 A 
ATOM      3  C   UNL     1      17.455  27.287  52.990  1.00  0.00     0.238 A 
ATOM      4  O   UNL     1      17.997  28.144  53.736  1.00  0.00    -0.285 OA
ATOM      5  C   UNL     1      16.675  27.670  51.872  1.00  0.00     0.111 A 
ATOM      6  C   UNL     1      16.356  29.018  51.530  1.00  0.00     0.134 A 
ATOM      7  C   UNL     1      15.687  29.286  50.329  1.00  0.00     0.093 A 
ATOM      8  C   UNL     1      15.268  28.250  49.492  1.00  0.00     0.123 A 
ATOM      9  C   UNL     1      15.521  26.927  49.847  1.00  0.00     0.094 A 
ATOM     10  C   UNL     1      16.219  26.630  51.020  1.00  0.00     0.146 A 
ATOM     11  O   UNL     1      16.449  25.356  51.316  1.00  0.00    -0.452 OA
ENDROOT
BRANCH   1  12
ATOM     12  C   UNL     1      17.286  23.511  52.623  1.00  0.00     0.029 A 
ATOM     13  C   UNL     1      16.447  22.811  53.504  1.00  0.00     0.062 A 
ATOM     14  C   UNL     1      16.600  21.434  53.692  1.00  0.00     0.162 A 
ATOM     15  C   UNL     1      18.262  22.804  51.902  1.00  0.00     0.062 A 
ATOM     16  C   UNL     1      17.595  20.735  52.986  1.00  0.00     0.200 A 
ATOM     17  C   UNL     1      18.425  21.425  52.086  1.00  0.00     0.162 A 
BRANCH  14  18
ATOM     18  O   UNL     1      15.751  20.775  54.582  1.00  0.00    -0.504 OA
ATOM     19  H   UNL     1      14.758  20.969  54.623  1.00  0.00     0.293 HD
ENDBRANCH  14  18
BRANCH  16  20
ATOM     20  O   UNL     1      17.745  19.362  53.183  1.00  0.00    -0.502 OA
ATOM     21  H   UNL     1      17.768  18.705  52.412  1.00  0.00     0.293 HD
ENDBRANCH  16  20
BRANCH  17  22
ATOM     22  O   UNL     1      19.408  20.737  51.376  1.00  0.00    -0.504 OA
ATOM     23  H   UNL     1      20.361  21.078  51.322  1.00  0.00     0.293 HD
ENDBRANCH  17  22
ENDBRANCH   1  12
BRANCH   2  24
ATOM     24  O   UNL     1      18.458  25.527  54.342  1.00  0.00    -0.502 OA
ATOM     25  H   UNL     1      18.113  25.533  55.295  1.00  0.00     0.293 HD
ENDBRANCH   2  24
BRANCH   6  26
ATOM     26  O   UNL     1      16.649  30.120  52.340  1.00  0.00    -0.507 OA
ATOM     27  H   UNL     1      15.976  30.605  52.913  1.00  0.00     0.293 HD
ENDBRANCH   6  26
BRANCH   8  28
ATOM     28  O   UNL     1      14.589  28.525  48.306  1.00  0.00    -0.508 OA
ATOM     29  H   UNL     1      15.058  28.498  47.409  1.00  0.00     0.293 HD
ENDBRANCH   8  28
TORSDOF 7
ENDMDL
