MODEL 1
REMARK VINA RESULT:    -3.843      0.000      0.000
REMARK INTER + INTRA:          -3.843
REMARK INTER:                  -3.843
REMARK INTRA:                   0.000
REMARK UNBOUND:                 0.000
REMARK SMILES CC(C)=C1CC[C@@H](C)CC1=O
REMARK SMILES IDX 8 1 7 2 6 3 5 4 4 5 2 6 1 7 3 8 10 9 11 10 9 11
REMARK H PARENT
REMARK Flexibility Score: inf
ROOT
ATOM      1  C   UNL     1       6.578 -33.457  12.894  1.00  0.00     0.008 C 
ATOM      2  C   UNL     1       7.577 -33.305  14.046  1.00  0.00    -0.006 C 
ATOM      3  C   UNL     1       6.856 -32.885  15.336  1.00  0.00     0.008 C 
ATOM      4  C   UNL     1       7.826 -32.827  16.525  1.00  0.00     0.039 C 
ATOM      5  C   UNL     1       9.052 -31.973  16.235  1.00  0.00    -0.006 C 
ATOM      6  C   UNL     1       9.678 -31.271  17.225  1.00  0.00    -0.070 C 
ATOM      7  C   UNL     1       9.188 -31.327  18.655  1.00  0.00     0.039 C 
ATOM      8  C   UNL     1      10.862 -30.375  16.941  1.00  0.00     0.039 C 
ATOM      9  C   UNL     1       9.589 -32.046  14.843  1.00  0.00     0.159 C 
ATOM     10  O   UNL     1      10.822 -31.925  14.610  1.00  0.00    -0.295 OA
ATOM     11  C   UNL     1       8.657 -32.273  13.689  1.00  0.00     0.084 C 
ENDROOT
TORSDOF 0
ENDMDL
MODEL 2
REMARK VINA RESULT:    -3.116      1.834      3.926
REMARK INTER + INTRA:          -3.116
REMARK INTER:                  -3.116
REMARK INTRA:                   0.000
REMARK UNBOUND:                 0.000
REMARK SMILES CC(C)=C1CC[C@@H](C)CC1=O
REMARK SMILES IDX 8 1 7 2 6 3 5 4 4 5 2 6 1 7 3 8 10 9 11 10 9 11
REMARK H PARENT
REMARK Flexibility Score: inf
ROOT
ATOM      1  C   UNL     1       8.127 -31.868  18.284  1.00  0.00     0.008 C 
ATOM      2  C   UNL     1       8.346 -32.247  16.815  1.00  0.00    -0.006 C 
ATOM      3  C   UNL     1       8.168 -33.760  16.615  1.00  0.00     0.008 C 
ATOM      4  C   UNL     1       8.283 -34.144  15.133  1.00  0.00     0.039 C 
ATOM      5  C   UNL     1       9.558 -33.614  14.490  1.00  0.00    -0.006 C 
ATOM      6  C   UNL     1      10.181 -34.294  13.484  1.00  0.00    -0.070 C 
ATOM      7  C   UNL     1       9.621 -35.596  12.954  1.00  0.00     0.039 C 
ATOM      8  C   UNL     1      11.477 -33.808  12.877  1.00  0.00     0.039 C 
ATOM      9  C   UNL     1      10.008 -32.264  14.943  1.00  0.00     0.159 C 
ATOM     10  O   UNL     1      10.608 -31.477  14.162  1.00  0.00    -0.295 OA
ATOM     11  C   UNL     1       9.745 -31.816  16.352  1.00  0.00     0.084 C 
ENDROOT
TORSDOF 0
ENDMDL
MODEL 3
REMARK VINA RESULT:    -3.027      1.912      3.141
REMARK INTER + INTRA:          -3.027
REMARK INTER:                  -3.027
REMARK INTRA:                   0.000
REMARK UNBOUND:                 0.000
REMARK SMILES CC(C)=C1CC[C@@H](C)CC1=O
REMARK SMILES IDX 8 1 7 2 6 3 5 4 4 5 2 6 1 7 3 8 10 9 11 10 9 11
REMARK H PARENT
REMARK Flexibility Score: inf
ROOT
ATOM      1  C   UNL     1       5.903 -36.173  13.295  1.00  0.00     0.008 C 
ATOM      2  C   UNL     1       6.641 -34.840  13.462  1.00  0.00    -0.006 C 
ATOM      3  C   UNL     1       8.082 -34.951  12.940  1.00  0.00     0.008 C 
ATOM      4  C   UNL     1       8.805 -33.599  13.005  1.00  0.00     0.039 C 
ATOM      5  C   UNL     1       8.731 -32.963  14.386  1.00  0.00    -0.006 C 
ATOM      6  C   UNL     1       9.741 -32.177  14.862  1.00  0.00    -0.070 C 
ATOM      7  C   UNL     1      10.970 -31.891  14.027  1.00  0.00     0.039 C 
ATOM      8  C   UNL     1       9.704 -31.587  16.252  1.00  0.00     0.039 C 
ATOM      9  C   UNL     1       7.449 -33.154  15.128  1.00  0.00     0.159 C 
ATOM     10  O   UNL     1       7.012 -32.275  15.918  1.00  0.00    -0.295 OA
ATOM     11  C   UNL     1       6.649 -34.410  14.937  1.00  0.00     0.084 C 
ENDROOT
TORSDOF 0
ENDMDL
MODEL 4
REMARK VINA RESULT:    -2.967      1.808      4.363
REMARK INTER + INTRA:          -2.967
REMARK INTER:                  -2.967
REMARK INTRA:                   0.000
REMARK UNBOUND:                 0.000
REMARK SMILES CC(C)=C1CC[C@@H](C)CC1=O
REMARK SMILES IDX 8 1 7 2 6 3 5 4 4 5 2 6 1 7 3 8 10 9 11 10 9 11
REMARK H PARENT
REMARK Flexibility Score: inf
ROOT
ATOM      1  C   UNL     1      12.174 -31.124  14.316  1.00  0.00     0.008 C 
ATOM      2  C   UNL     1      10.957 -32.056  14.331  1.00  0.00    -0.006 C 
ATOM      3  C   UNL     1      10.146 -31.905  13.035  1.00  0.00     0.008 C 
ATOM      4  C   UNL     1       8.981 -32.904  12.986  1.00  0.00     0.039 C 
ATOM      5  C   UNL     1       8.109 -32.844  14.233  1.00  0.00    -0.006 C 
ATOM      6  C   UNL     1       6.771 -33.106  14.177  1.00  0.00    -0.070 C 
ATOM      7  C   UNL     1       6.100 -33.485  12.875  1.00  0.00     0.039 C 
ATOM      8  C   UNL     1       5.885 -32.995  15.396  1.00  0.00     0.039 C 
ATOM      9  C   UNL     1       8.824 -32.600  15.522  1.00  0.00     0.159 C 
ATOM     10  O   UNL     1       8.408 -33.093  16.605  1.00  0.00    -0.295 OA
ATOM     11  C   UNL     1      10.067 -31.758  15.546  1.00  0.00     0.084 C 
ENDROOT
TORSDOF 0
ENDMDL
MODEL 5
REMARK VINA RESULT:    -2.952      1.502      4.458
REMARK INTER + INTRA:          -2.952
REMARK INTER:                  -2.952
REMARK INTRA:                   0.000
REMARK UNBOUND:                 0.000
REMARK SMILES CC(C)=C1CC[C@@H](C)CC1=O
REMARK SMILES IDX 8 1 7 2 6 3 5 4 4 5 2 6 1 7 3 8 10 9 11 10 9 11
REMARK H PARENT
REMARK Flexibility Score: inf
ROOT
ATOM      1  C   UNL     1       9.256 -31.125  19.485  1.00  0.00     0.008 C 
ATOM      2  C   UNL     1       9.463 -31.790  18.119  1.00  0.00    -0.006 C 
ATOM      3  C   UNL     1      10.072 -30.793  17.120  1.00  0.00     0.008 C 
ATOM      4  C   UNL     1      10.382 -31.469  15.777  1.00  0.00     0.039 C 
ATOM      5  C   UNL     1       9.180 -32.210  15.206  1.00  0.00    -0.006 C 
ATOM      6  C   UNL     1       8.988 -32.319  13.859  1.00  0.00    -0.070 C 
ATOM      7  C   UNL     1       9.971 -31.722  12.876  1.00  0.00     0.039 C 
ATOM      8  C   UNL     1       7.771 -33.003  13.281  1.00  0.00     0.039 C 
ATOM      9  C   UNL     1       8.304 -32.901  16.199  1.00  0.00     0.159 C 
ATOM     10  O   UNL     1       7.699 -33.968  15.907  1.00  0.00    -0.295 OA
ATOM     11  C   UNL     1       8.132 -32.331  17.577  1.00  0.00     0.084 C 
ENDROOT
TORSDOF 0
ENDMDL
MODEL 6
REMARK VINA RESULT:    -2.812      2.124      2.643
REMARK INTER + INTRA:          -2.812
REMARK INTER:                  -2.812
REMARK INTRA:                   0.000
REMARK UNBOUND:                 0.000
REMARK SMILES CC(C)=C1CC[C@@H](C)CC1=O
REMARK SMILES IDX 8 1 7 2 6 3 5 4 4 5 2 6 1 7 3 8 10 9 11 10 9 11
REMARK H PARENT
REMARK Flexibility Score: inf
ROOT
ATOM      1  C   UNL     1       6.483 -36.811  13.260  1.00  0.00     0.008 C 
ATOM      2  C   UNL     1       7.561 -35.991  13.976  1.00  0.00    -0.006 C 
ATOM      3  C   UNL     1       6.919 -34.910  14.861  1.00  0.00     0.008 C 
ATOM      4  C   UNL     1       7.980 -34.145  15.664  1.00  0.00     0.039 C 
ATOM      5  C   UNL     1       9.094 -33.595  14.784  1.00  0.00    -0.006 C 
ATOM      6  C   UNL     1       9.737 -32.432  15.097  1.00  0.00    -0.070 C 
ATOM      7  C   UNL     1       9.381 -31.650  16.342  1.00  0.00     0.039 C 
ATOM      8  C   UNL     1      10.805 -31.846  14.203  1.00  0.00     0.039 C 
ATOM      9  C   UNL     1       9.511 -34.458  13.639  1.00  0.00     0.159 C 
ATOM     10  O   UNL     1      10.703 -34.469  13.228  1.00  0.00    -0.295 OA
ATOM     11  C   UNL     1       8.507 -35.340  12.956  1.00  0.00     0.084 C 
ENDROOT
TORSDOF 0
ENDMDL
MODEL 7
REMARK VINA RESULT:    -2.727      1.576      4.152
REMARK INTER + INTRA:          -2.727
REMARK INTER:                  -2.727
REMARK INTRA:                   0.000
REMARK UNBOUND:                 0.000
REMARK SMILES CC(C)=C1CC[C@@H](C)CC1=O
REMARK SMILES IDX 8 1 7 2 6 3 5 4 4 5 2 6 1 7 3 8 10 9 11 10 9 11
REMARK H PARENT
REMARK Flexibility Score: inf
ROOT
ATOM      1  C   UNL     1      10.014 -30.739  17.443  1.00  0.00     0.008 C 
ATOM      2  C   UNL     1       9.167 -31.529  16.439  1.00  0.00    -0.006 C 
ATOM      3  C   UNL     1       8.518 -32.745  17.119  1.00  0.00     0.008 C 
ATOM      4  C   UNL     1       7.584 -33.490  16.155  1.00  0.00     0.039 C 
ATOM      5  C   UNL     1       8.267 -33.848  14.842  1.00  0.00    -0.006 C 
ATOM      6  C   UNL     1       7.928 -34.976  14.150  1.00  0.00    -0.070 C 
ATOM      7  C   UNL     1       6.846 -35.907  14.651  1.00  0.00     0.039 C 
ATOM      8  C   UNL     1       8.636 -35.372  12.875  1.00  0.00     0.039 C 
ATOM      9  C   UNL     1       9.233 -32.842  14.309  1.00  0.00     0.159 C 
ATOM     10  O   UNL     1       9.396 -32.684  13.069  1.00  0.00    -0.295 OA
ATOM     11  C   UNL     1      10.028 -31.988  15.253  1.00  0.00     0.084 C 
ENDROOT
TORSDOF 0
ENDMDL
MODEL 8
REMARK VINA RESULT:    -2.720      2.283      4.712
REMARK INTER + INTRA:          -2.720
REMARK INTER:                  -2.720
REMARK INTRA:                   0.000
REMARK UNBOUND:                 0.000
REMARK SMILES CC(C)=C1CC[C@@H](C)CC1=O
REMARK SMILES IDX 8 1 7 2 6 3 5 4 4 5 2 6 1 7 3 8 10 9 11 10 9 11
REMARK H PARENT
REMARK Flexibility Score: inf
ROOT
ATOM      1  C   UNL     1      11.513 -31.126  14.059  1.00  0.00     0.008 C 
ATOM      2  C   UNL     1      10.749 -32.438  14.264  1.00  0.00    -0.006 C 
ATOM      3  C   UNL     1      10.275 -33.004  12.916  1.00  0.00     0.008 C 
ATOM      4  C   UNL     1       9.597 -34.370  13.092  1.00  0.00     0.039 C 
ATOM      5  C   UNL     1       8.489 -34.340  14.136  1.00  0.00    -0.006 C 
ATOM      6  C   UNL     1       7.390 -35.144  14.028  1.00  0.00    -0.070 C 
ATOM      7  C   UNL     1       7.236 -36.110  12.875  1.00  0.00     0.039 C 
ATOM      8  C   UNL     1       6.258 -35.084  15.027  1.00  0.00     0.039 C 
ATOM      9  C   UNL     1       8.735 -33.475  15.329  1.00  0.00     0.159 C 
ATOM     10  O   UNL     1       8.276 -33.779  16.463  1.00  0.00    -0.295 OA
ATOM     11  C   UNL     1       9.546 -32.220  15.194  1.00  0.00     0.084 C 
ENDROOT
TORSDOF 0
ENDMDL
MODEL 9
REMARK VINA RESULT:    -2.686      2.800      4.497
REMARK INTER + INTRA:          -2.686
REMARK INTER:                  -2.686
REMARK INTRA:                   0.000
REMARK UNBOUND:                 0.000
REMARK SMILES CC(C)=C1CC[C@@H](C)CC1=O
REMARK SMILES IDX 8 1 7 2 6 3 5 4 4 5 2 6 1 7 3 8 10 9 11 10 9 11
REMARK H PARENT
REMARK Flexibility Score: inf
ROOT
ATOM      1  C   UNL     1      12.618 -33.021  13.251  1.00  0.00     0.008 C 
ATOM      2  C   UNL     1      11.104 -33.232  13.142  1.00  0.00    -0.006 C 
ATOM      3  C   UNL     1      10.358 -32.303  14.113  1.00  0.00     0.008 C 
ATOM      4  C   UNL     1       8.837 -32.427  13.946  1.00  0.00     0.039 C 
ATOM      5  C   UNL     1       8.356 -33.869  14.030  1.00  0.00    -0.006 C 
ATOM      6  C   UNL     1       7.127 -34.179  14.537  1.00  0.00    -0.070 C 
ATOM      7  C   UNL     1       6.183 -33.100  15.019  1.00  0.00     0.039 C 
ATOM      8  C   UNL     1       6.661 -35.610  14.678  1.00  0.00     0.039 C 
ATOM      9  C   UNL     1       9.255 -34.896  13.424  1.00  0.00     0.159 C 
ATOM     10  O   UNL     1       8.790 -35.940  12.891  1.00  0.00    -0.295 OA
ATOM     11  C   UNL     1      10.742 -34.696  13.434  1.00  0.00     0.084 C 
ENDROOT
TORSDOF 0
ENDMDL
