MODEL 1
REMARK VINA RESULT:    -3.975      0.000      0.000
REMARK INTER + INTRA:          -4.091
REMARK INTER:                  -4.091
REMARK INTRA:                   0.000
REMARK UNBOUND:                 0.000
REMARK SMILES Cc1cccc(O)c1C
REMARK SMILES IDX 1 1 2 2 8 3 6 4 5 5 4 6 3 7 9 8 7 9
REMARK H PARENT 7 10
REMARK Flexibility Score: inf
ROOT
ATOM      1  C   UNL     1     -33.495 -21.505 -39.115  1.00  0.00     0.045 C 
ATOM      2  C   UNL     1     -32.859 -22.472 -38.149  1.00  0.00    -0.045 A 
ATOM      3  C   UNL     1     -33.153 -22.448 -36.756  1.00  0.00    -0.006 A 
ATOM      4  C   UNL     1     -32.518 -23.388 -35.904  1.00  0.00     0.118 A 
ATOM      5  C   UNL     1     -31.618 -24.318 -36.433  1.00  0.00     0.046 A 
ATOM      6  C   UNL     1     -31.336 -24.334 -37.795  1.00  0.00     0.004 A 
ATOM      7  C   UNL     1     -31.950 -23.419 -38.648  1.00  0.00     0.004 A 
ATOM      8  C   UNL     1     -34.123 -21.452 -36.162  1.00  0.00     0.048 C 
ENDROOT
BRANCH   4   9
ATOM      9  O   UNL     1     -32.757 -23.425 -34.528  1.00  0.00    -0.508 OA
ATOM     10  H   UNL     1     -33.674 -23.307 -34.118  1.00  0.00     0.293 HD
ENDBRANCH   4   9
TORSDOF 1
ENDMDL
MODEL 2
REMARK VINA RESULT:    -3.719      5.506      6.774
REMARK INTER + INTRA:          -3.828
REMARK INTER:                  -3.828
REMARK INTRA:                   0.000
REMARK UNBOUND:                 0.000
REMARK SMILES Cc1cccc(O)c1C
REMARK SMILES IDX 1 1 2 2 8 3 6 4 5 5 4 6 3 7 9 8 7 9
REMARK H PARENT 7 10
REMARK Flexibility Score: inf
ROOT
ATOM      1  C   UNL     1     -30.366 -21.551 -29.676  1.00  0.00     0.045 C 
ATOM      2  C   UNL     1     -30.217 -21.458 -31.173  1.00  0.00    -0.045 A 
ATOM      3  C   UNL     1     -29.202 -20.668 -31.782  1.00  0.00    -0.006 A 
ATOM      4  C   UNL     1     -29.120 -20.627 -33.198  1.00  0.00     0.118 A 
ATOM      5  C   UNL     1     -30.029 -21.353 -33.973  1.00  0.00     0.046 A 
ATOM      6  C   UNL     1     -31.019 -22.121 -33.370  1.00  0.00     0.004 A 
ATOM      7  C   UNL     1     -31.115 -22.174 -31.982  1.00  0.00     0.004 A 
ATOM      8  C   UNL     1     -28.208 -19.876 -30.963  1.00  0.00     0.048 C 
ENDROOT
BRANCH   4   9
ATOM      9  O   UNL     1     -28.150 -19.875 -33.866  1.00  0.00    -0.508 OA
ATOM     10  H   UNL     1     -27.429 -20.283 -34.446  1.00  0.00     0.293 HD
ENDBRANCH   4   9
TORSDOF 1
ENDMDL
MODEL 3
REMARK VINA RESULT:    -3.710      1.481      2.675
REMARK INTER + INTRA:          -3.818
REMARK INTER:                  -3.818
REMARK INTRA:                   0.000
REMARK UNBOUND:                 0.000
REMARK SMILES Cc1cccc(O)c1C
REMARK SMILES IDX 1 1 2 2 8 3 6 4 5 5 4 6 3 7 9 8 7 9
REMARK H PARENT 7 10
REMARK Flexibility Score: inf
ROOT
ATOM      1  C   UNL     1     -34.119 -21.260 -35.672  1.00  0.00     0.045 C 
ATOM      2  C   UNL     1     -33.305 -21.926 -36.750  1.00  0.00    -0.045 A 
ATOM      3  C   UNL     1     -32.264 -22.849 -36.448  1.00  0.00    -0.006 A 
ATOM      4  C   UNL     1     -31.537 -23.439 -37.514  1.00  0.00     0.118 A 
ATOM      5  C   UNL     1     -31.845 -23.111 -38.838  1.00  0.00     0.046 A 
ATOM      6  C   UNL     1     -32.863 -22.208 -39.125  1.00  0.00     0.004 A 
ATOM      7  C   UNL     1     -33.588 -21.619 -38.092  1.00  0.00     0.004 A 
ATOM      8  C   UNL     1     -31.915 -23.219 -35.024  1.00  0.00     0.048 C 
ENDROOT
BRANCH   4   9
ATOM      9  O   UNL     1     -30.504 -24.353 -37.294  1.00  0.00    -0.508 OA
ATOM     10  H   UNL     1     -29.731 -24.181 -36.664  1.00  0.00     0.293 HD
ENDBRANCH   4   9
TORSDOF 1
ENDMDL
MODEL 4
REMARK VINA RESULT:    -3.690      1.690      3.197
REMARK INTER + INTRA:          -3.798
REMARK INTER:                  -3.798
REMARK INTRA:                   0.000
REMARK UNBOUND:                 0.000
REMARK SMILES Cc1cccc(O)c1C
REMARK SMILES IDX 1 1 2 2 8 3 6 4 5 5 4 6 3 7 9 8 7 9
REMARK H PARENT 7 10
REMARK Flexibility Score: inf
ROOT
ATOM      1  C   UNL     1     -31.146 -24.677 -37.654  1.00  0.00     0.045 C 
ATOM      2  C   UNL     1     -31.904 -23.598 -36.924  1.00  0.00    -0.045 A 
ATOM      3  C   UNL     1     -32.603 -22.568 -37.615  1.00  0.00    -0.006 A 
ATOM      4  C   UNL     1     -33.296 -21.585 -36.863  1.00  0.00     0.118 A 
ATOM      5  C   UNL     1     -33.285 -21.634 -35.466  1.00  0.00     0.046 A 
ATOM      6  C   UNL     1     -32.600 -22.644 -34.799  1.00  0.00     0.004 A 
ATOM      7  C   UNL     1     -31.914 -23.618 -35.519  1.00  0.00     0.004 A 
ATOM      8  C   UNL     1     -32.628 -22.496 -39.125  1.00  0.00     0.048 C 
ENDROOT
BRANCH   4   9
ATOM      9  O   UNL     1     -34.003 -20.545 -37.472  1.00  0.00    -0.508 OA
ATOM     10  H   UNL     1     -34.977 -20.346 -37.283  1.00  0.00     0.293 HD
ENDBRANCH   4   9
TORSDOF 1
ENDMDL
MODEL 5
REMARK VINA RESULT:    -3.638      1.752      2.788
REMARK INTER + INTRA:          -3.745
REMARK INTER:                  -3.745
REMARK INTRA:                   0.000
REMARK UNBOUND:                 0.000
REMARK SMILES Cc1cccc(O)c1C
REMARK SMILES IDX 1 1 2 2 8 3 6 4 5 5 4 6 3 7 9 8 7 9
REMARK H PARENT 7 10
REMARK Flexibility Score: inf
ROOT
ATOM      1  C   UNL     1     -34.118 -20.542 -35.628  1.00  0.00     0.045 C 
ATOM      2  C   UNL     1     -33.306 -21.731 -36.074  1.00  0.00    -0.045 A 
ATOM      3  C   UNL     1     -33.235 -22.127 -37.439  1.00  0.00    -0.006 A 
ATOM      4  C   UNL     1     -32.450 -23.257 -37.787  1.00  0.00     0.118 A 
ATOM      5  C   UNL     1     -31.763 -23.964 -36.797  1.00  0.00     0.046 A 
ATOM      6  C   UNL     1     -31.838 -23.571 -35.465  1.00  0.00     0.004 A 
ATOM      7  C   UNL     1     -32.602 -22.464 -35.104  1.00  0.00     0.004 A 
ATOM      8  C   UNL     1     -33.970 -21.376 -38.527  1.00  0.00     0.048 C 
ENDROOT
BRANCH   4   9
ATOM      9  O   UNL     1     -32.334 -23.703 -39.106  1.00  0.00    -0.508 OA
ATOM     10  H   UNL     1     -32.291 -23.083 -39.904  1.00  0.00     0.293 HD
ENDBRANCH   4   9
TORSDOF 1
ENDMDL
MODEL 6
REMARK VINA RESULT:    -3.603      1.860      3.843
REMARK INTER + INTRA:          -3.708
REMARK INTER:                  -3.708
REMARK INTRA:                   0.000
REMARK UNBOUND:                 0.000
REMARK SMILES Cc1cccc(O)c1C
REMARK SMILES IDX 1 1 2 2 8 3 6 4 5 5 4 6 3 7 9 8 7 9
REMARK H PARENT 7 10
REMARK Flexibility Score: inf
ROOT
ATOM      1  C   UNL     1     -31.874 -22.874 -34.211  1.00  0.00     0.045 C 
ATOM      2  C   UNL     1     -32.551 -22.375 -35.462  1.00  0.00    -0.045 A 
ATOM      3  C   UNL     1     -32.377 -23.015 -36.721  1.00  0.00    -0.006 A 
ATOM      4  C   UNL     1     -33.045 -22.491 -37.857  1.00  0.00     0.118 A 
ATOM      5  C   UNL     1     -33.858 -21.361 -37.732  1.00  0.00     0.046 A 
ATOM      6  C   UNL     1     -34.023 -20.740 -36.498  1.00  0.00     0.004 A 
ATOM      7  C   UNL     1     -33.375 -21.240 -35.371  1.00  0.00     0.004 A 
ATOM      8  C   UNL     1     -31.502 -24.239 -36.879  1.00  0.00     0.048 C 
ENDROOT
BRANCH   4   9
ATOM      9  O   UNL     1     -32.922 -23.067 -39.124  1.00  0.00    -0.508 OA
ATOM     10  H   UNL     1     -33.579 -22.906 -39.877  1.00  0.00     0.293 HD
ENDBRANCH   4   9
TORSDOF 1
ENDMDL
MODEL 7
REMARK VINA RESULT:    -3.462      1.224      2.758
REMARK INTER + INTRA:          -3.563
REMARK INTER:                  -3.563
REMARK INTRA:                   0.000
REMARK UNBOUND:                 0.000
REMARK SMILES Cc1cccc(O)c1C
REMARK SMILES IDX 1 1 2 2 8 3 6 4 5 5 4 6 3 7 9 8 7 9
REMARK H PARENT 7 10
REMARK Flexibility Score: inf
ROOT
ATOM      1  C   UNL     1     -31.105 -24.518 -37.624  1.00  0.00     0.045 C 
ATOM      2  C   UNL     1     -32.087 -23.375 -37.631  1.00  0.00    -0.045 A 
ATOM      3  C   UNL     1     -32.631 -22.840 -36.429  1.00  0.00    -0.006 A 
ATOM      4  C   UNL     1     -33.551 -21.763 -36.510  1.00  0.00     0.118 A 
ATOM      5  C   UNL     1     -33.913 -21.243 -37.756  1.00  0.00     0.046 A 
ATOM      6  C   UNL     1     -33.378 -21.772 -38.926  1.00  0.00     0.004 A 
ATOM      7  C   UNL     1     -32.473 -22.829 -38.867  1.00  0.00     0.004 A 
ATOM      8  C   UNL     1     -32.253 -23.386 -35.070  1.00  0.00     0.048 C 
ENDROOT
BRANCH   4   9
ATOM      9  O   UNL     1     -34.125 -21.188 -35.373  1.00  0.00    -0.508 OA
ATOM     10  H   UNL     1     -33.612 -21.005 -34.521  1.00  0.00     0.293 HD
ENDBRANCH   4   9
TORSDOF 1
ENDMDL
