MODEL 1
REMARK VINA RESULT:    -4.998      0.000      0.000
REMARK INTER + INTRA:          -5.677
REMARK INTER:                  -5.436
REMARK INTRA:                  -0.241
REMARK UNBOUND:                -0.241
REMARK SMILES O=C([O-])c1ccccc1O
REMARK SMILES IDX 4 1 9 2 5 3 8 4 6 5 7 6 2 7 1 8 3 9 10 10
REMARK H PARENT 10 11
REMARK Flexibility Score: inf
ROOT
ATOM      1  C   UNL     1      -1.311   1.216  13.677  1.00  0.00     0.039 A 
ATOM      2  C   UNL     1      -2.277   1.632  14.628  1.00  0.00     0.124 A 
ATOM      3  C   UNL     1      -0.249   2.085  13.362  1.00  0.00     0.014 A 
ATOM      4  C   UNL     1      -2.124   2.863  15.278  1.00  0.00     0.047 A 
ATOM      5  C   UNL     1      -0.122   3.319  14.005  1.00  0.00     0.001 A 
ATOM      6  C   UNL     1      -1.054   3.703  14.968  1.00  0.00     0.004 A 
ENDROOT
BRANCH   1   7
ATOM      7  C   UNL     1      -1.355  -0.114  13.030  1.00  0.00     0.075 C 
ATOM      8  O   UNL     1      -1.151  -0.222  11.791  1.00  0.00    -0.545 OA
ATOM      9  O   UNL     1      -1.552  -1.265  13.782  1.00  0.00    -0.545 OA
ENDBRANCH   1   7
BRANCH   2  10
ATOM     10  O   UNL     1      -3.412   0.875  14.926  1.00  0.00    -0.507 OA
ATOM     11  H   UNL     1      -3.678   0.620  15.868  1.00  0.00     0.293 HD
ENDBRANCH   2  10
TORSDOF 2
ENDMDL
MODEL 2
REMARK VINA RESULT:    -4.824      2.306      3.864
REMARK INTER + INTRA:          -5.488
REMARK INTER:                  -5.238
REMARK INTRA:                  -0.250
REMARK UNBOUND:                -0.241
REMARK SMILES O=C([O-])c1ccccc1O
REMARK SMILES IDX 4 1 9 2 5 3 8 4 6 5 7 6 2 7 1 8 3 9 10 10
REMARK H PARENT 10 11
REMARK Flexibility Score: inf
ROOT
ATOM      1  C   UNL     1      -0.832   2.143  12.826  1.00  0.00     0.039 A 
ATOM      2  C   UNL     1      -0.993   0.950  12.076  1.00  0.00     0.124 A 
ATOM      3  C   UNL     1      -1.190   2.144  14.188  1.00  0.00     0.014 A 
ATOM      4  C   UNL     1      -1.441  -0.213  12.714  1.00  0.00     0.047 A 
ATOM      5  C   UNL     1      -1.656   0.980  14.803  1.00  0.00     0.001 A 
ATOM      6  C   UNL     1      -1.773  -0.199  14.069  1.00  0.00     0.004 A 
ENDROOT
BRANCH   1   7
ATOM      7  C   UNL     1      -0.265   3.378  12.241  1.00  0.00     0.075 C 
ATOM      8  O   UNL     1       0.534   4.086  12.911  1.00  0.00    -0.545 OA
ATOM      9  O   UNL     1      -0.548   3.739  10.930  1.00  0.00    -0.545 OA
ENDBRANCH   1   7
BRANCH   2  10
ATOM     10  O   UNL     1      -0.754   0.888  10.702  1.00  0.00    -0.507 OA
ATOM     11  H   UNL     1      -0.711   0.021  10.184  1.00  0.00     0.293 HD
ENDBRANCH   2  10
TORSDOF 2
ENDMDL
MODEL 3
REMARK VINA RESULT:    -4.822      1.244      2.370
REMARK INTER + INTRA:          -5.486
REMARK INTER:                  -5.258
REMARK INTRA:                  -0.228
REMARK UNBOUND:                -0.241
REMARK SMILES O=C([O-])c1ccccc1O
REMARK SMILES IDX 4 1 9 2 5 3 8 4 6 5 7 6 2 7 1 8 3 9 10 10
REMARK H PARENT 10 11
REMARK Flexibility Score: inf
ROOT
ATOM      1  C   UNL     1      -0.844   1.659  13.394  1.00  0.00     0.039 A 
ATOM      2  C   UNL     1      -0.142   2.707  12.747  1.00  0.00     0.124 A 
ATOM      3  C   UNL     1      -1.360   1.881  14.686  1.00  0.00     0.014 A 
ATOM      4  C   UNL     1      -0.030   3.955  13.373  1.00  0.00     0.047 A 
ATOM      5  C   UNL     1      -1.221   3.126  15.304  1.00  0.00     0.001 A 
ATOM      6  C   UNL     1      -0.565   4.164  14.644  1.00  0.00     0.004 A 
ENDROOT
BRANCH   1   7
ATOM      7  C   UNL     1      -1.089   0.351  12.748  1.00  0.00     0.075 C 
ATOM      8  O   UNL     1      -1.057   0.250  11.492  1.00  0.00    -0.545 OA
ATOM      9  O   UNL     1      -1.289  -0.793  13.510  1.00  0.00    -0.545 OA
ENDBRANCH   1   7
BRANCH   2  10
ATOM     10  O   UNL     1       0.484   2.542  11.510  1.00  0.00    -0.507 OA
ATOM     11  H   UNL     1       0.588   3.288  10.835  1.00  0.00     0.293 HD
ENDBRANCH   2  10
TORSDOF 2
ENDMDL
MODEL 4
REMARK VINA RESULT:    -4.714      2.313      3.996
REMARK INTER + INTRA:          -5.368
REMARK INTER:                  -5.151
REMARK INTRA:                  -0.217
REMARK UNBOUND:                -0.241
REMARK SMILES O=C([O-])c1ccccc1O
REMARK SMILES IDX 4 1 9 2 5 3 8 4 6 5 7 6 2 7 1 8 3 9 10 10
REMARK H PARENT 10 11
REMARK Flexibility Score: inf
ROOT
ATOM      1  C   UNL     1      -0.858   2.127  13.585  1.00  0.00     0.039 A 
ATOM      2  C   UNL     1      -0.743   1.500  12.318  1.00  0.00     0.124 A 
ATOM      3  C   UNL     1      -1.461   1.418  14.642  1.00  0.00     0.014 A 
ATOM      4  C   UNL     1      -1.170   0.175  12.159  1.00  0.00     0.047 A 
ATOM      5  C   UNL     1      -1.901   0.105  14.461  1.00  0.00     0.001 A 
ATOM      6  C   UNL     1      -1.748  -0.518  13.223  1.00  0.00     0.004 A 
ENDROOT
BRANCH   1   7
ATOM      7  C   UNL     1      -0.333   3.484  13.850  1.00  0.00     0.075 C 
ATOM      8  O   UNL     1       0.488   4.011  13.052  1.00  0.00    -0.545 OA
ATOM      9  O   UNL     1      -0.784   4.222  14.936  1.00  0.00    -0.545 OA
ENDBRANCH   1   7
BRANCH   2  10
ATOM     10  O   UNL     1      -0.247   2.163  11.194  1.00  0.00    -0.507 OA
ATOM     11  H   UNL     1      -0.213   1.746  10.273  1.00  0.00     0.293 HD
ENDBRANCH   2  10
TORSDOF 2
ENDMDL
MODEL 5
REMARK VINA RESULT:    -4.681      1.759      3.473
REMARK INTER + INTRA:          -5.332
REMARK INTER:                  -5.094
REMARK INTRA:                  -0.238
REMARK UNBOUND:                -0.241
REMARK SMILES O=C([O-])c1ccccc1O
REMARK SMILES IDX 4 1 9 2 5 3 8 4 6 5 7 6 2 7 1 8 3 9 10 10
REMARK H PARENT 10 11
REMARK Flexibility Score: inf
ROOT
ATOM      1  C   UNL     1      -1.567   2.061  13.690  1.00  0.00     0.039 A 
ATOM      2  C   UNL     1      -1.560   0.657  13.490  1.00  0.00     0.124 A 
ATOM      3  C   UNL     1      -1.219   2.903  12.616  1.00  0.00     0.014 A 
ATOM      4  C   UNL     1      -1.272   0.139  12.221  1.00  0.00     0.047 A 
ATOM      5  C   UNL     1      -0.913   2.369  11.362  1.00  0.00     0.001 A 
ATOM      6  C   UNL     1      -0.949   0.989  11.163  1.00  0.00     0.004 A 
ENDROOT
BRANCH   1   7
ATOM      7  C   UNL     1      -1.963   2.678  14.975  1.00  0.00     0.075 C 
ATOM      8  O   UNL     1      -3.054   2.361  15.519  1.00  0.00    -0.545 OA
ATOM      9  O   UNL     1      -1.114   3.560  15.632  1.00  0.00    -0.545 OA
ENDBRANCH   1   7
BRANCH   2  10
ATOM     10  O   UNL     1      -1.798  -0.250  14.524  1.00  0.00    -0.507 OA
ATOM     11  H   UNL     1      -1.155  -0.401  15.290  1.00  0.00     0.293 HD
ENDBRANCH   2  10
TORSDOF 2
ENDMDL
MODEL 6
REMARK VINA RESULT:    -4.635      1.033      2.483
REMARK INTER + INTRA:          -5.282
REMARK INTER:                  -5.065
REMARK INTRA:                  -0.217
REMARK UNBOUND:                -0.241
REMARK SMILES O=C([O-])c1ccccc1O
REMARK SMILES IDX 4 1 9 2 5 3 8 4 6 5 7 6 2 7 1 8 3 9 10 10
REMARK H PARENT 10 11
REMARK Flexibility Score: inf
ROOT
ATOM      1  C   UNL     1      -1.182   1.244  13.704  1.00  0.00     0.039 A 
ATOM      2  C   UNL     1      -0.736   1.498  12.382  1.00  0.00     0.124 A 
ATOM      3  C   UNL     1      -0.863   2.168  14.719  1.00  0.00     0.014 A 
ATOM      4  C   UNL     1      -0.048   2.684  12.099  1.00  0.00     0.047 A 
ATOM      5  C   UNL     1      -0.157   3.336  14.423  1.00  0.00     0.001 A 
ATOM      6  C   UNL     1       0.242   3.598  13.113  1.00  0.00     0.004 A 
ENDROOT
BRANCH   1   7
ATOM      7  C   UNL     1      -2.002   0.063  14.053  1.00  0.00     0.075 C 
ATOM      8  O   UNL     1      -3.178   0.215  14.482  1.00  0.00    -0.545 OA
ATOM      9  O   UNL     1      -1.521  -1.223  13.850  1.00  0.00    -0.545 OA
ENDBRANCH   1   7
BRANCH   2  10
ATOM     10  O   UNL     1      -0.924   0.590  11.339  1.00  0.00    -0.507 OA
ATOM     11  H   UNL     1      -0.654  -0.383  11.393  1.00  0.00     0.293 HD
ENDBRANCH   2  10
TORSDOF 2
ENDMDL
MODEL 7
REMARK VINA RESULT:    -4.533      2.374      3.400
REMARK INTER + INTRA:          -5.172
REMARK INTER:                  -4.920
REMARK INTRA:                  -0.252
REMARK UNBOUND:                -0.241
REMARK SMILES O=C([O-])c1ccccc1O
REMARK SMILES IDX 4 1 9 2 5 3 8 4 6 5 7 6 2 7 1 8 3 9 10 10
REMARK H PARENT 10 11
REMARK Flexibility Score: inf
ROOT
ATOM      1  C   UNL     1      -1.030   1.906  12.666  1.00  0.00     0.039 A 
ATOM      2  C   UNL     1      -1.542   2.010  13.984  1.00  0.00     0.124 A 
ATOM      3  C   UNL     1      -1.010   0.643  12.042  1.00  0.00     0.014 A 
ATOM      4  C   UNL     1      -2.073   0.876  14.613  1.00  0.00     0.047 A 
ATOM      5  C   UNL     1      -1.523  -0.482  12.691  1.00  0.00     0.001 A 
ATOM      6  C   UNL     1      -2.062  -0.363  13.971  1.00  0.00     0.004 A 
ENDROOT
BRANCH   1   7
ATOM      7  C   UNL     1      -0.551   3.080  11.905  1.00  0.00     0.075 C 
ATOM      8  O   UNL     1      -0.859   3.216  10.690  1.00  0.00    -0.545 OA
ATOM      9  O   UNL     1       0.183   4.081  12.528  1.00  0.00    -0.545 OA
ENDBRANCH   1   7
BRANCH   2  10
ATOM     10  O   UNL     1      -1.511   3.201  14.710  1.00  0.00    -0.507 OA
ATOM     11  H   UNL     1      -1.881   4.075  14.361  1.00  0.00     0.293 HD
ENDBRANCH   2  10
TORSDOF 2
ENDMDL
MODEL 8
REMARK VINA RESULT:    -4.484      9.664     10.282
REMARK INTER + INTRA:          -5.118
REMARK INTER:                  -4.880
REMARK INTRA:                  -0.238
REMARK UNBOUND:                -0.241
REMARK SMILES O=C([O-])c1ccccc1O
REMARK SMILES IDX 4 1 9 2 5 3 8 4 6 5 7 6 2 7 1 8 3 9 10 10
REMARK H PARENT 10 11
REMARK Flexibility Score: inf
ROOT
ATOM      1  C   UNL     1     -10.037   0.042   8.939  1.00  0.00     0.039 A 
ATOM      2  C   UNL     1     -10.494   1.306   8.487  1.00  0.00     0.124 A 
ATOM      3  C   UNL     1      -9.761  -0.131  10.309  1.00  0.00     0.014 A 
ATOM      4  C   UNL     1     -10.722   2.332   9.413  1.00  0.00     0.047 A 
ATOM      5  C   UNL     1      -9.974   0.909  11.216  1.00  0.00     0.001 A 
ATOM      6  C   UNL     1     -10.462   2.136  10.769  1.00  0.00     0.004 A 
ENDROOT
BRANCH   1   7
ATOM      7  C   UNL     1      -9.875  -1.115   8.031  1.00  0.00     0.075 C 
ATOM      8  O   UNL     1      -8.837  -1.827   8.093  1.00  0.00    -0.545 OA
ATOM      9  O   UNL     1     -10.886  -1.474   7.149  1.00  0.00    -0.545 OA
ENDBRANCH   1   7
BRANCH   2  10
ATOM     10  O   UNL     1     -10.698   1.592   7.136  1.00  0.00    -0.507 OA
ATOM     11  H   UNL     1     -11.426   2.209   6.802  1.00  0.00     0.293 HD
ENDBRANCH   2  10
TORSDOF 2
ENDMDL
MODEL 9
REMARK VINA RESULT:    -4.347      1.399      2.179
REMARK INTER + INTRA:          -4.969
REMARK INTER:                  -4.760
REMARK INTRA:                  -0.209
REMARK UNBOUND:                -0.241
REMARK SMILES O=C([O-])c1ccccc1O
REMARK SMILES IDX 4 1 9 2 5 3 8 4 6 5 7 6 2 7 1 8 3 9 10 10
REMARK H PARENT 10 11
REMARK Flexibility Score: inf
ROOT
ATOM      1  C   UNL     1      -1.375   1.261  13.505  1.00  0.00     0.039 A 
ATOM      2  C   UNL     1      -1.022   2.391  14.286  1.00  0.00     0.124 A 
ATOM      3  C   UNL     1      -0.999   1.227  12.148  1.00  0.00     0.014 A 
ATOM      4  C   UNL     1      -0.256   3.415  13.715  1.00  0.00     0.047 A 
ATOM      5  C   UNL     1      -0.253   2.267  11.589  1.00  0.00     0.001 A 
ATOM      6  C   UNL     1       0.125   3.356  12.374  1.00  0.00     0.004 A 
ENDROOT
BRANCH   1   7
ATOM      7  C   UNL     1      -2.092   0.097  14.071  1.00  0.00     0.075 C 
ATOM      8  O   UNL     1      -3.270   0.227  14.500  1.00  0.00    -0.545 OA
ATOM      9  O   UNL     1      -1.508  -1.163  14.078  1.00  0.00    -0.545 OA
ENDBRANCH   1   7
BRANCH   2  10
ATOM     10  O   UNL     1      -1.438   2.549  15.609  1.00  0.00    -0.507 OA
ATOM     11  H   UNL     1      -0.866   2.980  16.323  1.00  0.00     0.293 HD
ENDBRANCH   2  10
TORSDOF 2
ENDMDL
