MODEL 1
REMARK VINA RESULT:    -3.702      0.000      0.000
REMARK INTER + INTRA:          -4.927
REMARK INTER:                  -4.785
REMARK INTRA:                  -0.142
REMARK UNBOUND:                -0.142
REMARK SMILES CCCCCCC(=O)[O-]
REMARK SMILES IDX 5 1 6 2 7 3 8 4 9 5 4 6 3 7 2 8 1 9
REMARK H PARENT
REMARK Flexibility Score: inf
ROOT
ATOM      1  C   UNL     1      -7.173   0.804  -8.709  1.00  0.00     0.006 C 
ENDROOT
BRANCH   1   2
ATOM      2  C   UNL     1      -6.399   2.082  -9.059  1.00  0.00     0.053 C 
BRANCH   2   3
ATOM      3  C   UNL     1      -7.164   2.955 -10.007  1.00  0.00     0.041 C 
ATOM      4  O   UNL     1      -6.838   3.007 -11.222  1.00  0.00    -0.550 OA
ATOM      5  O   UNL     1      -8.216   3.734  -9.543  1.00  0.00    -0.550 OA
ENDBRANCH   2   3
ENDBRANCH   1   2
BRANCH   1   6
ATOM      6  C   UNL     1      -6.558  -0.445  -9.364  1.00  0.00     0.000 C 
BRANCH   6   7
ATOM      7  C   UNL     1      -6.922  -0.571 -10.852  1.00  0.00    -0.000 C 
BRANCH   7   8
ATOM      8  C   UNL     1      -7.300  -2.006 -11.249  1.00  0.00    -0.003 C 
ATOM      9  C   UNL     1      -8.144  -2.018 -12.520  1.00  0.00     0.004 C 
ENDBRANCH   7   8
ENDBRANCH   6   7
ENDBRANCH   1   6
TORSDOF 5
ENDMDL
MODEL 2
REMARK VINA RESULT:    -3.688      7.378      8.606
REMARK INTER + INTRA:          -4.908
REMARK INTER:                  -4.633
REMARK INTRA:                  -0.275
REMARK UNBOUND:                -0.142
REMARK SMILES CCCCCCC(=O)[O-]
REMARK SMILES IDX 5 1 6 2 7 3 8 4 9 5 4 6 3 7 2 8 1 9
REMARK H PARENT
REMARK Flexibility Score: inf
ROOT
ATOM      1  C   UNL     1     -10.011  -3.773 -16.371  1.00  0.00     0.006 C 
ENDROOT
BRANCH   1   2
ATOM      2  C   UNL     1      -9.041  -3.750 -15.182  1.00  0.00     0.053 C 
BRANCH   2   3
ATOM      3  C   UNL     1      -7.740  -4.419 -15.509  1.00  0.00     0.041 C 
ATOM      4  O   UNL     1      -7.731  -5.516 -16.128  1.00  0.00    -0.550 OA
ATOM      5  O   UNL     1      -6.541  -3.847 -15.104  1.00  0.00    -0.550 OA
ENDBRANCH   2   3
ENDBRANCH   1   2
BRANCH   1   6
ATOM      6  C   UNL     1     -11.202  -4.716 -16.130  1.00  0.00     0.000 C 
BRANCH   6   7
ATOM      7  C   UNL     1     -11.484  -4.941 -14.635  1.00  0.00    -0.000 C 
BRANCH   7   8
ATOM      8  C   UNL     1     -12.905  -4.517 -14.232  1.00  0.00    -0.003 C 
ATOM      9  C   UNL     1     -13.573  -3.714 -15.344  1.00  0.00     0.004 C 
ENDBRANCH   7   8
ENDBRANCH   6   7
ENDBRANCH   1   6
TORSDOF 5
ENDMDL
MODEL 3
REMARK VINA RESULT:    -3.669      7.310      8.572
REMARK INTER + INTRA:          -4.883
REMARK INTER:                  -4.598
REMARK INTRA:                  -0.285
REMARK UNBOUND:                -0.142
REMARK SMILES CCCCCCC(=O)[O-]
REMARK SMILES IDX 5 1 6 2 7 3 8 4 9 5 4 6 3 7 2 8 1 9
REMARK H PARENT
REMARK Flexibility Score: inf
ROOT
ATOM      1  C   UNL     1     -10.403  -3.774 -16.338  1.00  0.00     0.006 C 
ENDROOT
BRANCH   1   2
ATOM      2  C   UNL     1     -11.485  -4.843 -16.132  1.00  0.00     0.053 C 
BRANCH   2   3
ATOM      3  C   UNL     1     -12.580  -4.361 -15.229  1.00  0.00     0.041 C 
ATOM      4  O   UNL     1     -13.494  -3.622 -15.681  1.00  0.00    -0.550 OA
ATOM      5  O   UNL     1     -12.574  -4.703 -13.882  1.00  0.00    -0.550 OA
ENDBRANCH   2   3
ENDBRANCH   1   2
BRANCH   1   6
ATOM      6  C   UNL     1      -9.010  -4.269 -15.910  1.00  0.00     0.000 C 
BRANCH   6   7
ATOM      7  C   UNL     1      -8.540  -3.637 -14.590  1.00  0.00    -0.000 C 
BRANCH   7   8
ATOM      8  C   UNL     1      -8.087  -4.684 -13.561  1.00  0.00    -0.003 C 
ATOM      9  C   UNL     1      -8.813  -6.010 -13.774  1.00  0.00     0.004 C 
ENDBRANCH   7   8
ENDBRANCH   6   7
ENDBRANCH   1   6
TORSDOF 5
ENDMDL
MODEL 4
REMARK VINA RESULT:    -3.598      5.894      8.220
REMARK INTER + INTRA:          -4.793
REMARK INTER:                  -4.665
REMARK INTRA:                  -0.128
REMARK UNBOUND:                -0.142
REMARK SMILES CCCCCCC(=O)[O-]
REMARK SMILES IDX 5 1 6 2 7 3 8 4 9 5 4 6 3 7 2 8 1 9
REMARK H PARENT
REMARK Flexibility Score: inf
ROOT
ATOM      1  C   UNL     1     -10.286  -3.861 -15.929  1.00  0.00     0.006 C 
ENDROOT
BRANCH   1   2
ATOM      2  C   UNL     1     -11.516  -4.777 -15.998  1.00  0.00     0.053 C 
BRANCH   2   3
ATOM      3  C   UNL     1     -12.671  -4.217 -15.224  1.00  0.00     0.041 C 
ATOM      4  O   UNL     1     -13.531  -3.500 -15.800  1.00  0.00    -0.550 OA
ATOM      5  O   UNL     1     -12.783  -4.465 -13.861  1.00  0.00    -0.550 OA
ENDBRANCH   2   3
ENDBRANCH   1   2
BRANCH   1   6
ATOM      6  C   UNL     1      -9.341  -4.243 -14.777  1.00  0.00     0.000 C 
BRANCH   6   7
ATOM      7  C   UNL     1      -8.182  -3.247 -14.608  1.00  0.00    -0.000 C 
BRANCH   7   8
ATOM      8  C   UNL     1      -7.721  -3.118 -13.149  1.00  0.00    -0.003 C 
ATOM      9  C   UNL     1      -8.278  -1.850 -12.508  1.00  0.00     0.004 C 
ENDBRANCH   7   8
ENDBRANCH   6   7
ENDBRANCH   1   6
TORSDOF 5
ENDMDL
MODEL 5
REMARK VINA RESULT:    -3.594      7.812      9.447
REMARK INTER + INTRA:          -4.787
REMARK INTER:                  -4.611
REMARK INTRA:                  -0.176
REMARK UNBOUND:                -0.142
REMARK SMILES CCCCCCC(=O)[O-]
REMARK SMILES IDX 5 1 6 2 7 3 8 4 9 5 4 6 3 7 2 8 1 9
REMARK H PARENT
REMARK Flexibility Score: inf
ROOT
ATOM      1  C   UNL     1      -3.437  -1.395 -17.599  1.00  0.00     0.006 C 
ENDROOT
BRANCH   1   2
ATOM      2  C   UNL     1      -2.928  -1.923 -18.947  1.00  0.00     0.053 C 
BRANCH   2   3
ATOM      3  C   UNL     1      -1.465  -1.657 -19.134  1.00  0.00     0.041 C 
ATOM      4  O   UNL     1      -0.860  -0.872 -18.357  1.00  0.00    -0.550 OA
ATOM      5  O   UNL     1      -0.777  -2.253 -20.183  1.00  0.00    -0.550 OA
ENDBRANCH   2   3
ENDBRANCH   1   2
BRANCH   1   6
ATOM      6  C   UNL     1      -3.641  -2.524 -16.573  1.00  0.00     0.000 C 
BRANCH   6   7
ATOM      7  C   UNL     1      -4.514  -2.091 -15.384  1.00  0.00    -0.000 C 
BRANCH   7   8
ATOM      8  C   UNL     1      -5.446  -3.210 -14.897  1.00  0.00    -0.003 C 
ATOM      9  C   UNL     1      -5.203  -4.502 -15.672  1.00  0.00     0.004 C 
ENDBRANCH   7   8
ENDBRANCH   6   7
ENDBRANCH   1   6
TORSDOF 5
ENDMDL
MODEL 6
REMARK VINA RESULT:    -3.590      1.366      1.950
REMARK INTER + INTRA:          -4.782
REMARK INTER:                  -4.662
REMARK INTRA:                  -0.120
REMARK UNBOUND:                -0.142
REMARK SMILES CCCCCCC(=O)[O-]
REMARK SMILES IDX 5 1 6 2 7 3 8 4 9 5 4 6 3 7 2 8 1 9
REMARK H PARENT
REMARK Flexibility Score: inf
ROOT
ATOM      1  C   UNL     1      -6.608  -0.504  -9.385  1.00  0.00     0.006 C 
ENDROOT
BRANCH   1   2
ATOM      2  C   UNL     1      -7.343   0.628  -8.655  1.00  0.00     0.053 C 
BRANCH   2   3
ATOM      3  C   UNL     1      -6.575   1.915  -8.705  1.00  0.00     0.041 C 
ATOM      4  O   UNL     1      -5.635   2.123  -7.894  1.00  0.00    -0.550 OA
ATOM      5  O   UNL     1      -6.918   2.895  -9.628  1.00  0.00    -0.550 OA
ENDBRANCH   2   3
ENDBRANCH   1   2
BRANCH   1   6
ATOM      6  C   UNL     1      -6.966  -0.559 -10.880  1.00  0.00     0.000 C 
BRANCH   6   7
ATOM      7  C   UNL     1      -7.390  -1.965 -11.336  1.00  0.00    -0.000 C 
BRANCH   7   8
ATOM      8  C   UNL     1      -8.323  -1.935 -12.556  1.00  0.00    -0.003 C 
ATOM      9  C   UNL     1      -7.728  -2.723 -13.719  1.00  0.00     0.004 C 
ENDBRANCH   7   8
ENDBRANCH   6   7
ENDBRANCH   1   6
TORSDOF 5
ENDMDL
MODEL 7
REMARK VINA RESULT:    -3.525      7.551      8.740
REMARK INTER + INTRA:          -4.697
REMARK INTER:                  -4.269
REMARK INTRA:                  -0.428
REMARK UNBOUND:                -0.142
REMARK SMILES CCCCCCC(=O)[O-]
REMARK SMILES IDX 5 1 6 2 7 3 8 4 9 5 4 6 3 7 2 8 1 9
REMARK H PARENT
REMARK Flexibility Score: inf
ROOT
ATOM      1  C   UNL     1     -11.250  -4.911 -16.129  1.00  0.00     0.006 C 
ENDROOT
BRANCH   1   2
ATOM      2  C   UNL     1     -10.257  -3.754 -16.308  1.00  0.00     0.053 C 
BRANCH   2   3
ATOM      3  C   UNL     1      -8.953  -4.028 -15.621  1.00  0.00     0.041 C 
ATOM      4  O   UNL     1      -8.633  -3.382 -14.589  1.00  0.00    -0.550 OA
ATOM      5  O   UNL     1      -8.079  -4.976 -16.139  1.00  0.00    -0.550 OA
ENDBRANCH   2   3
ENDBRANCH   1   2
BRANCH   1   6
ATOM      6  C   UNL     1     -11.878  -4.924 -14.724  1.00  0.00     0.000 C 
BRANCH   6   7
ATOM      7  C   UNL     1     -11.430  -6.135 -13.889  1.00  0.00    -0.000 C 
BRANCH   7   8
ATOM      8  C   UNL     1     -10.714  -7.202 -14.732  1.00  0.00    -0.003 C 
ATOM      9  C   UNL     1      -9.370  -7.576 -14.114  1.00  0.00     0.004 C 
ENDBRANCH   7   8
ENDBRANCH   6   7
ENDBRANCH   1   6
TORSDOF 5
ENDMDL
MODEL 8
REMARK VINA RESULT:    -3.520      1.467      2.330
REMARK INTER + INTRA:          -4.691
REMARK INTER:                  -4.298
REMARK INTRA:                  -0.393
REMARK UNBOUND:                -0.142
REMARK SMILES CCCCCCC(=O)[O-]
REMARK SMILES IDX 5 1 6 2 7 3 8 4 9 5 4 6 3 7 2 8 1 9
REMARK H PARENT
REMARK Flexibility Score: inf
ROOT
ATOM      1  C   UNL     1      -7.114   0.768  -8.614  1.00  0.00     0.006 C 
ENDROOT
BRANCH   1   2
ATOM      2  C   UNL     1      -6.377   2.089  -8.872  1.00  0.00     0.053 C 
BRANCH   2   3
ATOM      3  C   UNL     1      -7.066   2.918  -9.914  1.00  0.00     0.041 C 
ATOM      4  O   UNL     1      -8.071   3.611  -9.608  1.00  0.00    -0.550 OA
ATOM      5  O   UNL     1      -6.614   2.902 -11.228  1.00  0.00    -0.550 OA
ENDBRANCH   2   3
ENDBRANCH   1   2
BRANCH   1   6
ATOM      6  C   UNL     1      -6.971  -0.215  -9.789  1.00  0.00     0.000 C 
BRANCH   6   7
ATOM      7  C   UNL     1      -5.549  -0.785  -9.912  1.00  0.00    -0.000 C 
BRANCH   7   8
ATOM      8  C   UNL     1      -4.916  -0.503 -11.282  1.00  0.00    -0.003 C 
ATOM      9  C   UNL     1      -3.846   0.580 -11.178  1.00  0.00     0.004 C 
ENDBRANCH   7   8
ENDBRANCH   6   7
ENDBRANCH   1   6
TORSDOF 5
ENDMDL
MODEL 9
REMARK VINA RESULT:    -3.510      2.061      2.969
REMARK INTER + INTRA:          -4.679
REMARK INTER:                  -4.259
REMARK INTRA:                  -0.420
REMARK UNBOUND:                -0.142
REMARK SMILES CCCCCCC(=O)[O-]
REMARK SMILES IDX 5 1 6 2 7 3 8 4 9 5 4 6 3 7 2 8 1 9
REMARK H PARENT
REMARK Flexibility Score: inf
ROOT
ATOM      1  C   UNL     1      -6.458  -0.482  -9.246  1.00  0.00     0.006 C 
ENDROOT
BRANCH   1   2
ATOM      2  C   UNL     1      -7.348   0.627  -8.667  1.00  0.00     0.053 C 
BRANCH   2   3
ATOM      3  C   UNL     1      -6.653   1.955  -8.665  1.00  0.00     0.041 C 
ATOM      4  O   UNL     1      -7.018   2.861  -9.460  1.00  0.00    -0.550 OA
ATOM      5  O   UNL     1      -5.584   2.181  -7.807  1.00  0.00    -0.550 OA
ENDBRANCH   2   3
ENDBRANCH   1   2
BRANCH   1   6
ATOM      6  C   UNL     1      -6.430  -0.460 -10.784  1.00  0.00     0.000 C 
BRANCH   6   7
ATOM      7  C   UNL     1      -5.003  -0.548 -11.350  1.00  0.00    -0.000 C 
BRANCH   7   8
ATOM      8  C   UNL     1      -4.040   0.444 -10.681  1.00  0.00    -0.003 C 
ATOM      9  C   UNL     1      -4.140   1.824 -11.324  1.00  0.00     0.004 C 
ENDBRANCH   7   8
ENDBRANCH   6   7
ENDBRANCH   1   6
TORSDOF 5
ENDMDL
