MODEL 1
REMARK VINA RESULT:    -3.287      0.000      0.000
REMARK INTER + INTRA:          -4.101
REMARK INTER:                  -3.960
REMARK INTRA:                  -0.141
REMARK UNBOUND:                -0.141
REMARK SMILES CC[C@@H](C)[C@H]([NH3+])C(=O)[O-]
REMARK SMILES IDX 3 1 4 2 5 3 6 4 7 8 8 9 9 10 2 11 1 12
REMARK H PARENT 6 5 6 6 6 7
REMARK Flexibility Score: inf
ROOT
ATOM      1  C   UNL     1      17.952   7.309  23.082  1.00  0.00     0.050 C 
ATOM      2  C   UNL     1      18.736   6.029  23.426  1.00  0.00     0.014 C 
ENDROOT
BRANCH   1   3
ATOM      3  C   UNL     1      18.238   8.442  24.122  1.00  0.00     0.230 C 
BRANCH   3   4
ATOM      4  N   UNL     1      19.116   7.983  25.211  1.00  0.00    -0.350 N 
ATOM      5  H   UNL     1      19.544   7.061  24.967  1.00  0.00     0.345 HD
ATOM      6  H   UNL     1      19.880   8.676  25.389  1.00  0.00     0.345 HD
ATOM      7  H   UNL     1      18.562   7.839  26.086  1.00  0.00     0.345 HD
ENDBRANCH   3   4
BRANCH   3   8
ATOM      8  C   UNL     1      16.958   8.980  24.706  1.00  0.00     0.099 C 
ATOM      9  O   UNL     1      15.850   8.466  24.399  1.00  0.00    -0.544 OA
ATOM     10  O   UNL     1      16.993  10.062  25.578  1.00  0.00    -0.544 OA
ENDBRANCH   3   8
ENDBRANCH   1   3
BRANCH   1  11
ATOM     11  C   UNL     1      18.298   7.755  21.630  1.00  0.00     0.006 C 
ATOM     12  C   UNL     1      19.034   9.096  21.579  1.00  0.00     0.004 C 
ENDBRANCH   1  11
TORSDOF 4
ENDMDL
MODEL 2
REMARK VINA RESULT:    -3.195      1.427      1.584
REMARK INTER + INTRA:          -3.989
REMARK INTER:                  -3.897
REMARK INTRA:                  -0.093
REMARK UNBOUND:                -0.141
REMARK SMILES CC[C@@H](C)[C@H]([NH3+])C(=O)[O-]
REMARK SMILES IDX 3 1 4 2 5 3 6 4 7 8 8 9 9 10 2 11 1 12
REMARK H PARENT 6 5 6 6 6 7
REMARK Flexibility Score: inf
ROOT
ATOM      1  C   UNL     1      18.315   8.095  23.288  1.00  0.00     0.050 C 
ATOM      2  C   UNL     1      19.400   7.526  24.222  1.00  0.00     0.014 C 
ENDROOT
BRANCH   1   3
ATOM      3  C   UNL     1      17.286   8.962  24.083  1.00  0.00     0.230 C 
BRANCH   3   4
ATOM      4  N   UNL     1      17.787   9.331  25.418  1.00  0.00    -0.350 N 
ATOM      5  H   UNL     1      17.586   8.568  26.104  1.00  0.00     0.345 HD
ATOM      6  H   UNL     1      18.819   9.502  25.392  1.00  0.00     0.345 HD
ATOM      7  H   UNL     1      17.297  10.187  25.764  1.00  0.00     0.345 HD
ENDBRANCH   3   4
BRANCH   3   8
ATOM      8  C   UNL     1      15.967   8.245  24.227  1.00  0.00     0.099 C 
ATOM      9  O   UNL     1      15.802   7.105  23.716  1.00  0.00    -0.544 OA
ATOM     10  O   UNL     1      14.920   8.848  24.912  1.00  0.00    -0.544 OA
ENDBRANCH   3   8
ENDBRANCH   1   3
BRANCH   1  11
ATOM     11  C   UNL     1      18.992   8.905  22.142  1.00  0.00     0.006 C 
ATOM     12  C   UNL     1      18.420   8.574  20.762  1.00  0.00     0.004 C 
ENDBRANCH   1  11
TORSDOF 4
ENDMDL
MODEL 3
REMARK VINA RESULT:    -3.185      1.667      1.998
REMARK INTER + INTRA:          -3.978
REMARK INTER:                  -3.897
REMARK INTRA:                  -0.081
REMARK UNBOUND:                -0.141
REMARK SMILES CC[C@@H](C)[C@H]([NH3+])C(=O)[O-]
REMARK SMILES IDX 3 1 4 2 5 3 6 4 7 8 8 9 9 10 2 11 1 12
REMARK H PARENT 6 5 6 6 6 7
REMARK Flexibility Score: inf
ROOT
ATOM      1  C   UNL     1      17.545   7.974  23.701  1.00  0.00     0.050 C 
ATOM      2  C   UNL     1      18.990   7.836  24.215  1.00  0.00     0.014 C 
ENDROOT
BRANCH   1   3
ATOM      3  C   UNL     1      16.676   8.826  24.684  1.00  0.00     0.230 C 
BRANCH   3   4
ATOM      4  N   UNL     1      17.503   9.673  25.561  1.00  0.00    -0.350 N 
ATOM      5  H   UNL     1      17.170   9.602  26.550  1.00  0.00     0.345 HD
ATOM      6  H   UNL     1      18.507   9.382  25.518  1.00  0.00     0.345 HD
ATOM      7  H   UNL     1      17.415  10.676  25.283  1.00  0.00     0.345 HD
ENDBRANCH   3   4
BRANCH   3   8
ATOM      8  C   UNL     1      15.791   7.947  25.530  1.00  0.00     0.099 C 
ATOM      9  O   UNL     1      14.908   8.455  26.272  1.00  0.00    -0.544 OA
ATOM     10  O   UNL     1      15.957   6.567  25.507  1.00  0.00    -0.544 OA
ENDBRANCH   3   8
ENDBRANCH   1   3
BRANCH   1  11
ATOM     11  C   UNL     1      17.562   8.584  22.267  1.00  0.00     0.006 C 
ATOM     12  C   UNL     1      18.961   9.015  21.821  1.00  0.00     0.004 C 
ENDBRANCH   1  11
TORSDOF 4
ENDMDL
MODEL 4
REMARK VINA RESULT:    -3.143      1.597      2.291
REMARK INTER + INTRA:          -3.927
REMARK INTER:                  -3.845
REMARK INTRA:                  -0.082
REMARK UNBOUND:                -0.141
REMARK SMILES CC[C@@H](C)[C@H]([NH3+])C(=O)[O-]
REMARK SMILES IDX 3 1 4 2 5 3 6 4 7 8 8 9 9 10 2 11 1 12
REMARK H PARENT 6 5 6 6 6 7
REMARK Flexibility Score: inf
ROOT
ATOM      1  C   UNL     1      17.785   9.015  21.872  1.00  0.00     0.050 C 
ATOM      2  C   UNL     1      16.384   8.390  21.735  1.00  0.00     0.014 C 
ENDROOT
BRANCH   1   3
ATOM      3  C   UNL     1      18.528   8.461  23.131  1.00  0.00     0.230 C 
BRANCH   3   4
ATOM      4  N   UNL     1      18.954   7.063  22.952  1.00  0.00    -0.350 N 
ATOM      5  H   UNL     1      19.659   6.996  22.183  1.00  0.00     0.345 HD
ATOM      6  H   UNL     1      19.374   6.687  23.833  1.00  0.00     0.345 HD
ATOM      7  H   UNL     1      18.141   6.471  22.670  1.00  0.00     0.345 HD
ENDBRANCH   3   4
BRANCH   3   8
ATOM      8  C   UNL     1      17.665   8.565  24.362  1.00  0.00     0.099 C 
ATOM      9  O   UNL     1      17.468   9.682  24.911  1.00  0.00    -0.544 OA
ATOM     10  O   UNL     1      17.093   7.423  24.909  1.00  0.00    -0.544 OA
ENDBRANCH   3   8
ENDBRANCH   1   3
BRANCH   1  11
ATOM     11  C   UNL     1      18.593   8.763  20.564  1.00  0.00     0.006 C 
ATOM     12  C   UNL     1      17.807   7.962  19.524  1.00  0.00     0.004 C 
ENDBRANCH   1  11
TORSDOF 4
ENDMDL
MODEL 5
REMARK VINA RESULT:    -3.088      2.200      2.787
REMARK INTER + INTRA:          -3.861
REMARK INTER:                  -3.883
REMARK INTRA:                   0.023
REMARK UNBOUND:                -0.141
REMARK SMILES CC[C@@H](C)[C@H]([NH3+])C(=O)[O-]
REMARK SMILES IDX 3 1 4 2 5 3 6 4 7 8 8 9 9 10 2 11 1 12
REMARK H PARENT 6 5 6 6 6 7
REMARK Flexibility Score: inf
ROOT
ATOM      1  C   UNL     1      17.263   9.037  22.639  1.00  0.00     0.050 C 
ATOM      2  C   UNL     1      16.141   8.380  21.813  1.00  0.00     0.014 C 
ENDROOT
BRANCH   1   3
ATOM      3  C   UNL     1      17.417   8.346  24.033  1.00  0.00     0.230 C 
BRANCH   3   4
ATOM      4  N   UNL     1      17.739   9.311  25.097  1.00  0.00    -0.350 N 
ATOM      5  H   UNL     1      17.927   8.809  25.995  1.00  0.00     0.345 HD
ATOM      6  H   UNL     1      18.580   9.878  24.841  1.00  0.00     0.345 HD
ATOM      7  H   UNL     1      16.926   9.945  25.268  1.00  0.00     0.345 HD
ENDBRANCH   3   4
BRANCH   3   8
ATOM      8  C   UNL     1      18.476   7.274  23.994  1.00  0.00     0.099 C 
ATOM      9  O   UNL     1      19.631   7.502  24.441  1.00  0.00    -0.544 OA
ATOM     10  O   UNL     1      18.185   6.029  23.448  1.00  0.00    -0.544 OA
ENDBRANCH   3   8
ENDBRANCH   1   3
BRANCH   1  11
ATOM     11  C   UNL     1      18.592   9.002  21.825  1.00  0.00     0.006 C 
ATOM     12  C   UNL     1      18.395   8.522  20.386  1.00  0.00     0.004 C 
ENDBRANCH   1  11
TORSDOF 4
ENDMDL
MODEL 6
REMARK VINA RESULT:    -3.072      1.898      2.749
REMARK INTER + INTRA:          -3.842
REMARK INTER:                  -3.731
REMARK INTRA:                  -0.111
REMARK UNBOUND:                -0.141
REMARK SMILES CC[C@@H](C)[C@H]([NH3+])C(=O)[O-]
REMARK SMILES IDX 3 1 4 2 5 3 6 4 7 8 8 9 9 10 2 11 1 12
REMARK H PARENT 6 5 6 6 6 7
REMARK Flexibility Score: inf
ROOT
ATOM      1  C   UNL     1      18.156   7.234  22.230  1.00  0.00     0.050 C 
ATOM      2  C   UNL     1      18.295   7.427  20.708  1.00  0.00     0.014 C 
ENDROOT
BRANCH   1   3
ATOM      3  C   UNL     1      17.537   8.501  22.906  1.00  0.00     0.230 C 
BRANCH   3   4
ATOM      4  N   UNL     1      17.840   9.732  22.155  1.00  0.00    -0.350 N 
ATOM      5  H   UNL     1      18.739   9.623  21.631  1.00  0.00     0.345 HD
ATOM      6  H   UNL     1      17.075   9.950  21.476  1.00  0.00     0.345 HD
ATOM      7  H   UNL     1      17.967  10.534  22.812  1.00  0.00     0.345 HD
ENDBRANCH   3   4
BRANCH   3   8
ATOM      8  C   UNL     1      18.021   8.652  24.325  1.00  0.00     0.099 C 
ATOM      9  O   UNL     1      17.463   9.468  25.106  1.00  0.00    -0.544 OA
ATOM     10  O   UNL     1      19.099   7.899  24.775  1.00  0.00    -0.544 OA
ENDBRANCH   3   8
ENDBRANCH   1   3
BRANCH   1  11
ATOM     11  C   UNL     1      17.311   5.956  22.514  1.00  0.00     0.006 C 
ATOM     12  C   UNL     1      18.136   4.822  23.128  1.00  0.00     0.004 C 
ENDBRANCH   1  11
TORSDOF 4
ENDMDL
MODEL 7
REMARK VINA RESULT:    -3.066      2.486      3.194
REMARK INTER + INTRA:          -3.835
REMARK INTER:                  -3.760
REMARK INTRA:                  -0.075
REMARK UNBOUND:                -0.141
REMARK SMILES CC[C@@H](C)[C@H]([NH3+])C(=O)[O-]
REMARK SMILES IDX 3 1 4 2 5 3 6 4 7 8 8 9 9 10 2 11 1 12
REMARK H PARENT 6 5 6 6 6 7
REMARK Flexibility Score: inf
ROOT
ATOM      1  C   UNL     1      17.623   7.887  21.102  1.00  0.00     0.050 C 
ATOM      2  C   UNL     1      17.854   8.080  19.591  1.00  0.00     0.014 C 
ENDROOT
BRANCH   1   3
ATOM      3  C   UNL     1      18.308   9.026  21.926  1.00  0.00     0.230 C 
BRANCH   3   4
ATOM      4  N   UNL     1      19.608   9.416  21.356  1.00  0.00    -0.350 N 
ATOM      5  H   UNL     1      20.073   8.589  20.916  1.00  0.00     0.345 HD
ATOM      6  H   UNL     1      19.487  10.163  20.634  1.00  0.00     0.345 HD
ATOM      7  H   UNL     1      20.246   9.757  22.111  1.00  0.00     0.345 HD
ENDBRANCH   3   4
BRANCH   3   8
ATOM      8  C   UNL     1      18.497   8.617  23.365  1.00  0.00     0.099 C 
ATOM      9  O   UNL     1      19.383   7.778  23.679  1.00  0.00    -0.544 OA
ATOM     10  O   UNL     1      17.680   9.153  24.353  1.00  0.00    -0.544 OA
ENDBRANCH   3   8
ENDBRANCH   1   3
BRANCH   1  11
ATOM     11  C   UNL     1      16.092   7.807  21.385  1.00  0.00     0.006 C 
ATOM     12  C   UNL     1      15.385   6.749  20.535  1.00  0.00     0.004 C 
ENDBRANCH   1  11
TORSDOF 4
ENDMDL
MODEL 8
REMARK VINA RESULT:    -3.065      1.929      2.424
REMARK INTER + INTRA:          -3.833
REMARK INTER:                  -3.709
REMARK INTRA:                  -0.124
REMARK UNBOUND:                -0.141
REMARK SMILES CC[C@@H](C)[C@H]([NH3+])C(=O)[O-]
REMARK SMILES IDX 3 1 4 2 5 3 6 4 7 8 8 9 9 10 2 11 1 12
REMARK H PARENT 6 5 6 6 6 7
REMARK Flexibility Score: inf
ROOT
ATOM      1  C   UNL     1      17.727   5.910  23.286  1.00  0.00     0.050 C 
ATOM      2  C   UNL     1      16.965   4.980  24.249  1.00  0.00     0.014 C 
ENDROOT
BRANCH   1   3
ATOM      3  C   UNL     1      18.738   6.817  24.062  1.00  0.00     0.230 C 
BRANCH   3   4
ATOM      4  N   UNL     1      18.596   6.681  25.521  1.00  0.00    -0.350 N 
ATOM      5  H   UNL     1      19.319   7.258  26.010  1.00  0.00     0.345 HD
ATOM      6  H   UNL     1      17.646   6.991  25.832  1.00  0.00     0.345 HD
ATOM      7  H   UNL     1      18.754   5.689  25.809  1.00  0.00     0.345 HD
ENDBRANCH   3   4
BRANCH   3   8
ATOM      8  C   UNL     1      18.575   8.265  23.677  1.00  0.00     0.099 C 
ATOM      9  O   UNL     1      19.112   8.711  22.628  1.00  0.00    -0.544 OA
ATOM     10  O   UNL     1      17.843   9.122  24.490  1.00  0.00    -0.544 OA
ENDBRANCH   3   8
ENDBRANCH   1   3
BRANCH   1  11
ATOM     11  C   UNL     1      18.436   5.055  22.194  1.00  0.00     0.006 C 
ATOM     12  C   UNL     1      18.387   5.702  20.808  1.00  0.00     0.004 C 
ENDBRANCH   1  11
TORSDOF 4
ENDMDL
MODEL 9
REMARK VINA RESULT:    -2.983      2.286      3.634
REMARK INTER + INTRA:          -3.735
REMARK INTER:                  -3.620
REMARK INTRA:                  -0.115
REMARK UNBOUND:                -0.141
REMARK SMILES CC[C@@H](C)[C@H]([NH3+])C(=O)[O-]
REMARK SMILES IDX 3 1 4 2 5 3 6 4 7 8 8 9 9 10 2 11 1 12
REMARK H PARENT 6 5 6 6 6 7
REMARK Flexibility Score: inf
ROOT
ATOM      1  C   UNL     1      15.793   8.088  24.765  1.00  0.00     0.050 C 
ATOM      2  C   UNL     1      14.951   9.171  25.465  1.00  0.00     0.014 C 
ENDROOT
BRANCH   1   3
ATOM      3  C   UNL     1      17.262   8.574  24.539  1.00  0.00     0.230 C 
BRANCH   3   4
ATOM      4  N   UNL     1      17.520   9.873  25.183  1.00  0.00    -0.350 N 
ATOM      5  H   UNL     1      16.983   9.946  26.077  1.00  0.00     0.345 HD
ATOM      6  H   UNL     1      18.539   9.990  25.388  1.00  0.00     0.345 HD
ATOM      7  H   UNL     1      17.193  10.653  24.568  1.00  0.00     0.345 HD
ENDBRANCH   3   4
BRANCH   3   8
ATOM      8  C   UNL     1      17.583   8.674  23.070  1.00  0.00     0.099 C 
ATOM      9  O   UNL     1      16.660   8.646  22.212  1.00  0.00    -0.544 OA
ATOM     10  O   UNL     1      18.903   8.780  22.652  1.00  0.00    -0.544 OA
ENDBRANCH   3   8
ENDBRANCH   1   3
BRANCH   1  11
ATOM     11  C   UNL     1      15.740   6.772  25.597  1.00  0.00     0.006 C 
ATOM     12  C   UNL     1      16.623   5.665  25.017  1.00  0.00     0.004 C 
ENDBRANCH   1  11
TORSDOF 4
ENDMDL
