MODEL 1
REMARK VINA RESULT:    -4.778      0.000      0.000
REMARK INTER + INTRA:         -15.078
REMARK INTER:                 -10.924
REMARK INTRA:                  -4.155
REMARK UNBOUND:                -4.155
REMARK SMILES CCCCCCCCCCCCCCCCCCCCCCCC(=O)[O-]
REMARK SMILES IDX 13 1 14 2 15 3 16 4 17 5 18 6 19 7 20 8 21 9 22 10 23 11
REMARK SMILES IDX 24 12 25 13 26 14 12 15 11 16 10 17 9 18 8 19 7 20 6 21 5 22
REMARK SMILES IDX 4 23 3 24 2 25 1 26
REMARK H PARENT
REMARK Flexibility Score: inf
ROOT
ATOM      1  C   UNL     1     -15.829  -4.189  20.139  1.00  0.00     0.000 C 
ENDROOT
BRANCH   1   2
ATOM      2  C   UNL     1     -16.533  -3.246  21.133  1.00  0.00     0.000 C 
BRANCH   2   3
ATOM      3  C   UNL     1     -16.889  -3.915  22.478  1.00  0.00     0.000 C 
BRANCH   3   4
ATOM      4  C   UNL     1     -18.357  -3.713  22.903  1.00  0.00     0.000 C 
BRANCH   4   5
ATOM      5  C   UNL     1     -19.322  -4.821  22.442  1.00  0.00     0.000 C 
BRANCH   5   6
ATOM      6  C   UNL     1     -18.599  -6.098  21.986  1.00  0.00     0.000 C 
BRANCH   6   7
ATOM      7  C   UNL     1     -18.877  -6.394  20.504  1.00  0.00     0.000 C 
BRANCH   7   8
ATOM      8  C   UNL     1     -19.409  -5.160  19.757  1.00  0.00     0.000 C 
BRANCH   8   9
ATOM      9  C   UNL     1     -19.765  -5.472  18.295  1.00  0.00     0.000 C 
BRANCH   9  10
ATOM     10  C   UNL     1     -18.714  -4.897  17.338  1.00  0.00     0.006 C 
BRANCH  10  11
ATOM     11  C   UNL     1     -18.682  -3.368  17.411  1.00  0.00     0.053 C 
BRANCH  11  12
ATOM     12  C   UNL     1     -19.966  -2.791  16.907  1.00  0.00     0.041 C 
ATOM     13  O   UNL     1     -20.660  -2.048  17.649  1.00  0.00    -0.550 OA
ATOM     14  O   UNL     1     -20.421  -3.112  15.634  1.00  0.00    -0.550 OA
ENDBRANCH  11  12
ENDBRANCH  10  11
ENDBRANCH   9  10
ENDBRANCH   8   9
ENDBRANCH   7   8
ENDBRANCH   6   7
ENDBRANCH   5   6
ENDBRANCH   4   5
ENDBRANCH   3   4
ENDBRANCH   2   3
ENDBRANCH   1   2
BRANCH   1  15
ATOM     15  C   UNL     1     -15.185  -5.437  20.777  1.00  0.00     0.000 C 
BRANCH  15  16
ATOM     16  C   UNL     1     -15.142  -6.660  19.842  1.00  0.00     0.000 C 
BRANCH  16  17
ATOM     17  C   UNL     1     -15.842  -6.397  18.490  1.00  0.00     0.000 C 
BRANCH  17  18
ATOM     18  C   UNL     1     -14.957  -6.745  17.279  1.00  0.00    -0.000 C 
BRANCH  18  19
ATOM     19  C   UNL     1     -13.886  -5.679  16.977  1.00  0.00    -0.000 C 
BRANCH  19  20
ATOM     20  C   UNL     1     -14.349  -4.655  15.926  1.00  0.00    -0.000 C 
BRANCH  20  21
ATOM     21  C   UNL     1     -15.003  -3.414  16.551  1.00  0.00    -0.000 C 
BRANCH  21  22
ATOM     22  C   UNL     1     -14.045  -2.632  17.465  1.00  0.00    -0.000 C 
BRANCH  22  23
ATOM     23  C   UNL     1     -14.685  -1.363  18.054  1.00  0.00    -0.000 C 
BRANCH  23  24
ATOM     24  C   UNL     1     -15.680  -0.634  17.126  1.00  0.00    -0.000 C 
BRANCH  24  25
ATOM     25  C   UNL     1     -15.038   0.337  16.120  1.00  0.00    -0.003 C 
ATOM     26  C   UNL     1     -13.807   1.047  16.681  1.00  0.00     0.004 C 
ENDBRANCH  24  25
ENDBRANCH  23  24
ENDBRANCH  22  23
ENDBRANCH  21  22
ENDBRANCH  20  21
ENDBRANCH  19  20
ENDBRANCH  18  19
ENDBRANCH  17  18
ENDBRANCH  16  17
ENDBRANCH  15  16
ENDBRANCH   1  15
TORSDOF 22
ENDMDL
MODEL 2
REMARK VINA RESULT:    -4.658      3.031      6.779
REMARK INTER + INTRA:         -14.803
REMARK INTER:                 -10.608
REMARK INTRA:                  -4.195
REMARK UNBOUND:                -4.155
REMARK SMILES CCCCCCCCCCCCCCCCCCCCCCCC(=O)[O-]
REMARK SMILES IDX 13 1 14 2 15 3 16 4 17 5 18 6 19 7 20 8 21 9 22 10 23 11
REMARK SMILES IDX 24 12 25 13 26 14 12 15 11 16 10 17 9 18 8 19 7 20 6 21 5 22
REMARK SMILES IDX 4 23 3 24 2 25 1 26
REMARK H PARENT
REMARK Flexibility Score: inf
ROOT
ATOM      1  C   UNL     1     -18.666   0.190  17.270  1.00  0.00     0.000 C 
ENDROOT
BRANCH   1   2
ATOM      2  C   UNL     1     -17.208   0.632  17.497  1.00  0.00     0.000 C 
BRANCH   2   3
ATOM      3  C   UNL     1     -16.491   1.090  16.207  1.00  0.00     0.000 C 
BRANCH   3   4
ATOM      4  C   UNL     1     -15.171   0.343  15.932  1.00  0.00     0.000 C 
BRANCH   4   5
ATOM      5  C   UNL     1     -14.645  -0.497  17.111  1.00  0.00     0.000 C 
BRANCH   5   6
ATOM      6  C   UNL     1     -14.740  -2.010  16.862  1.00  0.00     0.000 C 
BRANCH   6   7
ATOM      7  C   UNL     1     -14.407  -2.804  18.135  1.00  0.00     0.000 C 
BRANCH   7   8
ATOM      8  C   UNL     1     -14.336  -1.901  19.378  1.00  0.00     0.000 C 
BRANCH   8   9
ATOM      9  C   UNL     1     -15.506  -2.147  20.344  1.00  0.00     0.000 C 
BRANCH   9  10
ATOM     10  C   UNL     1     -15.821  -0.886  21.157  1.00  0.00     0.006 C 
BRANCH  10  11
ATOM     11  C   UNL     1     -14.972   0.298  20.687  1.00  0.00     0.053 C 
BRANCH  11  12
ATOM     12  C   UNL     1     -14.430   1.055  21.857  1.00  0.00     0.041 C 
ATOM     13  O   UNL     1     -14.451   0.542  23.007  1.00  0.00    -0.550 OA
ATOM     14  O   UNL     1     -13.947   2.346  21.688  1.00  0.00    -0.550 OA
ENDBRANCH  11  12
ENDBRANCH  10  11
ENDBRANCH   9  10
ENDBRANCH   8   9
ENDBRANCH   7   8
ENDBRANCH   6   7
ENDBRANCH   5   6
ENDBRANCH   4   5
ENDBRANCH   3   4
ENDBRANCH   2   3
ENDBRANCH   1   2
BRANCH   1  15
ATOM     15  C   UNL     1     -19.085  -1.077  18.045  1.00  0.00     0.000 C 
BRANCH  15  16
ATOM     16  C   UNL     1     -18.186  -2.297  17.773  1.00  0.00     0.000 C 
BRANCH  16  17
ATOM     17  C   UNL     1     -18.302  -3.376  18.873  1.00  0.00     0.000 C 
BRANCH  17  18
ATOM     18  C   UNL     1     -18.280  -4.809  18.311  1.00  0.00    -0.000 C 
BRANCH  18  19
ATOM     19  C   UNL     1     -16.859  -5.331  18.021  1.00  0.00    -0.000 C 
BRANCH  19  20
ATOM     20  C   UNL     1     -16.388  -6.371  19.054  1.00  0.00    -0.000 C 
BRANCH  20  21
ATOM     21  C   UNL     1     -15.243  -5.854  19.938  1.00  0.00    -0.000 C 
BRANCH  21  22
ATOM     22  C   UNL     1     -15.409  -6.243  21.415  1.00  0.00    -0.000 C 
BRANCH  22  23
ATOM     23  C   UNL     1     -16.304  -5.261  22.193  1.00  0.00    -0.000 C 
BRANCH  23  24
ATOM     24  C   UNL     1     -17.793  -5.660  22.289  1.00  0.00    -0.000 C 
BRANCH  24  25
ATOM     25  C   UNL     1     -18.762  -4.495  22.551  1.00  0.00    -0.003 C 
ATOM     26  C   UNL     1     -18.052  -3.221  23.005  1.00  0.00     0.004 C 
ENDBRANCH  24  25
ENDBRANCH  23  24
ENDBRANCH  22  23
ENDBRANCH  21  22
ENDBRANCH  20  21
ENDBRANCH  19  20
ENDBRANCH  18  19
ENDBRANCH  17  18
ENDBRANCH  16  17
ENDBRANCH  15  16
ENDBRANCH   1  15
TORSDOF 22
ENDMDL
MODEL 3
REMARK VINA RESULT:    -4.594      2.576      6.128
REMARK INTER + INTRA:         -14.657
REMARK INTER:                 -10.724
REMARK INTRA:                  -3.933
REMARK UNBOUND:                -4.155
REMARK SMILES CCCCCCCCCCCCCCCCCCCCCCCC(=O)[O-]
REMARK SMILES IDX 13 1 14 2 15 3 16 4 17 5 18 6 19 7 20 8 21 9 22 10 23 11
REMARK SMILES IDX 24 12 25 13 26 14 12 15 11 16 10 17 9 18 8 19 7 20 6 21 5 22
REMARK SMILES IDX 4 23 3 24 2 25 1 26
REMARK H PARENT
REMARK Flexibility Score: inf
ROOT
ATOM      1  C   UNL     1     -15.125  -5.779  20.102  1.00  0.00     0.000 C 
ENDROOT
BRANCH   1   2
ATOM      2  C   UNL     1     -15.919  -6.451  18.965  1.00  0.00     0.000 C 
BRANCH   2   3
ATOM      3  C   UNL     1     -15.078  -6.726  17.699  1.00  0.00     0.000 C 
BRANCH   3   4
ATOM      4  C   UNL     1     -15.706  -6.170  16.405  1.00  0.00     0.000 C 
BRANCH   4   5
ATOM      5  C   UNL     1     -15.301  -4.725  16.059  1.00  0.00     0.000 C 
BRANCH   5   6
ATOM      6  C   UNL     1     -13.906  -4.349  16.581  1.00  0.00     0.000 C 
BRANCH   6   7
ATOM      7  C   UNL     1     -13.967  -3.108  17.486  1.00  0.00     0.000 C 
BRANCH   7   8
ATOM      8  C   UNL     1     -15.233  -2.273  17.238  1.00  0.00     0.000 C 
BRANCH   8   9
ATOM      9  C   UNL     1     -15.701  -1.534  18.501  1.00  0.00     0.000 C 
BRANCH   9  10
ATOM     10  C   UNL     1     -14.838  -1.912  19.711  1.00  0.00     0.006 C 
BRANCH  10  11
ATOM     11  C   UNL     1     -15.433  -1.352  21.006  1.00  0.00     0.053 C 
BRANCH  11  12
ATOM     12  C   UNL     1     -14.763  -0.069  21.382  1.00  0.00     0.041 C 
ATOM     13  O   UNL     1     -14.973   0.975  20.709  1.00  0.00    -0.550 OA
ATOM     14  O   UNL     1     -13.868  -0.036  22.444  1.00  0.00    -0.550 OA
ENDBRANCH  11  12
ENDBRANCH  10  11
ENDBRANCH   9  10
ENDBRANCH   8   9
ENDBRANCH   7   8
ENDBRANCH   6   7
ENDBRANCH   5   6
ENDBRANCH   4   5
ENDBRANCH   3   4
ENDBRANCH   2   3
ENDBRANCH   1   2
BRANCH   1  15
ATOM     15  C   UNL     1     -14.929  -6.653  21.358  1.00  0.00     0.000 C 
BRANCH  15  16
ATOM     16  C   UNL     1     -15.915  -6.335  22.496  1.00  0.00     0.000 C 
BRANCH  16  17
ATOM     17  C   UNL     1     -16.377  -4.860  22.484  1.00  0.00     0.000 C 
BRANCH  17  18
ATOM     18  C   UNL     1     -17.910  -4.712  22.471  1.00  0.00    -0.000 C 
BRANCH  18  19
ATOM     19  C   UNL     1     -18.634  -5.903  21.815  1.00  0.00    -0.000 C 
BRANCH  19  20
ATOM     20  C   UNL     1     -19.137  -5.582  20.396  1.00  0.00    -0.000 C 
BRANCH  20  21
ATOM     21  C   UNL     1     -18.915  -4.114  20.004  1.00  0.00    -0.000 C 
BRANCH  21  22
ATOM     22  C   UNL     1     -18.446  -3.950  18.549  1.00  0.00    -0.000 C 
BRANCH  22  23
ATOM     23  C   UNL     1     -19.068  -4.991  17.602  1.00  0.00    -0.000 C 
BRANCH  23  24
ATOM     24  C   UNL     1     -20.312  -4.513  16.820  1.00  0.00    -0.000 C 
BRANCH  24  25
ATOM     25  C   UNL     1     -20.133  -3.185  16.064  1.00  0.00    -0.003 C 
ATOM     26  C   UNL     1     -21.459  -2.559  15.639  1.00  0.00     0.004 C 
ENDBRANCH  24  25
ENDBRANCH  23  24
ENDBRANCH  22  23
ENDBRANCH  21  22
ENDBRANCH  20  21
ENDBRANCH  19  20
ENDBRANCH  18  19
ENDBRANCH  17  18
ENDBRANCH  16  17
ENDBRANCH  15  16
ENDBRANCH   1  15
TORSDOF 22
ENDMDL
MODEL 4
REMARK VINA RESULT:    -4.551     12.079     15.516
REMARK INTER + INTRA:         -14.559
REMARK INTER:                 -11.249
REMARK INTRA:                  -3.310
REMARK UNBOUND:                -4.155
REMARK SMILES CCCCCCCCCCCCCCCCCCCCCCCC(=O)[O-]
REMARK SMILES IDX 13 1 14 2 15 3 16 4 17 5 18 6 19 7 20 8 21 9 22 10 23 11
REMARK SMILES IDX 24 12 25 13 26 14 12 15 11 16 10 17 9 18 8 19 7 20 6 21 5 22
REMARK SMILES IDX 4 23 3 24 2 25 1 26
REMARK H PARENT
REMARK Flexibility Score: inf
ROOT
ATOM      1  C   UNL     1     -17.977   3.999  30.259  1.00  0.00     0.000 C 
ENDROOT
BRANCH   1   2
ATOM      2  C   UNL     1     -16.838   4.966  30.634  1.00  0.00     0.000 C 
BRANCH   2   3
ATOM      3  C   UNL     1     -15.452   4.290  30.720  1.00  0.00     0.000 C 
BRANCH   3   4
ATOM      4  C   UNL     1     -15.102   3.432  29.488  1.00  0.00     0.000 C 
BRANCH   4   5
ATOM      5  C   UNL     1     -13.862   3.901  28.705  1.00  0.00     0.000 C 
BRANCH   5   6
ATOM      6  C   UNL     1     -14.168   5.042  27.721  1.00  0.00     0.000 C 
BRANCH   6   7
ATOM      7  C   UNL     1     -13.595   6.376  28.225  1.00  0.00     0.000 C 
BRANCH   7   8
ATOM      8  C   UNL     1     -14.701   7.388  28.567  1.00  0.00     0.000 C 
BRANCH   8   9
ATOM      9  C   UNL     1     -14.208   8.491  29.516  1.00  0.00     0.000 C 
BRANCH   9  10
ATOM     10  C   UNL     1     -13.856   7.915  30.893  1.00  0.00     0.006 C 
BRANCH  10  11
ATOM     11  C   UNL     1     -15.105   7.778  31.767  1.00  0.00     0.053 C 
BRANCH  11  12
ATOM     12  C   UNL     1     -15.191   8.907  32.744  1.00  0.00     0.041 C 
ATOM     13  O   UNL     1     -16.259   9.563  32.859  1.00  0.00    -0.550 OA
ATOM     14  O   UNL     1     -14.077   9.267  33.491  1.00  0.00    -0.550 OA
ENDBRANCH  11  12
ENDBRANCH  10  11
ENDBRANCH   9  10
ENDBRANCH   8   9
ENDBRANCH   7   8
ENDBRANCH   6   7
ENDBRANCH   5   6
ENDBRANCH   4   5
ENDBRANCH   3   4
ENDBRANCH   2   3
ENDBRANCH   1   2
BRANCH   1  15
ATOM     15  C   UNL     1     -18.975   3.702  31.397  1.00  0.00     0.000 C 
BRANCH  15  16
ATOM     16  C   UNL     1     -18.396   2.815  32.514  1.00  0.00     0.000 C 
BRANCH  16  17
ATOM     17  C   UNL     1     -19.186   1.500  32.697  1.00  0.00     0.000 C 
BRANCH  17  18
ATOM     18  C   UNL     1     -19.581   0.847  31.360  1.00  0.00    -0.000 C 
BRANCH  18  19
ATOM     19  C   UNL     1     -18.844  -0.477  31.084  1.00  0.00    -0.000 C 
BRANCH  19  20
ATOM     20  C   UNL     1     -17.314  -0.312  31.069  1.00  0.00    -0.000 C 
BRANCH  20  21
ATOM     21  C   UNL     1     -16.819   0.536  29.888  1.00  0.00    -0.000 C 
BRANCH  21  22
ATOM     22  C   UNL     1     -16.633  -0.285  28.602  1.00  0.00    -0.000 C 
BRANCH  22  23
ATOM     23  C   UNL     1     -15.264  -0.053  27.938  1.00  0.00    -0.000 C 
BRANCH  23  24
ATOM     24  C   UNL     1     -14.065  -0.719  28.647  1.00  0.00    -0.000 C 
BRANCH  24  25
ATOM     25  C   UNL     1     -13.102   0.255  29.348  1.00  0.00    -0.003 C 
ATOM     26  C   UNL     1     -13.246   0.243  30.868  1.00  0.00     0.004 C 
ENDBRANCH  24  25
ENDBRANCH  23  24
ENDBRANCH  22  23
ENDBRANCH  21  22
ENDBRANCH  20  21
ENDBRANCH  19  20
ENDBRANCH  18  19
ENDBRANCH  17  18
ENDBRANCH  16  17
ENDBRANCH  15  16
ENDBRANCH   1  15
TORSDOF 22
ENDMDL
MODEL 5
REMARK VINA RESULT:    -4.544      2.756      5.224
REMARK INTER + INTRA:         -14.543
REMARK INTER:                 -10.849
REMARK INTRA:                  -3.694
REMARK UNBOUND:                -4.155
REMARK SMILES CCCCCCCCCCCCCCCCCCCCCCCC(=O)[O-]
REMARK SMILES IDX 13 1 14 2 15 3 16 4 17 5 18 6 19 7 20 8 21 9 22 10 23 11
REMARK SMILES IDX 24 12 25 13 26 14 12 15 11 16 10 17 9 18 8 19 7 20 6 21 5 22
REMARK SMILES IDX 4 23 3 24 2 25 1 26
REMARK H PARENT
REMARK Flexibility Score: inf
ROOT
ATOM      1  C   UNL     1     -17.515  -5.990  18.147  1.00  0.00     0.000 C 
ENDROOT
BRANCH   1   2
ATOM      2  C   UNL     1     -16.031  -6.116  17.753  1.00  0.00     0.000 C 
BRANCH   2   3
ATOM      3  C   UNL     1     -15.130  -6.646  18.890  1.00  0.00     0.000 C 
BRANCH   3   4
ATOM      4  C   UNL     1     -15.106  -5.739  20.137  1.00  0.00     0.000 C 
BRANCH   4   5
ATOM      5  C   UNL     1     -15.349  -6.469  21.472  1.00  0.00     0.000 C 
BRANCH   5   6
ATOM      6  C   UNL     1     -16.187  -5.646  22.463  1.00  0.00     0.000 C 
BRANCH   6   7
ATOM      7  C   UNL     1     -17.034  -4.591  21.732  1.00  0.00     0.000 C 
BRANCH   7   8
ATOM      8  C   UNL     1     -17.782  -3.671  22.710  1.00  0.00     0.000 C 
BRANCH   8   9
ATOM      9  C   UNL     1     -16.931  -2.470  23.148  1.00  0.00     0.000 C 
BRANCH   9  10
ATOM     10  C   UNL     1     -16.227  -1.828  21.947  1.00  0.00     0.006 C 
BRANCH  10  11
ATOM     11  C   UNL     1     -16.037  -0.323  22.161  1.00  0.00     0.053 C 
BRANCH  11  12
ATOM     12  C   UNL     1     -14.802   0.156  21.468  1.00  0.00     0.041 C 
ATOM     13  O   UNL     1     -13.677   0.018  22.014  1.00  0.00    -0.550 OA
ATOM     14  O   UNL     1     -14.899   0.800  20.241  1.00  0.00    -0.550 OA
ENDBRANCH  11  12
ENDBRANCH  10  11
ENDBRANCH   9  10
ENDBRANCH   8   9
ENDBRANCH   7   8
ENDBRANCH   6   7
ENDBRANCH   5   6
ENDBRANCH   4   5
ENDBRANCH   3   4
ENDBRANCH   2   3
ENDBRANCH   1   2
BRANCH   1  15
ATOM     15  C   UNL     1     -18.320  -4.968  17.316  1.00  0.00     0.000 C 
BRANCH  15  16
ATOM     16  C   UNL     1     -17.675  -3.571  17.257  1.00  0.00     0.000 C 
BRANCH  16  17
ATOM     17  C   UNL     1     -17.585  -2.901  18.646  1.00  0.00     0.000 C 
BRANCH  17  18
ATOM     18  C   UNL     1     -18.036  -1.429  18.632  1.00  0.00    -0.000 C 
BRANCH  18  19
ATOM     19  C   UNL     1     -18.973  -1.087  17.457  1.00  0.00    -0.000 C 
BRANCH  19  20
ATOM     20  C   UNL     1     -18.917   0.401  17.068  1.00  0.00    -0.000 C 
BRANCH  20  21
ATOM     21  C   UNL     1     -17.561   1.048  17.387  1.00  0.00    -0.000 C 
BRANCH  21  22
ATOM     22  C   UNL     1     -16.648   1.157  16.155  1.00  0.00    -0.000 C 
BRANCH  22  23
ATOM     23  C   UNL     1     -15.191   0.764  16.456  1.00  0.00    -0.000 C 
BRANCH  23  24
ATOM     24  C   UNL     1     -14.877  -0.743  16.343  1.00  0.00    -0.000 C 
BRANCH  24  25
ATOM     25  C   UNL     1     -14.458  -1.420  17.660  1.00  0.00    -0.003 C 
ATOM     26  C   UNL     1     -14.023  -2.872  17.470  1.00  0.00     0.004 C 
ENDBRANCH  24  25
ENDBRANCH  23  24
ENDBRANCH  22  23
ENDBRANCH  21  22
ENDBRANCH  20  21
ENDBRANCH  19  20
ENDBRANCH  18  19
ENDBRANCH  17  18
ENDBRANCH  16  17
ENDBRANCH  15  16
ENDBRANCH   1  15
TORSDOF 22
ENDMDL
MODEL 6
REMARK VINA RESULT:    -4.519      3.515      8.237
REMARK INTER + INTRA:         -14.486
REMARK INTER:                 -11.986
REMARK INTRA:                  -2.499
REMARK UNBOUND:                -4.155
REMARK SMILES CCCCCCCCCCCCCCCCCCCCCCCC(=O)[O-]
REMARK SMILES IDX 13 1 14 2 15 3 16 4 17 5 18 6 19 7 20 8 21 9 22 10 23 11
REMARK SMILES IDX 24 12 25 13 26 14 12 15 11 16 10 17 9 18 8 19 7 20 6 21 5 22
REMARK SMILES IDX 4 23 3 24 2 25 1 26
REMARK H PARENT
REMARK Flexibility Score: inf
ROOT
ATOM      1  C   UNL     1     -15.877  -6.267  19.541  1.00  0.00     0.000 C 
ENDROOT
BRANCH   1   2
ATOM      2  C   UNL     1     -15.032  -6.844  18.390  1.00  0.00     0.000 C 
BRANCH   2   3
ATOM      3  C   UNL     1     -15.598  -6.532  16.987  1.00  0.00     0.000 C 
BRANCH   3   4
ATOM      4  C   UNL     1     -14.560  -5.926  16.020  1.00  0.00     0.000 C 
BRANCH   4   5
ATOM      5  C   UNL     1     -14.741  -4.423  15.736  1.00  0.00     0.000 C 
BRANCH   5   6
ATOM      6  C   UNL     1     -14.392  -3.537  16.942  1.00  0.00     0.000 C 
BRANCH   6   7
ATOM      7  C   UNL     1     -15.569  -2.622  17.317  1.00  0.00     0.000 C 
BRANCH   7   8
ATOM      8  C   UNL     1     -15.910  -2.703  18.814  1.00  0.00     0.000 C 
BRANCH   8   9
ATOM      9  C   UNL     1     -14.767  -2.185  19.701  1.00  0.00     0.000 C 
BRANCH   9  10
ATOM     10  C   UNL     1     -15.296  -1.236  20.782  1.00  0.00     0.006 C 
BRANCH  10  11
ATOM     11  C   UNL     1     -15.091   0.227  20.377  1.00  0.00     0.053 C 
BRANCH  11  12
ATOM     12  C   UNL     1     -14.263   0.944  21.395  1.00  0.00     0.041 C 
ATOM     13  O   UNL     1     -13.794   2.084  21.139  1.00  0.00    -0.550 OA
ATOM     14  O   UNL     1     -13.967   0.333  22.607  1.00  0.00    -0.550 OA
ENDBRANCH  11  12
ENDBRANCH  10  11
ENDBRANCH   9  10
ENDBRANCH   8   9
ENDBRANCH   7   8
ENDBRANCH   6   7
ENDBRANCH   5   6
ENDBRANCH   4   5
ENDBRANCH   3   4
ENDBRANCH   2   3
ENDBRANCH   1   2
BRANCH   1  15
ATOM     15  C   UNL     1     -15.106  -6.040  20.858  1.00  0.00     0.000 C 
BRANCH  15  16
ATOM     16  C   UNL     1     -16.014  -5.921  22.096  1.00  0.00     0.000 C 
BRANCH  16  17
ATOM     17  C   UNL     1     -16.559  -4.490  22.296  1.00  0.00     0.000 C 
BRANCH  17  18
ATOM     18  C   UNL     1     -18.093  -4.412  22.197  1.00  0.00    -0.000 C 
BRANCH  18  19
ATOM     19  C   UNL     1     -18.768  -5.790  22.051  1.00  0.00    -0.000 C 
BRANCH  19  20
ATOM     20  C   UNL     1     -20.009  -5.940  22.949  1.00  0.00    -0.000 C 
BRANCH  20  21
ATOM     21  C   UNL     1     -20.331  -4.661  23.738  1.00  0.00    -0.000 C 
BRANCH  21  22
ATOM     22  C   UNL     1     -21.841  -4.417  23.884  1.00  0.00    -0.000 C 
BRANCH  22  23
ATOM     23  C   UNL     1     -22.665  -5.715  23.817  1.00  0.00    -0.000 C 
BRANCH  23  24
ATOM     24  C   UNL     1     -23.384  -6.109  25.125  1.00  0.00    -0.000 C 
BRANCH  24  25
ATOM     25  C   UNL     1     -22.863  -5.407  26.390  1.00  0.00    -0.003 C 
ATOM     26  C   UNL     1     -22.736  -6.350  27.585  1.00  0.00     0.004 C 
ENDBRANCH  24  25
ENDBRANCH  23  24
ENDBRANCH  22  23
ENDBRANCH  21  22
ENDBRANCH  20  21
ENDBRANCH  19  20
ENDBRANCH  18  19
ENDBRANCH  17  18
ENDBRANCH  16  17
ENDBRANCH  15  16
ENDBRANCH   1  15
TORSDOF 22
ENDMDL
MODEL 7
REMARK VINA RESULT:    -4.508     14.042     16.910
REMARK INTER + INTRA:         -14.461
REMARK INTER:                 -11.203
REMARK INTRA:                  -3.259
REMARK UNBOUND:                -4.155
REMARK SMILES CCCCCCCCCCCCCCCCCCCCCCCC(=O)[O-]
REMARK SMILES IDX 13 1 14 2 15 3 16 4 17 5 18 6 19 7 20 8 21 9 22 10 23 11
REMARK SMILES IDX 24 12 25 13 26 14 12 15 11 16 10 17 9 18 8 19 7 20 6 21 5 22
REMARK SMILES IDX 4 23 3 24 2 25 1 26
REMARK H PARENT
REMARK Flexibility Score: inf
ROOT
ATOM      1  C   UNL     1     -14.369   9.709  30.061  1.00  0.00     0.000 C 
ENDROOT
BRANCH   1   2
ATOM      2  C   UNL     1     -14.764  10.342  31.409  1.00  0.00     0.000 C 
BRANCH   2   3
ATOM      3  C   UNL     1     -14.857   9.325  32.569  1.00  0.00     0.000 C 
BRANCH   3   4
ATOM      4  C   UNL     1     -16.299   9.044  33.034  1.00  0.00     0.000 C 
BRANCH   4   5
ATOM      5  C   UNL     1     -17.356   9.066  31.915  1.00  0.00     0.000 C 
BRANCH   5   6
ATOM      6  C   UNL     1     -17.455   7.734  31.154  1.00  0.00     0.000 C 
BRANCH   6   7
ATOM      7  C   UNL     1     -18.073   7.935  29.761  1.00  0.00     0.000 C 
BRANCH   7   8
ATOM      8  C   UNL     1     -19.142   9.040  29.756  1.00  0.00     0.000 C 
BRANCH   8   9
ATOM      9  C   UNL     1     -18.946  10.035  28.602  1.00  0.00     0.000 C 
BRANCH   9  10
ATOM     10  C   UNL     1     -17.456  10.270  28.325  1.00  0.00     0.006 C 
BRANCH  10  11
ATOM     11  C   UNL     1     -17.085  11.742  28.525  1.00  0.00     0.053 C 
BRANCH  11  12
ATOM     12  C   UNL     1     -15.900  12.104  27.689  1.00  0.00     0.041 C 
ATOM     13  O   UNL     1     -15.687  11.507  26.601  1.00  0.00    -0.550 OA
ATOM     14  O   UNL     1     -15.003  13.067  28.134  1.00  0.00    -0.550 OA
ENDBRANCH  11  12
ENDBRANCH  10  11
ENDBRANCH   9  10
ENDBRANCH   8   9
ENDBRANCH   7   8
ENDBRANCH   6   7
ENDBRANCH   5   6
ENDBRANCH   4   5
ENDBRANCH   3   4
ENDBRANCH   2   3
ENDBRANCH   1   2
BRANCH   1  15
ATOM     15  C   UNL     1     -14.001   8.213  30.132  1.00  0.00     0.000 C 
BRANCH  15  16
ATOM     16  C   UNL     1     -14.337   7.430  28.849  1.00  0.00     0.000 C 
BRANCH  16  17
ATOM     17  C   UNL     1     -14.530   5.920  29.111  1.00  0.00     0.000 C 
BRANCH  17  18
ATOM     18  C   UNL     1     -13.661   5.037  28.195  1.00  0.00    -0.000 C 
BRANCH  18  19
ATOM     19  C   UNL     1     -13.771   3.533  28.512  1.00  0.00    -0.000 C 
BRANCH  19  20
ATOM     20  C   UNL     1     -15.172   3.132  29.006  1.00  0.00    -0.000 C 
BRANCH  20  21
ATOM     21  C   UNL     1     -15.127   2.190  30.218  1.00  0.00    -0.000 C 
BRANCH  21  22
ATOM     22  C   UNL     1     -15.743   2.814  31.481  1.00  0.00    -0.000 C 
BRANCH  22  23
ATOM     23  C   UNL     1     -16.788   3.898  31.162  1.00  0.00    -0.000 C 
BRANCH  23  24
ATOM     24  C   UNL     1     -18.209   3.624  31.700  1.00  0.00    -0.000 C 
BRANCH  24  25
ATOM     25  C   UNL     1     -18.312   2.457  32.698  1.00  0.00    -0.003 C 
ATOM     26  C   UNL     1     -19.602   1.654  32.543  1.00  0.00     0.004 C 
ENDBRANCH  24  25
ENDBRANCH  23  24
ENDBRANCH  22  23
ENDBRANCH  21  22
ENDBRANCH  20  21
ENDBRANCH  19  20
ENDBRANCH  18  19
ENDBRANCH  17  18
ENDBRANCH  16  17
ENDBRANCH  15  16
ENDBRANCH   1  15
TORSDOF 22
ENDMDL
MODEL 8
REMARK VINA RESULT:    -4.507     12.449     15.158
REMARK INTER + INTRA:         -14.457
REMARK INTER:                 -12.204
REMARK INTRA:                  -2.253
REMARK UNBOUND:                -4.155
REMARK SMILES CCCCCCCCCCCCCCCCCCCCCCCC(=O)[O-]
REMARK SMILES IDX 13 1 14 2 15 3 16 4 17 5 18 6 19 7 20 8 21 9 22 10 23 11
REMARK SMILES IDX 24 12 25 13 26 14 12 15 11 16 10 17 9 18 8 19 7 20 6 21 5 22
REMARK SMILES IDX 4 23 3 24 2 25 1 26
REMARK H PARENT
REMARK Flexibility Score: inf
ROOT
ATOM      1  C   UNL     1     -18.977   3.818  31.869  1.00  0.00     0.000 C 
ENDROOT
BRANCH   1   2
ATOM      2  C   UNL     1     -18.165   2.744  32.617  1.00  0.00     0.000 C 
BRANCH   2   3
ATOM      3  C   UNL     1     -18.902   1.393  32.755  1.00  0.00     0.000 C 
BRANCH   3   4
ATOM      4  C   UNL     1     -19.230   0.724  31.405  1.00  0.00     0.000 C 
BRANCH   4   5
ATOM      5  C   UNL     1     -18.277  -0.415  31.000  1.00  0.00     0.000 C 
BRANCH   5   6
ATOM      6  C   UNL     1     -17.102   0.062  30.132  1.00  0.00     0.000 C 
BRANCH   6   7
ATOM      7  C   UNL     1     -17.009  -0.748  28.829  1.00  0.00     0.000 C 
BRANCH   7   8
ATOM      8  C   UNL     1     -16.379   0.064  27.686  1.00  0.00     0.000 C 
BRANCH   8   9
ATOM      9  C   UNL     1     -15.906   1.451  28.148  1.00  0.00     0.000 C 
BRANCH   9  10
ATOM     10  C   UNL     1     -14.484   1.741  27.655  1.00  0.00     0.006 C 
BRANCH  10  11
ATOM     11  C   UNL     1     -13.508   1.857  28.829  1.00  0.00     0.053 C 
BRANCH  11  12
ATOM     12  C   UNL     1     -13.331   0.532  29.500  1.00  0.00     0.041 C 
ATOM     13  O   UNL     1     -13.019  -0.483  28.824  1.00  0.00    -0.550 OA
ATOM     14  O   UNL     1     -13.560   0.407  30.864  1.00  0.00    -0.550 OA
ENDBRANCH  11  12
ENDBRANCH  10  11
ENDBRANCH   9  10
ENDBRANCH   8   9
ENDBRANCH   7   8
ENDBRANCH   6   7
ENDBRANCH   5   6
ENDBRANCH   4   5
ENDBRANCH   3   4
ENDBRANCH   2   3
ENDBRANCH   1   2
BRANCH   1  15
ATOM     15  C   UNL     1     -18.137   4.765  30.986  1.00  0.00     0.000 C 
BRANCH  15  16
ATOM     16  C   UNL     1     -16.931   4.082  30.316  1.00  0.00     0.000 C 
BRANCH  16  17
ATOM     17  C   UNL     1     -15.587   4.484  30.964  1.00  0.00     0.000 C 
BRANCH  17  18
ATOM     18  C   UNL     1     -15.070   5.849  30.474  1.00  0.00    -0.000 C 
BRANCH  18  19
ATOM     19  C   UNL     1     -15.297   6.989  31.487  1.00  0.00    -0.000 C 
BRANCH  19  20
ATOM     20  C   UNL     1     -14.131   7.993  31.519  1.00  0.00    -0.000 C 
BRANCH  20  21
ATOM     21  C   UNL     1     -14.334   9.107  32.557  1.00  0.00    -0.000 C 
BRANCH  21  22
ATOM     22  C   UNL     1     -15.183  10.271  32.022  1.00  0.00    -0.000 C 
BRANCH  22  23
ATOM     23  C   UNL     1     -14.852  10.629  30.562  1.00  0.00    -0.000 C 
BRANCH  23  24
ATOM     24  C   UNL     1     -16.033  10.530  29.574  1.00  0.00    -0.000 C 
BRANCH  24  25
ATOM     25  C   UNL     1     -16.140  11.691  28.570  1.00  0.00    -0.003 C 
ATOM     26  C   UNL     1     -17.583  12.017  28.188  1.00  0.00     0.004 C 
ENDBRANCH  24  25
ENDBRANCH  23  24
ENDBRANCH  22  23
ENDBRANCH  21  22
ENDBRANCH  20  21
ENDBRANCH  19  20
ENDBRANCH  18  19
ENDBRANCH  17  18
ENDBRANCH  16  17
ENDBRANCH  15  16
ENDBRANCH   1  15
TORSDOF 22
ENDMDL
MODEL 9
REMARK VINA RESULT:    -4.406      3.263      5.517
REMARK INTER + INTRA:         -14.228
REMARK INTER:                 -10.280
REMARK INTRA:                  -3.948
REMARK UNBOUND:                -4.155
REMARK SMILES CCCCCCCCCCCCCCCCCCCCCCCC(=O)[O-]
REMARK SMILES IDX 13 1 14 2 15 3 16 4 17 5 18 6 19 7 20 8 21 9 22 10 23 11
REMARK SMILES IDX 24 12 25 13 26 14 12 15 11 16 10 17 9 18 8 19 7 20 6 21 5 22
REMARK SMILES IDX 4 23 3 24 2 25 1 26
REMARK H PARENT
REMARK Flexibility Score: inf
ROOT
ATOM      1  C   UNL     1     -16.038  -6.314  19.422  1.00  0.00     0.000 C 
ENDROOT
BRANCH   1   2
ATOM      2  C   UNL     1     -15.094  -5.985  20.594  1.00  0.00     0.000 C 
BRANCH   2   3
ATOM      3  C   UNL     1     -15.772  -6.063  21.979  1.00  0.00     0.000 C 
BRANCH   3   4
ATOM      4  C   UNL     1     -17.284  -5.764  21.948  1.00  0.00     0.000 C 
BRANCH   4   5
ATOM      5  C   UNL     1     -17.689  -4.414  22.567  1.00  0.00     0.000 C 
BRANCH   5   6
ATOM      6  C   UNL     1     -16.565  -3.368  22.518  1.00  0.00     0.000 C 
BRANCH   6   7
ATOM      7  C   UNL     1     -17.013  -2.041  23.151  1.00  0.00     0.000 C 
BRANCH   7   8
ATOM      8  C   UNL     1     -16.792  -0.846  22.210  1.00  0.00     0.000 C 
BRANCH   8   9
ATOM      9  C   UNL     1     -15.346  -0.770  21.695  1.00  0.00     0.000 C 
BRANCH   9  10
ATOM     10  C   UNL     1     -14.449  -0.017  22.684  1.00  0.00     0.006 C 
BRANCH  10  11
ATOM     11  C   UNL     1     -15.060   1.335  23.060  1.00  0.00     0.053 C 
BRANCH  11  12
ATOM     12  C   UNL     1     -14.668   2.384  22.069  1.00  0.00     0.041 C 
ATOM     13  O   UNL     1     -15.436   3.356  21.840  1.00  0.00    -0.550 OA
ATOM     14  O   UNL     1     -13.479   2.264  21.362  1.00  0.00    -0.550 OA
ENDBRANCH  11  12
ENDBRANCH  10  11
ENDBRANCH   9  10
ENDBRANCH   8   9
ENDBRANCH   7   8
ENDBRANCH   6   7
ENDBRANCH   5   6
ENDBRANCH   4   5
ENDBRANCH   3   4
ENDBRANCH   2   3
ENDBRANCH   1   2
BRANCH   1  15
ATOM     15  C   UNL     1     -15.330  -6.763  18.127  1.00  0.00     0.000 C 
BRANCH  15  16
ATOM     16  C   UNL     1     -15.870  -6.081  16.857  1.00  0.00     0.000 C 
BRANCH  16  17
ATOM     17  C   UNL     1     -14.779  -5.296  16.096  1.00  0.00     0.000 C 
BRANCH  17  18
ATOM     18  C   UNL     1     -14.904  -3.771  16.272  1.00  0.00    -0.000 C 
BRANCH  18  19
ATOM     19  C   UNL     1     -14.083  -3.222  17.454  1.00  0.00    -0.000 C 
BRANCH  19  20
ATOM     20  C   UNL     1     -14.938  -2.414  18.445  1.00  0.00    -0.000 C 
BRANCH  20  21
ATOM     21  C   UNL     1     -16.022  -1.575  17.751  1.00  0.00    -0.000 C 
BRANCH  21  22
ATOM     22  C   UNL     1     -17.408  -1.743  18.393  1.00  0.00    -0.000 C 
BRANCH  22  23
ATOM     23  C   UNL     1     -17.597  -3.120  19.053  1.00  0.00    -0.000 C 
BRANCH  23  24
ATOM     24  C   UNL     1     -19.049  -3.473  19.441  1.00  0.00    -0.000 C 
BRANCH  24  25
ATOM     25  C   UNL     1     -19.564  -4.811  18.884  1.00  0.00    -0.003 C 
ATOM     26  C   UNL     1     -19.237  -5.005  17.405  1.00  0.00     0.004 C 
ENDBRANCH  24  25
ENDBRANCH  23  24
ENDBRANCH  22  23
ENDBRANCH  21  22
ENDBRANCH  20  21
ENDBRANCH  19  20
ENDBRANCH  18  19
ENDBRANCH  17  18
ENDBRANCH  16  17
ENDBRANCH  15  16
ENDBRANCH   1  15
TORSDOF 22
ENDMDL
