MODEL 1
REMARK VINA RESULT:    -3.914      0.000      0.000
REMARK INTER + INTRA:          -8.773
REMARK INTER:                  -7.576
REMARK INTRA:                  -1.198
REMARK UNBOUND:                -1.198
REMARK SMILES CCCCCCCCCCCCCCCCCC(=O)[O-]
REMARK SMILES IDX 10 1 11 2 12 3 13 4 14 5 15 6 16 7 17 8 18 9 19 10 20 11
REMARK SMILES IDX 9 12 8 13 7 14 6 15 5 16 4 17 3 18 2 19 1 20
REMARK H PARENT
REMARK Flexibility Score: inf
ROOT
ATOM      1  C   UNL     1      13.234   3.268  -2.814  1.00  0.00     0.000 C 
ENDROOT
BRANCH   1   2
ATOM      2  C   UNL     1      14.739   3.062  -3.093  1.00  0.00     0.000 C 
BRANCH   2   3
ATOM      3  C   UNL     1      15.531   2.711  -1.820  1.00  0.00     0.000 C 
BRANCH   3   4
ATOM      4  C   UNL     1      15.819   1.199  -1.709  1.00  0.00     0.000 C 
BRANCH   4   5
ATOM      5  C   UNL     1      16.726   0.658  -2.828  1.00  0.00     0.000 C 
BRANCH   5   6
ATOM      6  C   UNL     1      18.024   1.467  -2.986  1.00  0.00     0.000 C 
BRANCH   6   7
ATOM      7  C   UNL     1      19.283   0.624  -2.725  1.00  0.00     0.006 C 
BRANCH   7   8
ATOM      8  C   UNL     1      20.570   1.461  -2.718  1.00  0.00     0.053 C 
BRANCH   8   9
ATOM      9  C   UNL     1      21.651   0.755  -1.960  1.00  0.00     0.041 C 
ATOM     10  O   UNL     1      21.537   0.565  -0.719  1.00  0.00    -0.550 OA
ATOM     11  O   UNL     1      22.778   0.292  -2.628  1.00  0.00    -0.550 OA
ENDBRANCH   8   9
ENDBRANCH   7   8
ENDBRANCH   6   7
ENDBRANCH   5   6
ENDBRANCH   4   5
ENDBRANCH   3   4
ENDBRANCH   2   3
ENDBRANCH   1   2
BRANCH   1  12
ATOM     12  C   UNL     1      12.873   4.700  -2.379  1.00  0.00     0.000 C 
BRANCH  12  13
ATOM     13  C   UNL     1      12.507   4.855  -0.890  1.00  0.00    -0.000 C 
BRANCH  13  14
ATOM     14  C   UNL     1      11.019   5.135  -0.610  1.00  0.00    -0.000 C 
BRANCH  14  15
ATOM     15  C   UNL     1      10.719   6.632  -0.410  1.00  0.00    -0.000 C 
BRANCH  15  16
ATOM     16  C   UNL     1       9.791   7.195  -1.499  1.00  0.00    -0.000 C 
BRANCH  16  17
ATOM     17  C   UNL     1      10.558   7.996  -2.565  1.00  0.00    -0.000 C 
BRANCH  17  18
ATOM     18  C   UNL     1      11.825   8.673  -2.011  1.00  0.00    -0.000 C 
BRANCH  18  19
ATOM     19  C   UNL     1      13.128   8.321  -2.752  1.00  0.00    -0.003 C 
ATOM     20  C   UNL     1      14.280   9.267  -2.422  1.00  0.00     0.004 C 
ENDBRANCH  18  19
ENDBRANCH  17  18
ENDBRANCH  16  17
ENDBRANCH  15  16
ENDBRANCH  14  15
ENDBRANCH  13  14
ENDBRANCH  12  13
ENDBRANCH   1  12
TORSDOF 16
ENDMDL
MODEL 2
REMARK VINA RESULT:    -3.658      3.909      6.874
REMARK INTER + INTRA:          -8.277
REMARK INTER:                  -7.001
REMARK INTRA:                  -1.275
REMARK UNBOUND:                -1.198
REMARK SMILES CCCCCCCCCCCCCCCCCC(=O)[O-]
REMARK SMILES IDX 10 1 11 2 12 3 13 4 14 5 15 6 16 7 17 8 18 9 19 10 20 11
REMARK SMILES IDX 9 12 8 13 7 14 6 15 5 16 4 17 3 18 2 19 1 20
REMARK H PARENT
REMARK Flexibility Score: inf
ROOT
ATOM      1  C   UNL     1      12.322   9.567  -2.456  1.00  0.00     0.000 C 
ENDROOT
BRANCH   1   2
ATOM      2  C   UNL     1      11.206   8.726  -1.798  1.00  0.00     0.000 C 
BRANCH   2   3
ATOM      3  C   UNL     1      11.484   7.214  -1.880  1.00  0.00     0.000 C 
BRANCH   3   4
ATOM      4  C   UNL     1      10.895   6.446  -0.676  1.00  0.00     0.000 C 
BRANCH   4   5
ATOM      5  C   UNL     1      11.507   5.049  -0.475  1.00  0.00     0.000 C 
BRANCH   5   6
ATOM      6  C   UNL     1      12.844   4.872  -1.214  1.00  0.00     0.000 C 
BRANCH   6   7
ATOM      7  C   UNL     1      12.804   3.735  -2.248  1.00  0.00     0.006 C 
BRANCH   7   8
ATOM      8  C   UNL     1      14.164   3.485  -2.912  1.00  0.00     0.053 C 
BRANCH   8   9
ATOM      9  C   UNL     1      15.001   2.573  -2.069  1.00  0.00     0.041 C 
ATOM     10  O   UNL     1      14.968   1.326  -2.256  1.00  0.00    -0.550 OA
ATOM     11  O   UNL     1      15.830   3.102  -1.088  1.00  0.00    -0.550 OA
ENDBRANCH   8   9
ENDBRANCH   7   8
ENDBRANCH   6   7
ENDBRANCH   5   6
ENDBRANCH   4   5
ENDBRANCH   3   4
ENDBRANCH   2   3
ENDBRANCH   1   2
BRANCH   1  12
ATOM     12  C   UNL     1      12.253  11.067  -2.113  1.00  0.00     0.000 C 
BRANCH  12  13
ATOM     13  C   UNL     1      11.384  11.416  -0.890  1.00  0.00    -0.000 C 
BRANCH  13  14
ATOM     14  C   UNL     1      11.065  12.914  -0.721  1.00  0.00    -0.000 C 
BRANCH  14  15
ATOM     15  C   UNL     1      10.965  13.658  -2.065  1.00  0.00    -0.000 C 
BRANCH  15  16
ATOM     16  C   UNL     1      12.019  14.770  -2.199  1.00  0.00    -0.000 C 
BRANCH  16  17
ATOM     17  C   UNL     1      12.885  14.911  -0.935  1.00  0.00    -0.000 C 
BRANCH  17  18
ATOM     18  C   UNL     1      14.371  15.162  -1.250  1.00  0.00    -0.000 C 
BRANCH  18  19
ATOM     19  C   UNL     1      14.841  14.648  -2.623  1.00  0.00    -0.003 C 
ATOM     20  C   UNL     1      15.377  13.219  -2.576  1.00  0.00     0.004 C 
ENDBRANCH  18  19
ENDBRANCH  17  18
ENDBRANCH  16  17
ENDBRANCH  15  16
ENDBRANCH  14  15
ENDBRANCH  13  14
ENDBRANCH  12  13
ENDBRANCH   1  12
TORSDOF 16
ENDMDL
MODEL 3
REMARK VINA RESULT:    -3.556      3.387      5.839
REMARK INTER + INTRA:          -8.080
REMARK INTER:                  -7.160
REMARK INTRA:                  -0.920
REMARK UNBOUND:                -1.198
REMARK SMILES CCCCCCCCCCCCCCCCCC(=O)[O-]
REMARK SMILES IDX 10 1 11 2 12 3 13 4 14 5 15 6 16 7 17 8 18 9 19 10 20 11
REMARK SMILES IDX 9 12 8 13 7 14 6 15 5 16 4 17 3 18 2 19 1 20
REMARK H PARENT
REMARK Flexibility Score: inf
ROOT
ATOM      1  C   UNL     1      10.427   7.535  -1.287  1.00  0.00     0.000 C 
ENDROOT
BRANCH   1   2
ATOM      2  C   UNL     1       9.838   6.283  -1.971  1.00  0.00     0.000 C 
BRANCH   2   3
ATOM      3  C   UNL     1      10.398   4.974  -1.386  1.00  0.00     0.000 C 
BRANCH   3   4
ATOM      4  C   UNL     1      11.586   5.221  -0.431  1.00  0.00     0.000 C 
BRANCH   4   5
ATOM      5  C   UNL     1      12.900   4.571  -0.898  1.00  0.00     0.000 C 
BRANCH   5   6
ATOM      6  C   UNL     1      12.804   3.985  -2.316  1.00  0.00     0.000 C 
BRANCH   6   7
ATOM      7  C   UNL     1      14.112   3.315  -2.769  1.00  0.00     0.006 C 
BRANCH   7   8
ATOM      8  C   UNL     1      15.073   3.036  -1.606  1.00  0.00     0.053 C 
BRANCH   8   9
ATOM      9  C   UNL     1      15.955   1.867  -1.921  1.00  0.00     0.041 C 
ATOM     10  O   UNL     1      15.459   0.803  -2.382  1.00  0.00    -0.550 OA
ATOM     11  O   UNL     1      17.327   1.959  -1.724  1.00  0.00    -0.550 OA
ENDBRANCH   8   9
ENDBRANCH   7   8
ENDBRANCH   6   7
ENDBRANCH   5   6
ENDBRANCH   4   5
ENDBRANCH   3   4
ENDBRANCH   2   3
ENDBRANCH   1   2
BRANCH   1  12
ATOM     12  C   UNL     1      10.940   8.599  -2.275  1.00  0.00     0.000 C 
BRANCH  12  13
ATOM     13  C   UNL     1      11.602   9.828  -1.623  1.00  0.00    -0.000 C 
BRANCH  13  14
ATOM     14  C   UNL     1      10.709  11.081  -1.534  1.00  0.00    -0.000 C 
BRANCH  14  15
ATOM     15  C   UNL     1      11.338  12.205  -0.693  1.00  0.00    -0.000 C 
BRANCH  15  16
ATOM     16  C   UNL     1      11.635  13.464  -1.525  1.00  0.00    -0.000 C 
BRANCH  16  17
ATOM     17  C   UNL     1      12.397  14.532  -0.719  1.00  0.00    -0.000 C 
BRANCH  17  18
ATOM     18  C   UNL     1      13.505  15.222  -1.536  1.00  0.00    -0.000 C 
BRANCH  18  19
ATOM     19  C   UNL     1      14.038  14.407  -2.729  1.00  0.00    -0.003 C 
ATOM     20  C   UNL     1      15.238  13.534  -2.371  1.00  0.00     0.004 C 
ENDBRANCH  18  19
ENDBRANCH  17  18
ENDBRANCH  16  17
ENDBRANCH  15  16
ENDBRANCH  14  15
ENDBRANCH  13  14
ENDBRANCH  12  13
ENDBRANCH   1  12
TORSDOF 16
ENDMDL
MODEL 4
REMARK VINA RESULT:    -3.495      5.538      9.511
REMARK INTER + INTRA:          -7.962
REMARK INTER:                  -6.413
REMARK INTRA:                  -1.549
REMARK UNBOUND:                -1.198
REMARK SMILES CCCCCCCCCCCCCCCCCC(=O)[O-]
REMARK SMILES IDX 10 1 11 2 12 3 13 4 14 5 15 6 16 7 17 8 18 9 19 10 20 11
REMARK SMILES IDX 9 12 8 13 7 14 6 15 5 16 4 17 3 18 2 19 1 20
REMARK H PARENT
REMARK Flexibility Score: inf
ROOT
ATOM      1  C   UNL     1       9.310   6.949  -1.172  1.00  0.00     0.000 C 
ENDROOT
BRANCH   1   2
ATOM      2  C   UNL     1       8.798   8.248  -1.833  1.00  0.00     0.000 C 
BRANCH   2   3
ATOM      3  C   UNL     1       9.942   9.123  -2.376  1.00  0.00     0.000 C 
BRANCH   3   4
ATOM      4  C   UNL     1      11.311   8.730  -1.781  1.00  0.00     0.000 C 
BRANCH   4   5
ATOM      5  C   UNL     1      12.504   9.088  -2.684  1.00  0.00     0.000 C 
BRANCH   5   6
ATOM      6  C   UNL     1      13.449  10.118  -2.043  1.00  0.00     0.000 C 
BRANCH   6   7
ATOM      7  C   UNL     1      13.429  11.472  -2.770  1.00  0.00     0.006 C 
BRANCH   7   8
ATOM      8  C   UNL     1      12.036  12.116  -2.794  1.00  0.00     0.053 C 
BRANCH   8   9
ATOM      9  C   UNL     1      11.714  12.722  -1.464  1.00  0.00     0.041 C 
ATOM     10  O   UNL     1      12.248  13.810  -1.115  1.00  0.00    -0.550 OA
ATOM     11  O   UNL     1      10.811  12.094  -0.615  1.00  0.00    -0.550 OA
ENDBRANCH   8   9
ENDBRANCH   7   8
ENDBRANCH   6   7
ENDBRANCH   5   6
ENDBRANCH   4   5
ENDBRANCH   3   4
ENDBRANCH   2   3
ENDBRANCH   1   2
BRANCH   1  12
ATOM     12  C   UNL     1       9.278   5.724  -2.104  1.00  0.00     0.000 C 
BRANCH  12  13
ATOM     13  C   UNL     1      10.474   4.765  -1.959  1.00  0.00    -0.000 C 
BRANCH  13  14
ATOM     14  C   UNL     1      11.436   5.091  -0.801  1.00  0.00    -0.000 C 
BRANCH  14  15
ATOM     15  C   UNL     1      12.897   4.719  -1.114  1.00  0.00    -0.000 C 
BRANCH  15  16
ATOM     16  C   UNL     1      13.077   4.211  -2.554  1.00  0.00    -0.000 C 
BRANCH  16  17
ATOM     17  C   UNL     1      14.227   3.196  -2.677  1.00  0.00    -0.000 C 
BRANCH  17  18
ATOM     18  C   UNL     1      15.127   3.155  -1.428  1.00  0.00    -0.000 C 
BRANCH  18  19
ATOM     19  C   UNL     1      16.286   2.144  -1.494  1.00  0.00    -0.003 C 
ATOM     20  C   UNL     1      15.982   0.940  -2.381  1.00  0.00     0.004 C 
ENDBRANCH  18  19
ENDBRANCH  17  18
ENDBRANCH  16  17
ENDBRANCH  15  16
ENDBRANCH  14  15
ENDBRANCH  13  14
ENDBRANCH  12  13
ENDBRANCH   1  12
TORSDOF 16
ENDMDL
MODEL 5
REMARK VINA RESULT:    -3.489      7.153     11.566
REMARK INTER + INTRA:          -7.950
REMARK INTER:                  -7.288
REMARK INTRA:                  -0.662
REMARK UNBOUND:                -1.198
REMARK SMILES CCCCCCCCCCCCCCCCCC(=O)[O-]
REMARK SMILES IDX 10 1 11 2 12 3 13 4 14 5 15 6 16 7 17 8 18 9 19 10 20 11
REMARK SMILES IDX 9 12 8 13 7 14 6 15 5 16 4 17 3 18 2 19 1 20
REMARK H PARENT
REMARK Flexibility Score: inf
ROOT
ATOM      1  C   UNL     1      11.466   8.339  -2.108  1.00  0.00     0.000 C 
ENDROOT
BRANCH   1   2
ATOM      2  C   UNL     1      10.973   9.784  -2.343  1.00  0.00     0.000 C 
BRANCH   2   3
ATOM      3  C   UNL     1      11.826  10.826  -1.597  1.00  0.00     0.000 C 
BRANCH   3   4
ATOM      4  C   UNL     1      10.964  11.801  -0.767  1.00  0.00     0.000 C 
BRANCH   4   5
ATOM      5  C   UNL     1      10.988  13.248  -1.292  1.00  0.00     0.000 C 
BRANCH   5   6
ATOM      6  C   UNL     1      12.263  14.007  -0.889  1.00  0.00     0.000 C 
BRANCH   6   7
ATOM      7  C   UNL     1      12.055  15.529  -0.841  1.00  0.00     0.006 C 
BRANCH   7   8
ATOM      8  C   UNL     1      13.157  16.257  -0.058  1.00  0.00     0.053 C 
BRANCH   8   9
ATOM      9  C   UNL     1      12.558  17.233   0.907  1.00  0.00     0.041 C 
ATOM     10  O   UNL     1      13.017  17.331   2.078  1.00  0.00    -0.550 OA
ATOM     11  O   UNL     1      11.505  18.046   0.509  1.00  0.00    -0.550 OA
ENDBRANCH   8   9
ENDBRANCH   7   8
ENDBRANCH   6   7
ENDBRANCH   5   6
ENDBRANCH   4   5
ENDBRANCH   3   4
ENDBRANCH   2   3
ENDBRANCH   1   2
BRANCH   1  12
ATOM     12  C   UNL     1      10.414   7.424  -1.455  1.00  0.00     0.000 C 
BRANCH  12  13
ATOM     13  C   UNL     1      10.969   6.436  -0.411  1.00  0.00    -0.000 C 
BRANCH  13  14
ATOM     14  C   UNL     1      11.195   5.001  -0.926  1.00  0.00    -0.000 C 
BRANCH  14  15
ATOM     15  C   UNL     1      12.675   4.700  -1.225  1.00  0.00    -0.000 C 
BRANCH  15  16
ATOM     16  C   UNL     1      12.890   4.181  -2.656  1.00  0.00    -0.000 C 
BRANCH  16  17
ATOM     17  C   UNL     1      13.963   3.079  -2.724  1.00  0.00    -0.000 C 
BRANCH  17  18
ATOM     18  C   UNL     1      14.886   3.065  -1.491  1.00  0.00    -0.000 C 
BRANCH  18  19
ATOM     19  C   UNL     1      15.899   1.906  -1.451  1.00  0.00    -0.003 C 
ATOM     20  C   UNL     1      15.803   0.983  -2.662  1.00  0.00     0.004 C 
ENDBRANCH  18  19
ENDBRANCH  17  18
ENDBRANCH  16  17
ENDBRANCH  15  16
ENDBRANCH  14  15
ENDBRANCH  13  14
ENDBRANCH  12  13
ENDBRANCH   1  12
TORSDOF 16
ENDMDL
MODEL 6
REMARK VINA RESULT:    -3.466      2.504      3.767
REMARK INTER + INTRA:          -7.905
REMARK INTER:                  -7.135
REMARK INTRA:                  -0.770
REMARK UNBOUND:                -1.198
REMARK SMILES CCCCCCCCCCCCCCCCCC(=O)[O-]
REMARK SMILES IDX 10 1 11 2 12 3 13 4 14 5 15 6 16 7 17 8 18 9 19 10 20 11
REMARK SMILES IDX 9 12 8 13 7 14 6 15 5 16 4 17 3 18 2 19 1 20
REMARK H PARENT
REMARK Flexibility Score: inf
ROOT
ATOM      1  C   UNL     1      11.050   5.371  -0.487  1.00  0.00     0.000 C 
ENDROOT
BRANCH   1   2
ATOM      2  C   UNL     1      11.827   4.682  -1.631  1.00  0.00     0.000 C 
BRANCH   2   3
ATOM      3  C   UNL     1      13.300   4.421  -1.268  1.00  0.00     0.000 C 
BRANCH   3   4
ATOM      4  C   UNL     1      13.996   3.489  -2.283  1.00  0.00     0.000 C 
BRANCH   4   5
ATOM      5  C   UNL     1      15.093   2.608  -1.661  1.00  0.00     0.000 C 
BRANCH   5   6
ATOM      6  C   UNL     1      15.219   1.239  -2.350  1.00  0.00     0.000 C 
BRANCH   6   7
ATOM      7  C   UNL     1      16.681   0.797  -2.529  1.00  0.00     0.006 C 
BRANCH   7   8
ATOM      8  C   UNL     1      17.657   1.980  -2.593  1.00  0.00     0.053 C 
BRANCH   8   9
ATOM      9  C   UNL     1      19.067   1.491  -2.714  1.00  0.00     0.041 C 
ATOM     10  O   UNL     1      20.028   2.306  -2.674  1.00  0.00    -0.550 OA
ATOM     11  O   UNL     1      19.321   0.132  -2.853  1.00  0.00    -0.550 OA
ENDBRANCH   8   9
ENDBRANCH   7   8
ENDBRANCH   6   7
ENDBRANCH   5   6
ENDBRANCH   4   5
ENDBRANCH   3   4
ENDBRANCH   2   3
ENDBRANCH   1   2
BRANCH   1  12
ATOM     12  C   UNL     1      10.490   6.755  -0.864  1.00  0.00     0.000 C 
BRANCH  12  13
ATOM     13  C   UNL     1      11.228   7.465  -2.015  1.00  0.00    -0.000 C 
BRANCH  13  14
ATOM     14  C   UNL     1      10.789   8.919  -2.273  1.00  0.00    -0.000 C 
BRANCH  14  15
ATOM     15  C   UNL     1      11.977   9.867  -2.517  1.00  0.00    -0.000 C 
BRANCH  15  16
ATOM     16  C   UNL     1      12.192  10.849  -1.353  1.00  0.00    -0.000 C 
BRANCH  16  17
ATOM     17  C   UNL     1      10.893  11.566  -0.946  1.00  0.00    -0.000 C 
BRANCH  17  18
ATOM     18  C   UNL     1      10.900  13.066  -1.295  1.00  0.00    -0.000 C 
BRANCH  18  19
ATOM     19  C   UNL     1      12.287  13.651  -1.622  1.00  0.00    -0.003 C 
ATOM     20  C   UNL     1      12.627  14.887  -0.793  1.00  0.00     0.004 C 
ENDBRANCH  18  19
ENDBRANCH  17  18
ENDBRANCH  16  17
ENDBRANCH  15  16
ENDBRANCH  14  15
ENDBRANCH  13  14
ENDBRANCH  12  13
ENDBRANCH   1  12
TORSDOF 16
ENDMDL
MODEL 7
REMARK VINA RESULT:    -3.458      7.288     11.665
REMARK INTER + INTRA:          -7.891
REMARK INTER:                  -6.845
REMARK INTRA:                  -1.045
REMARK UNBOUND:                -1.198
REMARK SMILES CCCCCCCCCCCCCCCCCC(=O)[O-]
REMARK SMILES IDX 10 1 11 2 12 3 13 4 14 5 15 6 16 7 17 8 18 9 19 10 20 11
REMARK SMILES IDX 9 12 8 13 7 14 6 15 5 16 4 17 3 18 2 19 1 20
REMARK H PARENT
REMARK Flexibility Score: inf
ROOT
ATOM      1  C   UNL     1      12.485  10.858  -2.260  1.00  0.00     0.000 C 
ENDROOT
BRANCH   1   2
ATOM      2  C   UNL     1      11.663  11.284  -1.023  1.00  0.00     0.000 C 
BRANCH   2   3
ATOM      3  C   UNL     1      10.894  12.598  -1.252  1.00  0.00     0.000 C 
BRANCH   3   4
ATOM      4  C   UNL     1      11.722  13.837  -0.849  1.00  0.00     0.000 C 
BRANCH   4   5
ATOM      5  C   UNL     1      12.118  14.730  -2.038  1.00  0.00     0.000 C 
BRANCH   5   6
ATOM      6  C   UNL     1      13.563  15.246  -1.941  1.00  0.00     0.000 C 
BRANCH   6   7
ATOM      7  C   UNL     1      14.015  15.472  -0.489  1.00  0.00     0.006 C 
BRANCH   7   8
ATOM      8  C   UNL     1      14.039  16.955  -0.096  1.00  0.00     0.053 C 
BRANCH   8   9
ATOM      9  C   UNL     1      12.932  17.262   0.865  1.00  0.00     0.041 C 
ATOM     10  O   UNL     1      13.193  17.546   2.066  1.00  0.00    -0.550 OA
ATOM     11  O   UNL     1      11.613  17.251   0.431  1.00  0.00    -0.550 OA
ENDBRANCH   8   9
ENDBRANCH   7   8
ENDBRANCH   6   7
ENDBRANCH   5   6
ENDBRANCH   4   5
ENDBRANCH   3   4
ENDBRANCH   2   3
ENDBRANCH   1   2
BRANCH   1  12
ATOM     12  C   UNL     1      12.370   9.360  -2.595  1.00  0.00     0.000 C 
BRANCH  12  13
ATOM     13  C   UNL     1      11.208   8.624  -1.900  1.00  0.00    -0.000 C 
BRANCH  13  14
ATOM     14  C   UNL     1      11.301   7.086  -1.924  1.00  0.00    -0.000 C 
BRANCH  14  15
ATOM     15  C   UNL     1      11.022   6.449  -0.551  1.00  0.00    -0.000 C 
BRANCH  15  16
ATOM     16  C   UNL     1      11.652   5.053  -0.413  1.00  0.00    -0.000 C 
BRANCH  16  17
ATOM     17  C   UNL     1      12.960   4.920  -1.214  1.00  0.00    -0.000 C 
BRANCH  17  18
ATOM     18  C   UNL     1      12.957   3.714  -2.171  1.00  0.00    -0.000 C 
BRANCH  18  19
ATOM     19  C   UNL     1      14.349   3.152  -2.514  1.00  0.00    -0.003 C 
ATOM     20  C   UNL     1      15.229   2.938  -1.286  1.00  0.00     0.004 C 
ENDBRANCH  18  19
ENDBRANCH  17  18
ENDBRANCH  16  17
ENDBRANCH  15  16
ENDBRANCH  14  15
ENDBRANCH  13  14
ENDBRANCH  12  13
ENDBRANCH   1  12
TORSDOF 16
ENDMDL
MODEL 8
REMARK VINA RESULT:    -3.457      2.826      5.255
REMARK INTER + INTRA:          -7.888
REMARK INTER:                  -6.407
REMARK INTRA:                  -1.481
REMARK UNBOUND:                -1.198
REMARK SMILES CCCCCCCCCCCCCCCCCC(=O)[O-]
REMARK SMILES IDX 10 1 11 2 12 3 13 4 14 5 15 6 16 7 17 8 18 9 19 10 20 11
REMARK SMILES IDX 9 12 8 13 7 14 6 15 5 16 4 17 3 18 2 19 1 20
REMARK H PARENT
REMARK Flexibility Score: inf
ROOT
ATOM      1  C   UNL     1       9.041   7.465  -0.924  1.00  0.00     0.000 C 
ENDROOT
BRANCH   1   2
ATOM      2  C   UNL     1      10.238   6.633  -1.433  1.00  0.00     0.000 C 
BRANCH   2   3
ATOM      3  C   UNL     1      10.989   5.922  -0.292  1.00  0.00     0.000 C 
BRANCH   3   4
ATOM      4  C   UNL     1      12.167   5.069  -0.810  1.00  0.00     0.000 C 
BRANCH   4   5
ATOM      5  C   UNL     1      12.548   5.363  -2.271  1.00  0.00     0.000 C 
BRANCH   5   6
ATOM      6  C   UNL     1      13.159   4.146  -2.984  1.00  0.00     0.000 C 
BRANCH   6   7
ATOM      7  C   UNL     1      14.074   3.319  -2.066  1.00  0.00     0.006 C 
BRANCH   7   8
ATOM      8  C   UNL     1      14.514   1.992  -2.700  1.00  0.00     0.053 C 
BRANCH   8   9
ATOM      9  C   UNL     1      15.854   1.578  -2.177  1.00  0.00     0.041 C 
ATOM     10  O   UNL     1      16.333   0.451  -2.477  1.00  0.00    -0.550 OA
ATOM     11  O   UNL     1      16.582   2.443  -1.370  1.00  0.00    -0.550 OA
ENDBRANCH   8   9
ENDBRANCH   7   8
ENDBRANCH   6   7
ENDBRANCH   5   6
ENDBRANCH   4   5
ENDBRANCH   3   4
ENDBRANCH   2   3
ENDBRANCH   1   2
BRANCH   1  12
ATOM     12  C   UNL     1       8.347   8.291  -2.023  1.00  0.00     0.000 C 
BRANCH  12  13
ATOM     13  C   UNL     1       9.191   9.442  -2.603  1.00  0.00    -0.000 C 
BRANCH  13  14
ATOM     14  C   UNL     1       8.966  10.815  -1.939  1.00  0.00    -0.000 C 
BRANCH  14  15
ATOM     15  C   UNL     1      10.263  11.430  -1.384  1.00  0.00    -0.000 C 
BRANCH  15  16
ATOM     16  C   UNL     1      11.474  11.167  -2.296  1.00  0.00    -0.000 C 
BRANCH  16  17
ATOM     17  C   UNL     1      12.483  10.193  -1.662  1.00  0.00    -0.000 C 
BRANCH  17  18
ATOM     18  C   UNL     1      12.794   8.983  -2.561  1.00  0.00    -0.000 C 
BRANCH  18  19
ATOM     19  C   UNL     1      14.229   8.936  -3.116  1.00  0.00    -0.003 C 
ATOM     20  C   UNL     1      15.253   9.581  -2.186  1.00  0.00     0.004 C 
ENDBRANCH  18  19
ENDBRANCH  17  18
ENDBRANCH  16  17
ENDBRANCH  15  16
ENDBRANCH  14  15
ENDBRANCH  13  14
ENDBRANCH  12  13
ENDBRANCH   1  12
TORSDOF 16
ENDMDL
MODEL 9
REMARK VINA RESULT:    -3.411      5.121      9.948
REMARK INTER + INTRA:          -7.799
REMARK INTER:                  -6.821
REMARK INTRA:                  -0.978
REMARK UNBOUND:                -1.198
REMARK SMILES CCCCCCCCCCCCCCCCCC(=O)[O-]
REMARK SMILES IDX 10 1 11 2 12 3 13 4 14 5 15 6 16 7 17 8 18 9 19 10 20 11
REMARK SMILES IDX 9 12 8 13 7 14 6 15 5 16 4 17 3 18 2 19 1 20
REMARK H PARENT
REMARK Flexibility Score: inf
ROOT
ATOM      1  C   UNL     1      12.633   3.845  -2.174  1.00  0.00     0.000 C 
ENDROOT
BRANCH   1   2
ATOM      2  C   UNL     1      12.819   4.801  -0.976  1.00  0.00     0.000 C 
BRANCH   2   3
ATOM      3  C   UNL     1      11.590   5.699  -0.744  1.00  0.00     0.000 C 
BRANCH   3   4
ATOM      4  C   UNL     1      10.714   5.828  -2.008  1.00  0.00     0.000 C 
BRANCH   4   5
ATOM      5  C   UNL     1      10.662   7.254  -2.583  1.00  0.00     0.000 C 
BRANCH   5   6
ATOM      6  C   UNL     1      12.051   7.907  -2.683  1.00  0.00     0.000 C 
BRANCH   6   7
ATOM      7  C   UNL     1      11.982   9.442  -2.737  1.00  0.00     0.006 C 
BRANCH   7   8
ATOM      8  C   UNL     1      11.287  10.050  -1.511  1.00  0.00     0.053 C 
BRANCH   8   9
ATOM      9  C   UNL     1      11.010  11.505  -1.732  1.00  0.00     0.041 C 
ATOM     10  O   UNL     1      11.718  12.172  -2.536  1.00  0.00    -0.550 OA
ATOM     11  O   UNL     1       9.960  12.122  -1.064  1.00  0.00    -0.550 OA
ENDBRANCH   8   9
ENDBRANCH   7   8
ENDBRANCH   6   7
ENDBRANCH   5   6
ENDBRANCH   4   5
ENDBRANCH   3   4
ENDBRANCH   2   3
ENDBRANCH   1   2
BRANCH   1  12
ATOM     12  C   UNL     1      13.902   3.051  -2.538  1.00  0.00     0.000 C 
BRANCH  12  13
ATOM     13  C   UNL     1      15.019   3.090  -1.478  1.00  0.00    -0.000 C 
BRANCH  13  14
ATOM     14  C   UNL     1      15.908   1.832  -1.420  1.00  0.00    -0.000 C 
BRANCH  14  15
ATOM     15  C   UNL     1      15.844   0.995  -2.711  1.00  0.00    -0.000 C 
BRANCH  15  16
ATOM     16  C   UNL     1      17.220   0.450  -3.125  1.00  0.00    -0.000 C 
BRANCH  16  17
ATOM     17  C   UNL     1      18.327   1.514  -3.019  1.00  0.00    -0.000 C 
BRANCH  17  18
ATOM     18  C   UNL     1      19.742   0.907  -2.994  1.00  0.00    -0.000 C 
BRANCH  18  19
ATOM     19  C   UNL     1      20.758   1.659  -2.114  1.00  0.00    -0.003 C 
ATOM     20  C   UNL     1      21.648   0.727  -1.296  1.00  0.00     0.004 C 
ENDBRANCH  18  19
ENDBRANCH  17  18
ENDBRANCH  16  17
ENDBRANCH  15  16
ENDBRANCH  14  15
ENDBRANCH  13  14
ENDBRANCH  12  13
ENDBRANCH   1  12
TORSDOF 16
ENDMDL
