MODEL 1
REMARK VINA RESULT:    -3.635      0.000      0.000
REMARK INTER + INTRA:          -7.133
REMARK INTER:                  -5.548
REMARK INTRA:                  -1.586
REMARK UNBOUND:                -1.586
REMARK SMILES OC[C@@H]1O[C@](CO)(O[C@@H]2O[C@H](CO)[C@@H](O)[C@@H](O)[C@@H]2O)[C@H](O)[C@@H]1O
REMARK SMILES IDX 8 1 9 2 11 3 14 4 10 5 16 6 18 7 12 8 13 9 15 11 17 13 19 15
REMARK SMILES IDX 5 17 20 18 4 19 22 20 3 21 6 22 7 23 21 25 23 27 2 29 1 30
REMARK H PARENT 13 10 15 12 17 14 19 16 7 24 21 26 23 28 1 31
REMARK Flexibility Score: inf
ROOT
ATOM      1  O   UNL     1       7.328  -4.622  -0.356  1.00  0.00    -0.313 OA
ENDROOT
BRANCH   1   2
ATOM      2  C   UNL     1       6.631  -4.887  -1.566  1.00  0.00     0.285 C 
ATOM      3  C   UNL     1       5.453  -3.796  -3.270  1.00  0.00     0.178 C 
ATOM      4  C   UNL     1       4.735  -5.151  -3.577  1.00  0.00     0.177 C 
ATOM      5  O   UNL     1       5.927  -3.714  -1.929  1.00  0.00    -0.341 OA
ATOM      6  C   UNL     1       4.361  -5.857  -2.261  1.00  0.00     0.179 C 
ATOM      7  C   UNL     1       5.617  -6.051  -1.374  1.00  0.00     0.202 C 
BRANCH   3   8
ATOM      8  C   UNL     1       4.512  -2.609  -3.520  1.00  0.00     0.191 C 
BRANCH   8   9
ATOM      9  O   UNL     1       5.211  -1.399  -3.417  1.00  0.00    -0.394 OA
ATOM     10  H   UNL     1       4.937  -0.985  -2.558  1.00  0.00     0.210 HD
ENDBRANCH   8   9
ENDBRANCH   3   8
BRANCH   4  11
ATOM     11  O   UNL     1       5.596  -5.967  -4.333  1.00  0.00    -0.387 OA
ATOM     12  H   UNL     1       6.526  -5.711  -4.099  1.00  0.00     0.211 HD
ENDBRANCH   4  11
BRANCH   6  13
ATOM     13  O   UNL     1       3.758  -7.095  -2.536  1.00  0.00    -0.387 OA
ATOM     14  H   UNL     1       2.790  -6.917  -2.671  1.00  0.00     0.211 HD
ENDBRANCH   6  13
BRANCH   7  15
ATOM     15  O   UNL     1       5.240  -6.200  -0.026  1.00  0.00    -0.385 OA
ATOM     16  H   UNL     1       6.019  -6.577   0.462  1.00  0.00     0.211 HD
ENDBRANCH   7  15
ENDBRANCH   1   2
BRANCH   1  17
ATOM     17  C   UNL     1       8.648  -4.103  -0.525  1.00  0.00     0.224 C 
ATOM     18  C   UNL     1       8.934  -2.974   0.484  1.00  0.00     0.208 C 
ATOM     19  O   UNL     1       8.872  -3.604  -1.835  1.00  0.00    -0.337 OA
ATOM     20  C   UNL     1       9.930  -2.124  -0.264  1.00  0.00     0.180 C 
ATOM     21  C   UNL     1       9.597  -2.395  -1.740  1.00  0.00     0.179 C 
BRANCH  17  22
ATOM     22  C   UNL     1       9.620  -5.279  -0.314  1.00  0.00     0.225 C 
BRANCH  22  23
ATOM     23  O   UNL     1       9.122  -6.160   0.657  1.00  0.00    -0.391 OA
ATOM     24  H   UNL     1       8.256  -6.496   0.307  1.00  0.00     0.210 HD
ENDBRANCH  22  23
ENDBRANCH  17  22
BRANCH  18  25
ATOM     25  O   UNL     1       7.763  -2.244   0.757  1.00  0.00    -0.385 OA
ATOM     26  H   UNL     1       8.004  -1.542   1.416  1.00  0.00     0.211 HD
ENDBRANCH  18  25
BRANCH  20  27
ATOM     27  O   UNL     1       9.836  -0.770   0.102  1.00  0.00    -0.387 OA
ATOM     28  H   UNL     1       9.095  -0.709   0.756  1.00  0.00     0.211 HD
ENDBRANCH  20  27
BRANCH  21  29
ATOM     29  C   UNL     1       8.790  -1.279  -2.425  1.00  0.00     0.191 C 
BRANCH  29  30
ATOM     30  O   UNL     1       7.534  -1.148  -1.817  1.00  0.00    -0.394 OA
ATOM     31  H   UNL     1       7.555  -0.296  -1.310  1.00  0.00     0.210 HD
ENDBRANCH  29  30
ENDBRANCH  21  29
ENDBRANCH   1  17
TORSDOF 13
ENDMDL
MODEL 2
REMARK VINA RESULT:    -3.631      1.875      4.568
REMARK INTER + INTRA:          -7.128
REMARK INTER:                  -5.424
REMARK INTRA:                  -1.704
REMARK UNBOUND:                -1.586
REMARK SMILES OC[C@@H]1O[C@](CO)(O[C@@H]2O[C@H](CO)[C@@H](O)[C@@H](O)[C@@H]2O)[C@H](O)[C@@H]1O
REMARK SMILES IDX 8 1 9 2 11 3 14 4 10 5 16 6 18 7 12 8 13 9 15 11 17 13 19 15
REMARK SMILES IDX 5 17 20 18 4 19 22 20 3 21 6 22 7 23 21 25 23 27 2 29 1 30
REMARK H PARENT 13 10 15 12 17 14 19 16 7 24 21 26 23 28 1 31
REMARK Flexibility Score: inf
ROOT
ATOM      1  O   UNL     1       7.527  -1.547  -1.691  1.00  0.00    -0.313 OA
ENDROOT
BRANCH   1   2
ATOM      2  C   UNL     1       7.731  -2.947  -1.557  1.00  0.00     0.285 C 
ATOM      3  C   UNL     1       6.657  -4.993  -1.933  1.00  0.00     0.178 C 
ATOM      4  C   UNL     1       7.599  -5.631  -0.860  1.00  0.00     0.177 C 
ATOM      5  O   UNL     1       6.487  -3.590  -1.752  1.00  0.00    -0.341 OA
ATOM      6  C   UNL     1       7.755  -4.676   0.337  1.00  0.00     0.179 C 
ATOM      7  C   UNL     1       8.266  -3.292  -0.137  1.00  0.00     0.202 C 
BRANCH   3   8
ATOM      8  C   UNL     1       5.272  -5.653  -1.907  1.00  0.00     0.191 C 
BRANCH   8   9
ATOM      9  O   UNL     1       4.278  -4.722  -2.240  1.00  0.00    -0.394 OA
ATOM     10  H   UNL     1       4.020  -4.906  -3.180  1.00  0.00     0.210 HD
ENDBRANCH   8   9
ENDBRANCH   3   8
BRANCH   4  11
ATOM     11  O   UNL     1       8.855  -5.883  -1.442  1.00  0.00    -0.387 OA
ATOM     12  H   UNL     1       8.912  -5.336  -2.267  1.00  0.00     0.211 HD
ENDBRANCH   4  11
BRANCH   6  13
ATOM     13  O   UNL     1       8.637  -5.229   1.280  1.00  0.00    -0.387 OA
ATOM     14  H   UNL     1       8.129  -5.927   1.770  1.00  0.00     0.211 HD
ENDBRANCH   6  13
BRANCH   7  15
ATOM     15  O   UNL     1       7.927  -2.302   0.804  1.00  0.00    -0.385 OA
ATOM     16  H   UNL     1       8.755  -1.798   1.019  1.00  0.00     0.211 HD
ENDBRANCH   7  15
ENDBRANCH   1   2
BRANCH   1  17
ATOM     17  C   UNL     1       7.767  -1.029  -3.001  1.00  0.00     0.224 C 
ATOM     18  C   UNL     1       6.469  -0.487  -3.629  1.00  0.00     0.208 C 
ATOM     19  O   UNL     1       8.321  -1.998  -3.876  1.00  0.00    -0.337 OA
ATOM     20  C   UNL     1       6.720  -0.691  -5.103  1.00  0.00     0.180 C 
ATOM     21  C   UNL     1       7.700  -1.875  -5.140  1.00  0.00     0.179 C 
BRANCH  17  22
ATOM     22  C   UNL     1       8.809   0.097  -2.851  1.00  0.00     0.225 C 
BRANCH  22  23
ATOM     23  O   UNL     1       8.919   0.488  -1.508  1.00  0.00    -0.391 OA
ATOM     24  H   UNL     1       8.055   0.254  -1.081  1.00  0.00     0.210 HD
ENDBRANCH  22  23
ENDBRANCH  17  22
BRANCH  18  25
ATOM     25  O   UNL     1       5.360  -1.240  -3.205  1.00  0.00    -0.385 OA
ATOM     26  H   UNL     1       5.622  -2.197  -3.251  1.00  0.00     0.211 HD
ENDBRANCH  18  25
BRANCH  20  27
ATOM     27  O   UNL     1       5.525  -0.918  -5.806  1.00  0.00    -0.387 OA
ATOM     28  H   UNL     1       5.084  -1.688  -5.365  1.00  0.00     0.211 HD
ENDBRANCH  20  27
BRANCH  21  29
ATOM     29  C   UNL     1       7.055  -3.222  -5.508  1.00  0.00     0.191 C 
BRANCH  29  30
ATOM     30  O   UNL     1       5.924  -3.451  -4.713  1.00  0.00    -0.394 OA
ATOM     31  H   UNL     1       5.847  -4.434  -4.610  1.00  0.00     0.210 HD
ENDBRANCH  29  30
ENDBRANCH  21  29
ENDBRANCH   1  17
TORSDOF 13
ENDMDL
MODEL 3
REMARK VINA RESULT:    -3.597      1.806      3.124
REMARK INTER + INTRA:          -7.075
REMARK INTER:                  -5.310
REMARK INTRA:                  -1.765
REMARK UNBOUND:                -1.586
REMARK SMILES OC[C@@H]1O[C@](CO)(O[C@@H]2O[C@H](CO)[C@@H](O)[C@@H](O)[C@@H]2O)[C@H](O)[C@@H]1O
REMARK SMILES IDX 8 1 9 2 11 3 14 4 10 5 16 6 18 7 12 8 13 9 15 11 17 13 19 15
REMARK SMILES IDX 5 17 20 18 4 19 22 20 3 21 6 22 7 23 21 25 23 27 2 29 1 30
REMARK H PARENT 13 10 15 12 17 14 19 16 7 24 21 26 23 28 1 31
REMARK Flexibility Score: inf
ROOT
ATOM      1  O   UNL     1       6.003  -3.903  -1.490  1.00  0.00    -0.313 OA
ENDROOT
BRANCH   1   2
ATOM      2  C   UNL     1       6.144  -3.323  -2.780  1.00  0.00     0.285 C 
ATOM      3  C   UNL     1       7.156  -1.513  -3.865  1.00  0.00     0.178 C 
ATOM      4  C   UNL     1       6.093  -1.661  -5.003  1.00  0.00     0.177 C 
ATOM      5  O   UNL     1       6.707  -2.035  -2.619  1.00  0.00    -0.341 OA
ATOM      6  C   UNL     1       4.707  -1.941  -4.393  1.00  0.00     0.179 C 
ATOM      7  C   UNL     1       4.760  -3.191  -3.479  1.00  0.00     0.202 C 
BRANCH   3   8
ATOM      8  C   UNL     1       7.537  -0.039  -3.661  1.00  0.00     0.191 C 
BRANCH   8   9
ATOM      9  O   UNL     1       7.958   0.179  -2.342  1.00  0.00    -0.394 OA
ATOM     10  H   UNL     1       7.663  -0.608  -1.816  1.00  0.00     0.210 HD
ENDBRANCH   8   9
ENDBRANCH   3   8
BRANCH   4  11
ATOM     11  O   UNL     1       6.470  -2.719  -5.850  1.00  0.00    -0.387 OA
ATOM     12  H   UNL     1       5.990  -2.593  -6.709  1.00  0.00     0.211 HD
ENDBRANCH   4  11
BRANCH   6  13
ATOM     13  O   UNL     1       3.761  -2.120  -5.416  1.00  0.00    -0.387 OA
ATOM     14  H   UNL     1       2.866  -2.013  -4.998  1.00  0.00     0.211 HD
ENDBRANCH   6  13
BRANCH   7  15
ATOM     15  O   UNL     1       3.705  -3.156  -2.548  1.00  0.00    -0.385 OA
ATOM     16  H   UNL     1       3.426  -4.094  -2.378  1.00  0.00     0.211 HD
ENDBRANCH   7  15
ENDBRANCH   1   2
BRANCH   1  17
ATOM     17  C   UNL     1       7.138  -4.642  -1.037  1.00  0.00     0.224 C 
ATOM     18  C   UNL     1       7.755  -3.998   0.219  1.00  0.00     0.208 C 
ATOM     19  O   UNL     1       8.147  -4.752  -2.029  1.00  0.00    -0.337 OA
ATOM     20  C   UNL     1       9.206  -4.391   0.098  1.00  0.00     0.180 C 
ATOM     21  C   UNL     1       9.407  -4.564  -1.416  1.00  0.00     0.179 C 
BRANCH  17  22
ATOM     22  C   UNL     1       6.647  -6.070  -0.729  1.00  0.00     0.225 C 
BRANCH  22  23
ATOM     23  O   UNL     1       5.256  -6.081  -0.544  1.00  0.00    -0.391 OA
ATOM     24  H   UNL     1       5.108  -6.149   0.435  1.00  0.00     0.210 HD
ENDBRANCH  22  23
ENDBRANCH  17  22
BRANCH  18  25
ATOM     25  O   UNL     1       7.614  -2.599   0.179  1.00  0.00    -0.385 OA
ATOM     26  H   UNL     1       6.796  -2.374   0.695  1.00  0.00     0.211 HD
ENDBRANCH  18  25
BRANCH  20  27
ATOM     27  O   UNL     1      10.054  -3.432   0.679  1.00  0.00    -0.387 OA
ATOM     28  H   UNL     1      10.876  -3.415   0.125  1.00  0.00     0.211 HD
ENDBRANCH  20  27
BRANCH  21  29
ATOM     29  C   UNL     1      10.120  -3.387  -2.102  1.00  0.00     0.191 C 
BRANCH  29  30
ATOM     30  O   UNL     1       9.574  -2.171  -1.668  1.00  0.00    -0.394 OA
ATOM     31  H   UNL     1       9.255  -2.322  -0.741  1.00  0.00     0.210 HD
ENDBRANCH  29  30
ENDBRANCH  21  29
ENDBRANCH   1  17
TORSDOF 13
ENDMDL
MODEL 4
REMARK VINA RESULT:    -3.376      2.473      4.473
REMARK INTER + INTRA:          -6.737
REMARK INTER:                  -5.490
REMARK INTRA:                  -1.247
REMARK UNBOUND:                -1.586
REMARK SMILES OC[C@@H]1O[C@](CO)(O[C@@H]2O[C@H](CO)[C@@H](O)[C@@H](O)[C@@H]2O)[C@H](O)[C@@H]1O
REMARK SMILES IDX 8 1 9 2 11 3 14 4 10 5 16 6 18 7 12 8 13 9 15 11 17 13 19 15
REMARK SMILES IDX 5 17 20 18 4 19 22 20 3 21 6 22 7 23 21 25 23 27 2 29 1 30
REMARK H PARENT 13 10 15 12 17 14 19 16 7 24 21 26 23 28 1 31
REMARK Flexibility Score: inf
ROOT
ATOM      1  O   UNL     1       6.763  -1.131  -2.603  1.00  0.00    -0.313 OA
ENDROOT
BRANCH   1   2
ATOM      2  C   UNL     1       6.233  -0.934  -3.907  1.00  0.00     0.285 C 
ATOM      3  C   UNL     1       5.492   0.764  -5.338  1.00  0.00     0.178 C 
ATOM      4  C   UNL     1       4.654  -0.312  -6.103  1.00  0.00     0.177 C 
ATOM      5  O   UNL     1       5.759   0.397  -3.988  1.00  0.00    -0.341 OA
ATOM      6  C   UNL     1       3.988  -1.271  -5.100  1.00  0.00     0.179 C 
ATOM      7  C   UNL     1       5.053  -1.913  -4.175  1.00  0.00     0.202 C 
BRANCH   3   8
ATOM      8  C   UNL     1       4.770   2.119  -5.334  1.00  0.00     0.191 C 
BRANCH   8   9
ATOM      9  O   UNL     1       5.578   3.103  -4.750  1.00  0.00    -0.394 OA
ATOM     10  H   UNL     1       5.633   3.850  -5.401  1.00  0.00     0.210 HD
ENDBRANCH   8   9
ENDBRANCH   3   8
BRANCH   4  11
ATOM     11  O   UNL     1       5.503  -1.030  -6.965  1.00  0.00    -0.387 OA
ATOM     12  H   UNL     1       4.928  -1.476  -7.640  1.00  0.00     0.211 HD
ENDBRANCH   4  11
BRANCH   6  13
ATOM     13  O   UNL     1       3.273  -2.264  -5.789  1.00  0.00    -0.387 OA
ATOM     14  H   UNL     1       2.365  -1.898  -5.956  1.00  0.00     0.211 HD
ENDBRANCH   6  13
BRANCH   7  15
ATOM     15  O   UNL     1       4.456  -2.352  -2.979  1.00  0.00    -0.385 OA
ATOM     16  H   UNL     1       3.472  -2.287  -3.096  1.00  0.00     0.211 HD
ENDBRANCH   7  15
ENDBRANCH   1   2
BRANCH   1  17
ATOM     17  C   UNL     1       7.997  -1.851  -2.560  1.00  0.00     0.224 C 
ATOM     18  C   UNL     1       7.757  -3.351  -2.307  1.00  0.00     0.208 C 
ATOM     19  O   UNL     1       8.877  -1.360  -1.561  1.00  0.00    -0.337 OA
ATOM     20  C   UNL     1       9.020  -3.759  -1.591  1.00  0.00     0.180 C 
ATOM     21  C   UNL     1       9.485  -2.460  -0.914  1.00  0.00     0.179 C 
BRANCH  17  22
ATOM     22  C   UNL     1       8.687  -1.633  -3.920  1.00  0.00     0.225 C 
BRANCH  22  23
ATOM     23  O   UNL     1       9.662  -0.630  -3.821  1.00  0.00    -0.391 OA
ATOM     24  H   UNL     1      10.202  -0.847  -3.017  1.00  0.00     0.210 HD
ENDBRANCH  22  23
ENDBRANCH  17  22
BRANCH  18  25
ATOM     25  O   UNL     1       6.634  -3.541  -1.480  1.00  0.00    -0.385 OA
ATOM     26  H   UNL     1       6.426  -4.512  -1.490  1.00  0.00     0.211 HD
ENDBRANCH  18  25
BRANCH  20  27
ATOM     27  O   UNL     1       8.791  -4.818  -0.695  1.00  0.00    -0.387 OA
ATOM     28  H   UNL     1       7.809  -4.943  -0.657  1.00  0.00     0.211 HD
ENDBRANCH  20  27
BRANCH  21  29
ATOM     29  C   UNL     1       9.178  -2.382   0.591  1.00  0.00     0.191 C 
BRANCH  29  30
ATOM     30  O   UNL     1       7.794  -2.440   0.805  1.00  0.00    -0.394 OA
ATOM     31  H   UNL     1       7.610  -3.327   1.208  1.00  0.00     0.210 HD
ENDBRANCH  29  30
ENDBRANCH  21  29
ENDBRANCH   1  17
TORSDOF 13
ENDMDL
MODEL 5
REMARK VINA RESULT:    -3.336      1.640      5.204
REMARK INTER + INTRA:          -6.677
REMARK INTER:                  -4.900
REMARK INTRA:                  -1.777
REMARK UNBOUND:                -1.586
REMARK SMILES OC[C@@H]1O[C@](CO)(O[C@@H]2O[C@H](CO)[C@@H](O)[C@@H](O)[C@@H]2O)[C@H](O)[C@@H]1O
REMARK SMILES IDX 8 1 9 2 11 3 14 4 10 5 16 6 18 7 12 8 13 9 15 11 17 13 19 15
REMARK SMILES IDX 5 17 20 18 4 19 22 20 3 21 6 22 7 23 21 25 23 27 2 29 1 30
REMARK H PARENT 13 10 15 12 17 14 19 16 7 24 21 26 23 28 1 31
REMARK Flexibility Score: inf
ROOT
ATOM      1  O   UNL     1       7.007  -2.675  -1.739  1.00  0.00    -0.313 OA
ENDROOT
BRANCH   1   2
ATOM      2  C   UNL     1       7.546  -3.848  -1.145  1.00  0.00     0.285 C 
ATOM      3  C   UNL     1       6.919  -5.990  -0.439  1.00  0.00     0.178 C 
ATOM      4  C   UNL     1       8.156  -5.986   0.518  1.00  0.00     0.177 C 
ATOM      5  O   UNL     1       6.467  -4.678  -0.761  1.00  0.00    -0.341 OA
ATOM      6  C   UNL     1       8.298  -4.606   1.187  1.00  0.00     0.179 C 
ATOM      7  C   UNL     1       8.388  -3.491   0.115  1.00  0.00     0.202 C 
BRANCH   3   8
ATOM      8  C   UNL     1       5.748  -6.762   0.185  1.00  0.00     0.191 C 
BRANCH   8   9
ATOM      9  O   UNL     1       4.533  -6.350  -0.379  1.00  0.00    -0.394 OA
ATOM     10  H   UNL     1       4.404  -5.402  -0.114  1.00  0.00     0.210 HD
ENDBRANCH   8   9
ENDBRANCH   3   8
BRANCH   4  11
ATOM     11  O   UNL     1       9.313  -6.283  -0.225  1.00  0.00    -0.387 OA
ATOM     12  H   UNL     1       9.156  -5.969  -1.153  1.00  0.00     0.211 HD
ENDBRANCH   4  11
BRANCH   6  13
ATOM     13  O   UNL     1       9.436  -4.588   2.010  1.00  0.00    -0.387 OA
ATOM     14  H   UNL     1      10.181  -4.230   1.459  1.00  0.00     0.211 HD
ENDBRANCH   6  13
BRANCH   7  15
ATOM     15  O   UNL     1       8.002  -2.255   0.667  1.00  0.00    -0.385 OA
ATOM     16  H   UNL     1       7.454  -1.782  -0.013  1.00  0.00     0.211 HD
ENDBRANCH   7  15
ENDBRANCH   1   2
BRANCH   1  17
ATOM     17  C   UNL     1       6.884  -2.724  -3.161  1.00  0.00     0.224 C 
ATOM     18  C   UNL     1       5.414  -2.578  -3.597  1.00  0.00     0.208 C 
ATOM     19  O   UNL     1       7.399  -3.927  -3.710  1.00  0.00    -0.337 OA
ATOM     20  C   UNL     1       5.387  -3.351  -4.891  1.00  0.00     0.180 C 
ATOM     21  C   UNL     1       6.519  -4.376  -4.721  1.00  0.00     0.179 C 
BRANCH  17  22
ATOM     22  C   UNL     1       7.734  -1.568  -3.722  1.00  0.00     0.225 C 
BRANCH  22  23
ATOM     23  O   UNL     1       7.642  -0.443  -2.891  1.00  0.00    -0.391 OA
ATOM     24  H   UNL     1       8.207   0.257  -3.310  1.00  0.00     0.210 HD
ENDBRANCH  22  23
ENDBRANCH  17  22
BRANCH  18  25
ATOM     25  O   UNL     1       4.554  -3.165  -2.650  1.00  0.00    -0.385 OA
ATOM     26  H   UNL     1       5.122  -3.485  -1.901  1.00  0.00     0.211 HD
ENDBRANCH  18  25
BRANCH  20  27
ATOM     27  O   UNL     1       4.127  -3.928  -5.126  1.00  0.00    -0.387 OA
ATOM     28  H   UNL     1       3.478  -3.407  -4.589  1.00  0.00     0.211 HD
ENDBRANCH  20  27
BRANCH  21  29
ATOM     29  C   UNL     1       6.044  -5.796  -4.370  1.00  0.00     0.191 C 
BRANCH  29  30
ATOM     30  O   UNL     1       5.187  -5.759  -3.262  1.00  0.00    -0.394 OA
ATOM     31  H   UNL     1       4.313  -6.109  -3.572  1.00  0.00     0.210 HD
ENDBRANCH  29  30
ENDBRANCH  21  29
ENDBRANCH   1  17
TORSDOF 13
ENDMDL
MODEL 6
REMARK VINA RESULT:    -3.333      2.286      5.363
REMARK INTER + INTRA:          -6.672
REMARK INTER:                  -4.912
REMARK INTRA:                  -1.760
REMARK UNBOUND:                -1.586
REMARK SMILES OC[C@@H]1O[C@](CO)(O[C@@H]2O[C@H](CO)[C@@H](O)[C@@H](O)[C@@H]2O)[C@H](O)[C@@H]1O
REMARK SMILES IDX 8 1 9 2 11 3 14 4 10 5 16 6 18 7 12 8 13 9 15 11 17 13 19 15
REMARK SMILES IDX 5 17 20 18 4 19 22 20 3 21 6 22 7 23 21 25 23 27 2 29 1 30
REMARK H PARENT 13 10 15 12 17 14 19 16 7 24 21 26 23 28 1 31
REMARK Flexibility Score: inf
ROOT
ATOM      1  O   UNL     1       9.014  -1.852  -1.415  1.00  0.00    -0.313 OA
ENDROOT
BRANCH   1   2
ATOM      2  C   UNL     1       8.347  -1.058  -2.387  1.00  0.00     0.285 C 
ATOM      3  C   UNL     1       7.892  -0.983  -4.682  1.00  0.00     0.178 C 
ATOM      4  C   UNL     1       7.680   0.560  -4.542  1.00  0.00     0.177 C 
ATOM      5  O   UNL     1       8.736  -1.518  -3.667  1.00  0.00    -0.341 OA
ATOM      6  C   UNL     1       8.755   1.157  -3.615  1.00  0.00     0.179 C 
ATOM      7  C   UNL     1       8.744   0.440  -2.241  1.00  0.00     0.202 C 
BRANCH   3   8
ATOM      8  C   UNL     1       8.503  -1.329  -6.047  1.00  0.00     0.191 C 
BRANCH   8   9
ATOM      9  O   UNL     1       8.128  -2.622  -6.438  1.00  0.00    -0.394 OA
ATOM     10  H   UNL     1       7.245  -2.799  -6.022  1.00  0.00     0.210 HD
ENDBRANCH   8   9
ENDBRANCH   3   8
BRANCH   4  11
ATOM     11  O   UNL     1       6.399   0.803  -4.012  1.00  0.00    -0.387 OA
ATOM     12  H   UNL     1       5.786   0.129  -4.406  1.00  0.00     0.211 HD
ENDBRANCH   4  11
BRANCH   6  13
ATOM     13  O   UNL     1       8.537   2.534  -3.453  1.00  0.00    -0.387 OA
ATOM     14  H   UNL     1       9.321   2.996  -3.852  1.00  0.00     0.211 HD
ENDBRANCH   6  13
BRANCH   7  15
ATOM     15  O   UNL     1       9.991   0.591  -1.605  1.00  0.00    -0.385 OA
ATOM     16  H   UNL     1      10.326   1.501  -1.819  1.00  0.00     0.211 HD
ENDBRANCH   7  15
ENDBRANCH   1   2
BRANCH   1  17
ATOM     17  C   UNL     1       8.296  -3.012  -0.992  1.00  0.00     0.224 C 
ATOM     18  C   UNL     1       9.044  -4.301  -1.380  1.00  0.00     0.208 C 
ATOM     19  O   UNL     1       6.987  -3.069  -1.537  1.00  0.00    -0.337 OA
ATOM     20  C   UNL     1       7.915  -5.286  -1.549  1.00  0.00     0.180 C 
ATOM     21  C   UNL     1       6.719  -4.400  -1.932  1.00  0.00     0.179 C 
BRANCH  17  22
ATOM     22  C   UNL     1       8.146  -2.910   0.539  1.00  0.00     0.225 C 
BRANCH  22  23
ATOM     23  O   UNL     1       8.746  -1.734   1.013  1.00  0.00    -0.391 OA
ATOM     24  H   UNL     1       8.138  -1.377   1.711  1.00  0.00     0.210 HD
ENDBRANCH  22  23
ENDBRANCH  17  22
BRANCH  18  25
ATOM     25  O   UNL     1       9.737  -4.127  -2.592  1.00  0.00    -0.385 OA
ATOM     26  H   UNL     1       9.827  -3.149  -2.739  1.00  0.00     0.211 HD
ENDBRANCH  18  25
BRANCH  20  27
ATOM     27  O   UNL     1       8.223  -6.271  -2.503  1.00  0.00    -0.387 OA
ATOM     28  H   UNL     1       7.362  -6.541  -2.912  1.00  0.00     0.211 HD
ENDBRANCH  20  27
BRANCH  21  29
ATOM     29  C   UNL     1       6.373  -4.412  -3.430  1.00  0.00     0.191 C 
BRANCH  29  30
ATOM     30  O   UNL     1       7.537  -4.274  -4.197  1.00  0.00    -0.394 OA
ATOM     31  H   UNL     1       7.835  -5.193  -4.422  1.00  0.00     0.210 HD
ENDBRANCH  29  30
ENDBRANCH  21  29
ENDBRANCH   1  17
TORSDOF 13
ENDMDL
MODEL 7
REMARK VINA RESULT:    -3.325      9.078     12.038
REMARK INTER + INTRA:          -6.660
REMARK INTER:                  -5.083
REMARK INTRA:                  -1.577
REMARK UNBOUND:                -1.586
REMARK SMILES OC[C@@H]1O[C@](CO)(O[C@@H]2O[C@H](CO)[C@@H](O)[C@@H](O)[C@@H]2O)[C@H](O)[C@@H]1O
REMARK SMILES IDX 8 1 9 2 11 3 14 4 10 5 16 6 18 7 12 8 13 9 15 11 17 13 19 15
REMARK SMILES IDX 5 17 20 18 4 19 22 20 3 21 6 22 7 23 21 25 23 27 2 29 1 30
REMARK H PARENT 13 10 15 12 17 14 19 16 7 24 21 26 23 28 1 31
REMARK Flexibility Score: inf
ROOT
ATOM      1  O   UNL     1       5.214   6.125  -6.565  1.00  0.00    -0.313 OA
ENDROOT
BRANCH   1   2
ATOM      2  C   UNL     1       4.515   4.893  -6.456  1.00  0.00     0.285 C 
ATOM      3  C   UNL     1       2.434   4.025  -5.826  1.00  0.00     0.178 C 
ATOM      4  C   UNL     1       3.136   2.650  -5.575  1.00  0.00     0.177 C 
ATOM      5  O   UNL     1       3.329   5.128  -5.722  1.00  0.00    -0.341 OA
ATOM      6  C   UNL     1       4.491   2.872  -4.878  1.00  0.00     0.179 C 
ATOM      7  C   UNL     1       5.377   3.835  -5.708  1.00  0.00     0.202 C 
BRANCH   3   8
ATOM      8  C   UNL     1       1.285   4.241  -4.832  1.00  0.00     0.191 C 
BRANCH   8   9
ATOM      9  O   UNL     1       0.480   5.314  -5.240  1.00  0.00    -0.394 OA
ATOM     10  H   UNL     1       0.905   5.695  -6.051  1.00  0.00     0.210 HD
ENDBRANCH   8   9
ENDBRANCH   3   8
BRANCH   4  11
ATOM     11  O   UNL     1       3.330   2.000  -6.808  1.00  0.00    -0.387 OA
ATOM     12  H   UNL     1       2.463   1.589  -7.063  1.00  0.00     0.211 HD
ENDBRANCH   4  11
BRANCH   6  13
ATOM     13  O   UNL     1       5.142   1.641  -4.694  1.00  0.00    -0.387 OA
ATOM     14  H   UNL     1       5.026   1.397  -3.738  1.00  0.00     0.211 HD
ENDBRANCH   6  13
BRANCH   7  15
ATOM     15  O   UNL     1       6.344   4.438  -4.882  1.00  0.00    -0.385 OA
ATOM     16  H   UNL     1       6.489   5.361  -5.217  1.00  0.00     0.211 HD
ENDBRANCH   7  15
ENDBRANCH   1   2
BRANCH   1  17
ATOM     17  C   UNL     1       4.928   6.875  -7.747  1.00  0.00     0.224 C 
ATOM     18  C   UNL     1       4.870   8.385  -7.447  1.00  0.00     0.208 C 
ATOM     19  O   UNL     1       3.705   6.488  -8.353  1.00  0.00    -0.337 OA
ATOM     20  C   UNL     1       3.902   8.880  -8.492  1.00  0.00     0.180 C 
ATOM     21  C   UNL     1       3.023   7.651  -8.779  1.00  0.00     0.179 C 
BRANCH  17  22
ATOM     22  C   UNL     1       6.053   6.564  -8.754  1.00  0.00     0.225 C 
BRANCH  22  23
ATOM     23  O   UNL     1       7.156   7.400  -8.531  1.00  0.00    -0.391 OA
ATOM     24  H   UNL     1       6.812   8.330  -8.573  1.00  0.00     0.210 HD
ENDBRANCH  22  23
ENDBRANCH  17  22
BRANCH  18  25
ATOM     25  O   UNL     1       4.366   8.614  -6.154  1.00  0.00    -0.385 OA
ATOM     26  H   UNL     1       3.475   8.180  -6.107  1.00  0.00     0.211 HD
ENDBRANCH  18  25
BRANCH  20  27
ATOM     27  O   UNL     1       3.184  10.002  -8.044  1.00  0.00    -0.387 OA
ATOM     28  H   UNL     1       3.253  10.681  -8.762  1.00  0.00     0.211 HD
ENDBRANCH  20  27
BRANCH  21  29
ATOM     29  C   UNL     1       1.640   7.688  -8.108  1.00  0.00     0.191 C 
BRANCH  29  30
ATOM     30  O   UNL     1       1.772   7.544  -6.720  1.00  0.00    -0.394 OA
ATOM     31  H   UNL     1       1.166   8.212  -6.309  1.00  0.00     0.210 HD
ENDBRANCH  29  30
ENDBRANCH  21  29
ENDBRANCH   1  17
TORSDOF 13
ENDMDL
MODEL 8
REMARK VINA RESULT:    -3.315      7.393     10.048
REMARK INTER + INTRA:          -6.645
REMARK INTER:                  -5.398
REMARK INTRA:                  -1.247
REMARK UNBOUND:                -1.586
REMARK SMILES OC[C@@H]1O[C@](CO)(O[C@@H]2O[C@H](CO)[C@@H](O)[C@@H](O)[C@@H]2O)[C@H](O)[C@@H]1O
REMARK SMILES IDX 8 1 9 2 11 3 14 4 10 5 16 6 18 7 12 8 13 9 15 11 17 13 19 15
REMARK SMILES IDX 5 17 20 18 4 19 22 20 3 21 6 22 7 23 21 25 23 27 2 29 1 30
REMARK H PARENT 13 10 15 12 17 14 19 16 7 24 21 26 23 28 1 31
REMARK Flexibility Score: inf
ROOT
ATOM      1  O   UNL     1       6.177   4.603  -5.351  1.00  0.00    -0.313 OA
ENDROOT
BRANCH   1   2
ATOM      2  C   UNL     1       4.988   4.843  -6.092  1.00  0.00     0.285 C 
ATOM      3  C   UNL     1       3.719   6.592  -6.990  1.00  0.00     0.178 C 
ATOM      4  C   UNL     1       2.478   5.642  -6.966  1.00  0.00     0.177 C 
ATOM      5  O   UNL     1       4.711   6.229  -6.034  1.00  0.00    -0.341 OA
ATOM      6  C   UNL     1       2.461   4.832  -5.657  1.00  0.00     0.179 C 
ATOM      7  C   UNL     1       3.792   4.057  -5.482  1.00  0.00     0.202 C 
BRANCH   3   8
ATOM      8  C   UNL     1       3.300   8.045  -6.720  1.00  0.00     0.191 C 
BRANCH   8   9
ATOM      9  O   UNL     1       1.905   8.168  -6.760  1.00  0.00    -0.394 OA
ATOM     10  H   UNL     1       1.535   7.345  -6.345  1.00  0.00     0.210 HD
ENDBRANCH   8   9
ENDBRANCH   3   8
BRANCH   4  11
ATOM     11  O   UNL     1       2.543   4.772  -8.070  1.00  0.00    -0.387 OA
ATOM     12  H   UNL     1       1.652   4.785  -8.508  1.00  0.00     0.211 HD
ENDBRANCH   4  11
BRANCH   6  13
ATOM     13  O   UNL     1       1.372   3.945  -5.656  1.00  0.00    -0.387 OA
ATOM     14  H   UNL     1       1.376   3.488  -6.537  1.00  0.00     0.211 HD
ENDBRANCH   6  13
BRANCH   7  15
ATOM     15  O   UNL     1       4.002   3.755  -4.123  1.00  0.00    -0.385 OA
ATOM     16  H   UNL     1       4.908   4.083  -3.882  1.00  0.00     0.211 HD
ENDBRANCH   7  15
ENDBRANCH   1   2
BRANCH   1  17
ATOM     17  C   UNL     1       7.217   3.949  -6.080  1.00  0.00     0.224 C 
ATOM     18  C   UNL     1       7.053   2.418  -6.030  1.00  0.00     0.208 C 
ATOM     19  O   UNL     1       8.510   4.280  -5.598  1.00  0.00    -0.337 OA
ATOM     20  C   UNL     1       8.478   1.941  -6.152  1.00  0.00     0.180 C 
ATOM     21  C   UNL     1       9.298   3.107  -5.574  1.00  0.00     0.179 C 
BRANCH  17  22
ATOM     22  C   UNL     1       7.130   4.457  -7.533  1.00  0.00     0.225 C 
BRANCH  22  23
ATOM     23  O   UNL     1       7.966   5.569  -7.714  1.00  0.00    -0.391 OA
ATOM     24  H   UNL     1       7.457   6.209  -8.276  1.00  0.00     0.210 HD
ENDBRANCH  22  23
ENDBRANCH  17  22
BRANCH  18  25
ATOM     25  O   UNL     1       6.498   2.019  -4.801  1.00  0.00    -0.385 OA
ATOM     26  H   UNL     1       5.613   2.461  -4.723  1.00  0.00     0.211 HD
ENDBRANCH  18  25
BRANCH  20  27
ATOM     27  O   UNL     1       8.676   0.720  -5.484  1.00  0.00    -0.387 OA
ATOM     28  H   UNL     1       9.412   0.259  -5.960  1.00  0.00     0.211 HD
ENDBRANCH  20  27
BRANCH  21  29
ATOM     29  C   UNL     1       9.804   2.879  -4.140  1.00  0.00     0.191 C 
BRANCH  29  30
ATOM     30  O   UNL     1       8.731   2.578  -3.291  1.00  0.00    -0.394 OA
ATOM     31  H   UNL     1       8.580   3.383  -2.733  1.00  0.00     0.210 HD
ENDBRANCH  29  30
ENDBRANCH  21  29
ENDBRANCH   1  17
TORSDOF 13
ENDMDL
MODEL 9
REMARK VINA RESULT:    -3.243      9.058     11.719
REMARK INTER + INTRA:          -6.535
REMARK INTER:                  -4.791
REMARK INTRA:                  -1.744
REMARK UNBOUND:                -1.586
REMARK SMILES OC[C@@H]1O[C@](CO)(O[C@@H]2O[C@H](CO)[C@@H](O)[C@@H](O)[C@@H]2O)[C@H](O)[C@@H]1O
REMARK SMILES IDX 8 1 9 2 11 3 14 4 10 5 16 6 18 7 12 8 13 9 15 11 17 13 19 15
REMARK SMILES IDX 5 17 20 18 4 19 22 20 3 21 6 22 7 23 21 25 23 27 2 29 1 30
REMARK H PARENT 13 10 15 12 17 14 19 16 7 24 21 26 23 28 1 31
REMARK Flexibility Score: inf
ROOT
ATOM      1  O   UNL     1       1.935   3.376  -4.506  1.00  0.00    -0.313 OA
ENDROOT
BRANCH   1   2
ATOM      2  C   UNL     1       2.724   4.335  -5.198  1.00  0.00     0.285 C 
ATOM      3  C   UNL     1       3.022   5.261  -7.326  1.00  0.00     0.178 C 
ATOM      4  C   UNL     1       4.473   5.656  -6.901  1.00  0.00     0.177 C 
ATOM      5  O   UNL     1       2.510   4.158  -6.585  1.00  0.00    -0.341 OA
ATOM      6  C   UNL     1       5.118   4.508  -6.102  1.00  0.00     0.179 C 
ATOM      7  C   UNL     1       4.235   4.133  -4.885  1.00  0.00     0.202 C 
BRANCH   3   8
ATOM      8  C   UNL     1       2.968   4.904  -8.819  1.00  0.00     0.191 C 
BRANCH   8   9
ATOM      9  O   UNL     1       1.836   4.125  -9.095  1.00  0.00    -0.394 OA
ATOM     10  H   UNL     1       1.939   3.281  -8.582  1.00  0.00     0.210 HD
ENDBRANCH   8   9
ENDBRANCH   3   8
BRANCH   4  11
ATOM     11  O   UNL     1       4.421   6.821  -6.112  1.00  0.00    -0.387 OA
ATOM     12  H   UNL     1       3.469   7.095  -6.056  1.00  0.00     0.211 HD
ENDBRANCH   4  11
BRANCH   6  13
ATOM     13  O   UNL     1       6.404   4.880  -5.680  1.00  0.00    -0.387 OA
ATOM     14  H   UNL     1       6.500   5.849  -5.879  1.00  0.00     0.211 HD
ENDBRANCH   6  13
BRANCH   7  15
ATOM     15  O   UNL     1       4.512   2.816  -4.473  1.00  0.00    -0.385 OA
ATOM     16  H   UNL     1       5.461   2.627  -4.695  1.00  0.00     0.211 HD
ENDBRANCH   7  15
ENDBRANCH   1   2
BRANCH   1  17
ATOM     17  C   UNL     1       0.640   3.834  -4.116  1.00  0.00     0.224 C 
ATOM     18  C   UNL     1      -0.466   2.920  -4.677  1.00  0.00     0.208 C 
ATOM     19  O   UNL     1       0.383   5.164  -4.538  1.00  0.00    -0.337 OA
ATOM     20  C   UNL     1      -1.625   3.874  -4.820  1.00  0.00     0.180 C 
ATOM     21  C   UNL     1      -0.946   5.239  -5.015  1.00  0.00     0.179 C 
BRANCH  17  22
ATOM     22  C   UNL     1       0.614   3.835  -2.574  1.00  0.00     0.225 C 
BRANCH  22  23
ATOM     23  O   UNL     1      -0.007   2.672  -2.094  1.00  0.00    -0.391 OA
ATOM     24  H   UNL     1      -0.295   2.876  -1.167  1.00  0.00     0.210 HD
ENDBRANCH  22  23
ENDBRANCH  17  22
BRANCH  18  25
ATOM     25  O   UNL     1      -0.092   2.401  -5.930  1.00  0.00    -0.385 OA
ATOM     26  H   UNL     1      -0.927   2.259  -6.447  1.00  0.00     0.211 HD
ENDBRANCH  18  25
BRANCH  20  27
ATOM     27  O   UNL     1      -2.475   3.505  -5.877  1.00  0.00    -0.387 OA
ATOM     28  H   UNL     1      -1.896   3.394  -6.674  1.00  0.00     0.211 HD
ENDBRANCH  20  27
BRANCH  21  29
ATOM     29  C   UNL     1      -0.923   5.736  -6.470  1.00  0.00     0.191 C 
BRANCH  29  30
ATOM     30  O   UNL     1      -0.352   4.765  -7.304  1.00  0.00    -0.394 OA
ATOM     31  H   UNL     1      -0.515   5.065  -8.235  1.00  0.00     0.210 HD
ENDBRANCH  29  30
ENDBRANCH  21  29
ENDBRANCH   1  17
TORSDOF 13
ENDMDL
