MODEL 1
REMARK VINA RESULT:    -4.675      0.000      0.000
REMARK INTER + INTRA:          -9.300
REMARK INTER:                  -7.954
REMARK INTRA:                  -1.346
REMARK UNBOUND:                -1.346
REMARK SMILES CCCCCCCCCCCCCC(=O)[O-]
REMARK SMILES IDX 8 1 9 2 10 3 11 4 12 5 13 6 14 7 15 8 16 9 7 10 6 11 5 12
REMARK SMILES IDX 4 13 3 14 2 15 1 16
REMARK H PARENT
REMARK Flexibility Score: inf
ROOT
ATOM      1  C   UNL     1      62.904 -25.973  -2.779  1.00  0.00     0.000 C 
ENDROOT
BRANCH   1   2
ATOM      2  C   UNL     1      61.597 -25.525  -3.455  1.00  0.00     0.000 C 
BRANCH   2   3
ATOM      3  C   UNL     1      60.355 -25.819  -2.597  1.00  0.00     0.000 C 
BRANCH   3   4
ATOM      4  C   UNL     1      59.341 -26.732  -3.311  1.00  0.00     0.000 C 
BRANCH   4   5
ATOM      5  C   UNL     1      58.602 -26.041  -4.476  1.00  0.00     0.006 C 
BRANCH   5   6
ATOM      6  C   UNL     1      57.938 -24.727  -4.045  1.00  0.00     0.053 C 
BRANCH   6   7
ATOM      7  C   UNL     1      58.295 -23.624  -4.991  1.00  0.00     0.041 C 
ATOM      8  O   UNL     1      59.483 -23.218  -5.072  1.00  0.00    -0.550 OA
ATOM      9  O   UNL     1      57.324 -23.078  -5.821  1.00  0.00    -0.550 OA
ENDBRANCH   6   7
ENDBRANCH   5   6
ENDBRANCH   4   5
ENDBRANCH   3   4
ENDBRANCH   2   3
ENDBRANCH   1   2
BRANCH   1  10
ATOM     10  C   UNL     1      62.973 -27.497  -2.581  1.00  0.00     0.000 C 
BRANCH  10  11
ATOM     11  C   UNL     1      63.625 -27.890  -1.246  1.00  0.00    -0.000 C 
BRANCH  11  12
ATOM     12  C   UNL     1      62.812 -28.940  -0.475  1.00  0.00    -0.000 C 
BRANCH  12  13
ATOM     13  C   UNL     1      61.371 -29.010  -0.996  1.00  0.00    -0.000 C 
BRANCH  13  14
ATOM     14  C   UNL     1      60.369 -29.081   0.167  1.00  0.00    -0.000 C 
BRANCH  14  15
ATOM     15  C   UNL     1      58.925 -29.296  -0.311  1.00  0.00    -0.003 C 
ATOM     16  C   UNL     1      58.081 -28.024  -0.237  1.00  0.00     0.004 C 
ENDBRANCH  14  15
ENDBRANCH  13  14
ENDBRANCH  12  13
ENDBRANCH  11  12
ENDBRANCH  10  11
ENDBRANCH   1  10
TORSDOF 12
ENDMDL
MODEL 2
REMARK VINA RESULT:    -4.616      3.210      5.660
REMARK INTER + INTRA:          -9.200
REMARK INTER:                  -7.914
REMARK INTRA:                  -1.286
REMARK UNBOUND:                -1.346
REMARK SMILES CCCCCCCCCCCCCC(=O)[O-]
REMARK SMILES IDX 8 1 9 2 10 3 11 4 12 5 13 6 14 7 15 8 16 9 7 10 6 11 5 12
REMARK SMILES IDX 4 13 3 14 2 15 1 16
REMARK H PARENT
REMARK Flexibility Score: inf
ROOT
ATOM      1  C   UNL     1      63.619 -27.057  -1.822  1.00  0.00     0.000 C 
ENDROOT
BRANCH   1   2
ATOM      2  C   UNL     1      63.048 -28.482  -1.901  1.00  0.00     0.000 C 
BRANCH   2   3
ATOM      3  C   UNL     1      62.909 -29.143  -0.520  1.00  0.00     0.000 C 
BRANCH   3   4
ATOM      4  C   UNL     1      61.492 -29.005   0.067  1.00  0.00     0.000 C 
BRANCH   4   5
ATOM      5  C   UNL     1      60.373 -29.111  -0.990  1.00  0.00     0.006 C 
BRANCH   5   6
ATOM      6  C   UNL     1      59.084 -28.408  -0.544  1.00  0.00     0.053 C 
BRANCH   6   7
ATOM      7  C   UNL     1      57.958 -29.389  -0.452  1.00  0.00     0.041 C 
ATOM      8  O   UNL     1      58.034 -30.369   0.333  1.00  0.00    -0.550 OA
ATOM      9  O   UNL     1      56.802 -29.192  -1.198  1.00  0.00    -0.550 OA
ENDBRANCH   6   7
ENDBRANCH   5   6
ENDBRANCH   4   5
ENDBRANCH   3   4
ENDBRANCH   2   3
ENDBRANCH   1   2
BRANCH   1  10
ATOM     10  C   UNL     1      62.865 -26.068  -2.729  1.00  0.00     0.000 C 
BRANCH  10  11
ATOM     11  C   UNL     1      61.444 -26.544  -3.068  1.00  0.00    -0.000 C 
BRANCH  11  12
ATOM     12  C   UNL     1      60.362 -25.549  -2.621  1.00  0.00    -0.000 C 
BRANCH  12  13
ATOM     13  C   UNL     1      59.853 -24.721  -3.807  1.00  0.00    -0.000 C 
BRANCH  13  14
ATOM     14  C   UNL     1      59.023 -25.588  -4.766  1.00  0.00    -0.000 C 
BRANCH  14  15
ATOM     15  C   UNL     1      59.519 -25.504  -6.218  1.00  0.00    -0.003 C 
ATOM     16  C   UNL     1      60.847 -24.757  -6.348  1.00  0.00     0.004 C 
ENDBRANCH  14  15
ENDBRANCH  13  14
ENDBRANCH  12  13
ENDBRANCH  11  12
ENDBRANCH  10  11
ENDBRANCH   1  10
TORSDOF 12
ENDMDL
MODEL 3
REMARK VINA RESULT:    -4.583      1.676      2.452
REMARK INTER + INTRA:          -9.144
REMARK INTER:                  -8.286
REMARK INTRA:                  -0.857
REMARK UNBOUND:                -1.346
REMARK SMILES CCCCCCCCCCCCCC(=O)[O-]
REMARK SMILES IDX 8 1 9 2 10 3 11 4 12 5 13 6 14 7 15 8 16 9 7 10 6 11 5 12
REMARK SMILES IDX 4 13 3 14 2 15 1 16
REMARK H PARENT
REMARK Flexibility Score: inf
ROOT
ATOM      1  C   UNL     1      63.616 -27.484  -1.484  1.00  0.00     0.000 C 
ENDROOT
BRANCH   1   2
ATOM      2  C   UNL     1      63.590 -26.878  -2.897  1.00  0.00     0.000 C 
BRANCH   2   3
ATOM      3  C   UNL     1      62.584 -25.723  -3.029  1.00  0.00     0.000 C 
BRANCH   3   4
ATOM      4  C   UNL     1      61.155 -26.127  -2.624  1.00  0.00     0.000 C 
BRANCH   4   5
ATOM      5  C   UNL     1      60.106 -25.874  -3.728  1.00  0.00     0.006 C 
BRANCH   5   6
ATOM      6  C   UNL     1      60.746 -25.399  -5.039  1.00  0.00     0.053 C 
BRANCH   6   7
ATOM      7  C   UNL     1      59.869 -24.391  -5.714  1.00  0.00     0.041 C 
ATOM      8  O   UNL     1      59.440 -23.395  -5.076  1.00  0.00    -0.550 OA
ATOM      9  O   UNL     1      59.566 -24.527  -7.063  1.00  0.00    -0.550 OA
ENDBRANCH   6   7
ENDBRANCH   5   6
ENDBRANCH   4   5
ENDBRANCH   3   4
ENDBRANCH   2   3
ENDBRANCH   1   2
BRANCH   1  10
ATOM     10  C   UNL     1      63.069 -28.922  -1.449  1.00  0.00     0.000 C 
BRANCH  10  11
ATOM     11  C   UNL     1      62.043 -29.135  -0.325  1.00  0.00    -0.000 C 
BRANCH  11  12
ATOM     12  C   UNL     1      60.600 -29.209  -0.845  1.00  0.00    -0.000 C 
BRANCH  12  13
ATOM     13  C   UNL     1      59.618 -29.492   0.298  1.00  0.00    -0.000 C 
BRANCH  13  14
ATOM     14  C   UNL     1      60.274 -29.232   1.663  1.00  0.00    -0.000 C 
BRANCH  14  15
ATOM     15  C   UNL     1      59.249 -28.881   2.753  1.00  0.00    -0.003 C 
ATOM     16  C   UNL     1      59.900 -28.346   4.028  1.00  0.00     0.004 C 
ENDBRANCH  14  15
ENDBRANCH  13  14
ENDBRANCH  12  13
ENDBRANCH  11  12
ENDBRANCH  10  11
ENDBRANCH   1  10
TORSDOF 12
ENDMDL
MODEL 4
REMARK VINA RESULT:    -4.566      2.444      4.822
REMARK INTER + INTRA:          -9.115
REMARK INTER:                  -7.843
REMARK INTRA:                  -1.272
REMARK UNBOUND:                -1.346
REMARK SMILES CCCCCCCCCCCCCC(=O)[O-]
REMARK SMILES IDX 8 1 9 2 10 3 11 4 12 5 13 6 14 7 15 8 16 9 7 10 6 11 5 12
REMARK SMILES IDX 4 13 3 14 2 15 1 16
REMARK H PARENT
REMARK Flexibility Score: inf
ROOT
ATOM      1  C   UNL     1      62.916 -28.278  -1.990  1.00  0.00     0.000 C 
ENDROOT
BRANCH   1   2
ATOM      2  C   UNL     1      62.901 -28.858  -0.566  1.00  0.00     0.000 C 
BRANCH   2   3
ATOM      3  C   UNL     1      61.481 -29.188  -0.075  1.00  0.00     0.000 C 
BRANCH   3   4
ATOM      4  C   UNL     1      60.404 -28.919  -1.142  1.00  0.00     0.000 C 
BRANCH   4   5
ATOM      5  C   UNL     1      58.990 -28.724  -0.555  1.00  0.00     0.006 C 
BRANCH   5   6
ATOM      6  C   UNL     1      58.339 -27.419  -1.031  1.00  0.00     0.053 C 
BRANCH   6   7
ATOM      7  C   UNL     1      57.346 -27.696  -2.116  1.00  0.00     0.041 C 
ATOM      8  O   UNL     1      56.738 -28.797  -2.154  1.00  0.00    -0.550 OA
ATOM      9  O   UNL     1      57.054 -26.716  -3.058  1.00  0.00    -0.550 OA
ENDBRANCH   6   7
ENDBRANCH   5   6
ENDBRANCH   4   5
ENDBRANCH   3   4
ENDBRANCH   2   3
ENDBRANCH   1   2
BRANCH   1  10
ATOM     10  C   UNL     1      63.627 -26.915  -2.064  1.00  0.00     0.000 C 
BRANCH  10  11
ATOM     11  C   UNL     1      62.867 -25.899  -2.930  1.00  0.00    -0.000 C 
BRANCH  11  12
ATOM     12  C   UNL     1      61.403 -26.300  -3.170  1.00  0.00    -0.000 C 
BRANCH  12  13
ATOM     13  C   UNL     1      60.460 -25.121  -2.899  1.00  0.00    -0.000 C 
BRANCH  13  14
ATOM     14  C   UNL     1      59.947 -24.514  -4.214  1.00  0.00    -0.000 C 
BRANCH  14  15
ATOM     15  C   UNL     1      59.985 -25.513  -5.379  1.00  0.00    -0.003 C 
ATOM     16  C   UNL     1      60.747 -24.981  -6.593  1.00  0.00     0.004 C 
ENDBRANCH  14  15
ENDBRANCH  13  14
ENDBRANCH  12  13
ENDBRANCH  11  12
ENDBRANCH  10  11
ENDBRANCH   1  10
TORSDOF 12
ENDMDL
MODEL 5
REMARK VINA RESULT:    -4.560      3.165      5.191
REMARK INTER + INTRA:          -9.106
REMARK INTER:                  -7.649
REMARK INTRA:                  -1.457
REMARK UNBOUND:                -1.346
REMARK SMILES CCCCCCCCCCCCCC(=O)[O-]
REMARK SMILES IDX 8 1 9 2 10 3 11 4 12 5 13 6 14 7 15 8 16 9 7 10 6 11 5 12
REMARK SMILES IDX 4 13 3 14 2 15 1 16
REMARK H PARENT
REMARK Flexibility Score: inf
ROOT
ATOM      1  C   UNL     1      63.706 -26.859  -2.080  1.00  0.00     0.000 C 
ENDROOT
BRANCH   1   2
ATOM      2  C   UNL     1      63.118 -28.276  -1.970  1.00  0.00     0.000 C 
BRANCH   2   3
ATOM      3  C   UNL     1      63.025 -28.768  -0.516  1.00  0.00     0.000 C 
BRANCH   3   4
ATOM      4  C   UNL     1      61.607 -29.226  -0.131  1.00  0.00     0.000 C 
BRANCH   4   5
ATOM      5  C   UNL     1      60.545 -28.919  -1.208  1.00  0.00     0.006 C 
BRANCH   5   6
ATOM      6  C   UNL     1      59.263 -28.327  -0.608  1.00  0.00     0.053 C 
BRANCH   6   7
ATOM      7  C   UNL     1      58.189 -29.367  -0.541  1.00  0.00     0.041 C 
ATOM      8  O   UNL     1      57.151 -29.251  -1.243  1.00  0.00    -0.550 OA
ATOM      9  O   UNL     1      58.356 -30.489   0.260  1.00  0.00    -0.550 OA
ENDBRANCH   6   7
ENDBRANCH   5   6
ENDBRANCH   4   5
ENDBRANCH   3   4
ENDBRANCH   2   3
ENDBRANCH   1   2
BRANCH   1  10
ATOM     10  C   UNL     1      62.942 -25.980  -3.085  1.00  0.00     0.000 C 
BRANCH  10  11
ATOM     11  C   UNL     1      61.448 -25.859  -2.747  1.00  0.00    -0.000 C 
BRANCH  11  12
ATOM     12  C   UNL     1      60.575 -25.626  -3.989  1.00  0.00    -0.000 C 
BRANCH  12  13
ATOM     13  C   UNL     1      59.278 -26.442  -3.910  1.00  0.00    -0.000 C 
BRANCH  13  14
ATOM     14  C   UNL     1      58.059 -25.522  -3.740  1.00  0.00    -0.000 C 
BRANCH  14  15
ATOM     15  C   UNL     1      57.118 -25.990  -2.619  1.00  0.00    -0.003 C 
ATOM     16  C   UNL     1      57.319 -25.219  -1.315  1.00  0.00     0.004 C 
ENDBRANCH  14  15
ENDBRANCH  13  14
ENDBRANCH  12  13
ENDBRANCH  11  12
ENDBRANCH  10  11
ENDBRANCH   1  10
TORSDOF 12
ENDMDL
MODEL 6
REMARK VINA RESULT:    -4.547      1.325      3.181
REMARK INTER + INTRA:          -9.082
REMARK INTER:                  -7.682
REMARK INTRA:                  -1.400
REMARK UNBOUND:                -1.346
REMARK SMILES CCCCCCCCCCCCCC(=O)[O-]
REMARK SMILES IDX 8 1 9 2 10 3 11 4 12 5 13 6 14 7 15 8 16 9 7 10 6 11 5 12
REMARK SMILES IDX 4 13 3 14 2 15 1 16
REMARK H PARENT
REMARK Flexibility Score: inf
ROOT
ATOM      1  C   UNL     1      62.941 -28.876  -0.526  1.00  0.00     0.000 C 
ENDROOT
BRANCH   1   2
ATOM      2  C   UNL     1      62.828 -28.272  -1.936  1.00  0.00     0.000 C 
BRANCH   2   3
ATOM      3  C   UNL     1      63.595 -26.947  -2.077  1.00  0.00     0.000 C 
BRANCH   3   4
ATOM      4  C   UNL     1      62.812 -25.886  -2.871  1.00  0.00     0.000 C 
BRANCH   4   5
ATOM      5  C   UNL     1      61.337 -26.266  -3.122  1.00  0.00     0.006 C 
BRANCH   5   6
ATOM      6  C   UNL     1      60.398 -25.060  -2.998  1.00  0.00     0.053 C 
BRANCH   6   7
ATOM      7  C   UNL     1      59.747 -24.767  -4.313  1.00  0.00     0.041 C 
ATOM      8  O   UNL     1      59.339 -25.707  -5.043  1.00  0.00    -0.550 OA
ATOM      9  O   UNL     1      59.547 -23.450  -4.711  1.00  0.00    -0.550 OA
ENDBRANCH   6   7
ENDBRANCH   5   6
ENDBRANCH   4   5
ENDBRANCH   3   4
ENDBRANCH   2   3
ENDBRANCH   1   2
BRANCH   1  10
ATOM     10  C   UNL     1      61.568 -29.088   0.136  1.00  0.00     0.000 C 
BRANCH  10  11
ATOM     11  C   UNL     1      60.435 -29.240  -0.891  1.00  0.00    -0.000 C 
BRANCH  11  12
ATOM     12  C   UNL     1      59.120 -29.718  -0.257  1.00  0.00    -0.000 C 
BRANCH  12  13
ATOM     13  C   UNL     1      58.088 -28.584  -0.211  1.00  0.00    -0.000 C 
BRANCH  13  14
ATOM     14  C   UNL     1      58.388 -27.524  -1.282  1.00  0.00    -0.000 C 
BRANCH  14  15
ATOM     15  C   UNL     1      57.522 -27.694  -2.539  1.00  0.00    -0.003 C 
ATOM     16  C   UNL     1      56.657 -26.469  -2.834  1.00  0.00     0.004 C 
ENDBRANCH  14  15
ENDBRANCH  13  14
ENDBRANCH  12  13
ENDBRANCH  11  12
ENDBRANCH  10  11
ENDBRANCH   1  10
TORSDOF 12
ENDMDL
MODEL 7
REMARK VINA RESULT:    -4.542      2.049      2.476
REMARK INTER + INTRA:          -9.075
REMARK INTER:                  -7.795
REMARK INTRA:                  -1.280
REMARK UNBOUND:                -1.346
REMARK SMILES CCCCCCCCCCCCCC(=O)[O-]
REMARK SMILES IDX 8 1 9 2 10 3 11 4 12 5 13 6 14 7 15 8 16 9 7 10 6 11 5 12
REMARK SMILES IDX 4 13 3 14 2 15 1 16
REMARK H PARENT
REMARK Flexibility Score: inf
ROOT
ATOM      1  C   UNL     1      63.667 -27.041  -2.045  1.00  0.00     0.000 C 
ENDROOT
BRANCH   1   2
ATOM      2  C   UNL     1      62.891 -25.884  -2.696  1.00  0.00     0.000 C 
BRANCH   2   3
ATOM      3  C   UNL     1      61.448 -26.271  -3.064  1.00  0.00     0.000 C 
BRANCH   3   4
ATOM      4  C   UNL     1      60.631 -25.082  -3.601  1.00  0.00     0.000 C 
BRANCH   4   5
ATOM      5  C   UNL     1      60.049 -25.319  -5.010  1.00  0.00     0.006 C 
BRANCH   5   6
ATOM      6  C   UNL     1      61.073 -25.036  -6.117  1.00  0.00     0.053 C 
BRANCH   6   7
ATOM      7  C   UNL     1      60.433 -25.149  -7.464  1.00  0.00     0.041 C 
ATOM      8  O   UNL     1      59.221 -24.847  -7.618  1.00  0.00    -0.550 OA
ATOM      9  O   UNL     1      61.189 -25.542  -8.562  1.00  0.00    -0.550 OA
ENDBRANCH   6   7
ENDBRANCH   5   6
ENDBRANCH   4   5
ENDBRANCH   3   4
ENDBRANCH   2   3
ENDBRANCH   1   2
BRANCH   1  10
ATOM     10  C   UNL     1      62.844 -28.338  -1.975  1.00  0.00     0.000 C 
BRANCH  10  11
ATOM     11  C   UNL     1      62.765 -28.912  -0.552  1.00  0.00    -0.000 C 
BRANCH  11  12
ATOM     12  C   UNL     1      61.329 -28.956  -0.008  1.00  0.00    -0.000 C 
BRANCH  12  13
ATOM     13  C   UNL     1      60.320 -29.181  -1.141  1.00  0.00    -0.000 C 
BRANCH  13  14
ATOM     14  C   UNL     1      58.943 -28.607  -0.771  1.00  0.00    -0.000 C 
BRANCH  14  15
ATOM     15  C   UNL     1      58.312 -27.802  -1.918  1.00  0.00    -0.003 C 
ATOM     16  C   UNL     1      57.905 -26.390  -1.497  1.00  0.00     0.004 C 
ENDBRANCH  14  15
ENDBRANCH  13  14
ENDBRANCH  12  13
ENDBRANCH  11  12
ENDBRANCH  10  11
ENDBRANCH   1  10
TORSDOF 12
ENDMDL
MODEL 8
REMARK VINA RESULT:    -4.532      2.187      2.420
REMARK INTER + INTRA:          -9.057
REMARK INTER:                  -7.740
REMARK INTRA:                  -1.317
REMARK UNBOUND:                -1.346
REMARK SMILES CCCCCCCCCCCCCC(=O)[O-]
REMARK SMILES IDX 8 1 9 2 10 3 11 4 12 5 13 6 14 7 15 8 16 9 7 10 6 11 5 12
REMARK SMILES IDX 4 13 3 14 2 15 1 16
REMARK H PARENT
REMARK Flexibility Score: inf
ROOT
ATOM      1  C   UNL     1      62.841 -25.902  -3.032  1.00  0.00     0.000 C 
ENDROOT
BRANCH   1   2
ATOM      2  C   UNL     1      61.362 -26.223  -3.309  1.00  0.00     0.000 C 
BRANCH   2   3
ATOM      3  C   UNL     1      60.448 -24.997  -3.143  1.00  0.00     0.000 C 
BRANCH   3   4
ATOM      4  C   UNL     1      59.388 -24.890  -4.254  1.00  0.00     0.000 C 
BRANCH   4   5
ATOM      5  C   UNL     1      59.846 -25.482  -5.604  1.00  0.00     0.006 C 
BRANCH   5   6
ATOM      6  C   UNL     1      60.588 -24.453  -6.467  1.00  0.00     0.053 C 
BRANCH   6   7
ATOM      7  C   UNL     1      60.648 -24.911  -7.891  1.00  0.00     0.041 C 
ATOM      8  O   UNL     1      60.505 -24.085  -8.829  1.00  0.00    -0.550 OA
ATOM      9  O   UNL     1      60.910 -26.244  -8.181  1.00  0.00    -0.550 OA
ENDBRANCH   6   7
ENDBRANCH   5   6
ENDBRANCH   4   5
ENDBRANCH   3   4
ENDBRANCH   2   3
ENDBRANCH   1   2
BRANCH   1  10
ATOM     10  C   UNL     1      63.482 -26.887  -2.039  1.00  0.00     0.000 C 
BRANCH  10  11
ATOM     11  C   UNL     1      62.781 -28.254  -2.028  1.00  0.00    -0.000 C 
BRANCH  11  12
ATOM     12  C   UNL     1      62.676 -28.856  -0.618  1.00  0.00    -0.000 C 
BRANCH  12  13
ATOM     13  C   UNL     1      61.215 -28.928  -0.159  1.00  0.00    -0.000 C 
BRANCH  13  14
ATOM     14  C   UNL     1      60.258 -28.898  -1.361  1.00  0.00    -0.000 C 
BRANCH  14  15
ATOM     15  C   UNL     1      58.958 -28.138  -1.062  1.00  0.00    -0.003 C 
ATOM     16  C   UNL     1      58.117 -27.886  -2.313  1.00  0.00     0.004 C 
ENDBRANCH  14  15
ENDBRANCH  13  14
ENDBRANCH  12  13
ENDBRANCH  11  12
ENDBRANCH  10  11
ENDBRANCH   1  10
TORSDOF 12
ENDMDL
MODEL 9
REMARK VINA RESULT:    -4.514      2.102      2.651
REMARK INTER + INTRA:          -9.026
REMARK INTER:                  -7.750
REMARK INTRA:                  -1.276
REMARK UNBOUND:                -1.346
REMARK SMILES CCCCCCCCCCCCCC(=O)[O-]
REMARK SMILES IDX 8 1 9 2 10 3 11 4 12 5 13 6 14 7 15 8 16 9 7 10 6 11 5 12
REMARK SMILES IDX 4 13 3 14 2 15 1 16
REMARK H PARENT
REMARK Flexibility Score: inf
ROOT
ATOM      1  C   UNL     1      63.661 -27.056  -1.776  1.00  0.00     0.000 C 
ENDROOT
BRANCH   1   2
ATOM      2  C   UNL     1      63.263 -26.401  -3.109  1.00  0.00     0.000 C 
BRANCH   2   3
ATOM      3  C   UNL     1      61.968 -25.577  -3.003  1.00  0.00     0.000 C 
BRANCH   3   4
ATOM      4  C   UNL     1      61.009 -25.819  -4.182  1.00  0.00     0.000 C 
BRANCH   4   5
ATOM      5  C   UNL     1      59.545 -26.049  -3.750  1.00  0.00     0.006 C 
BRANCH   5   6
ATOM      6  C   UNL     1      59.274 -25.545  -2.327  1.00  0.00     0.053 C 
BRANCH   6   7
ATOM      7  C   UNL     1      57.837 -25.752  -1.963  1.00  0.00     0.041 C 
ATOM      8  O   UNL     1      56.928 -25.183  -2.622  1.00  0.00    -0.550 OA
ATOM      9  O   UNL     1      57.500 -26.613  -0.926  1.00  0.00    -0.550 OA
ENDBRANCH   6   7
ENDBRANCH   5   6
ENDBRANCH   4   5
ENDBRANCH   3   4
ENDBRANCH   2   3
ENDBRANCH   1   2
BRANCH   1  10
ATOM     10  C   UNL     1      63.314 -28.554  -1.728  1.00  0.00     0.000 C 
BRANCH  10  11
ATOM     11  C   UNL     1      62.198 -28.869  -0.720  1.00  0.00    -0.000 C 
BRANCH  11  12
ATOM     12  C   UNL     1      60.793 -28.718  -1.323  1.00  0.00    -0.000 C 
BRANCH  12  13
ATOM     13  C   UNL     1      59.729 -29.315  -0.393  1.00  0.00    -0.000 C 
BRANCH  13  14
ATOM     14  C   UNL     1      60.233 -29.364   1.058  1.00  0.00    -0.000 C 
BRANCH  14  15
ATOM     15  C   UNL     1      59.213 -28.794   2.056  1.00  0.00    -0.003 C 
ATOM     16  C   UNL     1      57.772 -29.163   1.707  1.00  0.00     0.004 C 
ENDBRANCH  14  15
ENDBRANCH  13  14
ENDBRANCH  12  13
ENDBRANCH  11  12
ENDBRANCH  10  11
ENDBRANCH   1  10
TORSDOF 12
ENDMDL
