MODEL 1
REMARK VINA RESULT:    -3.198      0.000      0.000
REMARK INTER + INTRA:          -3.398
REMARK INTER:                  -3.384
REMARK INTRA:                  -0.014
REMARK UNBOUND:                -0.014
REMARK SMILES O=Cc1ccco1
REMARK SMILES IDX 5 1 6 2 7 3 3 4 4 5 2 6 1 7
REMARK H PARENT
REMARK Flexibility Score: inf
ROOT
ATOM      1  C   UNL     1     -10.990 -28.661  19.163  1.00  0.00     0.043 A 
ATOM      2  C   UNL     1     -10.011 -28.894  20.108  1.00  0.00     0.196 A 
ATOM      3  O   UNL     1      -8.893 -28.311  19.740  1.00  0.00    -0.462 OA
ATOM      4  C   UNL     1      -9.095 -27.705  18.594  1.00  0.00     0.166 A 
ATOM      5  C   UNL     1     -10.400 -27.892  18.182  1.00  0.00     0.054 A 
ENDROOT
BRANCH   4   6
ATOM      6  C   UNL     1      -8.063 -26.948  17.881  1.00  0.00     0.298 C 
ATOM      7  O   UNL     1      -7.295 -26.166  18.502  1.00  0.00    -0.294 OA
ENDBRANCH   4   6
TORSDOF 1
ENDMDL
MODEL 2
REMARK VINA RESULT:    -3.143     13.700     14.981
REMARK INTER + INTRA:          -3.340
REMARK INTER:                  -3.330
REMARK INTRA:                  -0.011
REMARK UNBOUND:                -0.014
REMARK SMILES O=Cc1ccco1
REMARK SMILES IDX 5 1 6 2 7 3 3 4 4 5 2 6 1 7
REMARK H PARENT
REMARK Flexibility Score: inf
ROOT
ATOM      1  C   UNL     1      -1.040 -16.316  19.546  1.00  0.00     0.043 A 
ATOM      2  C   UNL     1      -1.908 -16.703  20.547  1.00  0.00     0.196 A 
ATOM      3  O   UNL     1      -2.513 -15.647  21.041  1.00  0.00    -0.462 OA
ATOM      4  C   UNL     1      -2.079 -14.583  20.408  1.00  0.00     0.166 A 
ATOM      5  C   UNL     1      -1.149 -14.945  19.454  1.00  0.00     0.054 A 
ENDROOT
BRANCH   4   6
ATOM      6  C   UNL     1      -2.538 -13.222  20.697  1.00  0.00     0.298 C 
ATOM      7  O   UNL     1      -3.594 -12.775  20.177  1.00  0.00    -0.294 OA
ENDBRANCH   4   6
TORSDOF 1
ENDMDL
MODEL 3
REMARK VINA RESULT:    -3.129     20.197     21.514
REMARK INTER + INTRA:          -3.325
REMARK INTER:                  -3.315
REMARK INTRA:                  -0.011
REMARK UNBOUND:                -0.014
REMARK SMILES O=Cc1ccco1
REMARK SMILES IDX 5 1 6 2 7 3 3 4 4 5 2 6 1 7
REMARK H PARENT
REMARK Flexibility Score: inf
ROOT
ATOM      1  C   UNL     1       6.490 -12.117  17.385  1.00  0.00     0.043 A 
ATOM      2  C   UNL     1       6.201 -11.297  16.312  1.00  0.00     0.196 A 
ATOM      3  O   UNL     1       5.666 -12.006  15.344  1.00  0.00    -0.462 OA
ATOM      4  C   UNL     1       5.591 -13.257  15.735  1.00  0.00     0.166 A 
ATOM      5  C   UNL     1       6.096 -13.385  17.014  1.00  0.00     0.054 A 
ENDROOT
BRANCH   4   6
ATOM      6  C   UNL     1       5.044 -14.335  14.908  1.00  0.00     0.298 C 
ATOM      7  O   UNL     1       5.753 -14.895  14.030  1.00  0.00    -0.294 OA
ENDBRANCH   4   6
TORSDOF 1
ENDMDL
MODEL 4
REMARK VINA RESULT:    -3.106     10.687     11.698
REMARK INTER + INTRA:          -3.302
REMARK INTER:                  -3.290
REMARK INTRA:                  -0.012
REMARK UNBOUND:                -0.014
REMARK SMILES O=Cc1ccco1
REMARK SMILES IDX 5 1 6 2 7 3 3 4 4 5 2 6 1 7
REMARK H PARENT
REMARK Flexibility Score: inf
ROOT
ATOM      1  C   UNL     1      -4.608 -19.446  21.650  1.00  0.00     0.043 A 
ATOM      2  C   UNL     1      -4.166 -18.734  22.747  1.00  0.00     0.196 A 
ATOM      3  O   UNL     1      -3.421 -17.727  22.351  1.00  0.00    -0.462 OA
ATOM      4  C   UNL     1      -3.355 -17.746  21.040  1.00  0.00     0.166 A 
ATOM      5  C   UNL     1      -4.085 -18.809  20.544  1.00  0.00     0.054 A 
ENDROOT
BRANCH   4   6
ATOM      6  C   UNL     1      -2.607 -16.766  20.249  1.00  0.00     0.298 C 
ATOM      7  O   UNL     1      -1.350 -16.723  20.302  1.00  0.00    -0.294 OA
ENDBRANCH   4   6
TORSDOF 1
ENDMDL
MODEL 5
REMARK VINA RESULT:    -3.058      1.927      3.538
REMARK INTER + INTRA:          -3.250
REMARK INTER:                  -3.240
REMARK INTRA:                  -0.010
REMARK UNBOUND:                -0.014
REMARK SMILES O=Cc1ccco1
REMARK SMILES IDX 5 1 6 2 7 3 3 4 4 5 2 6 1 7
REMARK H PARENT
REMARK Flexibility Score: inf
ROOT
ATOM      1  C   UNL     1      -7.096 -27.286  16.063  1.00  0.00     0.043 A 
ATOM      2  C   UNL     1      -7.235 -28.658  16.004  1.00  0.00     0.196 A 
ATOM      3  O   UNL     1      -7.993 -29.070  16.994  1.00  0.00    -0.462 OA
ATOM      4  C   UNL     1      -8.358 -28.026  17.702  1.00  0.00     0.166 A 
ATOM      5  C   UNL     1      -7.821 -26.875  17.161  1.00  0.00     0.054 A 
ENDROOT
BRANCH   4   6
ATOM      6  C   UNL     1      -9.213 -28.108  18.889  1.00  0.00     0.298 C 
ATOM      7  O   UNL     1     -10.465 -28.025  18.787  1.00  0.00    -0.294 OA
ENDBRANCH   4   6
TORSDOF 1
ENDMDL
MODEL 6
REMARK VINA RESULT:    -3.010     12.505     14.216
REMARK INTER + INTRA:          -3.200
REMARK INTER:                  -3.189
REMARK INTRA:                  -0.011
REMARK UNBOUND:                -0.014
REMARK SMILES O=Cc1ccco1
REMARK SMILES IDX 5 1 6 2 7 3 3 4 4 5 2 6 1 7
REMARK H PARENT
REMARK Flexibility Score: inf
ROOT
ATOM      1  C   UNL     1      -0.869 -14.828  19.408  1.00  0.00     0.043 A 
ATOM      2  C   UNL     1      -1.780 -14.191  20.226  1.00  0.00     0.196 A 
ATOM      3  O   UNL     1      -2.505 -15.084  20.861  1.00  0.00    -0.462 OA
ATOM      4  C   UNL     1      -2.110 -16.280  20.494  1.00  0.00     0.166 A 
ATOM      5  C   UNL     1      -1.080 -16.180  19.579  1.00  0.00     0.054 A 
ENDROOT
BRANCH   4   6
ATOM      6  C   UNL     1      -2.698 -17.522  21.002  1.00  0.00     0.298 C 
ATOM      7  O   UNL     1      -3.762 -17.979  20.507  1.00  0.00    -0.294 OA
ENDBRANCH   4   6
TORSDOF 1
ENDMDL
MODEL 7
REMARK VINA RESULT:    -2.951     21.223     22.613
REMARK INTER + INTRA:          -3.137
REMARK INTER:                  -3.127
REMARK INTRA:                  -0.011
REMARK UNBOUND:                -0.014
REMARK SMILES O=Cc1ccco1
REMARK SMILES IDX 5 1 6 2 7 3 3 4 4 5 2 6 1 7
REMARK H PARENT
REMARK Flexibility Score: inf
ROOT
ATOM      1  C   UNL     1       5.820 -13.363  17.015  1.00  0.00     0.043 A 
ATOM      2  C   UNL     1       5.295 -13.206  15.748  1.00  0.00     0.196 A 
ATOM      3  O   UNL     1       5.614 -12.021  15.280  1.00  0.00    -0.462 OA
ATOM      4  C   UNL     1       6.326 -11.392  16.185  1.00  0.00     0.166 A 
ATOM      5  C   UNL     1       6.488 -12.191  17.300  1.00  0.00     0.054 A 
ENDROOT
BRANCH   4   6
ATOM      6  C   UNL     1       6.858 -10.039  16.006  1.00  0.00     0.298 C 
ATOM      7  O   UNL     1       7.999  -9.858  15.506  1.00  0.00    -0.294 OA
ENDBRANCH   4   6
TORSDOF 1
ENDMDL
MODEL 8
REMARK VINA RESULT:    -2.908     21.100     22.213
REMARK INTER + INTRA:          -3.092
REMARK INTER:                  -3.082
REMARK INTRA:                  -0.010
REMARK UNBOUND:                -0.014
REMARK SMILES O=Cc1ccco1
REMARK SMILES IDX 5 1 6 2 7 3 3 4 4 5 2 6 1 7
REMARK H PARENT
REMARK Flexibility Score: inf
ROOT
ATOM      1  C   UNL     1       4.826 -13.042  16.775  1.00  0.00     0.043 A 
ATOM      2  C   UNL     1       4.531 -11.713  17.006  1.00  0.00     0.196 A 
ATOM      3  O   UNL     1       5.604 -11.089  17.435  1.00  0.00    -0.462 OA
ATOM      4  C   UNL     1       6.593 -11.950  17.495  1.00  0.00     0.166 A 
ATOM      5  C   UNL     1       6.160 -13.198  17.090  1.00  0.00     0.054 A 
ENDROOT
BRANCH   4   6
ATOM      6  C   UNL     1       7.947 -11.604  17.932  1.00  0.00     0.298 C 
ATOM      7  O   UNL     1       8.377 -11.982  19.053  1.00  0.00    -0.294 OA
ENDBRANCH   4   6
TORSDOF 1
ENDMDL
MODEL 9
REMARK VINA RESULT:    -2.781     20.741     22.478
REMARK INTER + INTRA:          -2.957
REMARK INTER:                  -2.947
REMARK INTRA:                  -0.010
REMARK UNBOUND:                -0.014
REMARK SMILES O=Cc1ccco1
REMARK SMILES IDX 5 1 6 2 7 3 3 4 4 5 2 6 1 7
REMARK H PARENT
REMARK Flexibility Score: inf
ROOT
ATOM      1  C   UNL     1       7.693 -10.712  17.736  1.00  0.00     0.043 A 
ATOM      2  C   UNL     1       8.119 -11.935  18.213  1.00  0.00     0.196 A 
ATOM      3  O   UNL     1       7.249 -12.864  17.890  1.00  0.00    -0.462 OA
ATOM      4  C   UNL     1       6.268 -12.304  17.222  1.00  0.00     0.166 A 
ATOM      5  C   UNL     1       6.496 -10.947  17.094  1.00  0.00     0.054 A 
ENDROOT
BRANCH   4   6
ATOM      6  C   UNL     1       5.114 -13.040  16.700  1.00  0.00     0.298 C 
ATOM      7  O   UNL     1       5.112 -13.479  15.520  1.00  0.00    -0.294 OA
ENDBRANCH   4   6
TORSDOF 1
ENDMDL
