MODEL 1
REMARK VINA RESULT:    -6.271      0.000      0.000
REMARK INTER + INTRA:         -10.357
REMARK INTER:                  -9.571
REMARK INTRA:                  -0.786
REMARK UNBOUND:                -0.786
REMARK SMILES CC(=O)CCC=C(C)CCC=C(C)CCC=C(C)C
REMARK SMILES IDX 10 1 11 2 12 3 13 4 14 5 15 6 16 7 18 8 17 9 19 10 9 11 7 12
REMARK SMILES IDX 6 13 8 14 5 15 4 16 2 17 3 18 1 19
REMARK H PARENT
REMARK Flexibility Score: inf
ROOT
ATOM      1  C   UNL     1      19.374   1.424  19.096  1.00  0.00     0.032 C 
ENDROOT
BRANCH   1   2
ATOM      2  C   UNL     1      19.401   1.578  20.596  1.00  0.00    -0.028 C 
ATOM      3  C   UNL     1      19.515   0.550  21.467  1.00  0.00    -0.077 C 
ATOM      4  C   UNL     1      19.668  -0.879  21.000  1.00  0.00     0.039 C 
BRANCH   3   5
ATOM      5  C   UNL     1      19.499   0.842  22.952  1.00  0.00     0.034 C 
BRANCH   5   6
ATOM      6  C   UNL     1      18.167   1.477  23.368  1.00  0.00     0.032 C 
BRANCH   6   7
ATOM      7  C   UNL     1      17.177   0.420  23.791  1.00  0.00    -0.028 C 
ATOM      8  C   UNL     1      15.171  -0.493  24.877  1.00  0.00     0.039 C 
ATOM      9  C   UNL     1      16.091   0.657  24.560  1.00  0.00    -0.080 C 
ATOM     10  C   UNL     1      15.792   2.027  25.124  1.00  0.00     0.039 C 
ENDBRANCH   6   7
ENDBRANCH   5   6
ENDBRANCH   3   5
ENDBRANCH   1   2
BRANCH   1  11
ATOM     11  C   UNL     1      18.395   2.421  18.465  1.00  0.00     0.034 C 
BRANCH  11  12
ATOM     12  C   UNL     1      19.052   3.770  18.267  1.00  0.00    -0.077 C 
ATOM     13  C   UNL     1      18.267   4.860  18.102  1.00  0.00    -0.028 C 
ATOM     14  C   UNL     1      20.559   3.861  18.250  1.00  0.00     0.039 C 
BRANCH  13  15
ATOM     15  C   UNL     1      18.779   6.273  17.956  1.00  0.00     0.035 C 
BRANCH  15  16
ATOM     16  C   UNL     1      18.844   6.995  19.307  1.00  0.00     0.079 C 
BRANCH  16  17
ATOM     17  C   UNL     1      18.122   8.319  19.265  1.00  0.00     0.130 C 
ATOM     18  O   UNL     1      17.481   8.625  18.269  1.00  0.00    -0.300 OA
ATOM     19  C   UNL     1      18.170   9.270  20.423  1.00  0.00     0.087 C 
ENDBRANCH  16  17
ENDBRANCH  15  16
ENDBRANCH  13  15
ENDBRANCH  11  12
ENDBRANCH   1  11
TORSDOF 9
ENDMDL
MODEL 2
REMARK VINA RESULT:    -6.261      1.504      2.839
REMARK INTER + INTRA:         -10.342
REMARK INTER:                  -9.233
REMARK INTRA:                  -1.109
REMARK UNBOUND:                -0.786
REMARK SMILES CC(=O)CCC=C(C)CCC=C(C)CCC=C(C)C
REMARK SMILES IDX 10 1 11 2 12 3 13 4 14 5 15 6 16 7 18 8 17 9 19 10 9 11 7 12
REMARK SMILES IDX 6 13 8 14 5 15 4 16 2 17 3 18 1 19
REMARK H PARENT
REMARK Flexibility Score: inf
ROOT
ATOM      1  C   UNL     1      19.822   2.825  20.249  1.00  0.00     0.032 C 
ENDROOT
BRANCH   1   2
ATOM      2  C   UNL     1      19.066   2.159  21.370  1.00  0.00    -0.028 C 
ATOM      3  C   UNL     1      19.346   2.320  22.683  1.00  0.00    -0.077 C 
ATOM      4  C   UNL     1      20.449   3.239  23.156  1.00  0.00     0.039 C 
BRANCH   3   5
ATOM      5  C   UNL     1      18.525   1.566  23.707  1.00  0.00     0.034 C 
BRANCH   5   6
ATOM      6  C   UNL     1      17.918   0.300  23.092  1.00  0.00     0.032 C 
BRANCH   6   7
ATOM      7  C   UNL     1      18.789  -0.901  23.365  1.00  0.00    -0.028 C 
ATOM      8  C   UNL     1      20.389  -2.696  22.858  1.00  0.00     0.039 C 
ATOM      9  C   UNL     1      19.542  -1.525  22.432  1.00  0.00    -0.080 C 
ATOM     10  C   UNL     1      19.538  -1.098  20.982  1.00  0.00     0.039 C 
ENDBRANCH   6   7
ENDBRANCH   5   6
ENDBRANCH   3   5
ENDBRANCH   1   2
BRANCH   1  11
ATOM     11  C   UNL     1      19.147   2.551  18.900  1.00  0.00     0.034 C 
BRANCH  11  12
ATOM     12  C   UNL     1      18.412   3.778  18.406  1.00  0.00    -0.077 C 
ATOM     13  C   UNL     1      18.840   4.999  18.805  1.00  0.00    -0.028 C 
ATOM     14  C   UNL     1      17.222   3.608  17.494  1.00  0.00     0.039 C 
BRANCH  13  15
ATOM     15  C   UNL     1      18.245   6.309  18.347  1.00  0.00     0.035 C 
BRANCH  15  16
ATOM     16  C   UNL     1      18.992   7.510  18.943  1.00  0.00     0.079 C 
BRANCH  16  17
ATOM     17  C   UNL     1      18.050   8.638  19.280  1.00  0.00     0.130 C 
ATOM     18  O   UNL     1      17.434   9.198  18.384  1.00  0.00    -0.300 OA
ATOM     19  C   UNL     1      17.850   9.088  20.697  1.00  0.00     0.087 C 
ENDBRANCH  16  17
ENDBRANCH  15  16
ENDBRANCH  13  15
ENDBRANCH  11  12
ENDBRANCH   1  11
TORSDOF 9
ENDMDL
MODEL 3
REMARK VINA RESULT:    -6.219      2.107      3.117
REMARK INTER + INTRA:         -10.278
REMARK INTER:                  -9.378
REMARK INTRA:                  -0.900
REMARK UNBOUND:                -0.786
REMARK SMILES CC(=O)CCC=C(C)CCC=C(C)CCC=C(C)C
REMARK SMILES IDX 10 1 11 2 12 3 13 4 14 5 15 6 16 7 18 8 17 9 19 10 9 11 7 12
REMARK SMILES IDX 6 13 8 14 5 15 4 16 2 17 3 18 1 19
REMARK H PARENT
REMARK Flexibility Score: inf
ROOT
ATOM      1  C   UNL     1      19.380   1.735  19.051  1.00  0.00     0.032 C 
ENDROOT
BRANCH   1   2
ATOM      2  C   UNL     1      19.425   1.913  20.547  1.00  0.00    -0.028 C 
ATOM      3  C   UNL     1      19.465   0.896  21.437  1.00  0.00    -0.077 C 
ATOM      4  C   UNL     1      19.511  -0.549  20.996  1.00  0.00     0.039 C 
BRANCH   3   5
ATOM      5  C   UNL     1      19.477   1.215  22.916  1.00  0.00     0.034 C 
BRANCH   5   6
ATOM      6  C   UNL     1      19.575   2.728  23.145  1.00  0.00     0.032 C 
BRANCH   6   7
ATOM      7  C   UNL     1      20.967   3.117  23.578  1.00  0.00    -0.028 C 
ATOM      8  C   UNL     1      22.684   4.362  24.819  1.00  0.00     0.039 C 
ATOM      9  C   UNL     1      21.244   4.107  24.456  1.00  0.00    -0.080 C 
ATOM     10  C   UNL     1      20.160   4.971  25.059  1.00  0.00     0.039 C 
ENDBRANCH   6   7
ENDBRANCH   5   6
ENDBRANCH   3   5
ENDBRANCH   1   2
BRANCH   1  11
ATOM     11  C   UNL     1      18.445   2.765  18.408  1.00  0.00     0.034 C 
BRANCH  11  12
ATOM     12  C   UNL     1      19.123   4.113  18.296  1.00  0.00    -0.077 C 
ATOM     13  C   UNL     1      18.377   5.233  18.445  1.00  0.00    -0.028 C 
ATOM     14  C   UNL     1      20.605   4.173  18.013  1.00  0.00     0.039 C 
BRANCH  13  15
ATOM     15  C   UNL     1      18.926   6.639  18.420  1.00  0.00     0.035 C 
BRANCH  15  16
ATOM     16  C   UNL     1      17.804   7.686  18.440  1.00  0.00     0.079 C 
BRANCH  16  17
ATOM     17  C   UNL     1      18.057   8.752  19.477  1.00  0.00     0.130 C 
ATOM     18  O   UNL     1      18.421   8.428  20.598  1.00  0.00    -0.300 OA
ATOM     19  C   UNL     1      17.872  10.206  19.159  1.00  0.00     0.087 C 
ENDBRANCH  16  17
ENDBRANCH  15  16
ENDBRANCH  13  15
ENDBRANCH  11  12
ENDBRANCH   1  11
TORSDOF 9
ENDMDL
MODEL 4
REMARK VINA RESULT:    -6.124      3.590      8.296
REMARK INTER + INTRA:         -10.133
REMARK INTER:                  -9.317
REMARK INTRA:                  -0.815
REMARK UNBOUND:                -0.786
REMARK SMILES CC(=O)CCC=C(C)CCC=C(C)CCC=C(C)C
REMARK SMILES IDX 10 1 11 2 12 3 13 4 14 5 15 6 16 7 18 8 17 9 19 10 9 11 7 12
REMARK SMILES IDX 6 13 8 14 5 15 4 16 2 17 3 18 1 19
REMARK H PARENT
REMARK Flexibility Score: inf
ROOT
ATOM      1  C   UNL     1      19.968   3.386  19.503  1.00  0.00     0.032 C 
ENDROOT
BRANCH   1   2
ATOM      2  C   UNL     1      19.387   4.733  19.155  1.00  0.00    -0.028 C 
ATOM      3  C   UNL     1      18.360   4.924  18.296  1.00  0.00    -0.077 C 
ATOM      4  C   UNL     1      17.659   3.767  17.621  1.00  0.00     0.039 C 
BRANCH   3   5
ATOM      5  C   UNL     1      17.893   6.335  18.013  1.00  0.00     0.034 C 
BRANCH   5   6
ATOM      6  C   UNL     1      18.390   7.300  19.096  1.00  0.00     0.032 C 
BRANCH   6   7
ATOM      7  C   UNL     1      17.982   8.718  18.780  1.00  0.00    -0.028 C 
ATOM      8  C   UNL     1      17.534  11.093  19.221  1.00  0.00     0.039 C 
ATOM      9  C   UNL     1      17.929   9.717  19.690  1.00  0.00    -0.080 C 
ATOM     10  C   UNL     1      18.228   9.485  21.153  1.00  0.00     0.039 C 
ENDBRANCH   6   7
ENDBRANCH   5   6
ENDBRANCH   3   5
ENDBRANCH   1   2
BRANCH   1  11
ATOM     11  C   UNL     1      19.782   3.082  20.994  1.00  0.00     0.034 C 
BRANCH  11  12
ATOM     12  C   UNL     1      19.443   1.623  21.208  1.00  0.00    -0.077 C 
ATOM     13  C   UNL     1      19.240   1.179  22.470  1.00  0.00    -0.028 C 
ATOM     14  C   UNL     1      19.350   0.704  20.014  1.00  0.00     0.039 C 
BRANCH  13  15
ATOM     15  C   UNL     1      18.837  -0.231  22.830  1.00  0.00     0.035 C 
BRANCH  15  16
ATOM     16  C   UNL     1      20.054  -1.097  23.180  1.00  0.00     0.079 C 
BRANCH  16  17
ATOM     17  C   UNL     1      20.059  -2.389  22.404  1.00  0.00     0.130 C 
ATOM     18  O   UNL     1      20.059  -3.454  23.005  1.00  0.00    -0.300 OA
ATOM     19  C   UNL     1      20.060  -2.397  20.904  1.00  0.00     0.087 C 
ENDBRANCH  16  17
ENDBRANCH  15  16
ENDBRANCH  13  15
ENDBRANCH  11  12
ENDBRANCH   1  11
TORSDOF 9
ENDMDL
MODEL 5
REMARK VINA RESULT:    -5.975      2.458      7.532
REMARK INTER + INTRA:          -9.906
REMARK INTER:                  -8.922
REMARK INTRA:                  -0.984
REMARK UNBOUND:                -0.786
REMARK SMILES CC(=O)CCC=C(C)CCC=C(C)CCC=C(C)C
REMARK SMILES IDX 10 1 11 2 12 3 13 4 14 5 15 6 16 7 18 8 17 9 19 10 9 11 7 12
REMARK SMILES IDX 6 13 8 14 5 15 4 16 2 17 3 18 1 19
REMARK H PARENT
REMARK Flexibility Score: inf
ROOT
ATOM      1  C   UNL     1      18.834   2.137  20.656  1.00  0.00     0.032 C 
ENDROOT
BRANCH   1   2
ATOM      2  C   UNL     1      19.504   3.272  19.925  1.00  0.00    -0.028 C 
ATOM      3  C   UNL     1      19.093   3.763  18.734  1.00  0.00    -0.077 C 
ATOM      4  C   UNL     1      17.867   3.228  18.031  1.00  0.00     0.039 C 
BRANCH   3   5
ATOM      5  C   UNL     1      19.877   4.888  18.094  1.00  0.00     0.034 C 
BRANCH   5   6
ATOM      6  C   UNL     1      18.996   6.129  17.908  1.00  0.00     0.032 C 
BRANCH   6   7
ATOM      7  C   UNL     1      18.960   6.956  19.169  1.00  0.00    -0.028 C 
ATOM      8  C   UNL     1      18.273   8.793  20.649  1.00  0.00     0.039 C 
ATOM      9  C   UNL     1      18.235   8.087  19.319  1.00  0.00    -0.080 C 
ATOM     10  C   UNL     1      17.415   8.669  18.190  1.00  0.00     0.039 C 
ENDBRANCH   6   7
ENDBRANCH   5   6
ENDBRANCH   3   5
ENDBRANCH   1   2
BRANCH   1  11
ATOM     11  C   UNL     1      19.409   0.788  20.210  1.00  0.00     0.034 C 
BRANCH  11  12
ATOM     12  C   UNL     1      19.656  -0.112  21.401  1.00  0.00    -0.077 C 
ATOM     13  C   UNL     1      19.761   0.446  22.630  1.00  0.00    -0.028 C 
ATOM     14  C   UNL     1      19.789  -1.601  21.186  1.00  0.00     0.039 C 
BRANCH  13  15
ATOM     15  C   UNL     1      19.946  -0.329  23.912  1.00  0.00     0.035 C 
BRANCH  15  16
ATOM     16  C   UNL     1      19.262   0.363  25.097  1.00  0.00     0.079 C 
BRANCH  16  17
ATOM     17  C   UNL     1      17.791   0.579  24.841  1.00  0.00     0.130 C 
ATOM     18  O   UNL     1      17.354   1.718  24.762  1.00  0.00    -0.300 OA
ATOM     19  C   UNL     1      16.851  -0.578  24.676  1.00  0.00     0.087 C 
ENDBRANCH  16  17
ENDBRANCH  15  16
ENDBRANCH  13  15
ENDBRANCH  11  12
ENDBRANCH   1  11
TORSDOF 9
ENDMDL
MODEL 6
REMARK VINA RESULT:    -5.846      2.375      7.698
REMARK INTER + INTRA:          -9.708
REMARK INTER:                  -8.994
REMARK INTRA:                  -0.713
REMARK UNBOUND:                -0.786
REMARK SMILES CC(=O)CCC=C(C)CCC=C(C)CCC=C(C)C
REMARK SMILES IDX 10 1 11 2 12 3 13 4 14 5 15 6 16 7 18 8 17 9 19 10 9 11 7 12
REMARK SMILES IDX 6 13 8 14 5 15 4 16 2 17 3 18 1 19
REMARK H PARENT
REMARK Flexibility Score: inf
ROOT
ATOM      1  C   UNL     1      19.012   2.587  19.494  1.00  0.00     0.032 C 
ENDROOT
BRANCH   1   2
ATOM      2  C   UNL     1      18.625   3.958  18.999  1.00  0.00    -0.028 C 
ATOM      3  C   UNL     1      19.462   4.804  18.357  1.00  0.00    -0.077 C 
ATOM      4  C   UNL     1      20.889   4.422  18.035  1.00  0.00     0.039 C 
BRANCH   3   5
ATOM      5  C   UNL     1      18.951   6.165  17.940  1.00  0.00     0.034 C 
BRANCH   5   6
ATOM      6  C   UNL     1      18.633   7.027  19.167  1.00  0.00     0.032 C 
BRANCH   6   7
ATOM      7  C   UNL     1      18.154   8.396  18.754  1.00  0.00    -0.028 C 
ATOM      8  C   UNL     1      17.537  10.758  19.038  1.00  0.00     0.039 C 
ATOM      9  C   UNL     1      17.994   9.437  19.601  1.00  0.00    -0.080 C 
ATOM     10  C   UNL     1      18.238   9.305  21.087  1.00  0.00     0.039 C 
ENDBRANCH   6   7
ENDBRANCH   5   6
ENDBRANCH   3   5
ENDBRANCH   1   2
BRANCH   1  11
ATOM     11  C   UNL     1      19.726   2.679  20.848  1.00  0.00     0.034 C 
BRANCH  11  12
ATOM     12  C   UNL     1      19.657   1.359  21.584  1.00  0.00    -0.077 C 
ATOM     13  C   UNL     1      19.763   1.359  22.933  1.00  0.00    -0.028 C 
ATOM     14  C   UNL     1      19.482   0.083  20.796  1.00  0.00     0.039 C 
BRANCH  13  15
ATOM     15  C   UNL     1      19.652   0.129  23.802  1.00  0.00     0.035 C 
BRANCH  15  16
ATOM     16  C   UNL     1      18.818   0.398  25.061  1.00  0.00     0.079 C 
BRANCH  16  17
ATOM     17  C   UNL     1      17.433   0.885  24.716  1.00  0.00     0.130 C 
ATOM     18  O   UNL     1      17.153   2.065  24.868  1.00  0.00    -0.300 OA
ATOM     19  C   UNL     1      16.388  -0.051  24.184  1.00  0.00     0.087 C 
ENDBRANCH  16  17
ENDBRANCH  15  16
ENDBRANCH  13  15
ENDBRANCH  11  12
ENDBRANCH   1  11
TORSDOF 9
ENDMDL
MODEL 7
REMARK VINA RESULT:    -5.791      2.393      5.165
REMARK INTER + INTRA:          -9.624
REMARK INTER:                  -8.756
REMARK INTRA:                  -0.868
REMARK UNBOUND:                -0.786
REMARK SMILES CC(=O)CCC=C(C)CCC=C(C)CCC=C(C)C
REMARK SMILES IDX 10 1 11 2 12 3 13 4 14 5 15 6 16 7 18 8 17 9 19 10 9 11 7 12
REMARK SMILES IDX 6 13 8 14 5 15 4 16 2 17 3 18 1 19
REMARK H PARENT
REMARK Flexibility Score: inf
ROOT
ATOM      1  C   UNL     1      18.957   6.775  18.712  1.00  0.00     0.032 C 
ENDROOT
BRANCH   1   2
ATOM      2  C   UNL     1      18.410   5.370  18.714  1.00  0.00    -0.028 C 
ATOM      3  C   UNL     1      19.155   4.259  18.512  1.00  0.00    -0.077 C 
ATOM      4  C   UNL     1      20.650   4.330  18.299  1.00  0.00     0.039 C 
BRANCH   3   5
ATOM      5  C   UNL     1      18.473   2.909  18.510  1.00  0.00     0.034 C 
BRANCH   5   6
ATOM      6  C   UNL     1      19.402   1.830  19.079  1.00  0.00     0.032 C 
BRANCH   6   7
ATOM      7  C   UNL     1      19.435   1.889  20.586  1.00  0.00    -0.028 C 
ATOM      8  C   UNL     1      19.567   1.020  22.881  1.00  0.00     0.039 C 
ATOM      9  C   UNL     1      19.509   0.805  21.391  1.00  0.00    -0.080 C 
ATOM     10  C   UNL     1      19.511  -0.603  20.841  1.00  0.00     0.039 C 
ENDBRANCH   6   7
ENDBRANCH   5   6
ENDBRANCH   3   5
ENDBRANCH   1   2
BRANCH   1  11
ATOM     11  C   UNL     1      17.853   7.788  18.386  1.00  0.00     0.034 C 
BRANCH  11  12
ATOM     12  C   UNL     1      17.875   8.942  19.363  1.00  0.00    -0.077 C 
ATOM     13  C   UNL     1      18.126   8.687  20.668  1.00  0.00    -0.028 C 
ATOM     14  C   UNL     1      17.607  10.340  18.860  1.00  0.00     0.039 C 
BRANCH  13  15
ATOM     15  C   UNL     1      18.239   9.742  21.743  1.00  0.00     0.035 C 
BRANCH  15  16
ATOM     16  C   UNL     1      16.887  10.011  22.417  1.00  0.00     0.079 C 
BRANCH  16  17
ATOM     17  C   UNL     1      16.470   8.864  23.304  1.00  0.00     0.130 C 
ATOM     18  O   UNL     1      17.253   8.431  24.138  1.00  0.00    -0.300 OA
ATOM     19  C   UNL     1      15.110   8.243  23.186  1.00  0.00     0.087 C 
ENDBRANCH  16  17
ENDBRANCH  15  16
ENDBRANCH  13  15
ENDBRANCH  11  12
ENDBRANCH   1  11
TORSDOF 9
ENDMDL
MODEL 8
REMARK VINA RESULT:    -5.618      2.245      4.315
REMARK INTER + INTRA:          -9.361
REMARK INTER:                  -8.932
REMARK INTRA:                  -0.428
REMARK UNBOUND:                -0.786
REMARK SMILES CC(=O)CCC=C(C)CCC=C(C)CCC=C(C)C
REMARK SMILES IDX 10 1 11 2 12 3 13 4 14 5 15 6 16 7 18 8 17 9 19 10 9 11 7 12
REMARK SMILES IDX 6 13 8 14 5 15 4 16 2 17 3 18 1 19
REMARK H PARENT
REMARK Flexibility Score: inf
ROOT
ATOM      1  C   UNL     1      19.077   5.675  18.083  1.00  0.00     0.032 C 
ENDROOT
BRANCH   1   2
ATOM      2  C   UNL     1      19.499   4.275  18.451  1.00  0.00    -0.028 C 
ATOM      3  C   UNL     1      18.738   3.173  18.262  1.00  0.00    -0.077 C 
ATOM      4  C   UNL     1      17.376   3.246  17.610  1.00  0.00     0.039 C 
BRANCH   3   5
ATOM      5  C   UNL     1      19.271   1.828  18.705  1.00  0.00     0.034 C 
BRANCH   5   6
ATOM      6  C   UNL     1      19.350   1.751  20.234  1.00  0.00     0.032 C 
BRANCH   6   7
ATOM      7  C   UNL     1      19.533   0.326  20.692  1.00  0.00    -0.028 C 
ATOM      8  C   UNL     1      19.815  -1.517  22.293  1.00  0.00     0.039 C 
ATOM      9  C   UNL     1      19.672  -0.049  21.983  1.00  0.00    -0.080 C 
ATOM     10  C   UNL     1      19.710   0.957  23.110  1.00  0.00     0.039 C 
ENDBRANCH   6   7
ENDBRANCH   5   6
ENDBRANCH   3   5
ENDBRANCH   1   2
BRANCH   1  11
ATOM     11  C   UNL     1      19.043   6.576  19.323  1.00  0.00     0.034 C 
BRANCH  11  12
ATOM     12  C   UNL     1      18.278   7.850  19.042  1.00  0.00    -0.077 C 
ATOM     13  C   UNL     1      18.560   8.955  19.770  1.00  0.00    -0.028 C 
ATOM     14  C   UNL     1      17.217   7.853  17.967  1.00  0.00     0.039 C 
BRANCH  13  15
ATOM     15  C   UNL     1      17.923  10.308  19.562  1.00  0.00     0.035 C 
BRANCH  15  16
ATOM     16  C   UNL     1      17.211  10.801  20.828  1.00  0.00     0.079 C 
BRANCH  16  17
ATOM     17  C   UNL     1      17.475   9.893  22.003  1.00  0.00     0.130 C 
ATOM     18  O   UNL     1      16.761   8.917  22.184  1.00  0.00    -0.300 OA
ATOM     19  C   UNL     1      18.602  10.161  22.956  1.00  0.00     0.087 C 
ENDBRANCH  16  17
ENDBRANCH  15  16
ENDBRANCH  13  15
ENDBRANCH  11  12
ENDBRANCH   1  11
TORSDOF 9
ENDMDL
MODEL 9
REMARK VINA RESULT:    -5.486      3.184      7.347
REMARK INTER + INTRA:          -9.158
REMARK INTER:                  -8.297
REMARK INTRA:                  -0.862
REMARK UNBOUND:                -0.786
REMARK SMILES CC(=O)CCC=C(C)CCC=C(C)CCC=C(C)C
REMARK SMILES IDX 10 1 11 2 12 3 13 4 14 5 15 6 16 7 18 8 17 9 19 10 9 11 7 12
REMARK SMILES IDX 6 13 8 14 5 15 4 16 2 17 3 18 1 19
REMARK H PARENT
REMARK Flexibility Score: inf
ROOT
ATOM      1  C   UNL     1      18.265   6.713  18.238  1.00  0.00     0.032 C 
ENDROOT
BRANCH   1   2
ATOM      2  C   UNL     1      18.538   7.412  19.545  1.00  0.00    -0.028 C 
ATOM      3  C   UNL     1      18.256   8.712  19.790  1.00  0.00    -0.077 C 
ATOM      4  C   UNL     1      17.588   9.591  18.759  1.00  0.00     0.039 C 
BRANCH   3   5
ATOM      5  C   UNL     1      18.610   9.298  21.140  1.00  0.00     0.034 C 
BRANCH   5   6
ATOM      6  C   UNL     1      17.377   9.924  21.802  1.00  0.00     0.032 C 
BRANCH   6   7
ATOM      7  C   UNL     1      16.608   8.892  22.590  1.00  0.00    -0.028 C 
ATOM      8  C   UNL     1      14.769   7.996  23.952  1.00  0.00     0.039 C 
ATOM      9  C   UNL     1      15.441   9.134  23.229  1.00  0.00    -0.080 C 
ATOM     10  C   UNL     1      14.811  10.508  23.255  1.00  0.00     0.039 C 
ENDBRANCH   6   7
ENDBRANCH   5   6
ENDBRANCH   3   5
ENDBRANCH   1   2
BRANCH   1  11
ATOM     11  C   UNL     1      19.372   5.700  17.922  1.00  0.00     0.034 C 
BRANCH  11  12
ATOM     12  C   UNL     1      18.945   4.299  18.304  1.00  0.00    -0.077 C 
ATOM     13  C   UNL     1      19.684   3.617  19.209  1.00  0.00    -0.028 C 
ATOM     14  C   UNL     1      17.718   3.700  17.660  1.00  0.00     0.039 C 
BRANCH  13  15
ATOM     15  C   UNL     1      19.347   2.240  19.730  1.00  0.00     0.035 C 
BRANCH  15  16
ATOM     16  C   UNL     1      19.300   2.209  21.263  1.00  0.00     0.079 C 
BRANCH  16  17
ATOM     17  C   UNL     1      19.532   0.818  21.798  1.00  0.00     0.130 C 
ATOM     18  O   UNL     1      19.687   0.653  22.999  1.00  0.00    -0.300 OA
ATOM     19  C   UNL     1      19.573  -0.371  20.885  1.00  0.00     0.087 C 
ENDBRANCH  16  17
ENDBRANCH  15  16
ENDBRANCH  13  15
ENDBRANCH  11  12
ENDBRANCH   1  11
TORSDOF 9
ENDMDL
