MODEL 1
REMARK VINA RESULT:    -5.075      0.000      0.000
REMARK INTER + INTRA:         -10.830
REMARK INTER:                  -9.228
REMARK INTRA:                  -1.601
REMARK UNBOUND:                -1.601
REMARK SMILES CCCCCCCCCCCCCCCC(=O)[O-]
REMARK SMILES IDX 9 1 10 2 11 3 12 4 13 5 14 6 15 7 16 8 17 9 18 10 8 11 7 12
REMARK SMILES IDX 6 13 5 14 4 15 3 16 2 17 1 18
REMARK H PARENT
REMARK Flexibility Score: inf
ROOT
ATOM      1  C   UNL     1      15.629  16.656  61.904  1.00  0.00     0.000 C 
ENDROOT
BRANCH   1   2
ATOM      2  C   UNL     1      14.507  17.421  62.627  1.00  0.00     0.000 C 
BRANCH   2   3
ATOM      3  C   UNL     1      13.578  16.502  63.441  1.00  0.00     0.000 C 
BRANCH   3   4
ATOM      4  C   UNL     1      14.196  15.906  64.720  1.00  0.00     0.000 C 
BRANCH   4   5
ATOM      5  C   UNL     1      14.145  14.370  64.752  1.00  0.00     0.000 C 
BRANCH   5   6
ATOM      6  C   UNL     1      13.249  13.775  63.648  1.00  0.00     0.006 C 
BRANCH   6   7
ATOM      7  C   UNL     1      13.969  12.773  62.730  1.00  0.00     0.053 C 
BRANCH   7   8
ATOM      8  C   UNL     1      14.504  11.589  63.475  1.00  0.00     0.041 C 
ATOM      9  O   UNL     1      13.798  11.018  64.348  1.00  0.00    -0.550 OA
ATOM     10  O   UNL     1      15.792  11.130  63.225  1.00  0.00    -0.550 OA
ENDBRANCH   7   8
ENDBRANCH   6   7
ENDBRANCH   5   6
ENDBRANCH   4   5
ENDBRANCH   3   4
ENDBRANCH   2   3
ENDBRANCH   1   2
BRANCH   1  11
ATOM     11  C   UNL     1      15.090  15.556  60.975  1.00  0.00     0.000 C 
BRANCH  11  12
ATOM     12  C   UNL     1      15.784  15.545  59.604  1.00  0.00    -0.000 C 
BRANCH  12  13
ATOM     13  C   UNL     1      16.606  16.823  59.397  1.00  0.00    -0.000 C 
BRANCH  13  14
ATOM     14  C   UNL     1      17.887  16.533  58.607  1.00  0.00    -0.000 C 
BRANCH  14  15
ATOM     15  C   UNL     1      19.024  16.093  59.542  1.00  0.00    -0.000 C 
BRANCH  15  16
ATOM     16  C   UNL     1      19.453  17.197  60.526  1.00  0.00    -0.000 C 
BRANCH  16  17
ATOM     17  C   UNL     1      19.364  16.807  62.012  1.00  0.00    -0.003 C 
ATOM     18  C   UNL     1      19.497  18.004  62.953  1.00  0.00     0.004 C 
ENDBRANCH  16  17
ENDBRANCH  15  16
ENDBRANCH  14  15
ENDBRANCH  13  14
ENDBRANCH  12  13
ENDBRANCH  11  12
ENDBRANCH   1  11
TORSDOF 14
ENDMDL
MODEL 2
REMARK VINA RESULT:    -4.973      1.121      1.774
REMARK INTER + INTRA:         -10.645
REMARK INTER:                  -8.553
REMARK INTRA:                  -2.092
REMARK UNBOUND:                -1.601
REMARK SMILES CCCCCCCCCCCCCCCC(=O)[O-]
REMARK SMILES IDX 9 1 10 2 11 3 12 4 13 5 14 6 15 7 16 8 17 9 18 10 8 11 7 12
REMARK SMILES IDX 6 13 5 14 4 15 3 16 2 17 1 18
REMARK H PARENT
REMARK Flexibility Score: inf
ROOT
ATOM      1  C   UNL     1      15.872  14.460  61.062  1.00  0.00     0.000 C 
ENDROOT
BRANCH   1   2
ATOM      2  C   UNL     1      14.935  15.643  61.356  1.00  0.00     0.000 C 
BRANCH   2   3
ATOM      3  C   UNL     1      15.513  16.627  62.390  1.00  0.00     0.000 C 
BRANCH   3   4
ATOM      4  C   UNL     1      14.681  16.798  63.676  1.00  0.00     0.000 C 
BRANCH   4   5
ATOM      5  C   UNL     1      13.232  16.306  63.523  1.00  0.00     0.000 C 
BRANCH   5   6
ATOM      6  C   UNL     1      12.841  15.255  64.581  1.00  0.00     0.006 C 
BRANCH   6   7
ATOM      7  C   UNL     1      13.947  14.228  64.882  1.00  0.00     0.053 C 
BRANCH   7   8
ATOM      8  C   UNL     1      13.954  13.087  63.912  1.00  0.00     0.041 C 
ATOM      9  O   UNL     1      12.968  12.894  63.153  1.00  0.00    -0.550 OA
ATOM     10  O   UNL     1      15.040  12.221  63.862  1.00  0.00    -0.550 OA
ENDBRANCH   7   8
ENDBRANCH   6   7
ENDBRANCH   5   6
ENDBRANCH   4   5
ENDBRANCH   3   4
ENDBRANCH   2   3
ENDBRANCH   1   2
BRANCH   1  11
ATOM     11  C   UNL     1      15.887  14.075  59.573  1.00  0.00     0.000 C 
BRANCH  11  12
ATOM     12  C   UNL     1      15.784  15.296  58.645  1.00  0.00    -0.000 C 
BRANCH  12  13
ATOM     13  C   UNL     1      17.166  15.910  58.392  1.00  0.00    -0.000 C 
BRANCH  13  14
ATOM     14  C   UNL     1      17.326  17.237  59.143  1.00  0.00    -0.000 C 
BRANCH  14  15
ATOM     15  C   UNL     1      18.747  17.383  59.707  1.00  0.00    -0.000 C 
BRANCH  15  16
ATOM     16  C   UNL     1      19.196  16.160  60.528  1.00  0.00    -0.000 C 
BRANCH  16  17
ATOM     17  C   UNL     1      19.111  16.340  62.054  1.00  0.00    -0.003 C 
ATOM     18  C   UNL     1      19.580  17.716  62.521  1.00  0.00     0.004 C 
ENDBRANCH  16  17
ENDBRANCH  15  16
ENDBRANCH  14  15
ENDBRANCH  13  14
ENDBRANCH  12  13
ENDBRANCH  11  12
ENDBRANCH   1  11
TORSDOF 14
ENDMDL
MODEL 3
REMARK VINA RESULT:    -4.661      2.474      6.391
REMARK INTER + INTRA:         -10.077
REMARK INTER:                  -8.298
REMARK INTRA:                  -1.779
REMARK UNBOUND:                -1.601
REMARK SMILES CCCCCCCCCCCCCCCC(=O)[O-]
REMARK SMILES IDX 9 1 10 2 11 3 12 4 13 5 14 6 15 7 16 8 17 9 18 10 8 11 7 12
REMARK SMILES IDX 6 13 5 14 4 15 3 16 2 17 1 18
REMARK H PARENT
REMARK Flexibility Score: inf
ROOT
ATOM      1  C   UNL     1      15.703  13.074  60.879  1.00  0.00     0.000 C 
ENDROOT
BRANCH   1   2
ATOM      2  C   UNL     1      15.458  13.413  59.399  1.00  0.00     0.000 C 
BRANCH   2   3
ATOM      3  C   UNL     1      16.160  14.709  58.954  1.00  0.00     0.000 C 
BRANCH   3   4
ATOM      4  C   UNL     1      17.646  14.559  58.577  1.00  0.00     0.000 C 
BRANCH   4   5
ATOM      5  C   UNL     1      18.352  15.909  58.371  1.00  0.00     0.000 C 
BRANCH   5   6
ATOM      6  C   UNL     1      17.962  16.959  59.429  1.00  0.00     0.006 C 
BRANCH   6   7
ATOM      7  C   UNL     1      19.136  17.428  60.307  1.00  0.00     0.053 C 
BRANCH   7   8
ATOM      8  C   UNL     1      19.242  16.660  61.588  1.00  0.00     0.041 C 
ATOM      9  O   UNL     1      18.411  15.752  61.853  1.00  0.00    -0.550 OA
ATOM     10  O   UNL     1      20.243  16.963  62.503  1.00  0.00    -0.550 OA
ENDBRANCH   7   8
ENDBRANCH   6   7
ENDBRANCH   5   6
ENDBRANCH   4   5
ENDBRANCH   3   4
ENDBRANCH   2   3
ENDBRANCH   1   2
BRANCH   1  11
ATOM     11  C   UNL     1      14.395  12.898  61.669  1.00  0.00     0.000 C 
BRANCH  11  12
ATOM     12  C   UNL     1      14.616  12.241  63.041  1.00  0.00    -0.000 C 
BRANCH  12  13
ATOM     13  C   UNL     1      13.619  12.781  64.073  1.00  0.00    -0.000 C 
BRANCH  13  14
ATOM     14  C   UNL     1      14.163  14.040  64.759  1.00  0.00    -0.000 C 
BRANCH  14  15
ATOM     15  C   UNL     1      13.127  15.173  64.732  1.00  0.00    -0.000 C 
BRANCH  15  16
ATOM     16  C   UNL     1      13.426  16.235  63.659  1.00  0.00    -0.000 C 
BRANCH  16  17
ATOM     17  C   UNL     1      14.888  16.278  63.181  1.00  0.00    -0.003 C 
ATOM     18  C   UNL     1      15.035  16.796  61.751  1.00  0.00     0.004 C 
ENDBRANCH  16  17
ENDBRANCH  15  16
ENDBRANCH  14  15
ENDBRANCH  13  14
ENDBRANCH  12  13
ENDBRANCH  11  12
ENDBRANCH   1  11
TORSDOF 14
ENDMDL
MODEL 4
REMARK VINA RESULT:    -4.649      1.528      2.085
REMARK INTER + INTRA:         -10.056
REMARK INTER:                  -8.584
REMARK INTRA:                  -1.472
REMARK UNBOUND:                -1.601
REMARK SMILES CCCCCCCCCCCCCCCC(=O)[O-]
REMARK SMILES IDX 9 1 10 2 11 3 12 4 13 5 14 6 15 7 16 8 17 9 18 10 8 11 7 12
REMARK SMILES IDX 6 13 5 14 4 15 3 16 2 17 1 18
REMARK H PARENT
REMARK Flexibility Score: inf
ROOT
ATOM      1  C   UNL     1      15.282  17.077  62.660  1.00  0.00     0.000 C 
ENDROOT
BRANCH   1   2
ATOM      2  C   UNL     1      14.477  16.548  63.859  1.00  0.00     0.000 C 
BRANCH   2   3
ATOM      3  C   UNL     1      13.348  15.585  63.450  1.00  0.00     0.000 C 
BRANCH   3   4
ATOM      4  C   UNL     1      13.414  14.183  64.084  1.00  0.00     0.000 C 
BRANCH   4   5
ATOM      5  C   UNL     1      13.293  13.050  63.052  1.00  0.00     0.000 C 
BRANCH   5   6
ATOM      6  C   UNL     1      14.659  12.478  62.626  1.00  0.00     0.006 C 
BRANCH   6   7
ATOM      7  C   UNL     1      14.924  12.554  61.112  1.00  0.00     0.053 C 
BRANCH   7   8
ATOM      8  C   UNL     1      16.126  11.763  60.696  1.00  0.00     0.041 C 
ATOM      9  O   UNL     1      16.026  10.882  59.802  1.00  0.00    -0.550 OA
ATOM     10  O   UNL     1      17.352  11.980  61.313  1.00  0.00    -0.550 OA
ENDBRANCH   7   8
ENDBRANCH   6   7
ENDBRANCH   5   6
ENDBRANCH   4   5
ENDBRANCH   3   4
ENDBRANCH   2   3
ENDBRANCH   1   2
BRANCH   1  11
ATOM     11  C   UNL     1      15.407  16.041  61.530  1.00  0.00     0.000 C 
BRANCH  11  12
ATOM     12  C   UNL     1      15.338  16.678  60.133  1.00  0.00    -0.000 C 
BRANCH  12  13
ATOM     13  C   UNL     1      15.488  15.615  59.038  1.00  0.00    -0.000 C 
BRANCH  13  14
ATOM     14  C   UNL     1      16.950  15.479  58.598  1.00  0.00    -0.000 C 
BRANCH  14  15
ATOM     15  C   UNL     1      17.784  16.674  59.081  1.00  0.00    -0.000 C 
BRANCH  15  16
ATOM     16  C   UNL     1      18.929  16.265  60.025  1.00  0.00    -0.000 C 
BRANCH  16  17
ATOM     17  C   UNL     1      19.641  17.437  60.724  1.00  0.00    -0.003 C 
ATOM     18  C   UNL     1      19.487  17.408  62.244  1.00  0.00     0.004 C 
ENDBRANCH  16  17
ENDBRANCH  15  16
ENDBRANCH  14  15
ENDBRANCH  13  14
ENDBRANCH  12  13
ENDBRANCH  11  12
ENDBRANCH   1  11
TORSDOF 14
ENDMDL
MODEL 5
REMARK VINA RESULT:    -4.545      3.133      5.918
REMARK INTER + INTRA:          -9.866
REMARK INTER:                  -8.105
REMARK INTRA:                  -1.761
REMARK UNBOUND:                -1.601
REMARK SMILES CCCCCCCCCCCCCCCC(=O)[O-]
REMARK SMILES IDX 9 1 10 2 11 3 12 4 13 5 14 6 15 7 16 8 17 9 18 10 8 11 7 12
REMARK SMILES IDX 6 13 5 14 4 15 3 16 2 17 1 18
REMARK H PARENT
REMARK Flexibility Score: inf
ROOT
ATOM      1  C   UNL     1      12.876  15.851  63.767  1.00  0.00     0.000 C 
ENDROOT
BRANCH   1   2
ATOM      2  C   UNL     1      13.573  16.911  62.898  1.00  0.00     0.000 C 
BRANCH   2   3
ATOM      3  C   UNL     1      15.093  16.979  63.134  1.00  0.00     0.000 C 
BRANCH   3   4
ATOM      4  C   UNL     1      15.962  16.364  62.021  1.00  0.00     0.000 C 
BRANCH   4   5
ATOM      5  C   UNL     1      15.437  16.672  60.609  1.00  0.00     0.000 C 
BRANCH   5   6
ATOM      6  C   UNL     1      16.556  16.737  59.552  1.00  0.00     0.006 C 
BRANCH   6   7
ATOM      7  C   UNL     1      16.764  15.423  58.779  1.00  0.00     0.053 C 
BRANCH   7   8
ATOM      8  C   UNL     1      18.024  15.422  57.970  1.00  0.00     0.041 C 
ATOM      9  O   UNL     1      18.405  16.473  57.390  1.00  0.00    -0.550 OA
ATOM     10  O   UNL     1      18.766  14.255  57.834  1.00  0.00    -0.550 OA
ENDBRANCH   7   8
ENDBRANCH   6   7
ENDBRANCH   5   6
ENDBRANCH   4   5
ENDBRANCH   3   4
ENDBRANCH   2   3
ENDBRANCH   1   2
BRANCH   1  11
ATOM     11  C   UNL     1      13.807  15.258  64.837  1.00  0.00     0.000 C 
BRANCH  11  12
ATOM     12  C   UNL     1      14.055  13.754  64.638  1.00  0.00    -0.000 C 
BRANCH  12  13
ATOM     13  C   UNL     1      13.433  13.265  63.324  1.00  0.00    -0.000 C 
BRANCH  13  14
ATOM     14  C   UNL     1      14.479  12.571  62.444  1.00  0.00    -0.000 C 
BRANCH  14  15
ATOM     15  C   UNL     1      14.566  13.237  61.063  1.00  0.00    -0.000 C 
BRANCH  15  16
ATOM     16  C   UNL     1      14.987  12.259  59.950  1.00  0.00    -0.000 C 
BRANCH  16  17
ATOM     17  C   UNL     1      16.410  11.690  60.095  1.00  0.00    -0.003 C 
ATOM     18  C   UNL     1      17.084  11.419  58.751  1.00  0.00     0.004 C 
ENDBRANCH  16  17
ENDBRANCH  15  16
ENDBRANCH  14  15
ENDBRANCH  13  14
ENDBRANCH  12  13
ENDBRANCH  11  12
ENDBRANCH   1  11
TORSDOF 14
ENDMDL
MODEL 6
REMARK VINA RESULT:    -4.535     11.940     13.936
REMARK INTER + INTRA:          -9.847
REMARK INTER:                  -8.593
REMARK INTRA:                  -1.255
REMARK UNBOUND:                -1.601
REMARK SMILES CCCCCCCCCCCCCCCC(=O)[O-]
REMARK SMILES IDX 9 1 10 2 11 3 12 4 13 5 14 6 15 7 16 8 17 9 18 10 8 11 7 12
REMARK SMILES IDX 6 13 5 14 4 15 3 16 2 17 1 18
REMARK H PARENT
REMARK Flexibility Score: inf
ROOT
ATOM      1  C   UNL     1       9.423  26.223  59.481  1.00  0.00     0.000 C 
ENDROOT
BRANCH   1   2
ATOM      2  C   UNL     1      10.409  26.946  58.549  1.00  0.00     0.000 C 
BRANCH   2   3
ATOM      3  C   UNL     1      11.161  28.097  59.244  1.00  0.00     0.000 C 
BRANCH   3   4
ATOM      4  C   UNL     1      11.169  29.435  58.481  1.00  0.00     0.000 C 
BRANCH   4   5
ATOM      5  C   UNL     1      10.262  29.425  57.240  1.00  0.00     0.000 C 
BRANCH   5   6
ATOM      6  C   UNL     1      11.053  29.437  55.918  1.00  0.00     0.006 C 
BRANCH   6   7
ATOM      7  C   UNL     1      10.678  28.297  54.955  1.00  0.00     0.053 C 
BRANCH   7   8
ATOM      8  C   UNL     1      11.290  28.463  53.598  1.00  0.00     0.041 C 
ATOM      9  O   UNL     1      12.110  27.611  53.165  1.00  0.00    -0.550 OA
ATOM     10  O   UNL     1      10.975  29.571  52.821  1.00  0.00    -0.550 OA
ENDBRANCH   7   8
ENDBRANCH   6   7
ENDBRANCH   5   6
ENDBRANCH   4   5
ENDBRANCH   3   4
ENDBRANCH   2   3
ENDBRANCH   1   2
BRANCH   1  11
ATOM     11  C   UNL     1      10.099  25.681  60.751  1.00  0.00     0.000 C 
BRANCH  11  12
ATOM     12  C   UNL     1      10.219  24.149  60.750  1.00  0.00    -0.000 C 
BRANCH  12  13
ATOM     13  C   UNL     1      11.537  23.703  60.105  1.00  0.00    -0.000 C 
BRANCH  13  14
ATOM     14  C   UNL     1      12.700  24.595  60.553  1.00  0.00    -0.000 C 
BRANCH  14  15
ATOM     15  C   UNL     1      13.914  23.751  60.969  1.00  0.00    -0.000 C 
BRANCH  15  16
ATOM     16  C   UNL     1      13.664  22.237  60.843  1.00  0.00    -0.000 C 
BRANCH  16  17
ATOM     17  C   UNL     1      13.728  21.459  62.169  1.00  0.00    -0.003 C 
ATOM     18  C   UNL     1      13.324  22.302  63.378  1.00  0.00     0.004 C 
ENDBRANCH  16  17
ENDBRANCH  15  16
ENDBRANCH  14  15
ENDBRANCH  13  14
ENDBRANCH  12  13
ENDBRANCH  11  12
ENDBRANCH   1  11
TORSDOF 14
ENDMDL
MODEL 7
REMARK VINA RESULT:    -4.508      3.161      6.036
REMARK INTER + INTRA:          -9.798
REMARK INTER:                  -8.014
REMARK INTRA:                  -1.784
REMARK UNBOUND:                -1.601
REMARK SMILES CCCCCCCCCCCCCCCC(=O)[O-]
REMARK SMILES IDX 9 1 10 2 11 3 12 4 13 5 14 6 15 7 16 8 17 9 18 10 8 11 7 12
REMARK SMILES IDX 6 13 5 14 4 15 3 16 2 17 1 18
REMARK H PARENT
REMARK Flexibility Score: inf
ROOT
ATOM      1  C   UNL     1      13.769  16.424  64.236  1.00  0.00     0.000 C 
ENDROOT
BRANCH   1   2
ATOM      2  C   UNL     1      14.312  17.285  63.082  1.00  0.00     0.000 C 
BRANCH   2   3
ATOM      3  C   UNL     1      15.583  16.699  62.441  1.00  0.00     0.000 C 
BRANCH   3   4
ATOM      4  C   UNL     1      15.580  16.643  60.901  1.00  0.00     0.000 C 
BRANCH   4   5
ATOM      5  C   UNL     1      16.626  15.671  60.333  1.00  0.00     0.000 C 
BRANCH   5   6
ATOM      6  C   UNL     1      17.958  15.702  61.108  1.00  0.00     0.006 C 
BRANCH   6   7
ATOM      7  C   UNL     1      18.930  16.798  60.638  1.00  0.00     0.053 C 
BRANCH   7   8
ATOM      8  C   UNL     1      19.641  17.464  61.775  1.00  0.00     0.041 C 
ATOM      9  O   UNL     1      19.002  18.181  62.589  1.00  0.00    -0.550 OA
ATOM     10  O   UNL     1      21.016  17.316  61.922  1.00  0.00    -0.550 OA
ENDBRANCH   7   8
ENDBRANCH   6   7
ENDBRANCH   5   6
ENDBRANCH   4   5
ENDBRANCH   3   4
ENDBRANCH   2   3
ENDBRANCH   1   2
BRANCH   1  11
ATOM     11  C   UNL     1      14.577  15.132  64.440  1.00  0.00     0.000 C 
BRANCH  11  12
ATOM     12  C   UNL     1      13.685  13.916  64.737  1.00  0.00    -0.000 C 
BRANCH  12  13
ATOM     13  C   UNL     1      13.935  12.793  63.724  1.00  0.00    -0.000 C 
BRANCH  13  14
ATOM     14  C   UNL     1      14.100  13.355  62.307  1.00  0.00    -0.000 C 
BRANCH  14  15
ATOM     15  C   UNL     1      14.982  12.436  61.449  1.00  0.00    -0.000 C 
BRANCH  15  16
ATOM     16  C   UNL     1      14.682  12.549  59.943  1.00  0.00    -0.000 C 
BRANCH  16  17
ATOM     17  C   UNL     1      15.867  12.215  59.021  1.00  0.00    -0.003 C 
ATOM     18  C   UNL     1      16.955  11.399  59.717  1.00  0.00     0.004 C 
ENDBRANCH  16  17
ENDBRANCH  15  16
ENDBRANCH  14  15
ENDBRANCH  13  14
ENDBRANCH  12  13
ENDBRANCH  11  12
ENDBRANCH   1  11
TORSDOF 14
ENDMDL
MODEL 8
REMARK VINA RESULT:    -4.452      2.350      3.892
REMARK INTER + INTRA:          -9.697
REMARK INTER:                  -8.280
REMARK INTRA:                  -1.416
REMARK UNBOUND:                -1.601
REMARK SMILES CCCCCCCCCCCCCCCC(=O)[O-]
REMARK SMILES IDX 9 1 10 2 11 3 12 4 13 5 14 6 15 7 16 8 17 9 18 10 8 11 7 12
REMARK SMILES IDX 6 13 5 14 4 15 3 16 2 17 1 18
REMARK H PARENT
REMARK Flexibility Score: inf
ROOT
ATOM      1  C   UNL     1      15.111  11.714  62.603  1.00  0.00     0.000 C 
ENDROOT
BRANCH   1   2
ATOM      2  C   UNL     1      14.219  12.953  62.796  1.00  0.00     0.000 C 
BRANCH   2   3
ATOM      3  C   UNL     1      13.714  13.112  64.241  1.00  0.00     0.000 C 
BRANCH   3   4
ATOM      4  C   UNL     1      13.916  14.508  64.861  1.00  0.00     0.000 C 
BRANCH   4   5
ATOM      5  C   UNL     1      12.761  15.475  64.553  1.00  0.00     0.000 C 
BRANCH   5   6
ATOM      6  C   UNL     1      13.103  16.483  63.439  1.00  0.00     0.006 C 
BRANCH   6   7
ATOM      7  C   UNL     1      14.500  17.113  63.573  1.00  0.00     0.053 C 
BRANCH   7   8
ATOM      8  C   UNL     1      15.373  16.837  62.387  1.00  0.00     0.041 C 
ATOM      9  O   UNL     1      15.289  17.556  61.357  1.00  0.00    -0.550 OA
ATOM     10  O   UNL     1      16.264  15.770  62.409  1.00  0.00    -0.550 OA
ENDBRANCH   7   8
ENDBRANCH   6   7
ENDBRANCH   5   6
ENDBRANCH   4   5
ENDBRANCH   3   4
ENDBRANCH   2   3
ENDBRANCH   1   2
BRANCH   1  11
ATOM     11  C   UNL     1      15.881  11.743  61.273  1.00  0.00     0.000 C 
BRANCH  11  12
ATOM     12  C   UNL     1      15.045  12.315  60.116  1.00  0.00    -0.000 C 
BRANCH  12  13
ATOM     13  C   UNL     1      15.904  13.202  59.207  1.00  0.00    -0.000 C 
BRANCH  13  14
ATOM     14  C   UNL     1      15.437  14.662  59.259  1.00  0.00    -0.000 C 
BRANCH  14  15
ATOM     15  C   UNL     1      16.463  15.593  58.596  1.00  0.00    -0.000 C 
BRANCH  15  16
ATOM     16  C   UNL     1      17.826  15.591  59.313  1.00  0.00    -0.000 C 
BRANCH  16  17
ATOM     17  C   UNL     1      18.408  16.987  59.598  1.00  0.00    -0.003 C 
ATOM     18  C   UNL     1      19.390  16.997  60.768  1.00  0.00     0.004 C 
ENDBRANCH  16  17
ENDBRANCH  15  16
ENDBRANCH  14  15
ENDBRANCH  13  14
ENDBRANCH  12  13
ENDBRANCH  11  12
ENDBRANCH   1  11
TORSDOF 14
ENDMDL
MODEL 9
REMARK VINA RESULT:    -4.348      2.567      3.845
REMARK INTER + INTRA:          -9.508
REMARK INTER:                  -7.643
REMARK INTRA:                  -1.865
REMARK UNBOUND:                -1.601
REMARK SMILES CCCCCCCCCCCCCCCC(=O)[O-]
REMARK SMILES IDX 9 1 10 2 11 3 12 4 13 5 14 6 15 7 16 8 17 9 18 10 8 11 7 12
REMARK SMILES IDX 6 13 5 14 4 15 3 16 2 17 1 18
REMARK H PARENT
REMARK Flexibility Score: inf
ROOT
ATOM      1  C   UNL     1      16.727  12.737  58.995  1.00  0.00     0.000 C 
ENDROOT
BRANCH   1   2
ATOM      2  C   UNL     1      16.740  12.478  60.512  1.00  0.00     0.000 C 
BRANCH   2   3
ATOM      3  C   UNL     1      15.346  12.156  61.080  1.00  0.00     0.000 C 
BRANCH   3   4
ATOM      4  C   UNL     1      14.663  13.305  61.845  1.00  0.00     0.000 C 
BRANCH   4   5
ATOM      5  C   UNL     1      14.089  12.866  63.202  1.00  0.00     0.000 C 
BRANCH   5   6
ATOM      6  C   UNL     1      13.207  13.946  63.858  1.00  0.00     0.006 C 
BRANCH   6   7
ATOM      7  C   UNL     1      13.877  15.328  63.955  1.00  0.00     0.053 C 
BRANCH   7   8
ATOM      8  C   UNL     1      12.968  16.441  63.533  1.00  0.00     0.041 C 
ATOM      9  O   UNL     1      11.778  16.196  63.202  1.00  0.00    -0.550 OA
ATOM     10  O   UNL     1      13.441  17.747  63.479  1.00  0.00    -0.550 OA
ENDBRANCH   7   8
ENDBRANCH   6   7
ENDBRANCH   5   6
ENDBRANCH   4   5
ENDBRANCH   3   4
ENDBRANCH   2   3
ENDBRANCH   1   2
BRANCH   1  11
ATOM     11  C   UNL     1      17.125  14.178  58.638  1.00  0.00     0.000 C 
BRANCH  11  12
ATOM     12  C   UNL     1      15.937  15.152  58.698  1.00  0.00    -0.000 C 
BRANCH  12  13
ATOM     13  C   UNL     1      16.328  16.448  59.419  1.00  0.00    -0.000 C 
BRANCH  13  14
ATOM     14  C   UNL     1      15.608  16.567  60.768  1.00  0.00    -0.000 C 
BRANCH  14  15
ATOM     15  C   UNL     1      16.611  16.549  61.931  1.00  0.00    -0.000 C 
BRANCH  15  16
ATOM     16  C   UNL     1      17.974  15.950  61.540  1.00  0.00    -0.000 C 
BRANCH  16  17
ATOM     17  C   UNL     1      19.195  16.721  62.071  1.00  0.00    -0.003 C 
ATOM     18  C   UNL     1      20.116  17.222  60.959  1.00  0.00     0.004 C 
ENDBRANCH  16  17
ENDBRANCH  15  16
ENDBRANCH  14  15
ENDBRANCH  13  14
ENDBRANCH  12  13
ENDBRANCH  11  12
ENDBRANCH   1  11
TORSDOF 14
ENDMDL
