MODEL 1
REMARK VINA RESULT:    -4.463      0.000      0.000
REMARK INTER + INTRA:         -10.016
REMARK INTER:                  -8.115
REMARK INTRA:                  -1.901
REMARK UNBOUND:                -1.901
REMARK SMILES CCCCCCCCCCCCCC[C@H](C)C(=O)[O-]
REMARK SMILES IDX 9 1 10 2 11 3 12 4 13 5 14 6 15 7 16 8 17 9 18 10 19 11 8 12
REMARK SMILES IDX 7 13 6 14 5 15 4 16 3 17 2 18 1 19
REMARK H PARENT
REMARK Flexibility Score: inf
ROOT
ATOM      1  C   UNL     1       1.562 -37.331  20.041  1.00  0.00     0.000 C 
ENDROOT
BRANCH   1   2
ATOM      2  C   UNL     1       0.236 -37.239  20.825  1.00  0.00     0.000 C 
BRANCH   2   3
ATOM      3  C   UNL     1      -0.274 -35.794  20.933  1.00  0.00     0.000 C 
BRANCH   3   4
ATOM      4  C   UNL     1      -1.797 -35.758  21.112  1.00  0.00     0.000 C 
BRANCH   4   5
ATOM      5  C   UNL     1      -2.187 -34.943  22.352  1.00  0.00     0.001 C 
BRANCH   5   6
ATOM      6  C   UNL     1      -1.077 -33.984  22.821  1.00  0.00     0.009 C 
BRANCH   6   7
ATOM      7  C   UNL     1      -1.525 -33.005  23.939  1.00  0.00     0.032 C 
ATOM      8  C   UNL     1      -2.860 -32.323  23.602  1.00  0.00     0.014 C 
BRANCH   7   9
ATOM      9  C   UNL     1      -0.479 -31.947  24.178  1.00  0.00     0.044 C 
ATOM     10  O   UNL     1      -0.741 -30.732  23.970  1.00  0.00    -0.550 OA
ATOM     11  O   UNL     1       0.775 -32.305  24.653  1.00  0.00    -0.550 OA
ENDBRANCH   7   9
ENDBRANCH   6   7
ENDBRANCH   5   6
ENDBRANCH   4   5
ENDBRANCH   3   4
ENDBRANCH   2   3
ENDBRANCH   1   2
BRANCH   1  12
ATOM     12  C   UNL     1       1.945 -36.026  19.322  1.00  0.00     0.000 C 
BRANCH  12  13
ATOM     13  C   UNL     1       3.414 -36.004  18.871  1.00  0.00    -0.000 C 
BRANCH  13  14
ATOM     14  C   UNL     1       4.194 -37.260  19.301  1.00  0.00    -0.000 C 
BRANCH  14  15
ATOM     15  C   UNL     1       5.368 -37.007  20.265  1.00  0.00    -0.000 C 
BRANCH  15  16
ATOM     16  C   UNL     1       5.236 -37.775  21.588  1.00  0.00    -0.000 C 
BRANCH  16  17
ATOM     17  C   UNL     1       4.140 -37.162  22.472  1.00  0.00    -0.000 C 
BRANCH  17  18
ATOM     18  C   UNL     1       4.255 -35.634  22.580  1.00  0.00    -0.003 C 
ATOM     19  C   UNL     1       2.896 -34.945  22.706  1.00  0.00     0.004 C 
ENDBRANCH  17  18
ENDBRANCH  16  17
ENDBRANCH  15  16
ENDBRANCH  14  15
ENDBRANCH  13  14
ENDBRANCH  12  13
ENDBRANCH   1  12
TORSDOF 14
ENDMDL
MODEL 2
REMARK VINA RESULT:    -4.288      1.096      2.387
REMARK INTER + INTRA:          -9.699
REMARK INTER:                  -8.263
REMARK INTRA:                  -1.435
REMARK UNBOUND:                -1.901
REMARK SMILES CCCCCCCCCCCCCC[C@H](C)C(=O)[O-]
REMARK SMILES IDX 9 1 10 2 11 3 12 4 13 5 14 6 15 7 16 8 17 9 18 10 19 11 8 12
REMARK SMILES IDX 7 13 6 14 5 15 4 16 3 17 2 18 1 19
REMARK H PARENT
REMARK Flexibility Score: inf
ROOT
ATOM      1  C   UNL     1       1.591 -35.588  21.588  1.00  0.00     0.000 C 
ENDROOT
BRANCH   1   2
ATOM      2  C   UNL     1       0.449 -36.482  21.057  1.00  0.00     0.000 C 
BRANCH   2   3
ATOM      3  C   UNL     1      -0.810 -35.670  20.716  1.00  0.00     0.000 C 
BRANCH   3   4
ATOM      4  C   UNL     1      -2.000 -36.112  21.576  1.00  0.00     0.000 C 
BRANCH   4   5
ATOM      5  C   UNL     1      -2.462 -34.978  22.501  1.00  0.00     0.001 C 
BRANCH   5   6
ATOM      6  C   UNL     1      -1.393 -33.889  22.707  1.00  0.00     0.009 C 
BRANCH   6   7
ATOM      7  C   UNL     1      -1.679 -32.948  23.907  1.00  0.00     0.032 C 
ATOM      8  C   UNL     1      -2.935 -32.094  23.677  1.00  0.00     0.014 C 
BRANCH   7   9
ATOM      9  C   UNL     1      -0.507 -32.038  24.167  1.00  0.00     0.044 C 
ATOM     10  O   UNL     1      -0.611 -30.795  23.989  1.00  0.00    -0.550 OA
ATOM     11  O   UNL     1       0.692 -32.565  24.630  1.00  0.00    -0.550 OA
ENDBRANCH   7   9
ENDBRANCH   6   7
ENDBRANCH   5   6
ENDBRANCH   4   5
ENDBRANCH   3   4
ENDBRANCH   2   3
ENDBRANCH   1   2
BRANCH   1  12
ATOM     12  C   UNL     1       2.994 -36.087  21.203  1.00  0.00     0.000 C 
BRANCH  12  13
ATOM     13  C   UNL     1       3.198 -37.580  21.502  1.00  0.00    -0.000 C 
BRANCH  13  14
ATOM     14  C   UNL     1       4.597 -38.087  21.106  1.00  0.00    -0.000 C 
BRANCH  14  15
ATOM     15  C   UNL     1       5.454 -37.090  20.303  1.00  0.00    -0.000 C 
BRANCH  15  16
ATOM     16  C   UNL     1       5.867 -37.627  18.925  1.00  0.00    -0.000 C 
BRANCH  16  17
ATOM     17  C   UNL     1       4.637 -38.046  18.107  1.00  0.00    -0.000 C 
BRANCH  17  18
ATOM     18  C   UNL     1       3.792 -36.845  17.655  1.00  0.00    -0.003 C 
ATOM     19  C   UNL     1       2.289 -37.097  17.781  1.00  0.00     0.004 C 
ENDBRANCH  17  18
ENDBRANCH  16  17
ENDBRANCH  15  16
ENDBRANCH  14  15
ENDBRANCH  13  14
ENDBRANCH  12  13
ENDBRANCH   1  12
TORSDOF 14
ENDMDL
MODEL 3
REMARK VINA RESULT:    -4.039      2.686      4.288
REMARK INTER + INTRA:          -9.247
REMARK INTER:                  -7.801
REMARK INTRA:                  -1.446
REMARK UNBOUND:                -1.901
REMARK SMILES CCCCCCCCCCCCCC[C@H](C)C(=O)[O-]
REMARK SMILES IDX 9 1 10 2 11 3 12 4 13 5 14 6 15 7 16 8 17 9 18 10 19 11 8 12
REMARK SMILES IDX 7 13 6 14 5 15 4 16 3 17 2 18 1 19
REMARK H PARENT
REMARK Flexibility Score: inf
ROOT
ATOM      1  C   UNL     1       2.481 -34.939  22.380  1.00  0.00     0.000 C 
ENDROOT
BRANCH   1   2
ATOM      2  C   UNL     1       1.218 -35.535  21.724  1.00  0.00     0.000 C 
BRANCH   2   3
ATOM      3  C   UNL     1       1.511 -36.131  20.339  1.00  0.00     0.000 C 
BRANCH   3   4
ATOM      4  C   UNL     1       1.272 -37.646  20.328  1.00  0.00     0.000 C 
BRANCH   4   5
ATOM      5  C   UNL     1      -0.203 -37.969  20.059  1.00  0.00     0.001 C 
BRANCH   5   6
ATOM      6  C   UNL     1      -1.063 -37.984  21.337  1.00  0.00     0.009 C 
BRANCH   6   7
ATOM      7  C   UNL     1      -2.542 -37.575  21.103  1.00  0.00     0.032 C 
ATOM      8  C   UNL     1      -2.918 -37.617  19.614  1.00  0.00     0.014 C 
BRANCH   7   9
ATOM      9  C   UNL     1      -2.808 -36.193  21.638  1.00  0.00     0.044 C 
ATOM     10  O   UNL     1      -2.008 -35.249  21.396  1.00  0.00    -0.550 OA
ATOM     11  O   UNL     1      -3.953 -35.945  22.384  1.00  0.00    -0.550 OA
ENDBRANCH   7   9
ENDBRANCH   6   7
ENDBRANCH   5   6
ENDBRANCH   4   5
ENDBRANCH   3   4
ENDBRANCH   2   3
ENDBRANCH   1   2
BRANCH   1  12
ATOM     12  C   UNL     1       3.793 -35.553  21.864  1.00  0.00     0.000 C 
BRANCH  12  13
ATOM     13  C   UNL     1       4.245 -36.770  22.686  1.00  0.00    -0.000 C 
BRANCH  13  14
ATOM     14  C   UNL     1       5.648 -37.271  22.297  1.00  0.00    -0.000 C 
BRANCH  14  15
ATOM     15  C   UNL     1       6.125 -36.863  20.890  1.00  0.00    -0.000 C 
BRANCH  15  16
ATOM     16  C   UNL     1       5.986 -37.992  19.858  1.00  0.00    -0.000 C 
BRANCH  16  17
ATOM     17  C   UNL     1       4.615 -37.940  19.167  1.00  0.00    -0.000 C 
BRANCH  17  18
ATOM     18  C   UNL     1       4.498 -36.770  18.178  1.00  0.00    -0.003 C 
ATOM     19  C   UNL     1       3.179 -36.777  17.405  1.00  0.00     0.004 C 
ENDBRANCH  17  18
ENDBRANCH  16  17
ENDBRANCH  15  16
ENDBRANCH  14  15
ENDBRANCH  13  14
ENDBRANCH  12  13
ENDBRANCH   1  12
TORSDOF 14
ENDMDL
MODEL 4
REMARK VINA RESULT:    -3.874      1.249      2.664
REMARK INTER + INTRA:          -8.947
REMARK INTER:                  -7.982
REMARK INTRA:                  -0.964
REMARK UNBOUND:                -1.901
REMARK SMILES CCCCCCCCCCCCCC[C@H](C)C(=O)[O-]
REMARK SMILES IDX 9 1 10 2 11 3 12 4 13 5 14 6 15 7 16 8 17 9 18 10 19 11 8 12
REMARK SMILES IDX 7 13 6 14 5 15 4 16 3 17 2 18 1 19
REMARK H PARENT
REMARK Flexibility Score: inf
ROOT
ATOM      1  C   UNL     1      -1.748 -38.059  19.843  1.00  0.00     0.000 C 
ENDROOT
BRANCH   1   2
ATOM      2  C   UNL     1      -2.441 -38.092  21.221  1.00  0.00     0.000 C 
BRANCH   2   3
ATOM      3  C   UNL     1      -3.344 -36.869  21.444  1.00  0.00     0.000 C 
BRANCH   3   4
ATOM      4  C   UNL     1      -2.536 -35.568  21.381  1.00  0.00     0.000 C 
BRANCH   4   5
ATOM      5  C   UNL     1      -2.490 -34.880  22.752  1.00  0.00     0.001 C 
BRANCH   5   6
ATOM      6  C   UNL     1      -1.403 -33.794  22.849  1.00  0.00     0.009 C 
BRANCH   6   7
ATOM      7  C   UNL     1      -1.637 -32.771  23.994  1.00  0.00     0.032 C 
ATOM      8  C   UNL     1      -2.854 -31.875  23.719  1.00  0.00     0.014 C 
BRANCH   7   9
ATOM      9  C   UNL     1      -0.423 -31.904  24.196  1.00  0.00     0.044 C 
ATOM     10  O   UNL     1      -0.481 -30.664  23.981  1.00  0.00    -0.550 OA
ATOM     11  O   UNL     1       0.765 -32.466  24.645  1.00  0.00    -0.550 OA
ENDBRANCH   7   9
ENDBRANCH   6   7
ENDBRANCH   5   6
ENDBRANCH   4   5
ENDBRANCH   3   4
ENDBRANCH   2   3
ENDBRANCH   1   2
BRANCH   1  12
ATOM     12  C   UNL     1      -0.213 -38.120  19.923  1.00  0.00     0.000 C 
BRANCH  12  13
ATOM     13  C   UNL     1       0.367 -37.165  20.978  1.00  0.00    -0.000 C 
BRANCH  13  14
ATOM     14  C   UNL     1       1.842 -37.460  21.309  1.00  0.00    -0.000 C 
BRANCH  14  15
ATOM     15  C   UNL     1       2.773 -36.232  21.311  1.00  0.00    -0.000 C 
BRANCH  15  16
ATOM     16  C   UNL     1       4.223 -36.577  20.942  1.00  0.00    -0.000 C 
BRANCH  16  17
ATOM     17  C   UNL     1       4.430 -36.525  19.421  1.00  0.00    -0.000 C 
BRANCH  17  18
ATOM     18  C   UNL     1       3.176 -36.050  18.671  1.00  0.00    -0.003 C 
ATOM     19  C   UNL     1       2.803 -36.963  17.503  1.00  0.00     0.004 C 
ENDBRANCH  17  18
ENDBRANCH  16  17
ENDBRANCH  15  16
ENDBRANCH  14  15
ENDBRANCH  13  14
ENDBRANCH  12  13
ENDBRANCH   1  12
TORSDOF 14
ENDMDL
MODEL 5
REMARK VINA RESULT:    -3.845      2.963      7.011
REMARK INTER + INTRA:          -8.893
REMARK INTER:                  -7.621
REMARK INTRA:                  -1.273
REMARK UNBOUND:                -1.901
REMARK SMILES CCCCCCCCCCCCCC[C@H](C)C(=O)[O-]
REMARK SMILES IDX 9 1 10 2 11 3 12 4 13 5 14 6 15 7 16 8 17 9 18 10 19 11 8 12
REMARK SMILES IDX 7 13 6 14 5 15 4 16 3 17 2 18 1 19
REMARK H PARENT
REMARK Flexibility Score: inf
ROOT
ATOM      1  C   UNL     1      -1.599 -32.569  24.142  1.00  0.00     0.000 C 
ENDROOT
BRANCH   1   2
ATOM      2  C   UNL     1      -0.211 -32.109  23.647  1.00  0.00     0.000 C 
BRANCH   2   3
ATOM      3  C   UNL     1       0.900 -32.433  24.657  1.00  0.00     0.000 C 
BRANCH   3   4
ATOM      4  C   UNL     1       2.192 -32.847  23.942  1.00  0.00     0.000 C 
BRANCH   4   5
ATOM      5  C   UNL     1       2.027 -34.203  23.244  1.00  0.00     0.001 C 
BRANCH   5   6
ATOM      6  C   UNL     1       3.368 -34.884  22.916  1.00  0.00     0.009 C 
BRANCH   6   7
ATOM      7  C   UNL     1       3.372 -35.644  21.563  1.00  0.00     0.032 C 
ATOM      8  C   UNL     1       1.965 -36.120  21.171  1.00  0.00     0.014 C 
BRANCH   7   9
ATOM      9  C   UNL     1       4.296 -36.832  21.618  1.00  0.00     0.044 C 
ATOM     10  O   UNL     1       4.501 -37.433  22.706  1.00  0.00    -0.550 OA
ATOM     11  O   UNL     1       4.909 -37.290  20.458  1.00  0.00    -0.550 OA
ENDBRANCH   7   9
ENDBRANCH   6   7
ENDBRANCH   5   6
ENDBRANCH   4   5
ENDBRANCH   3   4
ENDBRANCH   2   3
ENDBRANCH   1   2
BRANCH   1  12
ATOM     12  C   UNL     1      -2.084 -33.875  23.489  1.00  0.00     0.000 C 
BRANCH  12  13
ATOM     13  C   UNL     1      -1.344 -34.199  22.182  1.00  0.00    -0.000 C 
BRANCH  13  14
ATOM     14  C   UNL     1      -1.696 -35.589  21.620  1.00  0.00    -0.000 C 
BRANCH  14  15
ATOM     15  C   UNL     1      -3.138 -36.059  21.888  1.00  0.00    -0.000 C 
BRANCH  15  16
ATOM     16  C   UNL     1      -3.464 -37.405  21.224  1.00  0.00    -0.000 C 
BRANCH  16  17
ATOM     17  C   UNL     1      -2.752 -37.535  19.869  1.00  0.00    -0.000 C 
BRANCH  17  18
ATOM     18  C   UNL     1      -3.710 -37.933  18.735  1.00  0.00    -0.003 C 
ATOM     19  C   UNL     1      -4.247 -36.729  17.963  1.00  0.00     0.004 C 
ENDBRANCH  17  18
ENDBRANCH  16  17
ENDBRANCH  15  16
ENDBRANCH  14  15
ENDBRANCH  13  14
ENDBRANCH  12  13
ENDBRANCH   1  12
TORSDOF 14
ENDMDL
MODEL 6
REMARK VINA RESULT:    -3.821      2.985      6.688
REMARK INTER + INTRA:          -8.850
REMARK INTER:                  -7.638
REMARK INTRA:                  -1.211
REMARK UNBOUND:                -1.901
REMARK SMILES CCCCCCCCCCCCCC[C@H](C)C(=O)[O-]
REMARK SMILES IDX 9 1 10 2 11 3 12 4 13 5 14 6 15 7 16 8 17 9 18 10 19 11 8 12
REMARK SMILES IDX 7 13 6 14 5 15 4 16 3 17 2 18 1 19
REMARK H PARENT
REMARK Flexibility Score: inf
ROOT
ATOM      1  C   UNL     1      -2.061 -37.661  19.990  1.00  0.00     0.000 C 
ENDROOT
BRANCH   1   2
ATOM      2  C   UNL     1      -1.123 -38.088  21.139  1.00  0.00     0.000 C 
BRANCH   2   3
ATOM      3  C   UNL     1       0.326 -37.634  20.903  1.00  0.00     0.000 C 
BRANCH   3   4
ATOM      4  C   UNL     1       0.405 -36.114  20.723  1.00  0.00     0.000 C 
BRANCH   4   5
ATOM      5  C   UNL     1       1.688 -35.713  19.982  1.00  0.00     0.001 C 
BRANCH   5   6
ATOM      6  C   UNL     1       2.954 -35.840  20.850  1.00  0.00     0.009 C 
BRANCH   6   7
ATOM      7  C   UNL     1       4.230 -36.210  20.048  1.00  0.00     0.032 C 
ATOM      8  C   UNL     1       3.924 -36.436  18.559  1.00  0.00     0.014 C 
BRANCH   7   9
ATOM      9  C   UNL     1       4.878 -37.448  20.610  1.00  0.00     0.044 C 
ATOM     10  O   UNL     1       4.297 -38.124  21.501  1.00  0.00    -0.550 OA
ATOM     11  O   UNL     1       6.112 -37.866  20.130  1.00  0.00    -0.550 OA
ENDBRANCH   7   9
ENDBRANCH   6   7
ENDBRANCH   5   6
ENDBRANCH   4   5
ENDBRANCH   3   4
ENDBRANCH   2   3
ENDBRANCH   1   2
BRANCH   1  12
ATOM     12  C   UNL     1      -3.146 -36.660  20.419  1.00  0.00     0.000 C 
BRANCH  12  13
ATOM     13  C   UNL     1      -3.341 -36.609  21.942  1.00  0.00    -0.000 C 
BRANCH  13  14
ATOM     14  C   UNL     1      -3.370 -35.172  22.497  1.00  0.00    -0.000 C 
BRANCH  14  15
ATOM     15  C   UNL     1      -1.990 -34.520  22.706  1.00  0.00    -0.000 C 
BRANCH  15  16
ATOM     16  C   UNL     1      -2.080 -33.054  23.154  1.00  0.00    -0.000 C 
BRANCH  16  17
ATOM     17  C   UNL     1      -1.164 -32.791  24.359  1.00  0.00    -0.000 C 
BRANCH  17  18
ATOM     18  C   UNL     1       0.008 -31.858  24.015  1.00  0.00    -0.003 C 
ATOM     19  C   UNL     1       1.369 -32.468  24.353  1.00  0.00     0.004 C 
ENDBRANCH  17  18
ENDBRANCH  16  17
ENDBRANCH  15  16
ENDBRANCH  14  15
ENDBRANCH  13  14
ENDBRANCH  12  13
ENDBRANCH   1  12
TORSDOF 14
ENDMDL
MODEL 7
REMARK VINA RESULT:    -3.766      2.957      7.048
REMARK INTER + INTRA:          -8.749
REMARK INTER:                  -7.292
REMARK INTRA:                  -1.457
REMARK UNBOUND:                -1.901
REMARK SMILES CCCCCCCCCCCCCC[C@H](C)C(=O)[O-]
REMARK SMILES IDX 9 1 10 2 11 3 12 4 13 5 14 6 15 7 16 8 17 9 18 10 19 11 8 12
REMARK SMILES IDX 7 13 6 14 5 15 4 16 3 17 2 18 1 19
REMARK H PARENT
REMARK Flexibility Score: inf
ROOT
ATOM      1  C   UNL     1       0.954 -32.166  24.600  1.00  0.00     0.000 C 
ENDROOT
BRANCH   1   2
ATOM      2  C   UNL     1       2.230 -32.792  23.997  1.00  0.00     0.000 C 
BRANCH   2   3
ATOM      3  C   UNL     1       1.919 -34.024  23.134  1.00  0.00     0.000 C 
BRANCH   3   4
ATOM      4  C   UNL     1       3.164 -34.901  22.954  1.00  0.00     0.000 C 
BRANCH   4   5
ATOM      5  C   UNL     1       2.983 -35.883  21.790  1.00  0.00     0.001 C 
BRANCH   5   6
ATOM      6  C   UNL     1       1.583 -35.817  21.152  1.00  0.00     0.009 C 
BRANCH   6   7
ATOM      7  C   UNL     1       1.414 -36.734  19.912  1.00  0.00     0.032 C 
ATOM      8  C   UNL     1       0.888 -38.125  20.297  1.00  0.00     0.014 C 
BRANCH   7   9
ATOM      9  C   UNL     1       2.720 -36.889  19.177  1.00  0.00     0.044 C 
ATOM     10  O   UNL     1       3.356 -37.976  19.226  1.00  0.00    -0.550 OA
ATOM     11  O   UNL     1       3.219 -35.838  18.418  1.00  0.00    -0.550 OA
ENDBRANCH   7   9
ENDBRANCH   6   7
ENDBRANCH   5   6
ENDBRANCH   4   5
ENDBRANCH   3   4
ENDBRANCH   2   3
ENDBRANCH   1   2
BRANCH   1  12
ATOM     12  C   UNL     1      -0.238 -32.140  23.629  1.00  0.00     0.000 C 
BRANCH  12  13
ATOM     13  C   UNL     1      -1.567 -32.507  24.307  1.00  0.00    -0.000 C 
BRANCH  13  14
ATOM     14  C   UNL     1      -2.491 -33.346  23.404  1.00  0.00    -0.000 C 
BRANCH  14  15
ATOM     15  C   UNL     1      -1.775 -34.370  22.503  1.00  0.00    -0.000 C 
BRANCH  15  16
ATOM     16  C   UNL     1      -2.665 -35.564  22.127  1.00  0.00    -0.000 C 
BRANCH  16  17
ATOM     17  C   UNL     1      -2.239 -36.163  20.778  1.00  0.00    -0.000 C 
BRANCH  17  18
ATOM     18  C   UNL     1      -2.707 -37.616  20.603  1.00  0.00    -0.003 C 
ATOM     19  C   UNL     1      -3.413 -37.854  19.268  1.00  0.00     0.004 C 
ENDBRANCH  17  18
ENDBRANCH  16  17
ENDBRANCH  15  16
ENDBRANCH  14  15
ENDBRANCH  13  14
ENDBRANCH  12  13
ENDBRANCH   1  12
TORSDOF 14
ENDMDL
