MODEL 1
REMARK VINA RESULT:    -4.109      0.000      0.000
REMARK INTER + INTRA:          -9.063
REMARK INTER:                  -7.473
REMARK INTRA:                  -1.590
REMARK UNBOUND:                -1.590
REMARK SMILES CCCCCCCCCCCCCCCC(=O)[O-]
REMARK SMILES IDX 9 1 10 2 11 3 12 4 13 5 14 6 15 7 16 8 17 9 18 10 8 11 7 12
REMARK SMILES IDX 6 13 5 14 4 15 3 16 2 17 1 18
REMARK H PARENT
REMARK Flexibility Score: inf
ROOT
ATOM      1  C   UNL     1      17.337  43.162  18.794  1.00  0.00     0.000 C 
ENDROOT
BRANCH   1   2
ATOM      2  C   UNL     1      17.469  42.579  20.208  1.00  0.00     0.000 C 
BRANCH   2   3
ATOM      3  C   UNL     1      18.913  42.619  20.740  1.00  0.00     0.000 C 
BRANCH   3   4
ATOM      4  C   UNL     1      19.251  43.837  21.625  1.00  0.00     0.000 C 
BRANCH   4   5
ATOM      5  C   UNL     1      20.444  44.682  21.142  1.00  0.00     0.000 C 
BRANCH   5   6
ATOM      6  C   UNL     1      20.049  45.720  20.081  1.00  0.00     0.006 C 
BRANCH   6   7
ATOM      7  C   UNL     1      18.904  46.605  20.580  1.00  0.00     0.053 C 
BRANCH   7   8
ATOM      8  C   UNL     1      19.303  48.047  20.544  1.00  0.00     0.041 C 
ATOM      9  O   UNL     1      19.824  48.584  21.556  1.00  0.00    -0.550 OA
ATOM     10  O   UNL     1      19.144  48.784  19.377  1.00  0.00    -0.550 OA
ENDBRANCH   7   8
ENDBRANCH   6   7
ENDBRANCH   5   6
ENDBRANCH   4   5
ENDBRANCH   3   4
ENDBRANCH   2   3
ENDBRANCH   1   2
BRANCH   1  11
ATOM     11  C   UNL     1      16.341  44.332  18.774  1.00  0.00     0.000 C 
BRANCH  11  12
ATOM     12  C   UNL     1      15.855  44.720  20.179  1.00  0.00    -0.000 C 
BRANCH  12  13
ATOM     13  C   UNL     1      14.357  44.449  20.384  1.00  0.00    -0.000 C 
BRANCH  13  14
ATOM     14  C   UNL     1      13.538  45.734  20.187  1.00  0.00    -0.000 C 
BRANCH  14  15
ATOM     15  C   UNL     1      12.188  45.478  19.496  1.00  0.00    -0.000 C 
BRANCH  15  16
ATOM     16  C   UNL     1      11.981  46.364  18.256  1.00  0.00    -0.000 C 
BRANCH  16  17
ATOM     17  C   UNL     1      12.787  45.873  17.043  1.00  0.00    -0.003 C 
ATOM     18  C   UNL     1      13.617  46.981  16.393  1.00  0.00     0.004 C 
ENDBRANCH  16  17
ENDBRANCH  15  16
ENDBRANCH  14  15
ENDBRANCH  13  14
ENDBRANCH  12  13
ENDBRANCH  11  12
ENDBRANCH   1  11
TORSDOF 14
ENDMDL
MODEL 2
REMARK VINA RESULT:    -4.059      3.609      7.032
REMARK INTER + INTRA:          -8.971
REMARK INTER:                  -7.682
REMARK INTRA:                  -1.289
REMARK UNBOUND:                -1.590
REMARK SMILES CCCCCCCCCCCCCCCC(=O)[O-]
REMARK SMILES IDX 9 1 10 2 11 3 12 4 13 5 14 6 15 7 16 8 17 9 18 10 8 11 7 12
REMARK SMILES IDX 6 13 5 14 4 15 3 16 2 17 1 18
REMARK H PARENT
REMARK Flexibility Score: inf
ROOT
ATOM      1  C   UNL     1      15.492  44.184  19.140  1.00  0.00     0.000 C 
ENDROOT
BRANCH   1   2
ATOM      2  C   UNL     1      15.855  45.112  17.972  1.00  0.00     0.000 C 
BRANCH   2   3
ATOM      3  C   UNL     1      15.330  46.547  18.163  1.00  0.00     0.000 C 
BRANCH   3   4
ATOM      4  C   UNL     1      14.355  47.038  17.074  1.00  0.00     0.000 C 
BRANCH   4   5
ATOM      5  C   UNL     1      13.091  46.178  16.894  1.00  0.00     0.000 C 
BRANCH   5   6
ATOM      6  C   UNL     1      12.024  46.453  17.964  1.00  0.00     0.006 C 
BRANCH   6   7
ATOM      7  C   UNL     1      11.748  45.198  18.798  1.00  0.00     0.053 C 
BRANCH   7   8
ATOM      8  C   UNL     1      10.378  45.257  19.395  1.00  0.00     0.041 C 
ATOM      9  O   UNL     1       9.893  46.361  19.757  1.00  0.00    -0.550 OA
ATOM     10  O   UNL     1       9.617  44.100  19.507  1.00  0.00    -0.550 OA
ENDBRANCH   7   8
ENDBRANCH   6   7
ENDBRANCH   5   6
ENDBRANCH   4   5
ENDBRANCH   3   4
ENDBRANCH   2   3
ENDBRANCH   1   2
BRANCH   1  11
ATOM     11  C   UNL     1      16.667  43.259  19.491  1.00  0.00     0.000 C 
BRANCH  11  12
ATOM     12  C   UNL     1      17.977  44.029  19.721  1.00  0.00    -0.000 C 
BRANCH  12  13
ATOM     13  C   UNL     1      17.977  44.820  21.038  1.00  0.00    -0.000 C 
BRANCH  13  14
ATOM     14  C   UNL     1      18.236  46.313  20.779  1.00  0.00    -0.000 C 
BRANCH  14  15
ATOM     15  C   UNL     1      19.727  46.631  20.579  1.00  0.00    -0.000 C 
BRANCH  15  16
ATOM     16  C   UNL     1      19.980  48.122  20.296  1.00  0.00    -0.000 C 
BRANCH  16  17
ATOM     17  C   UNL     1      18.900  48.740  19.393  1.00  0.00    -0.003 C 
ATOM     18  C   UNL     1      18.953  50.268  19.365  1.00  0.00     0.004 C 
ENDBRANCH  16  17
ENDBRANCH  15  16
ENDBRANCH  14  15
ENDBRANCH  13  14
ENDBRANCH  12  13
ENDBRANCH  11  12
ENDBRANCH   1  11
TORSDOF 14
ENDMDL
MODEL 3
REMARK VINA RESULT:    -3.940      1.565      2.533
REMARK INTER + INTRA:          -8.755
REMARK INTER:                  -6.933
REMARK INTRA:                  -1.823
REMARK UNBOUND:                -1.590
REMARK SMILES CCCCCCCCCCCCCCCC(=O)[O-]
REMARK SMILES IDX 9 1 10 2 11 3 12 4 13 5 14 6 15 7 16 8 17 9 18 10 8 11 7 12
REMARK SMILES IDX 6 13 5 14 4 15 3 16 2 17 1 18
REMARK H PARENT
REMARK Flexibility Score: inf
ROOT
ATOM      1  C   UNL     1      18.475  42.563  20.162  1.00  0.00     0.000 C 
ENDROOT
BRANCH   1   2
ATOM      2  C   UNL     1      18.591  43.281  21.514  1.00  0.00     0.000 C 
BRANCH   2   3
ATOM      3  C   UNL     1      18.728  44.808  21.372  1.00  0.00     0.000 C 
BRANCH   3   4
ATOM      4  C   UNL     1      19.727  45.278  20.295  1.00  0.00     0.000 C 
BRANCH   4   5
ATOM      5  C   UNL     1      20.137  46.759  20.387  1.00  0.00     0.000 C 
BRANCH   5   6
ATOM      6  C   UNL     1      18.984  47.671  20.830  1.00  0.00     0.006 C 
BRANCH   6   7
ATOM      7  C   UNL     1      18.524  48.570  19.679  1.00  0.00     0.053 C 
BRANCH   7   8
ATOM      8  C   UNL     1      19.031  49.965  19.869  1.00  0.00     0.041 C 
ATOM      9  O   UNL     1      19.949  50.196  20.699  1.00  0.00    -0.550 OA
ATOM     10  O   UNL     1      18.525  51.001  19.094  1.00  0.00    -0.550 OA
ENDBRANCH   7   8
ENDBRANCH   6   7
ENDBRANCH   5   6
ENDBRANCH   4   5
ENDBRANCH   3   4
ENDBRANCH   2   3
ENDBRANCH   1   2
BRANCH   1  11
ATOM     11  C   UNL     1      17.046  42.669  19.607  1.00  0.00     0.000 C 
BRANCH  11  12
ATOM     12  C   UNL     1      16.946  43.621  18.405  1.00  0.00    -0.000 C 
BRANCH  12  13
ATOM     13  C   UNL     1      15.731  44.557  18.488  1.00  0.00    -0.000 C 
BRANCH  13  14
ATOM     14  C   UNL     1      16.079  45.836  19.266  1.00  0.00    -0.000 C 
BRANCH  14  15
ATOM     15  C   UNL     1      15.064  46.149  20.379  1.00  0.00    -0.000 C 
BRANCH  15  16
ATOM     16  C   UNL     1      14.237  44.917  20.788  1.00  0.00    -0.000 C 
BRANCH  16  17
ATOM     17  C   UNL     1      12.771  45.020  20.340  1.00  0.00    -0.003 C 
ATOM     18  C   UNL     1      12.388  46.427  19.880  1.00  0.00     0.004 C 
ENDBRANCH  16  17
ENDBRANCH  15  16
ENDBRANCH  14  15
ENDBRANCH  13  14
ENDBRANCH  12  13
ENDBRANCH  11  12
ENDBRANCH   1  11
TORSDOF 14
ENDMDL
MODEL 4
REMARK VINA RESULT:    -3.906      1.381      2.471
REMARK INTER + INTRA:          -8.694
REMARK INTER:                  -7.114
REMARK INTRA:                  -1.580
REMARK UNBOUND:                -1.590
REMARK SMILES CCCCCCCCCCCCCCCC(=O)[O-]
REMARK SMILES IDX 9 1 10 2 11 3 12 4 13 5 14 6 15 7 16 8 17 9 18 10 8 11 7 12
REMARK SMILES IDX 6 13 5 14 4 15 3 16 2 17 1 18
REMARK H PARENT
REMARK Flexibility Score: inf
ROOT
ATOM      1  C   UNL     1      17.777  43.481  19.356  1.00  0.00     0.000 C 
ENDROOT
BRANCH   1   2
ATOM      2  C   UNL     1      18.326  44.192  20.602  1.00  0.00     0.000 C 
BRANCH   2   3
ATOM      3  C   UNL     1      19.773  44.685  20.421  1.00  0.00     0.000 C 
BRANCH   3   4
ATOM      4  C   UNL     1      19.917  46.190  20.114  1.00  0.00     0.000 C 
BRANCH   4   5
ATOM      5  C   UNL     1      18.926  47.105  20.854  1.00  0.00     0.000 C 
BRANCH   5   6
ATOM      6  C   UNL     1      18.281  48.154  19.935  1.00  0.00     0.006 C 
BRANCH   6   7
ATOM      7  C   UNL     1      18.933  49.526  20.130  1.00  0.00     0.053 C 
BRANCH   7   8
ATOM      8  C   UNL     1      19.009  49.868  21.584  1.00  0.00     0.041 C 
ATOM      9  O   UNL     1      20.128  49.989  22.148  1.00  0.00    -0.550 OA
ATOM     10  O   UNL     1      17.845  50.102  22.306  1.00  0.00    -0.550 OA
ENDBRANCH   7   8
ENDBRANCH   6   7
ENDBRANCH   5   6
ENDBRANCH   4   5
ENDBRANCH   3   4
ENDBRANCH   2   3
ENDBRANCH   1   2
BRANCH   1  11
ATOM     11  C   UNL     1      16.599  44.263  18.754  1.00  0.00     0.000 C 
BRANCH  11  12
ATOM     12  C   UNL     1      15.671  44.854  19.827  1.00  0.00    -0.000 C 
BRANCH  12  13
ATOM     13  C   UNL     1      15.061  46.200  19.408  1.00  0.00    -0.000 C 
BRANCH  13  14
ATOM     14  C   UNL     1      14.394  46.091  18.028  1.00  0.00    -0.000 C 
BRANCH  14  15
ATOM     15  C   UNL     1      12.891  46.415  18.068  1.00  0.00    -0.000 C 
BRANCH  15  16
ATOM     16  C   UNL     1      12.288  46.254  19.474  1.00  0.00    -0.000 C 
BRANCH  16  17
ATOM     17  C   UNL     1      11.300  45.081  19.559  1.00  0.00    -0.003 C 
ATOM     18  C   UNL     1      11.990  43.718  19.502  1.00  0.00     0.004 C 
ENDBRANCH  16  17
ENDBRANCH  15  16
ENDBRANCH  14  15
ENDBRANCH  13  14
ENDBRANCH  12  13
ENDBRANCH  11  12
ENDBRANCH   1  11
TORSDOF 14
ENDMDL
MODEL 5
REMARK VINA RESULT:    -3.896      2.359      5.363
REMARK INTER + INTRA:          -8.674
REMARK INTER:                  -6.985
REMARK INTRA:                  -1.688
REMARK UNBOUND:                -1.590
REMARK SMILES CCCCCCCCCCCCCCCC(=O)[O-]
REMARK SMILES IDX 9 1 10 2 11 3 12 4 13 5 14 6 15 7 16 8 17 9 18 10 8 11 7 12
REMARK SMILES IDX 6 13 5 14 4 15 3 16 2 17 1 18
REMARK H PARENT
REMARK Flexibility Score: inf
ROOT
ATOM      1  C   UNL     1      15.561  44.493  20.610  1.00  0.00     0.000 C 
ENDROOT
BRANCH   1   2
ATOM      2  C   UNL     1      15.996  45.965  20.575  1.00  0.00     0.000 C 
BRANCH   2   3
ATOM      3  C   UNL     1      17.374  46.197  21.222  1.00  0.00     0.000 C 
BRANCH   3   4
ATOM      4  C   UNL     1      18.543  46.363  20.230  1.00  0.00     0.000 C 
BRANCH   4   5
ATOM      5  C   UNL     1      19.876  46.804  20.860  1.00  0.00     0.000 C 
BRANCH   5   6
ATOM      6  C   UNL     1      20.250  48.253  20.513  1.00  0.00     0.006 C 
BRANCH   6   7
ATOM      7  C   UNL     1      19.249  48.854  19.522  1.00  0.00     0.053 C 
BRANCH   7   8
ATOM      8  C   UNL     1      18.790  50.198  19.991  1.00  0.00     0.041 C 
ATOM      9  O   UNL     1      18.233  50.992  19.188  1.00  0.00    -0.550 OA
ATOM     10  O   UNL     1      18.933  50.555  21.326  1.00  0.00    -0.550 OA
ENDBRANCH   7   8
ENDBRANCH   6   7
ENDBRANCH   5   6
ENDBRANCH   4   5
ENDBRANCH   3   4
ENDBRANCH   2   3
ENDBRANCH   1   2
BRANCH   1  11
ATOM     11  C   UNL     1      15.541  43.893  19.196  1.00  0.00     0.000 C 
BRANCH  11  12
ATOM     12  C   UNL     1      16.950  43.596  18.659  1.00  0.00    -0.000 C 
BRANCH  12  13
ATOM     13  C   UNL     1      17.540  42.298  19.230  1.00  0.00    -0.000 C 
BRANCH  13  14
ATOM     14  C   UNL     1      18.765  42.595  20.109  1.00  0.00    -0.000 C 
BRANCH  14  15
ATOM     15  C   UNL     1      18.425  42.636  21.609  1.00  0.00    -0.000 C 
BRANCH  15  16
ATOM     16  C   UNL     1      19.562  43.233  22.456  1.00  0.00    -0.000 C 
BRANCH  16  17
ATOM     17  C   UNL     1      19.455  42.845  23.939  1.00  0.00    -0.003 C 
ATOM     18  C   UNL     1      19.842  41.389  24.201  1.00  0.00     0.004 C 
ENDBRANCH  16  17
ENDBRANCH  15  16
ENDBRANCH  14  15
ENDBRANCH  13  14
ENDBRANCH  12  13
ENDBRANCH  11  12
ENDBRANCH   1  11
TORSDOF 14
ENDMDL
MODEL 6
REMARK VINA RESULT:    -3.879      3.000      6.112
REMARK INTER + INTRA:          -8.645
REMARK INTER:                  -7.162
REMARK INTRA:                  -1.482
REMARK UNBOUND:                -1.590
REMARK SMILES CCCCCCCCCCCCCCCC(=O)[O-]
REMARK SMILES IDX 9 1 10 2 11 3 12 4 13 5 14 6 15 7 16 8 17 9 18 10 8 11 7 12
REMARK SMILES IDX 6 13 5 14 4 15 3 16 2 17 1 18
REMARK H PARENT
REMARK Flexibility Score: inf
ROOT
ATOM      1  C   UNL     1      19.989  42.276  20.451  1.00  0.00     0.000 C 
ENDROOT
BRANCH   1   2
ATOM      2  C   UNL     1      18.483  42.417  20.717  1.00  0.00     0.000 C 
BRANCH   2   3
ATOM      3  C   UNL     1      17.634  42.264  19.442  1.00  0.00     0.000 C 
BRANCH   3   4
ATOM      4  C   UNL     1      17.227  43.589  18.764  1.00  0.00     0.000 C 
BRANCH   4   5
ATOM      5  C   UNL     1      16.008  44.293  19.388  1.00  0.00     0.000 C 
BRANCH   5   6
ATOM      6  C   UNL     1      15.555  45.523  18.587  1.00  0.00     0.006 C 
BRANCH   6   7
ATOM      7  C   UNL     1      14.158  45.975  19.022  1.00  0.00     0.053 C 
BRANCH   7   8
ATOM      8  C   UNL     1      13.107  45.155  18.342  1.00  0.00     0.041 C 
ATOM      9  O   UNL     1      12.428  44.324  19.002  1.00  0.00    -0.550 OA
ATOM     10  O   UNL     1      12.844  45.342  16.991  1.00  0.00    -0.550 OA
ENDBRANCH   7   8
ENDBRANCH   6   7
ENDBRANCH   5   6
ENDBRANCH   4   5
ENDBRANCH   3   4
ENDBRANCH   2   3
ENDBRANCH   1   2
BRANCH   1  11
ATOM     11  C   UNL     1      20.706  43.623  20.634  1.00  0.00     0.000 C 
BRANCH  11  12
ATOM     12  C   UNL     1      19.800  44.695  21.259  1.00  0.00    -0.000 C 
BRANCH  12  13
ATOM     13  C   UNL     1      19.834  46.024  20.489  1.00  0.00    -0.000 C 
BRANCH  13  14
ATOM     14  C   UNL     1      18.483  46.749  20.589  1.00  0.00    -0.000 C 
BRANCH  14  15
ATOM     15  C   UNL     1      18.620  48.277  20.477  1.00  0.00    -0.000 C 
BRANCH  15  16
ATOM     16  C   UNL     1      19.477  48.879  21.604  1.00  0.00    -0.000 C 
BRANCH  16  17
ATOM     17  C   UNL     1      20.150  50.196  21.190  1.00  0.00    -0.003 C 
ATOM     18  C   UNL     1      20.860  50.101  19.839  1.00  0.00     0.004 C 
ENDBRANCH  16  17
ENDBRANCH  15  16
ENDBRANCH  14  15
ENDBRANCH  13  14
ENDBRANCH  12  13
ENDBRANCH  11  12
ENDBRANCH   1  11
TORSDOF 14
ENDMDL
MODEL 7
REMARK VINA RESULT:    -3.868      1.141      2.053
REMARK INTER + INTRA:          -8.624
REMARK INTER:                  -7.023
REMARK INTRA:                  -1.601
REMARK UNBOUND:                -1.590
REMARK SMILES CCCCCCCCCCCCCCCC(=O)[O-]
REMARK SMILES IDX 9 1 10 2 11 3 12 4 13 5 14 6 15 7 16 8 17 9 18 10 8 11 7 12
REMARK SMILES IDX 6 13 5 14 4 15 3 16 2 17 1 18
REMARK H PARENT
REMARK Flexibility Score: inf
ROOT
ATOM      1  C   UNL     1      16.792  42.550  19.654  1.00  0.00     0.000 C 
ENDROOT
BRANCH   1   2
ATOM      2  C   UNL     1      16.940  41.967  21.067  1.00  0.00     0.000 C 
BRANCH   2   3
ATOM      3  C   UNL     1      18.304  42.285  21.706  1.00  0.00     0.000 C 
BRANCH   3   4
ATOM      4  C   UNL     1      19.337  42.928  20.758  1.00  0.00     0.000 C 
BRANCH   4   5
ATOM      5  C   UNL     1      19.885  44.291  21.217  1.00  0.00     0.000 C 
BRANCH   5   6
ATOM      6  C   UNL     1      19.158  45.477  20.565  1.00  0.00     0.006 C 
BRANCH   6   7
ATOM      7  C   UNL     1      20.063  46.711  20.513  1.00  0.00     0.053 C 
BRANCH   7   8
ATOM      8  C   UNL     1      19.307  47.933  20.931  1.00  0.00     0.041 C 
ATOM      9  O   UNL     1      18.077  48.032  20.681  1.00  0.00    -0.550 OA
ATOM     10  O   UNL     1      19.950  48.940  21.641  1.00  0.00    -0.550 OA
ENDBRANCH   7   8
ENDBRANCH   6   7
ENDBRANCH   5   6
ENDBRANCH   4   5
ENDBRANCH   3   4
ENDBRANCH   2   3
ENDBRANCH   1   2
BRANCH   1  11
ATOM     11  C   UNL     1      15.863  43.774  19.662  1.00  0.00     0.000 C 
BRANCH  11  12
ATOM     12  C   UNL     1      16.033  44.654  18.413  1.00  0.00    -0.000 C 
BRANCH  12  13
ATOM     13  C   UNL     1      15.498  46.080  18.615  1.00  0.00    -0.000 C 
BRANCH  13  14
ATOM     14  C   UNL     1      14.419  46.411  17.572  1.00  0.00    -0.000 C 
BRANCH  14  15
ATOM     15  C   UNL     1      12.995  46.346  18.148  1.00  0.00    -0.000 C 
BRANCH  15  16
ATOM     16  C   UNL     1      12.983  46.222  19.682  1.00  0.00    -0.000 C 
BRANCH  16  17
ATOM     17  C   UNL     1      12.172  45.010  20.167  1.00  0.00    -0.003 C 
ATOM     18  C   UNL     1      12.374  43.772  19.291  1.00  0.00     0.004 C 
ENDBRANCH  16  17
ENDBRANCH  15  16
ENDBRANCH  14  15
ENDBRANCH  13  14
ENDBRANCH  12  13
ENDBRANCH  11  12
ENDBRANCH   1  11
TORSDOF 14
ENDMDL
MODEL 8
REMARK VINA RESULT:    -3.860      3.126      6.398
REMARK INTER + INTRA:          -8.610
REMARK INTER:                  -6.838
REMARK INTRA:                  -1.771
REMARK UNBOUND:                -1.590
REMARK SMILES CCCCCCCCCCCCCCCC(=O)[O-]
REMARK SMILES IDX 9 1 10 2 11 3 12 4 13 5 14 6 15 7 16 8 17 9 18 10 8 11 7 12
REMARK SMILES IDX 6 13 5 14 4 15 3 16 2 17 1 18
REMARK H PARENT
REMARK Flexibility Score: inf
ROOT
ATOM      1  C   UNL     1      16.888  42.705  20.933  1.00  0.00     0.000 C 
ENDROOT
BRANCH   1   2
ATOM      2  C   UNL     1      15.933  43.822  20.484  1.00  0.00     0.000 C 
BRANCH   2   3
ATOM      3  C   UNL     1      16.350  44.464  19.148  1.00  0.00     0.000 C 
BRANCH   3   4
ATOM      4  C   UNL     1      16.000  45.959  19.003  1.00  0.00     0.000 C 
BRANCH   4   5
ATOM      5  C   UNL     1      14.498  46.269  18.869  1.00  0.00     0.000 C 
BRANCH   5   6
ATOM      6  C   UNL     1      13.828  45.488  17.729  1.00  0.00     0.006 C 
BRANCH   6   7
ATOM      7  C   UNL     1      12.360  45.196  18.055  1.00  0.00     0.053 C 
BRANCH   7   8
ATOM      8  C   UNL     1      12.258  44.266  19.223  1.00  0.00     0.041 C 
ATOM      9  O   UNL     1      12.729  43.100  19.146  1.00  0.00    -0.550 OA
ATOM     10  O   UNL     1      11.688  44.702  20.412  1.00  0.00    -0.550 OA
ENDBRANCH   7   8
ENDBRANCH   6   7
ENDBRANCH   5   6
ENDBRANCH   4   5
ENDBRANCH   3   4
ENDBRANCH   2   3
ENDBRANCH   1   2
BRANCH   1  11
ATOM     11  C   UNL     1      17.835  42.304  19.792  1.00  0.00     0.000 C 
BRANCH  11  12
ATOM     12  C   UNL     1      19.316  42.468  20.167  1.00  0.00    -0.000 C 
BRANCH  12  13
ATOM     13  C   UNL     1      19.512  43.196  21.505  1.00  0.00    -0.000 C 
BRANCH  13  14
ATOM     14  C   UNL     1      20.414  44.428  21.330  1.00  0.00    -0.000 C 
BRANCH  14  15
ATOM     15  C   UNL     1      19.956  45.342  20.181  1.00  0.00    -0.000 C 
BRANCH  15  16
ATOM     16  C   UNL     1      19.222  46.598  20.682  1.00  0.00    -0.000 C 
BRANCH  16  17
ATOM     17  C   UNL     1      19.909  47.898  20.234  1.00  0.00    -0.003 C 
ATOM     18  C   UNL     1      18.979  48.817  19.441  1.00  0.00     0.004 C 
ENDBRANCH  16  17
ENDBRANCH  15  16
ENDBRANCH  14  15
ENDBRANCH  13  14
ENDBRANCH  12  13
ENDBRANCH  11  12
ENDBRANCH   1  11
TORSDOF 14
ENDMDL
MODEL 9
REMARK VINA RESULT:    -3.800      3.643      7.171
REMARK INTER + INTRA:          -8.499
REMARK INTER:                  -7.397
REMARK INTRA:                  -1.102
REMARK UNBOUND:                -1.590
REMARK SMILES CCCCCCCCCCCCCCCC(=O)[O-]
REMARK SMILES IDX 9 1 10 2 11 3 12 4 13 5 14 6 15 7 16 8 17 9 18 10 8 11 7 12
REMARK SMILES IDX 6 13 5 14 4 15 3 16 2 17 1 18
REMARK H PARENT
REMARK Flexibility Score: inf
ROOT
ATOM      1  C   UNL     1      18.705  44.536  20.877  1.00  0.00     0.000 C 
ENDROOT
BRANCH   1   2
ATOM      2  C   UNL     1      18.048  43.594  19.858  1.00  0.00     0.000 C 
BRANCH   2   3
ATOM      3  C   UNL     1      16.696  44.120  19.342  1.00  0.00     0.000 C 
BRANCH   3   4
ATOM      4  C   UNL     1      15.971  45.098  20.289  1.00  0.00     0.000 C 
BRANCH   4   5
ATOM      5  C   UNL     1      14.638  45.654  19.756  1.00  0.00     0.000 C 
BRANCH   5   6
ATOM      6  C   UNL     1      13.521  44.599  19.725  1.00  0.00     0.006 C 
BRANCH   6   7
ATOM      7  C   UNL     1      12.348  45.070  18.860  1.00  0.00     0.053 C 
BRANCH   7   8
ATOM      8  C   UNL     1      11.046  44.746  19.522  1.00  0.00     0.041 C 
ATOM      9  O   UNL     1      10.749  43.550  19.781  1.00  0.00    -0.550 OA
ATOM     10  O   UNL     1      10.184  45.767  19.899  1.00  0.00    -0.550 OA
ENDBRANCH   7   8
ENDBRANCH   6   7
ENDBRANCH   5   6
ENDBRANCH   4   5
ENDBRANCH   3   4
ENDBRANCH   2   3
ENDBRANCH   1   2
BRANCH   1  11
ATOM     11  C   UNL     1      19.813  45.371  20.217  1.00  0.00     0.000 C 
BRANCH  11  12
ATOM     12  C   UNL     1      19.884  46.803  20.771  1.00  0.00    -0.000 C 
BRANCH  12  13
ATOM     13  C   UNL     1      18.619  47.620  20.468  1.00  0.00    -0.000 C 
BRANCH  13  14
ATOM     14  C   UNL     1      18.587  48.909  21.305  1.00  0.00    -0.000 C 
BRANCH  14  15
ATOM     15  C   UNL     1      19.981  49.332  21.798  1.00  0.00    -0.000 C 
BRANCH  15  16
ATOM     16  C   UNL     1      20.239  50.838  21.620  1.00  0.00    -0.000 C 
BRANCH  16  17
ATOM     17  C   UNL     1      21.499  51.125  20.789  1.00  0.00    -0.003 C 
ATOM     18  C   UNL     1      21.602  50.243  19.544  1.00  0.00     0.004 C 
ENDBRANCH  16  17
ENDBRANCH  15  16
ENDBRANCH  14  15
ENDBRANCH  13  14
ENDBRANCH  12  13
ENDBRANCH  11  12
ENDBRANCH   1  11
TORSDOF 14
ENDMDL
