MODEL 1
REMARK VINA RESULT:    -7.164      0.000      0.000
REMARK INTER + INTRA:         -10.729
REMARK INTER:                  -9.468
REMARK INTRA:                  -1.261
REMARK UNBOUND:                -1.261
REMARK SMILES CC[C@H](C=C[C@H](C)[C@H]1CC[C@@H]2C3=CC[C@@H]4C[C@@H](O)CC[C@]4(C)[C@H]3CC[C@@]21C)C(C)C
REMARK SMILES IDX 6 1 7 2 5 3 4 4 3 5 2 6 1 7 28 8 29 9 30 10 8 11 9 12 26 13
REMARK SMILES IDX 10 14 11 15 25 16 27 17 12 18 24 19 23 20 13 21 21 22 14 23
REMARK SMILES IDX 15 24 20 25 22 26 16 27 19 28 17 29 18 30
REMARK H PARENT 18 31
REMARK Flexibility Score: inf
ROOT
ATOM      1  C   UNL     1      36.715  29.055   7.043  1.00  0.00     0.012 C 
ATOM      2  C   UNL     1      35.477  28.186   6.754  1.00  0.00     0.012 C 
ENDROOT
BRANCH   1   3
ATOM      3  C   UNL     1      37.826  28.186   7.595  1.00  0.00    -0.028 C 
ATOM      4  C   UNL     1      38.656  28.601   8.566  1.00  0.00    -0.027 C 
BRANCH   4   5
ATOM      5  C   UNL     1      39.724  27.691   9.136  1.00  0.00     0.014 C 
BRANCH   5   6
ATOM      6  C   UNL     1      41.107  28.114   8.561  1.00  0.00     0.004 C 
ATOM      7  C   UNL     1      41.296  27.726   7.089  1.00  0.00     0.004 C 
ENDBRANCH   5   6
BRANCH   5   8
ATOM      8  C   UNL     1      39.672  27.713  10.699  1.00  0.00    -0.011 C 
ATOM      9  C   UNL     1      39.724  26.304  11.312  1.00  0.00     0.008 C 
ATOM     10  C   UNL     1      38.403  28.426  11.203  1.00  0.00     0.008 C 
ENDBRANCH   5   8
ENDBRANCH   4   5
ENDBRANCH   1   3
BRANCH   1  11
ATOM     11  C   UNL     1      37.191  29.853   5.788  1.00  0.00     0.002 C 
ATOM     12  C   UNL     1      36.059  30.190   4.819  1.00  0.00     0.005 C 
ATOM     13  C   UNL     1      37.954  31.217   6.031  1.00  0.00    -0.023 C 
ATOM     14  C   UNL     1      36.609  31.314   3.966  1.00  0.00     0.009 C 
ATOM     15  C   UNL     1      37.363  32.187   4.953  1.00  0.00     0.021 C 
ATOM     16  C   UNL     1      39.486  30.979   5.865  1.00  0.00     0.008 C 
ATOM     17  C   UNL     1      37.686  31.839   7.429  1.00  0.00     0.012 C 
ATOM     18  C   UNL     1      38.327  33.143   4.254  1.00  0.00    -0.067 C 
ATOM     19  C   UNL     1      40.260  32.264   5.580  1.00  0.00     0.009 C 
ATOM     20  C   UNL     1      39.823  32.847   4.223  1.00  0.00     0.021 C 
ATOM     21  C   UNL     1      37.793  34.152   3.529  1.00  0.00    -0.027 C 
ATOM     22  C   UNL     1      40.704  34.066   3.742  1.00  0.00    -0.023 C 
ATOM     23  C   UNL     1      38.601  35.191   2.803  1.00  0.00     0.031 C 
ATOM     24  C   UNL     1      40.039  34.735   2.496  1.00  0.00     0.002 C 
ATOM     25  C   UNL     1      42.146  33.624   3.340  1.00  0.00     0.010 C 
ATOM     26  C   UNL     1      40.842  35.120   4.875  1.00  0.00     0.012 C 
ATOM     27  C   UNL     1      40.068  33.819   1.249  1.00  0.00     0.036 C 
ATOM     28  C   UNL     1      42.201  32.735   2.087  1.00  0.00     0.032 C 
ATOM     29  C   UNL     1      41.501  33.391   0.891  1.00  0.00     0.114 C 
BRANCH  29  30
ATOM     30  O   UNL     1      42.246  34.504   0.463  1.00  0.00    -0.393 OA
ATOM     31  H   UNL     1      43.190  34.333   0.714  1.00  0.00     0.210 HD
ENDBRANCH  29  30
ENDBRANCH   1  11
TORSDOF 6
ENDMDL
MODEL 2
REMARK VINA RESULT:    -6.967      9.053     12.069
REMARK INTER + INTRA:         -10.468
REMARK INTER:                  -9.091
REMARK INTRA:                  -1.377
REMARK UNBOUND:                -1.261
REMARK SMILES CC[C@H](C=C[C@H](C)[C@H]1CC[C@@H]2C3=CC[C@@H]4C[C@@H](O)CC[C@]4(C)[C@H]3CC[C@@]21C)C(C)C
REMARK SMILES IDX 6 1 7 2 5 3 4 4 3 5 2 6 1 7 28 8 29 9 30 10 8 11 9 12 26 13
REMARK SMILES IDX 10 14 11 15 25 16 27 17 12 18 24 19 23 20 13 21 21 22 14 23
REMARK SMILES IDX 15 24 20 25 22 26 16 27 19 28 17 29 18 30
REMARK H PARENT 18 31
REMARK Flexibility Score: inf
ROOT
ATOM      1  C   UNL     1      48.026  36.910   9.633  1.00  0.00     0.012 C 
ATOM      2  C   UNL     1      48.861  37.402  10.828  1.00  0.00     0.012 C 
ENDROOT
BRANCH   1   3
ATOM      3  C   UNL     1      47.359  38.092   8.960  1.00  0.00    -0.028 C 
ATOM      4  C   UNL     1      47.352  38.258   7.627  1.00  0.00    -0.027 C 
BRANCH   4   5
ATOM      5  C   UNL     1      46.631  39.422   6.979  1.00  0.00     0.014 C 
BRANCH   5   6
ATOM      6  C   UNL     1      47.507  39.976   5.818  1.00  0.00     0.004 C 
ATOM      7  C   UNL     1      46.684  40.531   4.649  1.00  0.00     0.004 C 
ENDBRANCH   5   6
BRANCH   5   8
ATOM      8  C   UNL     1      45.203  38.980   6.519  1.00  0.00    -0.011 C 
ATOM      9  C   UNL     1      44.158  39.102   7.639  1.00  0.00     0.008 C 
ATOM     10  C   UNL     1      45.209  37.529   6.003  1.00  0.00     0.008 C 
ENDBRANCH   5   8
ENDBRANCH   4   5
ENDBRANCH   1   3
BRANCH   1  11
ATOM     11  C   UNL     1      48.871  36.082   8.613  1.00  0.00     0.002 C 
ATOM     12  C   UNL     1      50.259  35.716   9.135  1.00  0.00     0.005 C 
ATOM     13  C   UNL     1      48.255  34.728   8.076  1.00  0.00    -0.023 C 
ATOM     14  C   UNL     1      50.711  34.573   8.249  1.00  0.00     0.009 C 
ATOM     15  C   UNL     1      49.461  33.729   8.078  1.00  0.00     0.021 C 
ATOM     16  C   UNL     1      47.662  34.969   6.654  1.00  0.00     0.008 C 
ATOM     17  C   UNL     1      47.149  34.142   8.996  1.00  0.00     0.012 C 
ATOM     18  C   UNL     1      49.579  32.759   6.903  1.00  0.00    -0.067 C 
ATOM     19  C   UNL     1      47.504  33.681   5.851  1.00  0.00     0.009 C 
ATOM     20  C   UNL     1      48.887  33.061   5.578  1.00  0.00     0.021 C 
ATOM     21  C   UNL     1      50.448  31.730   7.027  1.00  0.00    -0.027 C 
ATOM     22  C   UNL     1      48.850  31.834   4.585  1.00  0.00    -0.023 C 
ATOM     23  C   UNL     1      50.664  30.677   5.976  1.00  0.00     0.031 C 
ATOM     24  C   UNL     1      50.245  31.131   4.567  1.00  0.00     0.002 C 
ATOM     25  C   UNL     1      48.511  32.272   3.126  1.00  0.00     0.010 C 
ATOM     26  C   UNL     1      47.767  30.810   5.024  1.00  0.00     0.012 C 
ATOM     27  C   UNL     1      51.342  32.015   3.927  1.00  0.00     0.036 C 
ATOM     28  C   UNL     1      49.600  33.129   2.462  1.00  0.00     0.032 C 
ATOM     29  C   UNL     1      50.969  32.439   2.497  1.00  0.00     0.114 C 
BRANCH  29  30
ATOM     30  O   UNL     1      50.954  31.320   1.648  1.00  0.00    -0.393 OA
ATOM     31  H   UNL     1      51.564  31.522   0.893  1.00  0.00     0.210 HD
ENDBRANCH  29  30
ENDBRANCH   1  11
TORSDOF 6
ENDMDL
MODEL 3
REMARK VINA RESULT:    -6.913      7.103     10.425
REMARK INTER + INTRA:         -10.397
REMARK INTER:                  -8.841
REMARK INTRA:                  -1.556
REMARK UNBOUND:                -1.261
REMARK SMILES CC[C@H](C=C[C@H](C)[C@H]1CC[C@@H]2C3=CC[C@@H]4C[C@@H](O)CC[C@]4(C)[C@H]3CC[C@@]21C)C(C)C
REMARK SMILES IDX 6 1 7 2 5 3 4 4 3 5 2 6 1 7 28 8 29 9 30 10 8 11 9 12 26 13
REMARK SMILES IDX 10 14 11 15 25 16 27 17 12 18 24 19 23 20 13 21 21 22 14 23
REMARK SMILES IDX 15 24 20 25 22 26 16 27 19 28 17 29 18 30
REMARK H PARENT 18 31
REMARK Flexibility Score: inf
ROOT
ATOM      1  C   UNL     1      48.735  38.408   9.224  1.00  0.00     0.012 C 
ATOM      2  C   UNL     1      48.804  39.130  10.581  1.00  0.00     0.012 C 
ENDROOT
BRANCH   1   3
ATOM      3  C   UNL     1      49.737  37.272   9.202  1.00  0.00    -0.028 C 
ATOM      4  C   UNL     1      49.381  35.995   8.986  1.00  0.00    -0.027 C 
BRANCH   4   5
ATOM      5  C   UNL     1      50.411  34.887   8.916  1.00  0.00     0.014 C 
BRANCH   5   6
ATOM      6  C   UNL     1      50.706  34.380  10.359  1.00  0.00     0.004 C 
ATOM      7  C   UNL     1      51.068  32.892  10.415  1.00  0.00     0.004 C 
ENDBRANCH   5   6
BRANCH   5   8
ATOM      8  C   UNL     1      49.922  33.757   7.952  1.00  0.00    -0.011 C 
ATOM      9  C   UNL     1      50.678  33.755   6.614  1.00  0.00     0.008 C 
ATOM     10  C   UNL     1      48.413  33.883   7.669  1.00  0.00     0.008 C 
ENDBRANCH   5   8
ENDBRANCH   4   5
ENDBRANCH   1   3
BRANCH   1  11
ATOM     11  C   UNL     1      47.296  37.899   8.889  1.00  0.00     0.002 C 
ATOM     12  C   UNL     1      46.251  38.323   9.919  1.00  0.00     0.005 C 
ATOM     13  C   UNL     1      46.685  38.293   7.485  1.00  0.00    -0.023 C 
ATOM     14  C   UNL     1      44.924  38.156   9.207  1.00  0.00     0.009 C 
ATOM     15  C   UNL     1      45.197  38.665   7.803  1.00  0.00     0.021 C 
ATOM     16  C   UNL     1      46.819  37.080   6.514  1.00  0.00     0.008 C 
ATOM     17  C   UNL     1      47.360  39.536   6.841  1.00  0.00     0.012 C 
ATOM     18  C   UNL     1      44.127  38.214   6.810  1.00  0.00    -0.067 C 
ATOM     19  C   UNL     1      45.849  37.151   5.338  1.00  0.00     0.009 C 
ATOM     20  C   UNL     1      44.399  37.062   5.849  1.00  0.00     0.021 C 
ATOM     21  C   UNL     1      42.892  38.752   6.935  1.00  0.00    -0.027 C 
ATOM     22  C   UNL     1      43.326  36.925   4.699  1.00  0.00    -0.023 C 
ATOM     23  C   UNL     1      41.738  38.436   6.026  1.00  0.00     0.031 C 
ATOM     24  C   UNL     1      41.892  37.090   5.296  1.00  0.00     0.002 C 
ATOM     25  C   UNL     1      43.399  35.535   3.993  1.00  0.00     0.010 C 
ATOM     26  C   UNL     1      43.554  38.009   3.609  1.00  0.00     0.012 C 
ATOM     27  C   UNL     1      41.502  35.915   6.225  1.00  0.00     0.036 C 
ATOM     28  C   UNL     1      42.989  34.357   4.890  1.00  0.00     0.032 C 
ATOM     29  C   UNL     1      41.599  34.561   5.502  1.00  0.00     0.114 C 
BRANCH  29  30
ATOM     30  O   UNL     1      40.625  34.481   4.493  1.00  0.00    -0.393 OA
ATOM     31  H   UNL     1      40.976  33.864   3.801  1.00  0.00     0.210 HD
ENDBRANCH  29  30
ENDBRANCH   1  11
TORSDOF 6
ENDMDL
MODEL 4
REMARK VINA RESULT:    -6.766      7.612     10.901
REMARK INTER + INTRA:         -10.203
REMARK INTER:                  -9.027
REMARK INTRA:                  -1.176
REMARK UNBOUND:                -1.261
REMARK SMILES CC[C@H](C=C[C@H](C)[C@H]1CC[C@@H]2C3=CC[C@@H]4C[C@@H](O)CC[C@]4(C)[C@H]3CC[C@@]21C)C(C)C
REMARK SMILES IDX 6 1 7 2 5 3 4 4 3 5 2 6 1 7 28 8 29 9 30 10 8 11 9 12 26 13
REMARK SMILES IDX 10 14 11 15 25 16 27 17 12 18 24 19 23 20 13 21 21 22 14 23
REMARK SMILES IDX 15 24 20 25 22 26 16 27 19 28 17 29 18 30
REMARK H PARENT 18 31
REMARK Flexibility Score: inf
ROOT
ATOM      1  C   UNL     1      47.833  38.268  11.109  1.00  0.00     0.012 C 
ATOM      2  C   UNL     1      49.078  39.172  11.061  1.00  0.00     0.012 C 
ENDROOT
BRANCH   1   3
ATOM      3  C   UNL     1      46.926  38.714  12.237  1.00  0.00    -0.028 C 
ATOM      4  C   UNL     1      45.982  39.657  12.079  1.00  0.00    -0.027 C 
BRANCH   4   5
ATOM      5  C   UNL     1      45.054  40.045  13.211  1.00  0.00     0.014 C 
BRANCH   5   6
ATOM      6  C   UNL     1      43.895  40.913  12.639  1.00  0.00     0.004 C 
ATOM      7  C   UNL     1      43.750  42.268  13.342  1.00  0.00     0.004 C 
ENDBRANCH   5   6
BRANCH   5   8
ATOM      8  C   UNL     1      44.555  38.766  13.960  1.00  0.00    -0.011 C 
ATOM      9  C   UNL     1      43.031  38.756  14.161  1.00  0.00     0.008 C 
ATOM     10  C   UNL     1      45.237  38.624  15.334  1.00  0.00     0.008 C 
ENDBRANCH   5   8
ENDBRANCH   4   5
ENDBRANCH   1   3
BRANCH   1  11
ATOM     11  C   UNL     1      47.067  38.233   9.748  1.00  0.00     0.002 C 
ATOM     12  C   UNL     1      47.790  38.978   8.628  1.00  0.00     0.005 C 
ATOM     13  C   UNL     1      46.707  36.816   9.144  1.00  0.00    -0.023 C 
ATOM     14  C   UNL     1      47.167  38.449   7.353  1.00  0.00     0.009 C 
ATOM     15  C   UNL     1      47.009  36.961   7.614  1.00  0.00     0.021 C 
ATOM     16  C   UNL     1      45.210  36.501   9.445  1.00  0.00     0.008 C 
ATOM     17  C   UNL     1      47.590  35.663   9.697  1.00  0.00     0.012 C 
ATOM     18  C   UNL     1      46.038  36.305   6.634  1.00  0.00    -0.067 C 
ATOM     19  C   UNL     1      44.627  35.442   8.513  1.00  0.00     0.009 C 
ATOM     20  C   UNL     1      44.615  35.968   7.065  1.00  0.00     0.021 C 
ATOM     21  C   UNL     1      46.429  36.198   5.344  1.00  0.00    -0.027 C 
ATOM     22  C   UNL     1      43.849  35.029   6.054  1.00  0.00    -0.023 C 
ATOM     23  C   UNL     1      45.604  35.557   4.263  1.00  0.00     0.031 C 
ATOM     24  C   UNL     1      44.101  35.516   4.591  1.00  0.00     0.002 C 
ATOM     25  C   UNL     1      42.308  35.032   6.304  1.00  0.00     0.010 C 
ATOM     26  C   UNL     1      44.337  33.561   6.195  1.00  0.00     0.012 C 
ATOM     27  C   UNL     1      43.441  36.886   4.303  1.00  0.00     0.036 C 
ATOM     28  C   UNL     1      41.628  36.375   5.999  1.00  0.00     0.032 C 
ATOM     29  C   UNL     1      41.927  36.857   4.575  1.00  0.00     0.114 C 
BRANCH  29  30
ATOM     30  O   UNL     1      41.286  36.015   3.649  1.00  0.00    -0.393 OA
ATOM     31  H   UNL     1      40.445  35.707   4.075  1.00  0.00     0.210 HD
ENDBRANCH  29  30
ENDBRANCH   1  11
TORSDOF 6
ENDMDL
MODEL 5
REMARK VINA RESULT:    -6.744      4.547      6.586
REMARK INTER + INTRA:         -10.173
REMARK INTER:                  -8.796
REMARK INTRA:                  -1.378
REMARK UNBOUND:                -1.261
REMARK SMILES CC[C@H](C=C[C@H](C)[C@H]1CC[C@@H]2C3=CC[C@@H]4C[C@@H](O)CC[C@]4(C)[C@H]3CC[C@@]21C)C(C)C
REMARK SMILES IDX 6 1 7 2 5 3 4 4 3 5 2 6 1 7 28 8 29 9 30 10 8 11 9 12 26 13
REMARK SMILES IDX 10 14 11 15 25 16 27 17 12 18 24 19 23 20 13 21 21 22 14 23
REMARK SMILES IDX 15 24 20 25 22 26 16 27 19 28 17 29 18 30
REMARK H PARENT 18 31
REMARK Flexibility Score: inf
ROOT
ATOM      1  C   UNL     1      41.382  28.442   5.089  1.00  0.00     0.012 C 
ATOM      2  C   UNL     1      41.804  27.239   4.226  1.00  0.00     0.012 C 
ENDROOT
BRANCH   1   3
ATOM      3  C   UNL     1      40.296  28.016   6.055  1.00  0.00    -0.028 C 
ATOM      4  C   UNL     1      40.456  28.051   7.388  1.00  0.00    -0.027 C 
BRANCH   4   5
ATOM      5  C   UNL     1      39.333  27.669   8.330  1.00  0.00     0.014 C 
BRANCH   5   6
ATOM      6  C   UNL     1      39.741  28.052   9.783  1.00  0.00     0.004 C 
ATOM      7  C   UNL     1      39.669  26.874  10.762  1.00  0.00     0.004 C 
ENDBRANCH   5   6
BRANCH   5   8
ATOM      8  C   UNL     1      37.995  28.335   7.869  1.00  0.00    -0.011 C 
ATOM      9  C   UNL     1      37.951  29.842   8.172  1.00  0.00     0.008 C 
ATOM     10  C   UNL     1      36.780  27.660   8.532  1.00  0.00     0.008 C 
ENDBRANCH   5   8
ENDBRANCH   4   5
ENDBRANCH   1   3
BRANCH   1  11
ATOM     11  C   UNL     1      42.587  29.089   5.843  1.00  0.00     0.002 C 
ATOM     12  C   UNL     1      43.945  28.578   5.365  1.00  0.00     0.005 C 
ATOM     13  C   UNL     1      42.704  30.666   5.827  1.00  0.00    -0.023 C 
ATOM     14  C   UNL     1      44.936  29.616   5.849  1.00  0.00     0.009 C 
ATOM     15  C   UNL     1      44.229  30.938   5.602  1.00  0.00     0.021 C 
ATOM     16  C   UNL     1      42.175  31.229   7.181  1.00  0.00     0.008 C 
ATOM     17  C   UNL     1      41.924  31.334   4.660  1.00  0.00     0.012 C 
ATOM     18  C   UNL     1      44.868  32.085   6.383  1.00  0.00    -0.067 C 
ATOM     19  C   UNL     1      42.686  32.635   7.480  1.00  0.00     0.009 C 
ATOM     20  C   UNL     1      44.216  32.609   7.658  1.00  0.00     0.021 C 
ATOM     21  C   UNL     1      46.100  32.492   6.002  1.00  0.00    -0.027 C 
ATOM     22  C   UNL     1      44.821  33.975   8.167  1.00  0.00    -0.023 C 
ATOM     23  C   UNL     1      46.854  33.621   6.647  1.00  0.00     0.031 C 
ATOM     24  C   UNL     1      46.380  33.925   8.080  1.00  0.00     0.002 C 
ATOM     25  C   UNL     1      44.430  34.273   9.649  1.00  0.00     0.010 C 
ATOM     26  C   UNL     1      44.299  35.158   7.305  1.00  0.00     0.012 C 
ATOM     27  C   UNL     1      46.994  32.920   9.084  1.00  0.00     0.036 C 
ATOM     28  C   UNL     1      45.051  33.304  10.666  1.00  0.00     0.032 C 
ATOM     29  C   UNL     1      46.577  33.234  10.530  1.00  0.00     0.114 C 
BRANCH  29  30
ATOM     30  O   UNL     1      47.141  34.454  10.943  1.00  0.00    -0.393 OA
ATOM     31  H   UNL     1      46.981  35.107  10.214  1.00  0.00     0.210 HD
ENDBRANCH  29  30
ENDBRANCH   1  11
TORSDOF 6
ENDMDL
MODEL 6
REMARK VINA RESULT:    -6.690      9.138     12.106
REMARK INTER + INTRA:         -10.102
REMARK INTER:                  -8.635
REMARK INTRA:                  -1.467
REMARK UNBOUND:                -1.261
REMARK SMILES CC[C@H](C=C[C@H](C)[C@H]1CC[C@@H]2C3=CC[C@@H]4C[C@@H](O)CC[C@]4(C)[C@H]3CC[C@@]21C)C(C)C
REMARK SMILES IDX 6 1 7 2 5 3 4 4 3 5 2 6 1 7 28 8 29 9 30 10 8 11 9 12 26 13
REMARK SMILES IDX 10 14 11 15 25 16 27 17 12 18 24 19 23 20 13 21 21 22 14 23
REMARK SMILES IDX 15 24 20 25 22 26 16 27 19 28 17 29 18 30
REMARK H PARENT 18 31
REMARK Flexibility Score: inf
ROOT
ATOM      1  C   UNL     1      49.447  36.241  10.707  1.00  0.00     0.012 C 
ATOM      2  C   UNL     1      50.600  36.975  11.415  1.00  0.00     0.012 C 
ENDROOT
BRANCH   1   3
ATOM      3  C   UNL     1      48.186  37.077  10.792  1.00  0.00    -0.028 C 
ATOM      4  C   UNL     1      47.823  37.941   9.830  1.00  0.00    -0.027 C 
BRANCH   4   5
ATOM      5  C   UNL     1      46.529  38.725   9.918  1.00  0.00     0.014 C 
BRANCH   5   6
ATOM      6  C   UNL     1      46.629  39.733  11.100  1.00  0.00     0.004 C 
ATOM      7  C   UNL     1      45.415  39.691  12.035  1.00  0.00     0.004 C 
ENDBRANCH   5   6
BRANCH   5   8
ATOM      8  C   UNL     1      46.222  39.409   8.546  1.00  0.00    -0.011 C 
ATOM      9  C   UNL     1      44.764  39.211   8.102  1.00  0.00     0.008 C 
ATOM     10  C   UNL     1      47.153  38.880   7.439  1.00  0.00     0.008 C 
ENDBRANCH   5   8
ENDBRANCH   4   5
ENDBRANCH   1   3
BRANCH   1  11
ATOM     11  C   UNL     1      49.787  35.881   9.225  1.00  0.00     0.002 C 
ATOM     12  C   UNL     1      51.283  35.698   8.976  1.00  0.00     0.005 C 
ATOM     13  C   UNL     1      49.099  34.600   8.604  1.00  0.00    -0.023 C 
ATOM     14  C   UNL     1      51.361  34.924   7.676  1.00  0.00     0.009 C 
ATOM     15  C   UNL     1      50.242  33.904   7.790  1.00  0.00     0.021 C 
ATOM     16  C   UNL     1      47.900  35.049   7.714  1.00  0.00     0.008 C 
ATOM     17  C   UNL     1      48.590  33.590   9.669  1.00  0.00     0.012 C 
ATOM     18  C   UNL     1      49.879  33.296   6.437  1.00  0.00    -0.067 C 
ATOM     19  C   UNL     1      47.489  33.990   6.694  1.00  0.00     0.009 C 
ATOM     20  C   UNL     1      48.633  33.758   5.690  1.00  0.00     0.021 C 
ATOM     21  C   UNL     1      50.784  32.473   5.859  1.00  0.00    -0.027 C 
ATOM     22  C   UNL     1      48.236  32.830   4.476  1.00  0.00    -0.023 C 
ATOM     23  C   UNL     1      50.571  31.775   4.544  1.00  0.00     0.031 C 
ATOM     24  C   UNL     1      49.515  32.459   3.658  1.00  0.00     0.002 C 
ATOM     25  C   UNL     1      47.230  33.528   3.509  1.00  0.00     0.010 C 
ATOM     26  C   UNL     1      47.560  31.527   4.985  1.00  0.00     0.012 C 
ATOM     27  C   UNL     1      50.122  33.681   2.928  1.00  0.00     0.036 C 
ATOM     28  C   UNL     1      47.821  34.728   2.753  1.00  0.00     0.032 C 
ATOM     29  C   UNL     1      49.100  34.353   1.996  1.00  0.00     0.114 C 
BRANCH  29  30
ATOM     30  O   UNL     1      48.781  33.495   0.930  1.00  0.00    -0.393 OA
ATOM     31  H   UNL     1      47.904  33.791   0.574  1.00  0.00     0.210 HD
ENDBRANCH  29  30
ENDBRANCH   1  11
TORSDOF 6
ENDMDL
MODEL 7
REMARK VINA RESULT:    -6.683      2.922      8.370
REMARK INTER + INTRA:         -10.093
REMARK INTER:                  -8.799
REMARK INTRA:                  -1.294
REMARK UNBOUND:                -1.261
REMARK SMILES CC[C@H](C=C[C@H](C)[C@H]1CC[C@@H]2C3=CC[C@@H]4C[C@@H](O)CC[C@]4(C)[C@H]3CC[C@@]21C)C(C)C
REMARK SMILES IDX 6 1 7 2 5 3 4 4 3 5 2 6 1 7 28 8 29 9 30 10 8 11 9 12 26 13
REMARK SMILES IDX 10 14 11 15 25 16 27 17 12 18 24 19 23 20 13 21 21 22 14 23
REMARK SMILES IDX 15 24 20 25 22 26 16 27 19 28 17 29 18 30
REMARK H PARENT 18 31
REMARK Flexibility Score: inf
ROOT
ATOM      1  C   UNL     1      41.911  33.258   3.336  1.00  0.00     0.012 C 
ATOM      2  C   UNL     1      43.424  32.976   3.360  1.00  0.00     0.012 C 
ENDROOT
BRANCH   1   3
ATOM      3  C   UNL     1      41.460  33.485   1.907  1.00  0.00    -0.028 C 
ATOM      4  C   UNL     1      40.314  34.115   1.600  1.00  0.00    -0.027 C 
BRANCH   4   5
ATOM      5  C   UNL     1      39.916  34.375   0.162  1.00  0.00     0.014 C 
BRANCH   5   6
ATOM      6  C   UNL     1      38.542  33.697  -0.112  1.00  0.00     0.004 C 
ATOM      7  C   UNL     1      37.904  33.091   1.144  1.00  0.00     0.004 C 
ENDBRANCH   5   6
BRANCH   5   8
ATOM      8  C   UNL     1      39.914  35.913  -0.125  1.00  0.00    -0.011 C 
ATOM      9  C   UNL     1      41.259  36.577   0.209  1.00  0.00     0.008 C 
ATOM     10  C   UNL     1      38.800  36.625   0.666  1.00  0.00     0.008 C 
ENDBRANCH   5   8
ENDBRANCH   4   5
ENDBRANCH   1   3
BRANCH   1  11
ATOM     11  C   UNL     1      41.081  32.123   4.016  1.00  0.00     0.002 C 
ATOM     12  C   UNL     1      41.946  31.072   4.707  1.00  0.00     0.005 C 
ATOM     13  C   UNL     1      39.999  32.547   5.090  1.00  0.00    -0.023 C 
ATOM     14  C   UNL     1      41.004  30.367   5.660  1.00  0.00     0.009 C 
ATOM     15  C   UNL     1      40.159  31.490   6.235  1.00  0.00     0.021 C 
ATOM     16  C   UNL     1      38.588  32.522   4.427  1.00  0.00     0.008 C 
ATOM     17  C   UNL     1      40.249  33.953   5.701  1.00  0.00     0.012 C 
ATOM     18  C   UNL     1      38.887  30.970   6.902  1.00  0.00    -0.067 C 
ATOM     19  C   UNL     1      37.456  32.417   5.445  1.00  0.00     0.009 C 
ATOM     20  C   UNL     1      37.544  31.070   6.189  1.00  0.00     0.021 C 
ATOM     21  C   UNL     1      39.025  30.272   8.052  1.00  0.00    -0.027 C 
ATOM     22  C   UNL     1      36.304  30.777   7.121  1.00  0.00    -0.023 C 
ATOM     23  C   UNL     1      37.875  29.714   8.844  1.00  0.00     0.031 C 
ATOM     24  C   UNL     1      36.598  29.524   8.007  1.00  0.00     0.002 C 
ATOM     25  C   UNL     1      35.007  30.493   6.299  1.00  0.00     0.010 C 
ATOM     26  C   UNL     1      36.012  31.995   8.040  1.00  0.00     0.012 C 
ATOM     27  C   UNL     1      36.678  28.220   7.177  1.00  0.00     0.036 C 
ATOM     28  C   UNL     1      35.054  29.189   5.488  1.00  0.00     0.032 C 
ATOM     29  C   UNL     1      35.391  27.980   6.369  1.00  0.00     0.114 C 
BRANCH  29  30
ATOM     30  O   UNL     1      34.317  27.718   7.237  1.00  0.00    -0.393 OA
ATOM     31  H   UNL     1      33.487  27.953   6.748  1.00  0.00     0.210 HD
ENDBRANCH  29  30
ENDBRANCH   1  11
TORSDOF 6
ENDMDL
MODEL 8
REMARK VINA RESULT:    -6.655      8.648     12.040
REMARK INTER + INTRA:         -10.056
REMARK INTER:                  -8.680
REMARK INTRA:                  -1.376
REMARK UNBOUND:                -1.261
REMARK SMILES CC[C@H](C=C[C@H](C)[C@H]1CC[C@@H]2C3=CC[C@@H]4C[C@@H](O)CC[C@]4(C)[C@H]3CC[C@@]21C)C(C)C
REMARK SMILES IDX 6 1 7 2 5 3 4 4 3 5 2 6 1 7 28 8 29 9 30 10 8 11 9 12 26 13
REMARK SMILES IDX 10 14 11 15 25 16 27 17 12 18 24 19 23 20 13 21 21 22 14 23
REMARK SMILES IDX 15 24 20 25 22 26 16 27 19 28 17 29 18 30
REMARK H PARENT 18 31
REMARK Flexibility Score: inf
ROOT
ATOM      1  C   UNL     1      49.271  37.470  11.102  1.00  0.00     0.012 C 
ATOM      2  C   UNL     1      50.530  38.048  11.775  1.00  0.00     0.012 C 
ENDROOT
BRANCH   1   3
ATOM      3  C   UNL     1      48.250  38.572  10.909  1.00  0.00    -0.028 C 
ATOM      4  C   UNL     1      46.991  38.481  11.368  1.00  0.00    -0.027 C 
BRANCH   4   5
ATOM      5  C   UNL     1      46.006  39.621  11.206  1.00  0.00     0.014 C 
BRANCH   5   6
ATOM      6  C   UNL     1      45.408  39.573   9.770  1.00  0.00     0.004 C 
ATOM      7  C   UNL     1      45.010  38.160   9.327  1.00  0.00     0.004 C 
ENDBRANCH   5   6
BRANCH   5   8
ATOM      8  C   UNL     1      44.920  39.556  12.330  1.00  0.00    -0.011 C 
ATOM      9  C   UNL     1      44.365  40.942  12.695  1.00  0.00     0.008 C 
ATOM     10  C   UNL     1      45.477  38.894  13.604  1.00  0.00     0.008 C 
ENDBRANCH   5   8
ENDBRANCH   4   5
ENDBRANCH   1   3
BRANCH   1  11
ATOM     11  C   UNL     1      49.590  36.752   9.752  1.00  0.00     0.002 C 
ATOM     12  C   UNL     1      51.031  36.255   9.658  1.00  0.00     0.005 C 
ATOM     13  C   UNL     1      48.693  35.514   9.348  1.00  0.00    -0.023 C 
ATOM     14  C   UNL     1      51.008  35.225   8.548  1.00  0.00     0.009 C 
ATOM     15  C   UNL     1      49.711  34.470   8.778  1.00  0.00     0.021 C 
ATOM     16  C   UNL     1      47.635  35.974   8.299  1.00  0.00     0.008 C 
ATOM     17  C   UNL     1      47.962  34.858  10.552  1.00  0.00     0.012 C 
ATOM     18  C   UNL     1      49.288  33.666   7.550  1.00  0.00    -0.067 C 
ATOM     19  C   UNL     1      47.067  34.817   7.482  1.00  0.00     0.009 C 
ATOM     20  C   UNL     1      48.182  34.177   6.634  1.00  0.00     0.021 C 
ATOM     21  C   UNL     1      50.039  32.591   7.217  1.00  0.00    -0.027 C 
ATOM     22  C   UNL     1      47.660  33.102   5.603  1.00  0.00    -0.023 C 
ATOM     23  C   UNL     1      49.745  31.683   6.056  1.00  0.00     0.031 C 
ATOM     24  C   UNL     1      48.873  32.344   4.974  1.00  0.00     0.002 C 
ATOM     25  C   UNL     1      46.842  33.751   4.443  1.00  0.00     0.010 C 
ATOM     26  C   UNL     1      46.728  32.078   6.309  1.00  0.00     0.012 C 
ATOM     27  C   UNL     1      49.729  33.256   4.063  1.00  0.00     0.036 C 
ATOM     28  C   UNL     1      47.678  34.639   3.510  1.00  0.00     0.032 C 
ATOM     29  C   UNL     1      48.889  33.890   2.942  1.00  0.00     0.114 C 
BRANCH  29  30
ATOM     30  O   UNL     1      48.451  32.899   2.047  1.00  0.00    -0.393 OA
ATOM     31  H   UNL     1      47.589  32.555   2.397  1.00  0.00     0.210 HD
ENDBRANCH  29  30
ENDBRANCH   1  11
TORSDOF 6
ENDMDL
MODEL 9
REMARK VINA RESULT:    -6.637      2.960      7.680
REMARK INTER + INTRA:         -10.032
REMARK INTER:                  -8.449
REMARK INTRA:                  -1.582
REMARK UNBOUND:                -1.261
REMARK SMILES CC[C@H](C=C[C@H](C)[C@H]1CC[C@@H]2C3=CC[C@@H]4C[C@@H](O)CC[C@]4(C)[C@H]3CC[C@@]21C)C(C)C
REMARK SMILES IDX 6 1 7 2 5 3 4 4 3 5 2 6 1 7 28 8 29 9 30 10 8 11 9 12 26 13
REMARK SMILES IDX 10 14 11 15 25 16 27 17 12 18 24 19 23 20 13 21 21 22 14 23
REMARK SMILES IDX 15 24 20 25 22 26 16 27 19 28 17 29 18 30
REMARK H PARENT 18 31
REMARK Flexibility Score: inf
ROOT
ATOM      1  C   UNL     1      44.215  30.080   4.864  1.00  0.00     0.012 C 
ATOM      2  C   UNL     1      45.302  29.016   4.630  1.00  0.00     0.012 C 
ENDROOT
BRANCH   1   3
ATOM      3  C   UNL     1      44.344  31.174   3.824  1.00  0.00    -0.028 C 
ATOM      4  C   UNL     1      44.087  32.465   4.094  1.00  0.00    -0.027 C 
BRANCH   4   5
ATOM      5  C   UNL     1      44.277  33.544   3.048  1.00  0.00     0.014 C 
BRANCH   5   6
ATOM      6  C   UNL     1      44.292  32.885   1.638  1.00  0.00     0.004 C 
ATOM      7  C   UNL     1      42.961  33.024   0.890  1.00  0.00     0.004 C 
ENDBRANCH   5   6
BRANCH   5   8
ATOM      8  C   UNL     1      43.175  34.643   3.204  1.00  0.00    -0.011 C 
ATOM      9  C   UNL     1      43.756  36.066   3.199  1.00  0.00     0.008 C 
ATOM     10  C   UNL     1      42.369  34.442   4.501  1.00  0.00     0.008 C 
ENDBRANCH   5   8
ENDBRANCH   4   5
ENDBRANCH   1   3
BRANCH   1  11
ATOM     11  C   UNL     1      42.775  29.474   4.870  1.00  0.00     0.002 C 
ATOM     12  C   UNL     1      42.754  27.970   5.138  1.00  0.00     0.005 C 
ATOM     13  C   UNL     1      41.721  30.093   5.873  1.00  0.00    -0.023 C 
ATOM     14  C   UNL     1      41.329  27.678   5.560  1.00  0.00     0.009 C 
ATOM     15  C   UNL     1      40.965  28.851   6.454  1.00  0.00     0.021 C 
ATOM     16  C   UNL     1      40.787  31.067   5.091  1.00  0.00     0.008 C 
ATOM     17  C   UNL     1      42.369  30.856   7.062  1.00  0.00     0.012 C 
ATOM     18  C   UNL     1      39.456  28.971   6.658  1.00  0.00    -0.067 C 
ATOM     19  C   UNL     1      39.464  31.324   5.807  1.00  0.00     0.009 C 
ATOM     20  C   UNL     1      38.653  30.018   5.895  1.00  0.00     0.021 C 
ATOM     21  C   UNL     1      38.847  28.015   7.397  1.00  0.00    -0.027 C 
ATOM     22  C   UNL     1      37.185  30.216   6.439  1.00  0.00    -0.023 C 
ATOM     23  C   UNL     1      37.378  28.001   7.713  1.00  0.00     0.031 C 
ATOM     24  C   UNL     1      36.536  28.823   6.720  1.00  0.00     0.002 C 
ATOM     25  C   UNL     1      36.279  30.973   5.417  1.00  0.00     0.010 C 
ATOM     26  C   UNL     1      37.197  31.049   7.751  1.00  0.00     0.012 C 
ATOM     27  C   UNL     1      36.280  28.019   5.423  1.00  0.00     0.036 C 
ATOM     28  C   UNL     1      35.989  30.181   4.133  1.00  0.00     0.032 C 
ATOM     29  C   UNL     1      35.398  28.799   4.434  1.00  0.00     0.114 C 
BRANCH  29  30
ATOM     30  O   UNL     1      34.101  28.947   4.956  1.00  0.00    -0.393 OA
ATOM     31  H   UNL     1      33.558  28.200   4.595  1.00  0.00     0.210 HD
ENDBRANCH  29  30
ENDBRANCH   1  11
TORSDOF 6
ENDMDL
