MODEL 1
REMARK VINA RESULT:    -7.273      0.000      0.000
REMARK INTER + INTRA:         -11.573
REMARK INTER:                  -9.611
REMARK INTRA:                  -1.961
REMARK UNBOUND:                -1.961
REMARK SMILES CC[C@@H](C=C[C@H](C)[C@@H]1CC[C@@H]2[C@H]3CC=C4C[C@H](O)CC[C@@]4(C)[C@H]3CC[C@@]21C)C(C)C
REMARK SMILES IDX 6 1 7 2 5 3 4 4 3 5 2 6 1 7 28 8 29 9 30 10 8 11 9 12 26 13
REMARK SMILES IDX 10 14 11 15 25 16 27 17 12 18 24 19 23 20 13 21 21 22 14 23
REMARK SMILES IDX 15 24 20 25 22 26 16 27 19 28 17 29 18 30
REMARK H PARENT 18 31
REMARK Flexibility Score: inf
ROOT
ATOM      1  C   UNL     1     101.949 121.722 120.031  1.00  0.00     0.012 C 
ATOM      2  C   UNL     1     100.544 121.138 119.802  1.00  0.00     0.012 C 
ENDROOT
BRANCH   1   3
ATOM      3  C   UNL     1     101.947 123.240 119.856  1.00  0.00    -0.028 C 
ATOM      4  C   UNL     1     102.772 124.002 119.101  1.00  0.00    -0.027 C 
BRANCH   4   5
ATOM      5  C   UNL     1     103.954 123.533 118.272  1.00  0.00     0.014 C 
BRANCH   5   6
ATOM      6  C   UNL     1     105.103 124.559 118.417  1.00  0.00     0.004 C 
ATOM      7  C   UNL     1     106.479 123.982 118.081  1.00  0.00     0.004 C 
ENDBRANCH   5   6
BRANCH   5   8
ATOM      8  C   UNL     1     103.548 123.254 116.787  1.00  0.00    -0.011 C 
ATOM      9  C   UNL     1     103.285 121.758 116.550  1.00  0.00     0.008 C 
ATOM     10  C   UNL     1     102.347 124.078 116.290  1.00  0.00     0.008 C 
ENDBRANCH   5   8
ENDBRANCH   4   5
ENDBRANCH   1   3
BRANCH   1  11
ATOM     11  C   UNL     1     102.668 121.267 121.354  1.00  0.00     0.002 C 
ATOM     12  C   UNL     1     102.952 122.476 122.258  1.00  0.00     0.005 C 
ATOM     13  C   UNL     1     104.042 120.516 121.249  1.00  0.00    -0.026 C 
ATOM     14  C   UNL     1     104.152 122.129 123.123  1.00  0.00     0.005 C 
ATOM     15  C   UNL     1     104.663 120.758 122.662  1.00  0.00    -0.001 C 
ATOM     16  C   UNL     1     104.944 121.116 120.133  1.00  0.00     0.007 C 
ATOM     17  C   UNL     1     103.808 119.003 120.997  1.00  0.00     0.012 C 
ATOM     18  C   UNL     1     106.216 120.652 122.799  1.00  0.00     0.000 C 
ATOM     19  C   UNL     1     106.435 120.782 120.283  1.00  0.00     0.005 C 
ATOM     20  C   UNL     1     106.984 121.315 121.626  1.00  0.00     0.003 C 
ATOM     21  C   UNL     1     106.674 119.202 123.029  1.00  0.00     0.031 C 
ATOM     22  C   UNL     1     108.557 121.229 121.831  1.00  0.00    -0.008 C 
ATOM     23  C   UNL     1     108.164 119.058 123.067  1.00  0.00    -0.027 C 
ATOM     24  C   UNL     1     109.011 119.890 122.431  1.00  0.00    -0.065 C 
ATOM     25  C   UNL     1     109.325 121.449 120.487  1.00  0.00     0.014 C 
ATOM     26  C   UNL     1     108.960 122.356 122.824  1.00  0.00     0.016 C 
ATOM     27  C   UNL     1     110.500 119.596 122.497  1.00  0.00     0.063 C 
ATOM     28  C   UNL     1     110.847 121.253 120.599  1.00  0.00     0.033 C 
ATOM     29  C   UNL     1     111.171 119.848 121.138  1.00  0.00     0.118 C 
BRANCH  29  30
ATOM     30  O   UNL     1     112.560 119.655 121.229  1.00  0.00    -0.393 OA
ATOM     31  H   UNL     1     112.997 120.305 120.615  1.00  0.00     0.210 HD
ENDBRANCH  29  30
ENDBRANCH   1  11
TORSDOF 6
ENDMDL
MODEL 2
REMARK VINA RESULT:    -6.840      1.768      2.848
REMARK INTER + INTRA:         -11.001
REMARK INTER:                  -9.135
REMARK INTRA:                  -1.866
REMARK UNBOUND:                -1.961
REMARK SMILES CC[C@@H](C=C[C@H](C)[C@@H]1CC[C@@H]2[C@H]3CC=C4C[C@H](O)CC[C@@]4(C)[C@H]3CC[C@@]21C)C(C)C
REMARK SMILES IDX 6 1 7 2 5 3 4 4 3 5 2 6 1 7 28 8 29 9 30 10 8 11 9 12 26 13
REMARK SMILES IDX 10 14 11 15 25 16 27 17 12 18 24 19 23 20 13 21 21 22 14 23
REMARK SMILES IDX 15 24 20 25 22 26 16 27 19 28 17 29 18 30
REMARK H PARENT 18 31
REMARK Flexibility Score: inf
ROOT
ATOM      1  C   UNL     1     101.484 120.018 119.694  1.00  0.00     0.012 C 
ATOM      2  C   UNL     1     100.391 119.312 120.517  1.00  0.00     0.012 C 
ENDROOT
BRANCH   1   3
ATOM      3  C   UNL     1     100.898 120.654 118.435  1.00  0.00    -0.028 C 
ATOM      4  C   UNL     1     101.290 120.496 117.149  1.00  0.00    -0.027 C 
BRANCH   4   5
ATOM      5  C   UNL     1     102.462 119.676 116.641  1.00  0.00     0.014 C 
BRANCH   5   6
ATOM      6  C   UNL     1     103.670 120.618 116.421  1.00  0.00     0.004 C 
ATOM      7  C   UNL     1     103.268 122.035 116.009  1.00  0.00     0.004 C 
ENDBRANCH   5   6
BRANCH   5   8
ATOM      8  C   UNL     1     102.082 118.840 115.375  1.00  0.00    -0.011 C 
ATOM      9  C   UNL     1     100.807 119.383 114.709  1.00  0.00     0.008 C 
ATOM     10  C   UNL     1     103.205 118.722 114.330  1.00  0.00     0.008 C 
ENDBRANCH   5   8
ENDBRANCH   4   5
ENDBRANCH   1   3
BRANCH   1  11
ATOM     11  C   UNL     1     102.409 121.005 120.496  1.00  0.00     0.002 C 
ATOM     12  C   UNL     1     102.718 122.256 119.659  1.00  0.00     0.005 C 
ATOM     13  C   UNL     1     103.809 120.499 120.990  1.00  0.00    -0.026 C 
ATOM     14  C   UNL     1     104.048 122.811 120.141  1.00  0.00     0.005 C 
ATOM     15  C   UNL     1     104.595 121.834 121.190  1.00  0.00    -0.001 C 
ATOM     16  C   UNL     1     104.503 119.595 119.932  1.00  0.00     0.007 C 
ATOM     17  C   UNL     1     103.659 119.737 122.335  1.00  0.00     0.012 C 
ATOM     18  C   UNL     1     106.156 121.769 121.150  1.00  0.00     0.000 C 
ATOM     19  C   UNL     1     106.021 119.465 120.116  1.00  0.00     0.005 C 
ATOM     20  C   UNL     1     106.705 120.849 120.029  1.00  0.00     0.003 C 
ATOM     21  C   UNL     1     106.750 121.408 122.521  1.00  0.00     0.031 C 
ATOM     22  C   UNL     1     108.293 120.852 119.991  1.00  0.00    -0.008 C 
ATOM     23  C   UNL     1     108.239 121.243 122.489  1.00  0.00    -0.027 C 
ATOM     24  C   UNL     1     108.925 120.875 121.390  1.00  0.00    -0.065 C 
ATOM     25  C   UNL     1     108.853 119.612 119.221  1.00  0.00     0.014 C 
ATOM     26  C   UNL     1     108.740 122.142 119.246  1.00  0.00     0.016 C 
ATOM     27  C   UNL     1     110.428 120.681 121.508  1.00  0.00     0.063 C 
ATOM     28  C   UNL     1     110.386 119.494 119.259  1.00  0.00     0.033 C 
ATOM     29  C   UNL     1     110.887 119.448 120.714  1.00  0.00     0.118 C 
BRANCH  29  30
ATOM     30  O   UNL     1     112.287 119.325 120.757  1.00  0.00    -0.393 OA
ATOM     31  H   UNL     1     112.516 118.751 121.536  1.00  0.00     0.210 HD
ENDBRANCH  29  30
ENDBRANCH   1  11
TORSDOF 6
ENDMDL
MODEL 3
REMARK VINA RESULT:    -6.755      1.828      2.899
REMARK INTER + INTRA:         -10.889
REMARK INTER:                  -8.663
REMARK INTRA:                  -2.226
REMARK UNBOUND:                -1.961
REMARK SMILES CC[C@@H](C=C[C@H](C)[C@@H]1CC[C@@H]2[C@H]3CC=C4C[C@H](O)CC[C@@]4(C)[C@H]3CC[C@@]21C)C(C)C
REMARK SMILES IDX 6 1 7 2 5 3 4 4 3 5 2 6 1 7 28 8 29 9 30 10 8 11 9 12 26 13
REMARK SMILES IDX 10 14 11 15 25 16 27 17 12 18 24 19 23 20 13 21 21 22 14 23
REMARK SMILES IDX 15 24 20 25 22 26 16 27 19 28 17 29 18 30
REMARK H PARENT 18 31
REMARK Flexibility Score: inf
ROOT
ATOM      1  C   UNL     1     101.441 120.312 121.105  1.00  0.00     0.012 C 
ATOM      2  C   UNL     1     100.404 119.810 122.125  1.00  0.00     0.012 C 
ENDROOT
BRANCH   1   3
ATOM      3  C   UNL     1     100.759 120.835 119.842  1.00  0.00    -0.028 C 
ATOM      4  C   UNL     1     101.066 120.577 118.549  1.00  0.00    -0.027 C 
BRANCH   4   5
ATOM      5  C   UNL     1     102.214 119.730 118.030  1.00  0.00     0.014 C 
BRANCH   5   6
ATOM      6  C   UNL     1     102.994 120.547 116.971  1.00  0.00     0.004 C 
ATOM      7  C   UNL     1     104.193 121.300 117.547  1.00  0.00     0.004 C 
ENDBRANCH   5   6
BRANCH   5   8
ATOM      8  C   UNL     1     101.723 118.339 117.510  1.00  0.00    -0.011 C 
ATOM      9  C   UNL     1     101.714 117.293 118.636  1.00  0.00     0.008 C 
ATOM     10  C   UNL     1     100.350 118.368 116.816  1.00  0.00     0.008 C 
ENDBRANCH   5   8
ENDBRANCH   4   5
ENDBRANCH   1   3
BRANCH   1  11
ATOM     11  C   UNL     1     102.521 121.308 121.666  1.00  0.00     0.002 C 
ATOM     12  C   UNL     1     102.699 122.503 120.717  1.00  0.00     0.005 C 
ATOM     13  C   UNL     1     103.976 120.782 121.923  1.00  0.00    -0.026 C 
ATOM     14  C   UNL     1     104.107 123.038 120.914  1.00  0.00     0.005 C 
ATOM     15  C   UNL     1     104.816 122.099 121.898  1.00  0.00    -0.001 C 
ATOM     16  C   UNL     1     104.441 119.803 120.807  1.00  0.00     0.007 C 
ATOM     17  C   UNL     1     104.061 120.096 123.312  1.00  0.00     0.012 C 
ATOM     18  C   UNL     1     106.341 121.981 121.576  1.00  0.00     0.000 C 
ATOM     19  C   UNL     1     105.964 119.632 120.716  1.00  0.00     0.005 C 
ATOM     20  C   UNL     1     106.651 120.987 120.427  1.00  0.00     0.003 C 
ATOM     21  C   UNL     1     107.170 121.671 122.833  1.00  0.00     0.031 C 
ATOM     22  C   UNL     1     108.204 120.935 120.098  1.00  0.00    -0.008 C 
ATOM     23  C   UNL     1     108.623 121.456 122.537  1.00  0.00    -0.027 C 
ATOM     24  C   UNL     1     109.085 121.009 121.353  1.00  0.00    -0.065 C 
ATOM     25  C   UNL     1     108.583 119.639 119.309  1.00  0.00     0.014 C 
ATOM     26  C   UNL     1     108.535 122.170 119.212  1.00  0.00     0.016 C 
ATOM     27  C   UNL     1     110.579 120.772 121.204  1.00  0.00     0.063 C 
ATOM     28  C   UNL     1     110.094 119.473 119.072  1.00  0.00     0.033 C 
ATOM     29  C   UNL     1     110.854 119.485 120.410  1.00  0.00     0.118 C 
BRANCH  29  30
ATOM     30  O   UNL     1     112.235 119.318 120.202  1.00  0.00    -0.393 OA
ATOM     31  H   UNL     1     112.627 120.217 120.038  1.00  0.00     0.210 HD
ENDBRANCH  29  30
ENDBRANCH   1  11
TORSDOF 6
ENDMDL
MODEL 4
REMARK VINA RESULT:    -6.654      3.344      8.218
REMARK INTER + INTRA:         -10.754
REMARK INTER:                  -9.475
REMARK INTRA:                  -1.279
REMARK UNBOUND:                -1.961
REMARK SMILES CC[C@@H](C=C[C@H](C)[C@@H]1CC[C@@H]2[C@H]3CC=C4C[C@H](O)CC[C@@]4(C)[C@H]3CC[C@@]21C)C(C)C
REMARK SMILES IDX 6 1 7 2 5 3 4 4 3 5 2 6 1 7 28 8 29 9 30 10 8 11 9 12 26 13
REMARK SMILES IDX 10 14 11 15 25 16 27 17 12 18 24 19 23 20 13 21 21 22 14 23
REMARK SMILES IDX 15 24 20 25 22 26 16 27 19 28 17 29 18 30
REMARK H PARENT 18 31
REMARK Flexibility Score: inf
ROOT
ATOM      1  C   UNL     1     106.152 120.905 122.147  1.00  0.00     0.012 C 
ATOM      2  C   UNL     1     106.049 119.523 122.817  1.00  0.00     0.012 C 
ENDROOT
BRANCH   1   3
ATOM      3  C   UNL     1     107.345 121.689 122.690  1.00  0.00    -0.028 C 
ATOM      4  C   UNL     1     108.658 121.364 122.647  1.00  0.00    -0.027 C 
BRANCH   4   5
ATOM      5  C   UNL     1     109.271 120.093 122.086  1.00  0.00     0.014 C 
BRANCH   5   6
ATOM      6  C   UNL     1     110.069 119.389 123.210  1.00  0.00     0.004 C 
ATOM      7  C   UNL     1     109.246 118.361 123.986  1.00  0.00     0.004 C 
ENDBRANCH   5   6
BRANCH   5   8
ATOM      8  C   UNL     1     110.116 120.374 120.800  1.00  0.00    -0.011 C 
ATOM      9  C   UNL     1     111.566 119.892 120.967  1.00  0.00     0.008 C 
ATOM     10  C   UNL     1     109.520 119.789 119.507  1.00  0.00     0.008 C 
ENDBRANCH   5   8
ENDBRANCH   4   5
ENDBRANCH   1   3
BRANCH   1  11
ATOM     11  C   UNL     1     106.091 120.906 120.576  1.00  0.00     0.002 C 
ATOM     12  C   UNL     1     106.821 122.132 120.007  1.00  0.00     0.005 C 
ATOM     13  C   UNL     1     104.689 120.914 119.872  1.00  0.00    -0.026 C 
ATOM     14  C   UNL     1     106.205 122.444 118.654  1.00  0.00     0.005 C 
ATOM     15  C   UNL     1     105.030 121.478 118.456  1.00  0.00    -0.001 C 
ATOM     16  C   UNL     1     103.677 121.835 120.611  1.00  0.00     0.007 C 
ATOM     17  C   UNL     1     104.130 119.469 119.774  1.00  0.00     0.012 C 
ATOM     18  C   UNL     1     103.873 122.146 117.644  1.00  0.00     0.000 C 
ATOM     19  C   UNL     1     102.483 122.274 119.752  1.00  0.00     0.005 C 
ATOM     20  C   UNL     1     102.961 123.055 118.507  1.00  0.00     0.003 C 
ATOM     21  C   UNL     1     103.057 121.111 116.852  1.00  0.00     0.031 C 
ATOM     22  C   UNL     1     101.832 123.752 117.634  1.00  0.00    -0.008 C 
ATOM     23  C   UNL     1     101.882 121.711 116.142  1.00  0.00    -0.027 C 
ATOM     24  C   UNL     1     101.250 122.827 116.556  1.00  0.00    -0.065 C 
ATOM     25  C   UNL     1     100.654 124.269 118.522  1.00  0.00     0.014 C 
ATOM     26  C   UNL     1     102.482 124.969 116.916  1.00  0.00     0.016 C 
ATOM     27  C   UNL     1     100.031 123.296 115.781  1.00  0.00     0.063 C 
ATOM     28  C   UNL     1      99.472 124.842 117.721  1.00  0.00     0.033 C 
ATOM     29  C   UNL     1      98.932 123.792 116.733  1.00  0.00     0.118 C 
BRANCH  29  30
ATOM     30  O   UNL     1      97.842 124.303 116.007  1.00  0.00    -0.393 OA
ATOM     31  H   UNL     1      97.125 123.614 116.012  1.00  0.00     0.210 HD
ENDBRANCH  29  30
ENDBRANCH   1  11
TORSDOF 6
ENDMDL
MODEL 5
REMARK VINA RESULT:    -6.455      4.139      7.189
REMARK INTER + INTRA:         -10.492
REMARK INTER:                  -9.202
REMARK INTRA:                  -1.290
REMARK UNBOUND:                -1.961
REMARK SMILES CC[C@@H](C=C[C@H](C)[C@@H]1CC[C@@H]2[C@H]3CC=C4C[C@H](O)CC[C@@]4(C)[C@H]3CC[C@@]21C)C(C)C
REMARK SMILES IDX 6 1 7 2 5 3 4 4 3 5 2 6 1 7 28 8 29 9 30 10 8 11 9 12 26 13
REMARK SMILES IDX 10 14 11 15 25 16 27 17 12 18 24 19 23 20 13 21 21 22 14 23
REMARK SMILES IDX 15 24 20 25 22 26 16 27 19 28 17 29 18 30
REMARK H PARENT 18 31
REMARK Flexibility Score: inf
ROOT
ATOM      1  C   UNL     1     106.020 120.402 120.649  1.00  0.00     0.012 C 
ATOM      2  C   UNL     1     105.803 119.087 119.879  1.00  0.00     0.012 C 
ENDROOT
BRANCH   1   3
ATOM      3  C   UNL     1     106.896 121.366 119.851  1.00  0.00    -0.028 C 
ATOM      4  C   UNL     1     108.247 121.445 119.814  1.00  0.00    -0.027 C 
BRANCH   4   5
ATOM      5  C   UNL     1     109.237 120.614 120.610  1.00  0.00     0.014 C 
BRANCH   5   6
ATOM      6  C   UNL     1     109.764 121.465 121.790  1.00  0.00     0.004 C 
ATOM      7  C   UNL     1     108.733 121.668 122.901  1.00  0.00     0.004 C 
ENDBRANCH   5   6
BRANCH   5   8
ATOM      8  C   UNL     1     110.370 120.033 119.702  1.00  0.00    -0.011 C 
ATOM      9  C   UNL     1     111.607 119.645 120.530  1.00  0.00     0.008 C 
ATOM     10  C   UNL     1     109.938 118.844 118.826  1.00  0.00     0.008 C 
ENDBRANCH   5   8
ENDBRANCH   4   5
ENDBRANCH   1   3
BRANCH   1  11
ATOM     11  C   UNL     1     104.720 121.087 121.208  1.00  0.00     0.002 C 
ATOM     12  C   UNL     1     105.041 122.482 121.765  1.00  0.00     0.005 C 
ATOM     13  C   UNL     1     103.920 120.374 122.354  1.00  0.00    -0.026 C 
ATOM     14  C   UNL     1     104.000 122.802 122.825  1.00  0.00     0.005 C 
ATOM     15  C   UNL     1     103.120 121.556 122.988  1.00  0.00    -0.001 C 
ATOM     16  C   UNL     1     104.868 119.718 123.397  1.00  0.00     0.007 C 
ATOM     17  C   UNL     1     102.959 119.311 121.755  1.00  0.00     0.012 C 
ATOM     18  C   UNL     1     102.631 121.391 124.463  1.00  0.00     0.000 C 
ATOM     19  C   UNL     1     104.210 119.437 124.755  1.00  0.00     0.005 C 
ATOM     20  C   UNL     1     103.690 120.746 125.394  1.00  0.00     0.003 C 
ATOM     21  C   UNL     1     101.283 120.655 124.542  1.00  0.00     0.031 C 
ATOM     22  C   UNL     1     103.172 120.645 126.892  1.00  0.00    -0.008 C 
ATOM     23  C   UNL     1     100.839 120.398 125.949  1.00  0.00    -0.027 C 
ATOM     24  C   UNL     1     101.686 120.269 126.988  1.00  0.00    -0.065 C 
ATOM     25  C   UNL     1     103.995 119.601 127.716  1.00  0.00     0.014 C 
ATOM     26  C   UNL     1     103.352 122.045 127.544  1.00  0.00     0.016 C 
ATOM     27  C   UNL     1     101.109 119.945 128.356  1.00  0.00     0.063 C 
ATOM     28  C   UNL     1     103.459 119.368 129.139  1.00  0.00     0.033 C 
ATOM     29  C   UNL     1     101.986 118.922 129.094  1.00  0.00     0.118 C 
BRANCH  29  30
ATOM     30  O   UNL     1     101.493 118.692 130.390  1.00  0.00    -0.393 OA
ATOM     31  H   UNL     1     102.246 118.821 131.028  1.00  0.00     0.210 HD
ENDBRANCH  29  30
ENDBRANCH   1  11
TORSDOF 6
ENDMDL
MODEL 6
REMARK VINA RESULT:    -6.427      3.442      8.355
REMARK INTER + INTRA:         -10.455
REMARK INTER:                 -10.066
REMARK INTRA:                  -0.389
REMARK UNBOUND:                -1.961
REMARK SMILES CC[C@@H](C=C[C@H](C)[C@@H]1CC[C@@H]2[C@H]3CC=C4C[C@H](O)CC[C@@]4(C)[C@H]3CC[C@@]21C)C(C)C
REMARK SMILES IDX 6 1 7 2 5 3 4 4 3 5 2 6 1 7 28 8 29 9 30 10 8 11 9 12 26 13
REMARK SMILES IDX 10 14 11 15 25 16 27 17 12 18 24 19 23 20 13 21 21 22 14 23
REMARK SMILES IDX 15 24 20 25 22 26 16 27 19 28 17 29 18 30
REMARK H PARENT 18 31
REMARK Flexibility Score: inf
ROOT
ATOM      1  C   UNL     1     107.164 121.356 120.254  1.00  0.00     0.012 C 
ATOM      2  C   UNL     1     106.746 119.917 119.905  1.00  0.00     0.012 C 
ENDROOT
BRANCH   1   3
ATOM      3  C   UNL     1     108.286 121.839 119.336  1.00  0.00    -0.028 C 
ATOM      4  C   UNL     1     109.622 121.671 119.476  1.00  0.00    -0.027 C 
BRANCH   4   5
ATOM      5  C   UNL     1     110.346 120.995 120.626  1.00  0.00     0.014 C 
BRANCH   5   6
ATOM      6  C   UNL     1     110.468 119.483 120.317  1.00  0.00     0.004 C 
ATOM      7  C   UNL     1     110.527 119.172 118.821  1.00  0.00     0.004 C 
ENDBRANCH   5   6
BRANCH   5   8
ATOM      8  C   UNL     1     109.666 121.299 122.001  1.00  0.00    -0.011 C 
ATOM      9  C   UNL     1     109.451 120.014 122.817  1.00  0.00     0.008 C 
ATOM     10  C   UNL     1     110.404 122.342 122.860  1.00  0.00     0.008 C 
ENDBRANCH   5   8
ENDBRANCH   4   5
ENDBRANCH   1   3
BRANCH   1  11
ATOM     11  C   UNL     1     105.991 122.396 120.373  1.00  0.00     0.002 C 
ATOM     12  C   UNL     1     104.953 121.925 121.404  1.00  0.00     0.005 C 
ATOM     13  C   UNL     1     105.153 122.743 119.093  1.00  0.00    -0.026 C 
ATOM     14  C   UNL     1     103.619 122.543 121.024  1.00  0.00     0.005 C 
ATOM     15  C   UNL     1     103.826 123.295 119.703  1.00  0.00    -0.001 C 
ATOM     16  C   UNL     1     104.886 121.485 118.220  1.00  0.00     0.007 C 
ATOM     17  C   UNL     1     105.876 123.835 118.259  1.00  0.00     0.012 C 
ATOM     18  C   UNL     1     102.543 123.246 118.812  1.00  0.00     0.000 C 
ATOM     19  C   UNL     1     103.706 121.633 117.248  1.00  0.00     0.005 C 
ATOM     20  C   UNL     1     102.396 121.922 118.017  1.00  0.00     0.003 C 
ATOM     21  C   UNL     1     102.436 124.474 117.892  1.00  0.00     0.031 C 
ATOM     22  C   UNL     1     101.056 121.893 117.166  1.00  0.00    -0.008 C 
ATOM     23  C   UNL     1     101.267 124.405 116.957  1.00  0.00    -0.027 C 
ATOM     24  C   UNL     1     100.720 123.250 116.530  1.00  0.00    -0.065 C 
ATOM     25  C   UNL     1     101.119 120.822 116.029  1.00  0.00     0.014 C 
ATOM     26  C   UNL     1      99.896 121.522 118.133  1.00  0.00     0.016 C 
ATOM     27  C   UNL     1      99.577 123.318 115.531  1.00  0.00     0.063 C 
ATOM     28  C   UNL     1      99.899 120.834 115.091  1.00  0.00     0.033 C 
ATOM     29  C   UNL     1      99.718 122.226 114.460  1.00  0.00     0.118 C 
BRANCH  29  30
ATOM     30  O   UNL     1      98.614 122.240 113.590  1.00  0.00    -0.393 OA
ATOM     31  H   UNL     1      98.915 122.624 112.724  1.00  0.00     0.210 HD
ENDBRANCH  29  30
ENDBRANCH   1  11
TORSDOF 6
ENDMDL
MODEL 7
REMARK VINA RESULT:    -6.398      1.763      4.685
REMARK INTER + INTRA:         -10.416
REMARK INTER:                  -8.379
REMARK INTRA:                  -2.038
REMARK UNBOUND:                -1.961
REMARK SMILES CC[C@@H](C=C[C@H](C)[C@@H]1CC[C@@H]2[C@H]3CC=C4C[C@H](O)CC[C@@]4(C)[C@H]3CC[C@@]21C)C(C)C
REMARK SMILES IDX 6 1 7 2 5 3 4 4 3 5 2 6 1 7 28 8 29 9 30 10 8 11 9 12 26 13
REMARK SMILES IDX 10 14 11 15 25 16 27 17 12 18 24 19 23 20 13 21 21 22 14 23
REMARK SMILES IDX 15 24 20 25 22 26 16 27 19 28 17 29 18 30
REMARK H PARENT 18 31
REMARK Flexibility Score: inf
ROOT
ATOM      1  C   UNL     1     101.396 121.937 121.254  1.00  0.00     0.012 C 
ATOM      2  C   UNL     1     100.395 123.076 121.513  1.00  0.00     0.012 C 
ENDROOT
BRANCH   1   3
ATOM      3  C   UNL     1     100.697 120.578 121.271  1.00  0.00    -0.028 C 
ATOM      4  C   UNL     1     101.188 119.382 121.670  1.00  0.00    -0.027 C 
BRANCH   4   5
ATOM      5  C   UNL     1     102.595 119.084 122.158  1.00  0.00     0.014 C 
BRANCH   5   6
ATOM      6  C   UNL     1     103.181 117.931 121.308  1.00  0.00     0.004 C 
ATOM      7  C   UNL     1     104.691 118.045 121.090  1.00  0.00     0.004 C 
ENDBRANCH   5   6
BRANCH   5   8
ATOM      8  C   UNL     1     102.630 118.807 123.696  1.00  0.00    -0.011 C 
ATOM      9  C   UNL     1     102.562 117.301 123.996  1.00  0.00     0.008 C 
ATOM     10  C   UNL     1     103.832 119.428 124.428  1.00  0.00     0.008 C 
ENDBRANCH   5   8
ENDBRANCH   4   5
ENDBRANCH   1   3
BRANCH   1  11
ATOM     11  C   UNL     1     102.329 122.122 120.002  1.00  0.00     0.002 C 
ATOM     12  C   UNL     1     102.352 120.843 119.151  1.00  0.00     0.005 C 
ATOM     13  C   UNL     1     103.840 122.477 120.229  1.00  0.00    -0.026 C 
ATOM     14  C   UNL     1     103.674 120.814 118.404  1.00  0.00     0.005 C 
ATOM     15  C   UNL     1     104.496 122.015 118.889  1.00  0.00    -0.001 C 
ATOM     16  C   UNL     1     104.439 121.706 121.439  1.00  0.00     0.007 C 
ATOM     17  C   UNL     1     104.006 124.008 120.429  1.00  0.00     0.012 C 
ATOM     18  C   UNL     1     106.025 121.692 118.904  1.00  0.00     0.000 C 
ATOM     19  C   UNL     1     105.972 121.618 121.431  1.00  0.00     0.005 C 
ATOM     20  C   UNL     1     106.473 120.898 120.159  1.00  0.00     0.003 C 
ATOM     21  C   UNL     1     106.880 122.952 118.695  1.00  0.00     0.031 C 
ATOM     22  C   UNL     1     108.022 120.547 120.109  1.00  0.00    -0.008 C 
ATOM     23  C   UNL     1     108.351 122.687 118.802  1.00  0.00    -0.027 C 
ATOM     24  C   UNL     1     108.877 121.685 119.533  1.00  0.00    -0.065 C 
ATOM     25  C   UNL     1     108.576 120.187 121.526  1.00  0.00     0.014 C 
ATOM     26  C   UNL     1     108.190 119.310 119.181  1.00  0.00     0.016 C 
ATOM     27  C   UNL     1     110.389 121.563 119.610  1.00  0.00     0.063 C 
ATOM     28  C   UNL     1     110.097 119.959 121.562  1.00  0.00     0.033 C 
ATOM     29  C   UNL     1     110.840 121.200 121.033  1.00  0.00     0.118 C 
BRANCH  29  30
ATOM     30  O   UNL     1     112.231 121.005 121.077  1.00  0.00    -0.393 OA
ATOM     31  H   UNL     1     112.546 120.853 120.146  1.00  0.00     0.210 HD
ENDBRANCH  29  30
ENDBRANCH   1  11
TORSDOF 6
ENDMDL
MODEL 8
REMARK VINA RESULT:    -6.397      3.445      8.147
REMARK INTER + INTRA:         -10.415
REMARK INTER:                  -9.043
REMARK INTRA:                  -1.372
REMARK UNBOUND:                -1.961
REMARK SMILES CC[C@@H](C=C[C@H](C)[C@@H]1CC[C@@H]2[C@H]3CC=C4C[C@H](O)CC[C@@]4(C)[C@H]3CC[C@@]21C)C(C)C
REMARK SMILES IDX 6 1 7 2 5 3 4 4 3 5 2 6 1 7 28 8 29 9 30 10 8 11 9 12 26 13
REMARK SMILES IDX 10 14 11 15 25 16 27 17 12 18 24 19 23 20 13 21 21 22 14 23
REMARK SMILES IDX 15 24 20 25 22 26 16 27 19 28 17 29 18 30
REMARK H PARENT 18 31
REMARK Flexibility Score: inf
ROOT
ATOM      1  C   UNL     1     105.373 121.600 121.048  1.00  0.00     0.012 C 
ATOM      2  C   UNL     1     105.545 122.108 122.490  1.00  0.00     0.012 C 
ENDROOT
BRANCH   1   3
ATOM      3  C   UNL     1     106.208 120.344 120.806  1.00  0.00    -0.028 C 
ATOM      4  C   UNL     1     107.556 120.222 120.766  1.00  0.00    -0.027 C 
BRANCH   4   5
ATOM      5  C   UNL     1     108.583 121.332 120.903  1.00  0.00     0.014 C 
BRANCH   5   6
ATOM      6  C   UNL     1     109.093 121.713 119.493  1.00  0.00     0.004 C 
ATOM      7  C   UNL     1     108.119 122.598 118.714  1.00  0.00     0.004 C 
ENDBRANCH   5   6
BRANCH   5   8
ATOM      8  C   UNL     1     109.725 120.947 121.899  1.00  0.00    -0.011 C 
ATOM      9  C   UNL     1     109.298 119.794 122.823  1.00  0.00     0.008 C 
ATOM     10  C   UNL     1     111.067 120.604 121.228  1.00  0.00     0.008 C 
ENDBRANCH   5   8
ENDBRANCH   4   5
ENDBRANCH   1   3
BRANCH   1  11
ATOM     11  C   UNL     1     103.888 121.443 120.554  1.00  0.00     0.002 C 
ATOM     12  C   UNL     1     103.561 119.966 120.285  1.00  0.00     0.005 C 
ATOM     13  C   UNL     1     103.440 122.194 119.251  1.00  0.00    -0.026 C 
ATOM     14  C   UNL     1     102.454 119.924 119.246  1.00  0.00     0.005 C 
ATOM     15  C   UNL     1     102.191 121.370 118.804  1.00  0.00    -0.001 C 
ATOM     16  C   UNL     1     104.546 122.167 118.159  1.00  0.00     0.007 C 
ATOM     17  C   UNL     1     103.048 123.658 119.585  1.00  0.00     0.012 C 
ATOM     18  C   UNL     1     101.777 121.440 117.299  1.00  0.00     0.000 C 
ATOM     19  C   UNL     1     104.033 122.435 116.737  1.00  0.00     0.005 C 
ATOM     20  C   UNL     1     102.982 121.378 116.326  1.00  0.00     0.003 C 
ATOM     21  C   UNL     1     100.875 122.651 117.008  1.00  0.00     0.031 C 
ATOM     22  C   UNL     1     102.514 121.401 114.808  1.00  0.00    -0.008 C 
ATOM     23  C   UNL     1     100.543 122.798 115.555  1.00  0.00    -0.027 C 
ATOM     24  C   UNL     1     101.332 122.349 114.559  1.00  0.00    -0.065 C 
ATOM     25  C   UNL     1     103.681 121.812 113.852  1.00  0.00     0.014 C 
ATOM     26  C   UNL     1     102.055 119.961 114.440  1.00  0.00     0.016 C 
ATOM     27  C   UNL     1     100.911 122.618 113.125  1.00  0.00     0.063 C 
ATOM     28  C   UNL     1     103.256 121.973 112.382  1.00  0.00     0.033 C 
ATOM     29  C   UNL     1     102.120 123.005 112.260  1.00  0.00     0.118 C 
BRANCH  29  30
ATOM     30  O   UNL     1     101.736 123.169 110.918  1.00  0.00    -0.393 OA
ATOM     31  H   UNL     1     101.241 124.029 110.847  1.00  0.00     0.210 HD
ENDBRANCH  29  30
ENDBRANCH   1  11
TORSDOF 6
ENDMDL
MODEL 9
REMARK VINA RESULT:    -6.358      3.015      5.532
REMARK INTER + INTRA:         -10.364
REMARK INTER:                  -9.614
REMARK INTRA:                  -0.751
REMARK UNBOUND:                -1.961
REMARK SMILES CC[C@@H](C=C[C@H](C)[C@@H]1CC[C@@H]2[C@H]3CC=C4C[C@H](O)CC[C@@]4(C)[C@H]3CC[C@@]21C)C(C)C
REMARK SMILES IDX 6 1 7 2 5 3 4 4 3 5 2 6 1 7 28 8 29 9 30 10 8 11 9 12 26 13
REMARK SMILES IDX 10 14 11 15 25 16 27 17 12 18 24 19 23 20 13 21 21 22 14 23
REMARK SMILES IDX 15 24 20 25 22 26 16 27 19 28 17 29 18 30
REMARK H PARENT 18 31
REMARK Flexibility Score: inf
ROOT
ATOM      1  C   UNL     1     102.015 119.267 122.067  1.00  0.00     0.012 C 
ATOM      2  C   UNL     1     101.779 119.007 120.568  1.00  0.00     0.012 C 
ENDROOT
BRANCH   1   3
ATOM      3  C   UNL     1     102.459 117.991 122.781  1.00  0.00    -0.028 C 
ATOM      4  C   UNL     1     101.916 117.403 123.872  1.00  0.00    -0.027 C 
BRANCH   4   5
ATOM      5  C   UNL     1     100.744 117.904 124.698  1.00  0.00     0.014 C 
BRANCH   5   6
ATOM      6  C   UNL     1     101.279 118.427 126.053  1.00  0.00     0.004 C 
ATOM      7  C   UNL     1     102.502 117.661 126.559  1.00  0.00     0.004 C 
ENDBRANCH   5   6
BRANCH   5   8
ATOM      8  C   UNL     1      99.628 116.818 124.843  1.00  0.00    -0.011 C 
ATOM      9  C   UNL     1     100.197 115.403 124.652  1.00  0.00     0.008 C 
ATOM     10  C   UNL     1      98.840 116.888 126.163  1.00  0.00     0.008 C 
ENDBRANCH   5   8
ENDBRANCH   4   5
ENDBRANCH   1   3
BRANCH   1  11
ATOM     11  C   UNL     1     102.928 120.500 122.409  1.00  0.00     0.002 C 
ATOM     12  C   UNL     1     102.860 121.550 121.289  1.00  0.00     0.005 C 
ATOM     13  C   UNL     1     104.462 120.265 122.643  1.00  0.00    -0.026 C 
ATOM     14  C   UNL     1     104.162 122.333 121.317  1.00  0.00     0.005 C 
ATOM     15  C   UNL     1     105.061 121.683 122.377  1.00  0.00    -0.001 C 
ATOM     16  C   UNL     1     105.044 119.218 121.651  1.00  0.00     0.007 C 
ATOM     17  C   UNL     1     104.719 119.821 124.108  1.00  0.00     0.012 C 
ATOM     18  C   UNL     1     106.569 121.769 121.976  1.00  0.00     0.000 C 
ATOM     19  C   UNL     1     106.569 119.288 121.486  1.00  0.00     0.005 C 
ATOM     20  C   UNL     1     107.000 120.677 120.963  1.00  0.00     0.003 C 
ATOM     21  C   UNL     1     107.489 121.794 123.208  1.00  0.00     0.031 C 
ATOM     22  C   UNL     1     108.525 120.833 120.545  1.00  0.00    -0.008 C 
ATOM     23  C   UNL     1     108.944 121.778 122.852  1.00  0.00    -0.027 C 
ATOM     24  C   UNL     1     109.429 121.239 121.717  1.00  0.00    -0.065 C 
ATOM     25  C   UNL     1     109.089 119.513 119.926  1.00  0.00     0.014 C 
ATOM     26  C   UNL     1     108.602 121.956 119.472  1.00  0.00     0.016 C 
ATOM     27  C   UNL     1     110.934 121.231 121.506  1.00  0.00     0.063 C 
ATOM     28  C   UNL     1     110.596 119.562 119.617  1.00  0.00     0.033 C 
ATOM     29  C   UNL     1     111.395 119.902 120.888  1.00  0.00     0.118 C 
BRANCH  29  30
ATOM     30  O   UNL     1     112.774 119.935 120.617  1.00  0.00    -0.393 OA
ATOM     31  H   UNL     1     113.057 119.013 120.372  1.00  0.00     0.210 HD
ENDBRANCH  29  30
ENDBRANCH   1  11
TORSDOF 6
ENDMDL
