MODEL 1
REMARK VINA RESULT:    -6.160      0.000      0.000
REMARK INTER + INTRA:          -6.619
REMARK INTER:                  -6.521
REMARK INTRA:                  -0.099
REMARK UNBOUND:                -0.099
REMARK SMILES C=C(C)[C@H]1CC=C(C)C(=O)C1
REMARK SMILES IDX 8 1 7 2 6 3 5 4 4 5 11 6 9 7 10 8 2 9 1 10 3 11
REMARK H PARENT
REMARK Flexibility Score: inf
ROOT
ATOM      1  C   UNL     1      27.745  20.207   4.008  1.00  0.00     0.048 C 
ATOM      2  C   UNL     1      28.765  20.507   5.071  1.00  0.00    -0.012 C 
ATOM      3  C   UNL     1      29.951  19.875   5.059  1.00  0.00    -0.019 C 
ATOM      4  C   UNL     1      31.000  20.124   6.110  1.00  0.00     0.036 C 
ATOM      5  C   UNL     1      30.950  21.582   6.607  1.00  0.00     0.025 C 
ATOM      6  C   UNL     1      29.535  21.931   7.102  1.00  0.00     0.089 C 
ATOM      7  C   UNL     1      28.510  21.589   6.056  1.00  0.00     0.158 C 
ATOM      8  O   UNL     1      27.412  22.209   6.047  1.00  0.00    -0.295 OA
ENDROOT
BRANCH   5   9
ATOM      9  C   UNL     1      31.996  21.839   7.683  1.00  0.00    -0.077 C 
ATOM     10  C   UNL     1      31.615  22.155   8.931  1.00  0.00     0.008 C 
ATOM     11  C   UNL     1      33.472  21.745   7.383  1.00  0.00     0.039 C 
ENDBRANCH   5   9
TORSDOF 1
ENDMDL
MODEL 2
REMARK VINA RESULT:    -6.056      1.877      4.277
REMARK INTER + INTRA:          -6.509
REMARK INTER:                  -6.413
REMARK INTRA:                  -0.095
REMARK UNBOUND:                -0.099
REMARK SMILES C=C(C)[C@H]1CC=C(C)C(=O)C1
REMARK SMILES IDX 8 1 7 2 6 3 5 4 4 5 11 6 9 7 10 8 2 9 1 10 3 11
REMARK H PARENT
REMARK Flexibility Score: inf
ROOT
ATOM      1  C   UNL     1      33.750  21.639   7.511  1.00  0.00     0.048 C 
ATOM      2  C   UNL     1      32.333  21.375   7.084  1.00  0.00    -0.012 C 
ATOM      3  C   UNL     1      32.091  20.627   5.994  1.00  0.00    -0.019 C 
ATOM      4  C   UNL     1      30.692  20.348   5.512  1.00  0.00     0.036 C 
ATOM      5  C   UNL     1      29.705  20.266   6.693  1.00  0.00     0.025 C 
ATOM      6  C   UNL     1      29.784  21.546   7.545  1.00  0.00     0.089 C 
ATOM      7  C   UNL     1      31.207  21.835   7.935  1.00  0.00     0.158 C 
ATOM      8  O   UNL     1      31.433  22.507   8.977  1.00  0.00    -0.295 OA
ENDROOT
BRANCH   5   9
ATOM      9  C   UNL     1      28.285  20.001   6.214  1.00  0.00    -0.077 C 
ATOM     10  C   UNL     1      27.286  19.877   7.103  1.00  0.00     0.008 C 
ATOM     11  C   UNL     1      27.961  19.875   4.746  1.00  0.00     0.039 C 
ENDBRANCH   5   9
TORSDOF 1
ENDMDL
MODEL 3
REMARK VINA RESULT:    -5.881      5.311      6.761
REMARK INTER + INTRA:          -6.323
REMARK INTER:                  -6.235
REMARK INTRA:                  -0.089
REMARK UNBOUND:                -0.099
REMARK SMILES C=C(C)[C@H]1CC=C(C)C(=O)C1
REMARK SMILES IDX 8 1 7 2 6 3 5 4 4 5 11 6 9 7 10 8 2 9 1 10 3 11
REMARK H PARENT
REMARK Flexibility Score: inf
ROOT
ATOM      1  C   UNL     1      25.824  19.955   4.605  1.00  0.00     0.048 C 
ATOM      2  C   UNL     1      25.605  21.438   4.486  1.00  0.00    -0.012 C 
ATOM      3  C   UNL     1      26.275  22.141   3.557  1.00  0.00    -0.019 C 
ATOM      4  C   UNL     1      26.108  23.629   3.407  1.00  0.00     0.036 C 
ATOM      5  C   UNL     1      24.673  24.064   3.762  1.00  0.00     0.025 C 
ATOM      6  C   UNL     1      24.300  23.574   5.173  1.00  0.00     0.089 C 
ATOM      7  C   UNL     1      24.561  22.100   5.308  1.00  0.00     0.158 C 
ATOM      8  O   UNL     1      23.906  21.435   6.155  1.00  0.00    -0.295 OA
ENDROOT
BRANCH   5   9
ATOM      9  C   UNL     1      24.499  25.570   3.631  1.00  0.00    -0.077 C 
ATOM     10  C   UNL     1      24.233  26.116   2.434  1.00  0.00     0.008 C 
ATOM     11  C   UNL     1      24.616  26.482   4.827  1.00  0.00     0.039 C 
ENDBRANCH   5   9
TORSDOF 1
ENDMDL
MODEL 4
REMARK VINA RESULT:    -5.766      2.024      4.493
REMARK INTER + INTRA:          -6.201
REMARK INTER:                  -6.114
REMARK INTRA:                  -0.087
REMARK UNBOUND:                -0.099
REMARK SMILES C=C(C)[C@H]1CC=C(C)C(=O)C1
REMARK SMILES IDX 8 1 7 2 6 3 5 4 4 5 11 6 9 7 10 8 2 9 1 10 3 11
REMARK H PARENT
REMARK Flexibility Score: inf
ROOT
ATOM      1  C   UNL     1      33.594  21.734   7.234  1.00  0.00     0.048 C 
ATOM      2  C   UNL     1      32.108  21.511   7.190  1.00  0.00    -0.012 C 
ATOM      3  C   UNL     1      31.315  22.112   8.093  1.00  0.00    -0.019 C 
ATOM      4  C   UNL     1      29.823  21.908   8.107  1.00  0.00     0.036 C 
ATOM      5  C   UNL     1      29.280  21.694   6.681  1.00  0.00     0.025 C 
ATOM      6  C   UNL     1      30.021  20.532   5.995  1.00  0.00     0.089 C 
ATOM      7  C   UNL     1      31.510  20.731   6.078  1.00  0.00     0.158 C 
ATOM      8  O   UNL     1      32.250  20.196   5.209  1.00  0.00    -0.295 OA
ENDROOT
BRANCH   5   9
ATOM      9  C   UNL     1      27.775  21.470   6.685  1.00  0.00    -0.077 C 
ATOM     10  C   UNL     1      26.942  22.476   6.375  1.00  0.00     0.008 C 
ATOM     11  C   UNL     1      27.182  20.126   7.031  1.00  0.00     0.039 C 
ENDBRANCH   5   9
TORSDOF 1
ENDMDL
MODEL 5
REMARK VINA RESULT:    -5.727      2.643      3.662
REMARK INTER + INTRA:          -6.160
REMARK INTER:                  -6.061
REMARK INTRA:                  -0.099
REMARK UNBOUND:                -0.099
REMARK SMILES C=C(C)[C@H]1CC=C(C)C(=O)C1
REMARK SMILES IDX 8 1 7 2 6 3 5 4 4 5 11 6 9 7 10 8 2 9 1 10 3 11
REMARK H PARENT
REMARK Flexibility Score: inf
ROOT
ATOM      1  C   UNL     1      28.092  24.567   8.592  1.00  0.00     0.048 C 
ATOM      2  C   UNL     1      29.249  23.673   8.240  1.00  0.00    -0.012 C 
ATOM      3  C   UNL     1      29.067  22.344   8.158  1.00  0.00    -0.019 C 
ATOM      4  C   UNL     1      30.195  21.403   7.828  1.00  0.00     0.036 C 
ATOM      5  C   UNL     1      31.208  22.065   6.874  1.00  0.00     0.025 C 
ATOM      6  C   UNL     1      31.712  23.393   7.468  1.00  0.00     0.089 C 
ATOM      7  C   UNL     1      30.555  24.269   7.863  1.00  0.00     0.158 C 
ATOM      8  O   UNL     1      30.718  25.519   7.904  1.00  0.00    -0.295 OA
ENDROOT
BRANCH   5   9
ATOM      9  C   UNL     1      32.361  21.127   6.548  1.00  0.00    -0.077 C 
ATOM     10  C   UNL     1      33.590  21.377   7.028  1.00  0.00     0.008 C 
ATOM     11  C   UNL     1      32.160  19.903   5.689  1.00  0.00     0.039 C 
ENDBRANCH   5   9
TORSDOF 1
ENDMDL
MODEL 6
REMARK VINA RESULT:    -5.488      5.296      6.756
REMARK INTER + INTRA:          -5.908
REMARK INTER:                  -5.819
REMARK INTRA:                  -0.089
REMARK UNBOUND:                -0.099
REMARK SMILES C=C(C)[C@H]1CC=C(C)C(=O)C1
REMARK SMILES IDX 8 1 7 2 6 3 5 4 4 5 11 6 9 7 10 8 2 9 1 10 3 11
REMARK H PARENT
REMARK Flexibility Score: inf
ROOT
ATOM      1  C   UNL     1      25.566  19.993   5.447  1.00  0.00     0.048 C 
ATOM      2  C   UNL     1      25.245  21.368   4.933  1.00  0.00    -0.012 C 
ATOM      3  C   UNL     1      24.272  22.090   5.514  1.00  0.00    -0.019 C 
ATOM      4  C   UNL     1      23.897  23.464   5.027  1.00  0.00     0.036 C 
ATOM      5  C   UNL     1      25.124  24.206   4.464  1.00  0.00     0.025 C 
ATOM      6  C   UNL     1      25.802  23.364   3.368  1.00  0.00     0.089 C 
ATOM      7  C   UNL     1      26.083  21.974   3.867  1.00  0.00     0.158 C 
ATOM      8  O   UNL     1      27.020  21.312   3.345  1.00  0.00    -0.295 OA
ENDROOT
BRANCH   5   9
ATOM      9  C   UNL     1      24.752  25.591   3.952  1.00  0.00    -0.077 C 
ATOM     10  C   UNL     1      24.667  26.624   4.805  1.00  0.00     0.008 C 
ATOM     11  C   UNL     1      24.474  25.840   2.490  1.00  0.00     0.039 C 
ENDBRANCH   5   9
TORSDOF 1
ENDMDL
MODEL 7
REMARK VINA RESULT:    -5.436      1.532      4.426
REMARK INTER + INTRA:          -5.852
REMARK INTER:                  -5.759
REMARK INTRA:                  -0.093
REMARK UNBOUND:                -0.099
REMARK SMILES C=C(C)[C@H]1CC=C(C)C(=O)C1
REMARK SMILES IDX 8 1 7 2 6 3 5 4 4 5 11 6 9 7 10 8 2 9 1 10 3 11
REMARK H PARENT
REMARK Flexibility Score: inf
ROOT
ATOM      1  C   UNL     1      31.325  22.091   9.022  1.00  0.00     0.048 C 
ATOM      2  C   UNL     1      30.469  21.957   7.794  1.00  0.00    -0.012 C 
ATOM      3  C   UNL     1      30.813  21.087   6.829  1.00  0.00    -0.019 C 
ATOM      4  C   UNL     1      30.001  20.927   5.571  1.00  0.00     0.036 C 
ATOM      5  C   UNL     1      28.504  21.165   5.844  1.00  0.00     0.025 C 
ATOM      6  C   UNL     1      28.292  22.540   6.503  1.00  0.00     0.089 C 
ATOM      7  C   UNL     1      29.182  22.693   7.706  1.00  0.00     0.158 C 
ATOM      8  O   UNL     1      28.839  23.483   8.626  1.00  0.00    -0.295 OA
ENDROOT
BRANCH   5   9
ATOM      9  C   UNL     1      27.676  21.023   4.574  1.00  0.00    -0.077 C 
ATOM     10  C   UNL     1      27.702  19.875   3.878  1.00  0.00     0.008 C 
ATOM     11  C   UNL     1      26.813  22.152   4.068  1.00  0.00     0.039 C 
ENDBRANCH   5   9
TORSDOF 1
ENDMDL
MODEL 8
REMARK VINA RESULT:    -5.423      1.897      4.761
REMARK INTER + INTRA:          -5.839
REMARK INTER:                  -5.744
REMARK INTRA:                  -0.094
REMARK UNBOUND:                -0.099
REMARK SMILES C=C(C)[C@H]1CC=C(C)C(=O)C1
REMARK SMILES IDX 8 1 7 2 6 3 5 4 4 5 11 6 9 7 10 8 2 9 1 10 3 11
REMARK H PARENT
REMARK Flexibility Score: inf
ROOT
ATOM      1  C   UNL     1      31.390  22.151   9.023  1.00  0.00     0.048 C 
ATOM      2  C   UNL     1      30.316  21.907   7.999  1.00  0.00    -0.012 C 
ATOM      3  C   UNL     1      29.143  22.555   8.092  1.00  0.00    -0.019 C 
ATOM      4  C   UNL     1      28.027  22.334   7.105  1.00  0.00     0.036 C 
ATOM      5  C   UNL     1      28.583  22.021   5.703  1.00  0.00     0.025 C 
ATOM      6  C   UNL     1      29.550  20.825   5.766  1.00  0.00     0.089 C 
ATOM      7  C   UNL     1      30.598  21.048   6.821  1.00  0.00     0.158 C 
ATOM      8  O   UNL     1      31.712  20.467   6.713  1.00  0.00    -0.295 OA
ENDROOT
BRANCH   5   9
ATOM      9  C   UNL     1      27.462  21.778   4.701  1.00  0.00    -0.077 C 
ATOM     10  C   UNL     1      26.468  22.672   4.573  1.00  0.00     0.008 C 
ATOM     11  C   UNL     1      27.437  20.544   3.833  1.00  0.00     0.039 C 
ENDBRANCH   5   9
TORSDOF 1
ENDMDL
MODEL 9
REMARK VINA RESULT:    -5.077      1.469      2.316
REMARK INTER + INTRA:          -5.473
REMARK INTER:                  -5.374
REMARK INTRA:                  -0.098
REMARK UNBOUND:                -0.099
REMARK SMILES C=C(C)[C@H]1CC=C(C)C(=O)C1
REMARK SMILES IDX 8 1 7 2 6 3 5 4 4 5 11 6 9 7 10 8 2 9 1 10 3 11
REMARK H PARENT
REMARK Flexibility Score: inf
ROOT
ATOM      1  C   UNL     1      26.425  22.973   6.333  1.00  0.00     0.048 C 
ATOM      2  C   UNL     1      27.788  22.361   6.506  1.00  0.00    -0.012 C 
ATOM      3  C   UNL     1      28.231  21.451   5.623  1.00  0.00    -0.019 C 
ATOM      4  C   UNL     1      29.578  20.794   5.760  1.00  0.00     0.036 C 
ATOM      5  C   UNL     1      30.600  21.753   6.399  1.00  0.00     0.025 C 
ATOM      6  C   UNL     1      30.069  22.282   7.744  1.00  0.00     0.089 C 
ATOM      7  C   UNL     1      28.688  22.853   7.580  1.00  0.00     0.158 C 
ATOM      8  O   UNL     1      28.288  23.733   8.389  1.00  0.00    -0.295 OA
ENDROOT
BRANCH   5   9
ATOM      9  C   UNL     1      31.961  21.092   6.559  1.00  0.00    -0.077 C 
ATOM     10  C   UNL     1      32.185  19.875   6.037  1.00  0.00     0.008 C 
ATOM     11  C   UNL     1      33.086  21.776   7.296  1.00  0.00     0.039 C 
ENDBRANCH   5   9
TORSDOF 1
ENDMDL
