MODEL 1
REMARK VINA RESULT:    35.125      0.000      0.000
REMARK INTER + INTRA:          43.037
REMARK INTER:                  43.338
REMARK INTRA:                  -0.301
REMARK UNBOUND:                -0.301
REMARK SMILES Oc1cc(O)c2cc(O)c(-c3cc(O)c(O)c(O)c3)[o+]c2c1
REMARK SMILES IDX 10 1 20 2 21 3 22 4 2 5 3 6 4 7 6 8 7 9 8 10 11 11 12 12
REMARK SMILES IDX 13 13 19 14 15 15 17 16 14 17 16 19 18 21 9 23 1 25 5 27
REMARK H PARENT 14 18 16 20 18 22 9 24 1 26 5 28
REMARK Flexibility Score: inf
ROOT
ATOM      1  C   UNL     1     -22.951  28.133  -7.249  1.00  0.00     0.402 A 
ATOM      2  O   UNL     1     -22.620  29.378  -7.579  1.00  0.00    -0.202 OA
ATOM      3  C   UNL     1     -23.479  30.248  -8.100  1.00  0.00     0.368 A 
ATOM      4  C   UNL     1     -23.036  31.534  -8.418  1.00  0.00     0.162 A 
ATOM      5  C   UNL     1     -23.918  32.468  -8.970  1.00  0.00     0.128 A 
ATOM      6  C   UNL     1     -25.248  32.113  -9.206  1.00  0.00     0.093 A 
ATOM      7  C   UNL     1     -25.716  30.830  -8.897  1.00  0.00     0.136 A 
ATOM      8  C   UNL     1     -24.826  29.879  -8.333  1.00  0.00     0.125 A 
ATOM      9  C   UNL     1     -25.210  28.576  -7.980  1.00  0.00     0.078 A 
ATOM     10  C   UNL     1     -24.277  27.696  -7.425  1.00  0.00     0.223 A 
ENDROOT
BRANCH   1  11
ATOM     11  C   UNL     1     -21.900  27.255  -6.685  1.00  0.00     0.091 A 
ATOM     12  C   UNL     1     -21.896  26.978  -5.311  1.00  0.00     0.068 A 
ATOM     13  C   UNL     1     -20.907  26.169  -4.740  1.00  0.00     0.162 A 
ATOM     14  C   UNL     1     -20.872  26.738  -7.487  1.00  0.00     0.068 A 
ATOM     15  C   UNL     1     -19.885  25.632  -5.560  1.00  0.00     0.200 A 
ATOM     16  C   UNL     1     -19.875  25.929  -6.934  1.00  0.00     0.162 A 
BRANCH  13  17
ATOM     17  O   UNL     1     -20.979  25.929  -3.367  1.00  0.00    -0.504 OA
ATOM     18  H   UNL     1     -21.811  25.620  -2.888  1.00  0.00     0.293 HD
ENDBRANCH  13  17
BRANCH  15  19
ATOM     19  O   UNL     1     -18.875  24.812  -5.049  1.00  0.00    -0.502 OA
ATOM     20  H   UNL     1     -18.522  24.866  -4.104  1.00  0.00     0.293 HD
ENDBRANCH  15  19
BRANCH  16  21
ATOM     21  O   UNL     1     -18.875  25.432  -7.771  1.00  0.00    -0.504 OA
ATOM     22  H   UNL     1     -18.072  24.926  -7.415  1.00  0.00     0.293 HD
ENDBRANCH  16  21
ENDBRANCH   1  11
BRANCH  10  23
ATOM     23  O   UNL     1     -24.670  26.417  -7.028  1.00  0.00    -0.500 OA
ATOM     24  H   UNL     1     -25.647  26.157  -6.963  1.00  0.00     0.294 HD
ENDBRANCH  10  23
BRANCH   5  25
ATOM     25  O   UNL     1     -23.483  33.752  -9.290  1.00  0.00    -0.507 OA
ATOM     26  H   UNL     1     -23.964  34.318  -9.980  1.00  0.00     0.293 HD
ENDBRANCH   5  25
BRANCH   7  27
ATOM     27  O   UNL     1     -27.060  30.553  -9.166  1.00  0.00    -0.507 OA
ATOM     28  H   UNL     1     -27.702  30.142  -8.504  1.00  0.00     0.293 HD
ENDBRANCH   7  27
TORSDOF 7
ENDMDL
MODEL 2
REMARK VINA RESULT:    35.500      0.078      1.806
REMARK INTER + INTRA:          43.501
REMARK INTER:                  43.780
REMARK INTRA:                  -0.279
REMARK UNBOUND:                -0.301
REMARK SMILES Oc1cc(O)c2cc(O)c(-c3cc(O)c(O)c(O)c3)[o+]c2c1
REMARK SMILES IDX 10 1 20 2 21 3 22 4 2 5 3 6 4 7 6 8 7 9 8 10 11 11 12 12
REMARK SMILES IDX 13 13 19 14 15 15 17 16 14 17 16 19 18 21 9 23 1 25 5 27
REMARK H PARENT 14 18 16 20 18 22 9 24 1 26 5 28
REMARK Flexibility Score: inf
ROOT
ATOM      1  C   UNL     1     -22.920  28.159  -7.249  1.00  0.00     0.402 A 
ATOM      2  O   UNL     1     -22.600  29.405  -7.588  1.00  0.00    -0.202 OA
ATOM      3  C   UNL     1     -23.468  30.263  -8.114  1.00  0.00     0.368 A 
ATOM      4  C   UNL     1     -23.036  31.551  -8.442  1.00  0.00     0.162 A 
ATOM      5  C   UNL     1     -23.927  32.472  -9.000  1.00  0.00     0.128 A 
ATOM      6  C   UNL     1     -25.255  32.105  -9.231  1.00  0.00     0.093 A 
ATOM      7  C   UNL     1     -25.711  30.820  -8.913  1.00  0.00     0.136 A 
ATOM      8  C   UNL     1     -24.812  29.881  -8.343  1.00  0.00     0.125 A 
ATOM      9  C   UNL     1     -25.184  28.577  -7.980  1.00  0.00     0.078 A 
ATOM     10  C   UNL     1     -24.242  27.709  -7.420  1.00  0.00     0.223 A 
ENDROOT
BRANCH   1  11
ATOM     11  C   UNL     1     -21.861  27.294  -6.680  1.00  0.00     0.091 A 
ATOM     12  C   UNL     1     -20.857  26.790  -7.518  1.00  0.00     0.068 A 
ATOM     13  C   UNL     1     -19.852  25.954  -7.020  1.00  0.00     0.162 A 
ATOM     14  C   UNL     1     -21.872  26.919  -5.328  1.00  0.00     0.068 A 
ATOM     15  C   UNL     1     -19.855  25.598  -5.649  1.00  0.00     0.200 A 
ATOM     16  C   UNL     1     -20.877  26.083  -4.813  1.00  0.00     0.162 A 
BRANCH  13  17
ATOM     17  O   UNL     1     -18.880  25.503  -7.915  1.00  0.00    -0.504 OA
ATOM     18  H   UNL     1     -18.003  25.973  -8.083  1.00  0.00     0.293 HD
ENDBRANCH  13  17
BRANCH  15  19
ATOM     19  O   UNL     1     -18.875  24.772  -5.092  1.00  0.00    -0.502 OA
ATOM     20  H   UNL     1     -17.968  25.094  -4.788  1.00  0.00     0.293 HD
ENDBRANCH  15  19
BRANCH  16  21
ATOM     21  O   UNL     1     -20.924  25.741  -3.461  1.00  0.00    -0.504 OA
ATOM     22  H   UNL     1     -20.203  25.182  -3.018  1.00  0.00     0.293 HD
ENDBRANCH  16  21
ENDBRANCH   1  11
BRANCH  10  23
ATOM     23  O   UNL     1     -24.624  26.430  -7.014  1.00  0.00    -0.500 OA
ATOM     24  H   UNL     1     -25.548  26.243  -6.642  1.00  0.00     0.294 HD
ENDBRANCH  10  23
BRANCH   5  25
ATOM     25  O   UNL     1     -23.504  33.758  -9.329  1.00  0.00    -0.507 OA
ATOM     26  H   UNL     1     -23.703  34.166 -10.235  1.00  0.00     0.293 HD
ENDBRANCH   5  25
BRANCH   7  27
ATOM     27  O   UNL     1     -27.053  30.530  -9.178  1.00  0.00    -0.507 OA
ATOM     28  H   UNL     1     -27.504  29.656  -8.948  1.00  0.00     0.293 HD
ENDBRANCH   7  27
TORSDOF 7
ENDMDL
MODEL 3
REMARK VINA RESULT:    36.858      1.124      2.528
REMARK INTER + INTRA:          45.175
REMARK INTER:                  45.161
REMARK INTRA:                   0.014
REMARK UNBOUND:                -0.301
REMARK SMILES Oc1cc(O)c2cc(O)c(-c3cc(O)c(O)c(O)c3)[o+]c2c1
REMARK SMILES IDX 10 1 20 2 21 3 22 4 2 5 3 6 4 7 6 8 7 9 8 10 11 11 12 12
REMARK SMILES IDX 13 13 19 14 15 15 17 16 14 17 16 19 18 21 9 23 1 25 5 27
REMARK H PARENT 14 18 16 20 18 22 9 24 1 26 5 28
REMARK Flexibility Score: inf
ROOT
ATOM      1  C   UNL     1     -22.569  28.587  -7.324  1.00  0.00     0.402 A 
ATOM      2  O   UNL     1     -23.881  28.510  -7.112  1.00  0.00    -0.202 OA
ATOM      3  C   UNL     1     -24.749  29.403  -7.577  1.00  0.00     0.368 A 
ATOM      4  C   UNL     1     -26.108  29.238  -7.298  1.00  0.00     0.162 A 
ATOM      5  C   UNL     1     -27.042  30.165  -7.772  1.00  0.00     0.128 A 
ATOM      6  C   UNL     1     -26.614  31.260  -8.525  1.00  0.00     0.093 A 
ATOM      7  C   UNL     1     -25.258  31.448  -8.816  1.00  0.00     0.136 A 
ATOM      8  C   UNL     1     -24.305  30.509  -8.341  1.00  0.00     0.125 A 
ATOM      9  C   UNL     1     -22.928  30.610  -8.595  1.00  0.00     0.078 A 
ATOM     10  C   UNL     1     -22.051  29.643  -8.097  1.00  0.00     0.223 A 
ENDROOT
BRANCH   1  11
ATOM     11  C   UNL     1     -21.703  27.535  -6.746  1.00  0.00     0.091 A 
ATOM     12  C   UNL     1     -21.855  27.178  -5.399  1.00  0.00     0.068 A 
ATOM     13  C   UNL     1     -21.041  26.203  -4.813  1.00  0.00     0.162 A 
ATOM     14  C   UNL     1     -20.691  26.924  -7.502  1.00  0.00     0.068 A 
ATOM     15  C   UNL     1     -20.037  25.573  -5.589  1.00  0.00     0.200 A 
ATOM     16  C   UNL     1     -19.868  25.948  -6.934  1.00  0.00     0.162 A 
BRANCH  13  17
ATOM     17  O   UNL     1     -21.263  25.894  -3.470  1.00  0.00    -0.504 OA
ATOM     18  H   UNL     1     -22.155  25.612  -3.093  1.00  0.00     0.293 HD
ENDBRANCH  13  17
BRANCH  15  19
ATOM     19  O   UNL     1     -19.198  24.587  -5.062  1.00  0.00    -0.502 OA
ATOM     20  H   UNL     1     -19.135  23.645  -5.418  1.00  0.00     0.293 HD
ENDBRANCH  15  19
BRANCH  16  21
ATOM     21  O   UNL     1     -18.879  25.363  -7.725  1.00  0.00    -0.504 OA
ATOM     22  H   UNL     1     -19.097  24.740  -8.494  1.00  0.00     0.293 HD
ENDBRANCH  16  21
ENDBRANCH   1  11
BRANCH  10  23
ATOM     23  O   UNL     1     -20.689  29.716  -8.392  1.00  0.00    -0.500 OA
ATOM     24  H   UNL     1     -20.312  30.436  -8.996  1.00  0.00     0.294 HD
ENDBRANCH  10  23
BRANCH   5  25
ATOM     25  O   UNL     1     -28.399  30.006  -7.499  1.00  0.00    -0.507 OA
ATOM     26  H   UNL     1     -29.111  30.365  -8.125  1.00  0.00     0.293 HD
ENDBRANCH   5  25
BRANCH   7  27
ATOM     27  O   UNL     1     -24.912  32.571  -9.573  1.00  0.00    -0.507 OA
ATOM     28  H   UNL     1     -24.427  33.379  -9.208  1.00  0.00     0.293 HD
ENDBRANCH   7  27
TORSDOF 7
ENDMDL
MODEL 4
REMARK VINA RESULT:    37.449      1.127      3.108
REMARK INTER + INTRA:          45.905
REMARK INTER:                  45.865
REMARK INTRA:                   0.040
REMARK UNBOUND:                -0.301
REMARK SMILES Oc1cc(O)c2cc(O)c(-c3cc(O)c(O)c(O)c3)[o+]c2c1
REMARK SMILES IDX 10 1 20 2 21 3 22 4 2 5 3 6 4 7 6 8 7 9 8 10 11 11 12 12
REMARK SMILES IDX 13 13 19 14 15 15 17 16 14 17 16 19 18 21 9 23 1 25 5 27
REMARK H PARENT 14 18 16 20 18 22 9 24 1 26 5 28
REMARK Flexibility Score: inf
ROOT
ATOM      1  C   UNL     1     -22.547  28.633  -7.331  1.00  0.00     0.402 A 
ATOM      2  O   UNL     1     -23.857  28.546  -7.115  1.00  0.00    -0.202 OA
ATOM      3  C   UNL     1     -24.736  29.422  -7.593  1.00  0.00     0.368 A 
ATOM      4  C   UNL     1     -26.092  29.249  -7.309  1.00  0.00     0.162 A 
ATOM      5  C   UNL     1     -27.036  30.157  -7.796  1.00  0.00     0.128 A 
ATOM      6  C   UNL     1     -26.622  31.243  -8.570  1.00  0.00     0.093 A 
ATOM      7  C   UNL     1     -25.268  31.440  -8.868  1.00  0.00     0.136 A 
ATOM      8  C   UNL     1     -24.305  30.519  -8.378  1.00  0.00     0.125 A 
ATOM      9  C   UNL     1     -22.930  30.629  -8.637  1.00  0.00     0.078 A 
ATOM     10  C   UNL     1     -22.041  29.679  -8.124  1.00  0.00     0.223 A 
ENDROOT
BRANCH   1  11
ATOM     11  C   UNL     1     -21.670  27.600  -6.736  1.00  0.00     0.091 A 
ATOM     12  C   UNL     1     -20.680  26.997  -7.525  1.00  0.00     0.068 A 
ATOM     13  C   UNL     1     -19.845  26.003  -7.002  1.00  0.00     0.162 A 
ATOM     14  C   UNL     1     -21.843  27.167  -5.413  1.00  0.00     0.068 A 
ATOM     15  C   UNL     1     -20.011  25.587  -5.658  1.00  0.00     0.200 A 
ATOM     16  C   UNL     1     -21.020  26.174  -4.874  1.00  0.00     0.162 A 
BRANCH  13  17
ATOM     17  O   UNL     1     -18.875  25.460  -7.846  1.00  0.00    -0.504 OA
ATOM     18  H   UNL     1     -18.874  24.503  -8.168  1.00  0.00     0.293 HD
ENDBRANCH  13  17
BRANCH  15  19
ATOM     19  O   UNL     1     -19.204  24.605  -5.078  1.00  0.00    -0.502 OA
ATOM     20  H   UNL     1     -18.484  24.096  -5.572  1.00  0.00     0.293 HD
ENDBRANCH  15  19
BRANCH  16  21
ATOM     21  O   UNL     1     -21.224  25.780  -3.551  1.00  0.00    -0.504 OA
ATOM     22  H   UNL     1     -20.477  25.770  -2.867  1.00  0.00     0.293 HD
ENDBRANCH  16  21
ENDBRANCH   1  11
BRANCH  10  23
ATOM     23  O   UNL     1     -20.681  29.761  -8.423  1.00  0.00    -0.500 OA
ATOM     24  H   UNL     1     -19.971  29.477  -7.758  1.00  0.00     0.294 HD
ENDBRANCH  10  23
BRANCH   5  25
ATOM     25  O   UNL     1     -28.391  29.990  -7.517  1.00  0.00    -0.507 OA
ATOM     26  H   UNL     1     -28.998  29.462  -8.134  1.00  0.00     0.293 HD
ENDBRANCH   5  25
BRANCH   7  27
ATOM     27  O   UNL     1     -24.935  32.552  -9.645  1.00  0.00    -0.507 OA
ATOM     28  H   UNL     1     -24.916  32.558 -10.655  1.00  0.00     0.293 HD
ENDBRANCH   7  27
TORSDOF 7
ENDMDL
