MODEL 1
REMARK VINA RESULT:    17.452      0.000      0.000
REMARK INTER + INTRA:          20.483
REMARK INTER:                  20.513
REMARK INTRA:                  -0.030
REMARK UNBOUND:                -0.030
REMARK SMILES O=C([O-])C=Cc1ccc(O)c(O)c1
REMARK SMILES IDX 6 1 13 2 7 3 11 4 8 5 9 6 5 7 4 8 2 9 1 10 3 11 12 12 10 14
REMARK H PARENT 12 13 10 15
REMARK Flexibility Score: inf
ROOT
ATOM      1  C   UNL     1     -10.653  12.829 -16.236  1.00  0.00    -0.022 A 
ATOM      2  C   UNL     1     -11.016  11.913 -15.238  1.00  0.00     0.058 A 
ATOM      3  C   UNL     1     -10.602  12.403 -17.573  1.00  0.00     0.012 A 
ATOM      4  C   UNL     1     -11.376  10.600 -15.574  1.00  0.00     0.157 A 
ATOM      5  C   UNL     1     -10.961  11.096 -17.911  1.00  0.00     0.051 A 
ATOM      6  C   UNL     1     -11.352  10.192 -16.919  1.00  0.00     0.157 A 
ENDROOT
BRANCH   1   7
ATOM      7  C   UNL     1     -10.226  14.190 -15.849  1.00  0.00     0.010 C 
ATOM      8  C   UNL     1      -8.955  14.602 -15.738  1.00  0.00     0.025 C 
BRANCH   8   9
ATOM      9  C   UNL     1      -7.766  13.837 -16.162  1.00  0.00     0.064 C 
ATOM     10  O   UNL     1      -6.893  13.535 -15.308  1.00  0.00    -0.545 OA
ATOM     11  O   UNL     1      -7.555  13.504 -17.494  1.00  0.00    -0.545 OA
ENDBRANCH   8   9
ENDBRANCH   1   7
BRANCH   4  12
ATOM     12  O   UNL     1     -11.755   9.701 -14.578  1.00  0.00    -0.504 OA
ATOM     13  H   UNL     1     -12.236  10.008 -13.740  1.00  0.00     0.293 HD
ENDBRANCH   4  12
BRANCH   6  14
ATOM     14  O   UNL     1     -11.709   8.894 -17.285  1.00  0.00    -0.504 OA
ATOM     15  H   UNL     1     -11.862   8.631 -18.251  1.00  0.00     0.293 HD
ENDBRANCH   6  14
TORSDOF 4
ENDMDL
MODEL 2
REMARK VINA RESULT:    18.420      0.822      1.859
REMARK INTER + INTRA:          21.621
REMARK INTER:                  21.759
REMARK INTRA:                  -0.138
REMARK UNBOUND:                -0.030
REMARK SMILES O=C([O-])C=Cc1ccc(O)c(O)c1
REMARK SMILES IDX 6 1 13 2 7 3 11 4 8 5 9 6 5 7 4 8 2 9 1 10 3 11 12 12 10 14
REMARK H PARENT 12 13 10 15
REMARK Flexibility Score: inf
ROOT
ATOM      1  C   UNL     1     -10.769  12.474 -15.988  1.00  0.00    -0.022 A 
ATOM      2  C   UNL     1     -10.908  12.016 -17.306  1.00  0.00     0.058 A 
ATOM      3  C   UNL     1     -11.037  11.595 -14.925  1.00  0.00     0.012 A 
ATOM      4  C   UNL     1     -11.258  10.683 -17.565  1.00  0.00     0.157 A 
ATOM      5  C   UNL     1     -11.385  10.266 -15.179  1.00  0.00     0.051 A 
ATOM      6  C   UNL     1     -11.493   9.803 -16.494  1.00  0.00     0.157 A 
ENDROOT
BRANCH   1   7
ATOM      7  C   UNL     1     -10.453  13.896 -15.744  1.00  0.00     0.010 C 
ATOM      8  C   UNL     1      -9.222  14.430 -15.758  1.00  0.00     0.025 C 
BRANCH   8   9
ATOM      9  C   UNL     1      -7.995  13.742 -16.202  1.00  0.00     0.064 C 
ATOM     10  O   UNL     1      -7.056  13.570 -15.383  1.00  0.00    -0.545 OA
ATOM     11  O   UNL     1      -7.825  13.343 -17.522  1.00  0.00    -0.545 OA
ENDBRANCH   8   9
ENDBRANCH   1   7
BRANCH   4  12
ATOM     12  O   UNL     1     -11.375  10.232 -18.878  1.00  0.00    -0.504 OA
ATOM     13  H   UNL     1     -10.921   9.380 -19.190  1.00  0.00     0.293 HD
ENDBRANCH   4  12
BRANCH   6  14
ATOM     14  O   UNL     1     -11.839   8.471 -16.718  1.00  0.00    -0.504 OA
ATOM     15  H   UNL     1     -11.732   8.033 -17.625  1.00  0.00     0.293 HD
ENDBRANCH   6  14
TORSDOF 4
ENDMDL
MODEL 3
REMARK VINA RESULT:    20.266      1.090      4.991
REMARK INTER + INTRA:          23.790
REMARK INTER:                  23.318
REMARK INTRA:                   0.472
REMARK UNBOUND:                -0.030
REMARK SMILES O=C([O-])C=Cc1ccc(O)c(O)c1
REMARK SMILES IDX 6 1 13 2 7 3 11 4 8 5 9 6 5 7 4 8 2 9 1 10 3 11 12 12 10 14
REMARK H PARENT 12 13 10 15
REMARK Flexibility Score: inf
ROOT
ATOM      1  C   UNL     1     -10.403  12.280 -16.855  1.00  0.00    -0.022 A 
ATOM      2  C   UNL     1      -9.107  12.626 -17.266  1.00  0.00     0.058 A 
ATOM      3  C   UNL     1     -10.978  12.950 -15.764  1.00  0.00     0.012 A 
ATOM      4  C   UNL     1      -8.411  13.665 -16.630  1.00  0.00     0.157 A 
ATOM      5  C   UNL     1     -10.289  13.986 -15.128  1.00  0.00     0.051 A 
ATOM      6  C   UNL     1      -9.009  14.351 -15.558  1.00  0.00     0.157 A 
ENDROOT
BRANCH   1   7
ATOM      7  C   UNL     1     -11.091  11.147 -17.508  1.00  0.00     0.010 C 
ATOM      8  C   UNL     1     -11.375   9.973 -16.925  1.00  0.00     0.025 C 
BRANCH   8   9
ATOM      9  C   UNL     1     -11.226   9.672 -15.488  1.00  0.00     0.064 C 
ATOM     10  O   UNL     1     -10.607   8.633 -15.139  1.00  0.00    -0.545 OA
ATOM     11  O   UNL     1     -11.813  10.470 -14.515  1.00  0.00    -0.545 OA
ENDBRANCH   8   9
ENDBRANCH   1   7
BRANCH   4  12
ATOM     12  O   UNL     1      -7.132  14.015 -17.057  1.00  0.00    -0.504 OA
ATOM     13  H   UNL     1      -6.794  13.769 -17.980  1.00  0.00     0.293 HD
ENDBRANCH   4  12
BRANCH   6  14
ATOM     14  O   UNL     1      -8.345  15.390 -14.908  1.00  0.00    -0.504 OA
ATOM     15  H   UNL     1      -8.057  15.322 -13.939  1.00  0.00     0.293 HD
ENDBRANCH   6  14
TORSDOF 4
ENDMDL
MODEL 4
REMARK VINA RESULT:    20.387      1.350      4.700
REMARK INTER + INTRA:          23.932
REMARK INTER:                  23.837
REMARK INTRA:                   0.095
REMARK UNBOUND:                -0.030
REMARK SMILES O=C([O-])C=Cc1ccc(O)c(O)c1
REMARK SMILES IDX 6 1 13 2 7 3 11 4 8 5 9 6 5 7 4 8 2 9 1 10 3 11 12 12 10 14
REMARK H PARENT 12 13 10 15
REMARK Flexibility Score: inf
ROOT
ATOM      1  C   UNL     1     -10.196  11.942 -17.325  1.00  0.00    -0.022 A 
ATOM      2  C   UNL     1     -10.339  12.839 -16.256  1.00  0.00     0.058 A 
ATOM      3  C   UNL     1      -9.054  12.021 -18.139  1.00  0.00     0.012 A 
ATOM      4  C   UNL     1      -9.331  13.770 -15.967  1.00  0.00     0.157 A 
ATOM      5  C   UNL     1      -8.047  12.947 -17.853  1.00  0.00     0.051 A 
ATOM      6  C   UNL     1      -8.177  13.820 -16.768  1.00  0.00     0.157 A 
ENDROOT
BRANCH   1   7
ATOM      7  C   UNL     1     -11.297  11.009 -17.640  1.00  0.00     0.010 C 
ATOM      8  C   UNL     1     -11.725  10.017 -16.844  1.00  0.00     0.025 C 
BRANCH   8   9
ATOM      9  C   UNL     1     -11.306   9.801 -15.446  1.00  0.00     0.064 C 
ATOM     10  O   UNL     1     -10.561   8.825 -15.171  1.00  0.00    -0.545 OA
ATOM     11  O   UNL     1     -11.774  10.608 -14.416  1.00  0.00    -0.545 OA
ENDBRANCH   8   9
ENDBRANCH   1   7
BRANCH   4  12
ATOM     12  O   UNL     1      -9.472  14.644 -14.891  1.00  0.00    -0.504 OA
ATOM     13  H   UNL     1     -10.361  15.082 -14.675  1.00  0.00     0.293 HD
ENDBRANCH   4  12
BRANCH   6  14
ATOM     14  O   UNL     1      -7.155  14.732 -16.505  1.00  0.00    -0.504 OA
ATOM     15  H   UNL     1      -6.628  15.177 -17.246  1.00  0.00     0.293 HD
ENDBRANCH   6  14
TORSDOF 4
ENDMDL
