MODEL 1
REMARK VINA RESULT:    -4.691      0.000      0.000
REMARK INTER + INTRA:          -6.970
REMARK INTER:                  -7.159
REMARK INTRA:                   0.189
REMARK UNBOUND:                 0.189
REMARK SMILES CC1=CCC[C@H](C)C(=O)C[C@@H](C(C)C)C(=O)C1
REMARK SMILES IDX 8 1 9 2 6 3 7 4 5 5 4 6 3 7 2 8 1 9 10 11 11 12 15 13 16 14
REMARK SMILES IDX 17 15 12 17 13 18 14 19
REMARK H PARENT
REMARK Flexibility Score: 70.00
ROOT
ATOM      1  C   UNL     1     -10.891 -16.682  30.969  1.00  0.00     0.136 C 
ATOM      2  O   UNL     1      -9.963 -17.462  30.826  1.00  0.00    -0.299 OA
ENDROOT
BRANCH   1   3
ATOM      3  C   UNL     1     -11.423 -16.487  32.382  1.00  0.00     0.053 C 
ATOM      4  C   UNL     1     -10.574 -15.591  33.298  1.00  0.00     0.016 C 
BRANCH   3   5
ATOM      5  C   UNL     1     -12.949 -16.207  32.402  1.00  0.00     0.015 C 
BRANCH   5   6
ATOM      6  C   UNL     1     -13.953 -17.367  32.187  1.00  0.00     0.028 C 
BRANCH   6   7
ATOM      7  C   UNL     1     -13.416 -18.758  31.956  1.00  0.00    -0.028 C 
ATOM      8  C   UNL     1     -13.250 -19.365  30.761  1.00  0.00    -0.070 CG0
ATOM      9  C   UNL     1     -12.457 -20.651  30.736  1.00  0.00     0.039 C 
ATOM     10  G   UNL     1     -13.758 -18.778  29.462  1.00  0.00     0.000 G0
ENDBRANCH   6   7
ENDBRANCH   5   6
ENDBRANCH   3   5
ENDBRANCH   1   3
BRANCH   1  11
ATOM     11  C   UNL     1     -11.356 -15.877  29.772  1.00  0.00     0.087 C 
BRANCH  11  12
ATOM     12  C   UNL     1     -12.647 -16.376  29.052  1.00  0.00     0.066 C 
BRANCH  12  13
ATOM     13  C   UNL     1     -12.736 -17.878  28.784  1.00  0.00     0.140 C 
ATOM     14  O   UNL     1     -11.957 -18.364  27.977  1.00  0.00    -0.299 OA
BRANCH  13  15
ATOM     15  C   UNL     1     -13.752 -18.795  29.423  1.00  0.00     0.106 CG0
ATOM     16  G   UNL     1     -13.248 -19.351  30.737  1.00  0.00     0.000 G0
ENDBRANCH  13  15
ENDBRANCH  12  13
BRANCH  12  17
ATOM     17  C   UNL     1     -13.050 -15.503  27.809  1.00  0.00    -0.006 C 
ATOM     18  C   UNL     1     -14.005 -14.367  28.211  1.00  0.00     0.008 C 
ATOM     19  C   UNL     1     -13.677 -16.307  26.650  1.00  0.00     0.008 C 
ENDBRANCH  12  17
ENDBRANCH  11  12
ENDBRANCH   1  11
TORSDOF 1
ENDMDL
MODEL 2
REMARK VINA RESULT:    -4.569      2.129      3.553
REMARK INTER + INTRA:          -6.784
REMARK INTER:                  -6.983
REMARK INTRA:                   0.199
REMARK UNBOUND:                 0.189
REMARK SMILES CC1=CCC[C@H](C)C(=O)C[C@@H](C(C)C)C(=O)C1
REMARK SMILES IDX 8 1 9 2 6 3 7 4 5 5 4 6 3 7 2 8 1 9 10 11 11 12 15 13 16 14
REMARK SMILES IDX 17 15 12 17 13 18 14 19
REMARK H PARENT
REMARK Flexibility Score: 70.00
ROOT
ATOM      1  C   UNL     1     -13.140 -19.574  28.913  1.00  0.00     0.136 C 
ATOM      2  O   UNL     1     -13.385 -20.577  28.261  1.00  0.00    -0.299 OA
ENDROOT
BRANCH   1   3
ATOM      3  C   UNL     1     -12.234 -19.738  30.125  1.00  0.00     0.053 C 
ATOM      4  C   UNL     1     -10.864 -19.046  30.035  1.00  0.00     0.016 C 
BRANCH   3   5
ATOM      5  C   UNL     1     -12.998 -19.534  31.461  1.00  0.00     0.015 C 
BRANCH   5   6
ATOM      6  C   UNL     1     -12.662 -18.325  32.370  1.00  0.00     0.028 C 
BRANCH   6   7
ATOM      7  C   UNL     1     -13.591 -17.136  32.368  1.00  0.00    -0.028 C 
ATOM      8  C   UNL     1     -13.514 -16.060  31.556  1.00  0.00    -0.070 CG0
ATOM      9  C   UNL     1     -14.690 -15.112  31.540  1.00  0.00     0.039 C 
ATOM     10  G   UNL     1     -12.346 -15.814  30.624  1.00  0.00     0.000 G0
ENDBRANCH   6   7
ENDBRANCH   5   6
ENDBRANCH   3   5
ENDBRANCH   1   3
BRANCH   1  11
ATOM     11  C   UNL     1     -13.639 -18.236  28.405  1.00  0.00     0.087 C 
BRANCH  11  12
ATOM     12  C   UNL     1     -12.579 -17.099  28.268  1.00  0.00     0.066 C 
BRANCH  12  13
ATOM     13  C   UNL     1     -12.772 -15.879  29.166  1.00  0.00     0.140 C 
ATOM     14  O   UNL     1     -13.269 -14.876  28.673  1.00  0.00    -0.299 OA
BRANCH  13  15
ATOM     15  C   UNL     1     -12.353 -15.818  30.616  1.00  0.00     0.106 CG0
ATOM     16  G   UNL     1     -13.526 -16.052  31.543  1.00  0.00     0.000 G0
ENDBRANCH  13  15
ENDBRANCH  12  13
BRANCH  12  17
ATOM     17  C   UNL     1     -12.253 -16.722  26.778  1.00  0.00    -0.006 C 
ATOM     18  C   UNL     1     -13.536 -16.610  25.937  1.00  0.00     0.008 C 
ATOM     19  C   UNL     1     -11.275 -17.692  26.081  1.00  0.00     0.008 C 
ENDBRANCH  12  17
ENDBRANCH  11  12
ENDBRANCH   1  11
TORSDOF 1
ENDMDL
MODEL 3
REMARK VINA RESULT:    -4.520      1.602      2.123
REMARK INTER + INTRA:          -6.710
REMARK INTER:                  -6.865
REMARK INTRA:                   0.155
REMARK UNBOUND:                 0.189
REMARK SMILES CC1=CCC[C@H](C)C(=O)C[C@@H](C(C)C)C(=O)C1
REMARK SMILES IDX 8 1 9 2 6 3 7 4 5 5 4 6 3 7 2 8 1 9 10 11 11 12 15 13 16 14
REMARK SMILES IDX 17 15 12 17 13 18 14 19
REMARK H PARENT
REMARK Flexibility Score: 70.00
ROOT
ATOM      1  C   UNL     1     -12.795 -16.418  31.629  1.00  0.00     0.136 C 
ATOM      2  O   UNL     1     -13.773 -16.826  32.235  1.00  0.00    -0.299 OA
ENDROOT
BRANCH   1   3
ATOM      3  C   UNL     1     -11.439 -16.970  32.045  1.00  0.00     0.053 C 
ATOM      4  C   UNL     1     -10.665 -16.134  33.077  1.00  0.00     0.016 C 
BRANCH   3   5
ATOM      5  C   UNL     1     -11.486 -18.496  32.323  1.00  0.00     0.015 C 
BRANCH   5   6
ATOM      6  C   UNL     1     -11.459 -19.500  31.143  1.00  0.00     0.028 C 
BRANCH   6   7
ATOM      7  C   UNL     1     -12.678 -19.616  30.261  1.00  0.00    -0.028 C 
ATOM      8  C   UNL     1     -12.779 -19.215  28.976  1.00  0.00    -0.070 CG0
ATOM      9  C   UNL     1     -13.997 -19.659  28.200  1.00  0.00     0.039 C 
ATOM     10  G   UNL     1     -11.702 -18.413  28.277  1.00  0.00     0.000 G0
ENDBRANCH   6   7
ENDBRANCH   5   6
ENDBRANCH   3   5
ENDBRANCH   1   3
BRANCH   1  11
ATOM     11  C   UNL     1     -13.006 -15.503  30.439  1.00  0.00     0.087 C 
BRANCH  11  12
ATOM     12  C   UNL     1     -12.963 -16.169  29.028  1.00  0.00     0.066 C 
BRANCH  12  13
ATOM     13  C   UNL     1     -11.700 -16.961  28.691  1.00  0.00     0.140 C 
ATOM     14  O   UNL     1     -10.627 -16.377  28.737  1.00  0.00    -0.299 OA
BRANCH  13  15
ATOM     15  C   UNL     1     -11.696 -18.410  28.266  1.00  0.00     0.106 CG0
ATOM     16  G   UNL     1     -12.782 -19.198  28.967  1.00  0.00     0.000 G0
ENDBRANCH  13  15
ENDBRANCH  12  13
BRANCH  12  17
ATOM     17  C   UNL     1     -13.418 -15.212  27.869  1.00  0.00    -0.006 C 
ATOM     18  C   UNL     1     -14.388 -14.135  28.382  1.00  0.00     0.008 C 
ATOM     19  C   UNL     1     -14.058 -15.939  26.666  1.00  0.00     0.008 C 
ENDBRANCH  12  17
ENDBRANCH  11  12
ENDBRANCH   1  11
TORSDOF 1
ENDMDL
MODEL 4
REMARK VINA RESULT:    -4.518      2.114      4.813
REMARK INTER + INTRA:          -6.707
REMARK INTER:                  -7.195
REMARK INTRA:                   0.488
REMARK UNBOUND:                 0.189
REMARK SMILES CC1=CCC[C@H](C)C(=O)C[C@@H](C(C)C)C(=O)C1
REMARK SMILES IDX 8 1 9 2 6 3 7 4 5 5 4 6 3 7 2 8 1 9 10 11 11 12 15 13 16 14
REMARK SMILES IDX 17 15 12 17 13 18 14 19
REMARK H PARENT
REMARK Flexibility Score: 70.00
ROOT
ATOM      1  C   UNL     1     -13.087 -19.717  30.373  1.00  0.00     0.136 C 
ATOM      2  O   UNL     1     -12.724 -20.728  30.955  1.00  0.00    -0.299 OA
ENDROOT
BRANCH   1   3
ATOM      3  C   UNL     1     -13.243 -19.804  28.862  1.00  0.00     0.053 C 
ATOM      4  C   UNL     1     -14.339 -20.756  28.356  1.00  0.00     0.016 C 
BRANCH   3   5
ATOM      5  C   UNL     1     -13.209 -18.407  28.187  1.00  0.00     0.015 C 
BRANCH   5   6
ATOM      6  C   UNL     1     -11.867 -17.826  27.674  1.00  0.00     0.028 C 
BRANCH   6   7
ATOM      7  C   UNL     1     -11.356 -16.540  28.279  1.00  0.00    -0.028 C 
ATOM      8  C   UNL     1     -10.487 -16.427  29.305  1.00  0.00    -0.070 CG0
ATOM      9  C   UNL     1      -9.907 -15.060  29.582  1.00  0.00     0.039 C 
ATOM     10  G   UNL     1     -10.025 -17.611  30.127  1.00  0.00     0.000 G0
ENDBRANCH   6   7
ENDBRANCH   5   6
ENDBRANCH   3   5
ENDBRANCH   1   3
BRANCH   1  11
ATOM     11  C   UNL     1     -13.475 -18.504  31.196  1.00  0.00     0.087 C 
BRANCH  11  12
ATOM     12  C   UNL     1     -12.386 -17.400  31.371  1.00  0.00     0.066 C 
BRANCH  12  13
ATOM     13  C   UNL     1     -10.933 -17.865  31.305  1.00  0.00     0.140 C 
ATOM     14  O   UNL     1     -10.476 -18.460  32.271  1.00  0.00    -0.299 OA
BRANCH  13  15
ATOM     15  C   UNL     1     -10.010 -17.602  30.139  1.00  0.00     0.106 CG0
ATOM     16  G   UNL     1     -10.490 -16.434  29.304  1.00  0.00     0.000 G0
ENDBRANCH  13  15
ENDBRANCH  12  13
BRANCH  12  17
ATOM     17  C   UNL     1     -12.668 -16.427  32.571  1.00  0.00    -0.006 C 
ATOM     18  C   UNL     1     -13.779 -15.421  32.226  1.00  0.00     0.008 C 
ATOM     19  C   UNL     1     -11.425 -15.657  33.065  1.00  0.00     0.008 C 
ENDBRANCH  12  17
ENDBRANCH  11  12
ENDBRANCH   1  11
TORSDOF 1
ENDMDL
MODEL 5
REMARK VINA RESULT:    -4.464      1.641      3.500
REMARK INTER + INTRA:          -6.624
REMARK INTER:                  -6.672
REMARK INTRA:                   0.047
REMARK UNBOUND:                 0.189
REMARK SMILES CC1=CCC[C@H](C)C(=O)C[C@@H](C(C)C)C(=O)C1
REMARK SMILES IDX 8 1 9 2 6 3 7 4 5 5 4 6 3 7 2 8 1 9 10 11 11 12 15 13 16 14
REMARK SMILES IDX 17 15 12 17 13 18 14 19
REMARK H PARENT
REMARK Flexibility Score: 70.00
ROOT
ATOM      1  C   UNL     1     -11.718 -18.811  28.983  1.00  0.00     0.136 C 
ATOM      2  O   UNL     1     -10.791 -19.264  29.637  1.00  0.00    -0.299 OA
ENDROOT
BRANCH   1   3
ATOM      3  C   UNL     1     -13.118 -19.293  29.335  1.00  0.00     0.053 C 
ATOM      4  C   UNL     1     -13.758 -20.272  28.337  1.00  0.00     0.016 C 
BRANCH   3   5
ATOM      5  C   UNL     1     -13.246 -19.685  30.830  1.00  0.00     0.015 C 
BRANCH   5   6
ATOM      6  C   UNL     1     -13.299 -18.584  31.920  1.00  0.00     0.028 C 
BRANCH   6   7
ATOM      7  C   UNL     1     -12.004 -17.966  32.389  1.00  0.00    -0.028 C 
ATOM      8  C   UNL     1     -11.537 -16.741  32.065  1.00  0.00    -0.070 CG0
ATOM      9  C   UNL     1     -10.356 -16.216  32.847  1.00  0.00     0.039 C 
ATOM     10  G   UNL     1     -12.187 -15.862  31.018  1.00  0.00     0.000 G0
ENDBRANCH   6   7
ENDBRANCH   5   6
ENDBRANCH   3   5
ENDBRANCH   1   3
BRANCH   1  11
ATOM     11  C   UNL     1     -11.428 -17.721  27.970  1.00  0.00     0.087 C 
BRANCH  11  12
ATOM     12  C   UNL     1     -11.841 -16.270  28.366  1.00  0.00     0.066 C 
BRANCH  12  13
ATOM     13  C   UNL     1     -11.364 -15.778  29.732  1.00  0.00     0.140 C 
ATOM     14  O   UNL     1     -10.230 -15.328  29.815  1.00  0.00    -0.299 OA
BRANCH  13  15
ATOM     15  C   UNL     1     -12.188 -15.850  30.995  1.00  0.00     0.106 CG0
ATOM     16  G   UNL     1     -11.532 -16.729  32.037  1.00  0.00     0.000 G0
ENDBRANCH  13  15
ENDBRANCH  12  13
BRANCH  12  17
ATOM     17  C   UNL     1     -13.355 -15.951  28.091  1.00  0.00    -0.006 C 
ATOM     18  C   UNL     1     -13.792 -16.469  26.711  1.00  0.00     0.008 C 
ATOM     19  C   UNL     1     -13.715 -14.454  28.208  1.00  0.00     0.008 C 
ENDBRANCH  12  17
ENDBRANCH  11  12
ENDBRANCH   1  11
TORSDOF 1
ENDMDL
MODEL 6
REMARK VINA RESULT:    -4.436      2.001      4.119
REMARK INTER + INTRA:          -6.581
REMARK INTER:                  -7.337
REMARK INTRA:                   0.756
REMARK UNBOUND:                 0.189
REMARK SMILES CC1=CCC[C@H](C)C(=O)C[C@@H](C(C)C)C(=O)C1
REMARK SMILES IDX 8 1 9 2 6 3 7 4 5 5 4 6 3 7 2 8 1 9 10 11 11 12 15 13 16 14
REMARK SMILES IDX 17 15 12 17 13 18 14 19
REMARK H PARENT
REMARK Flexibility Score: 70.00
ROOT
ATOM      1  C   UNL     1     -14.130 -15.130  30.619  1.00  0.00     0.136 C 
ATOM      2  O   UNL     1     -14.867 -14.207  30.927  1.00  0.00    -0.299 OA
ENDROOT
BRANCH   1   3
ATOM      3  C   UNL     1     -13.754 -15.258  29.149  1.00  0.00     0.053 C 
ATOM      4  C   UNL     1     -14.400 -14.234  28.202  1.00  0.00     0.016 C 
BRANCH   3   5
ATOM      5  C   UNL     1     -12.232 -15.484  28.950  1.00  0.00     0.015 C 
BRANCH   5   6
ATOM      6  C   UNL     1     -11.730 -16.664  28.080  1.00  0.00     0.028 C 
BRANCH   6   7
ATOM      7  C   UNL     1     -12.644 -17.846  27.865  1.00  0.00    -0.028 C 
ATOM      8  C   UNL     1     -12.819 -18.887  28.706  1.00  0.00    -0.070 CG0
ATOM      9  C   UNL     1     -13.968 -19.826  28.425  1.00  0.00     0.039 C 
ATOM     10  G   UNL     1     -11.966 -19.103  29.938  1.00  0.00     0.000 G0
ENDBRANCH   6   7
ENDBRANCH   5   6
ENDBRANCH   3   5
ENDBRANCH   1   3
BRANCH   1  11
ATOM     11  C   UNL     1     -13.544 -15.992  31.720  1.00  0.00     0.087 C 
BRANCH  11  12
ATOM     12  C   UNL     1     -12.287 -16.839  31.351  1.00  0.00     0.066 C 
BRANCH  12  13
ATOM     13  C   UNL     1     -12.515 -18.335  31.140  1.00  0.00     0.140 C 
ATOM     14  O   UNL     1     -13.140 -18.946  31.995  1.00  0.00    -0.299 OA
BRANCH  13  15
ATOM     15  C   UNL     1     -11.983 -19.117  29.962  1.00  0.00     0.106 CG0
ATOM     16  G   UNL     1     -12.819 -18.887  28.721  1.00  0.00     0.000 G0
ENDBRANCH  13  15
ENDBRANCH  12  13
BRANCH  12  17
ATOM     17  C   UNL     1     -11.035 -16.527  32.248  1.00  0.00    -0.006 C 
ATOM     18  C   UNL     1     -11.423 -15.683  33.473  1.00  0.00     0.008 C 
ATOM     19  C   UNL     1      -9.880 -15.830  31.498  1.00  0.00     0.008 C 
ENDBRANCH  12  17
ENDBRANCH  11  12
ENDBRANCH   1  11
TORSDOF 1
ENDMDL
MODEL 7
REMARK VINA RESULT:    -4.235      2.037      3.977
REMARK INTER + INTRA:          -6.275
REMARK INTER:                  -7.008
REMARK INTRA:                   0.734
REMARK UNBOUND:                 0.189
REMARK SMILES CC1=CCC[C@H](C)C(=O)C[C@@H](C(C)C)C(=O)C1
REMARK SMILES IDX 8 1 9 2 6 3 7 4 5 5 4 6 3 7 2 8 1 9 10 11 11 12 15 13 16 14
REMARK SMILES IDX 17 15 12 17 13 18 14 19
REMARK H PARENT
REMARK Flexibility Score: 70.00
ROOT
ATOM      1  C   UNL     1     -12.961 -17.207  28.938  1.00  0.00     0.136 C 
ATOM      2  O   UNL     1     -13.580 -18.247  29.101  1.00  0.00    -0.299 OA
ENDROOT
BRANCH   1   3
ATOM      3  C   UNL     1     -11.779 -17.245  27.981  1.00  0.00     0.053 C 
ATOM      4  C   UNL     1     -12.075 -16.818  26.534  1.00  0.00     0.016 C 
BRANCH   3   5
ATOM      5  C   UNL     1     -10.496 -16.636  28.607  1.00  0.00     0.015 C 
BRANCH   5   6
ATOM      6  C   UNL     1      -9.889 -17.257  29.891  1.00  0.00     0.028 C 
BRANCH   6   7
ATOM      7  C   UNL     1     -10.406 -18.594  30.364  1.00  0.00    -0.028 C 
ATOM      8  C   UNL     1     -11.298 -18.804  31.354  1.00  0.00    -0.070 CG0
ATOM      9  C   UNL     1     -11.875 -20.194  31.492  1.00  0.00     0.039 C 
ATOM     10  G   UNL     1     -11.788 -17.701  32.269  1.00  0.00     0.000 G0
ENDBRANCH   6   7
ENDBRANCH   5   6
ENDBRANCH   3   5
ENDBRANCH   1   3
BRANCH   1  11
ATOM     11  C   UNL     1     -13.483 -15.941  29.588  1.00  0.00     0.087 C 
BRANCH  11  12
ATOM     12  C   UNL     1     -13.433 -15.883  31.147  1.00  0.00     0.066 C 
BRANCH  12  13
ATOM     13  C   UNL     1     -13.160 -17.203  31.866  1.00  0.00     0.140 C 
ATOM     14  O   UNL     1     -14.119 -17.895  32.177  1.00  0.00    -0.299 OA
BRANCH  13  15
ATOM     15  C   UNL     1     -11.784 -17.689  32.254  1.00  0.00     0.106 CG0
ATOM     16  G   UNL     1     -11.308 -18.797  31.340  1.00  0.00     0.000 G0
ENDBRANCH  13  15
ENDBRANCH  12  13
BRANCH  12  17
ATOM     17  C   UNL     1     -14.616 -15.067  31.782  1.00  0.00    -0.006 C 
ATOM     18  C   UNL     1     -15.080 -13.937  30.849  1.00  0.00     0.008 C 
ATOM     19  C   UNL     1     -14.301 -14.478  33.174  1.00  0.00     0.008 C 
ENDBRANCH  12  17
ENDBRANCH  11  12
ENDBRANCH   1  11
TORSDOF 1
ENDMDL
MODEL 8
REMARK VINA RESULT:    -4.171      1.881      3.896
REMARK INTER + INTRA:          -6.177
REMARK INTER:                  -6.430
REMARK INTRA:                   0.253
REMARK UNBOUND:                 0.189
REMARK SMILES CC1=CCC[C@H](C)C(=O)C[C@@H](C(C)C)C(=O)C1
REMARK SMILES IDX 8 1 9 2 6 3 7 4 5 5 4 6 3 7 2 8 1 9 10 11 11 12 15 13 16 14
REMARK SMILES IDX 17 15 12 17 13 18 14 19
REMARK H PARENT
REMARK Flexibility Score: 70.00
ROOT
ATOM      1  C   UNL     1     -11.081 -18.709  30.620  1.00  0.00     0.136 C 
ATOM      2  O   UNL     1      -9.971 -18.942  30.168  1.00  0.00    -0.299 OA
ENDROOT
BRANCH   1   3
ATOM      3  C   UNL     1     -12.050 -19.878  30.719  1.00  0.00     0.053 C 
ATOM      4  C   UNL     1     -12.878 -19.953  32.013  1.00  0.00     0.016 C 
BRANCH   3   5
ATOM      5  C   UNL     1     -12.845 -20.096  29.405  1.00  0.00     0.015 C 
BRANCH   5   6
ATOM      6  C   UNL     1     -13.487 -18.887  28.677  1.00  0.00     0.028 C 
BRANCH   6   7
ATOM      7  C   UNL     1     -12.850 -18.387  27.403  1.00  0.00    -0.028 C 
ATOM      8  C   UNL     1     -12.584 -17.100  27.092  1.00  0.00    -0.070 CG0
ATOM      9  C   UNL     1     -11.710 -16.840  25.888  1.00  0.00     0.039 C 
ATOM     10  G   UNL     1     -13.061 -15.934  27.931  1.00  0.00     0.000 G0
ENDBRANCH   6   7
ENDBRANCH   5   6
ENDBRANCH   3   5
ENDBRANCH   1   3
BRANCH   1  11
ATOM     11  C   UNL     1     -11.369 -17.323  31.163  1.00  0.00     0.087 C 
BRANCH  11  12
ATOM     12  C   UNL     1     -12.551 -16.546  30.504  1.00  0.00     0.066 C 
BRANCH  12  13
ATOM     13  C   UNL     1     -12.236 -15.805  29.206  1.00  0.00     0.140 C 
ATOM     14  O   UNL     1     -11.277 -15.046  29.197  1.00  0.00    -0.299 OA
BRANCH  13  15
ATOM     15  C   UNL     1     -13.056 -15.920  27.943  1.00  0.00     0.106 CG0
ATOM     16  G   UNL     1     -12.595 -17.079  27.085  1.00  0.00     0.000 G0
ENDBRANCH  13  15
ENDBRANCH  12  13
BRANCH  12  17
ATOM     17  C   UNL     1     -13.377 -15.681  31.523  1.00  0.00    -0.006 C 
ATOM     18  C   UNL     1     -14.083 -16.566  32.564  1.00  0.00     0.008 C 
ATOM     19  C   UNL     1     -14.416 -14.749  30.862  1.00  0.00     0.008 C 
ENDBRANCH  12  17
ENDBRANCH  11  12
ENDBRANCH   1  11
TORSDOF 1
ENDMDL
MODEL 9
REMARK VINA RESULT:    -3.971      1.573      3.374
REMARK INTER + INTRA:          -5.872
REMARK INTER:                  -6.366
REMARK INTRA:                   0.494
REMARK UNBOUND:                 0.189
REMARK SMILES CC1=CCC[C@H](C)C(=O)C[C@@H](C(C)C)C(=O)C1
REMARK SMILES IDX 8 1 9 2 6 3 7 4 5 5 4 6 3 7 2 8 1 9 10 11 11 12 15 13 16 14
REMARK SMILES IDX 17 15 12 17 13 18 14 19
REMARK H PARENT
REMARK Flexibility Score: 70.00
ROOT
ATOM      1  C   UNL     1     -10.394 -16.931  30.958  1.00  0.00     0.136 C 
ATOM      2  O   UNL     1     -10.125 -15.829  30.505  1.00  0.00    -0.299 OA
ENDROOT
BRANCH   1   3
ATOM      3  C   UNL     1     -10.984 -16.980  32.360  1.00  0.00     0.053 C 
ATOM      4  C   UNL     1     -10.043 -16.547  33.497  1.00  0.00     0.016 C 
BRANCH   3   5
ATOM      5  C   UNL     1     -12.416 -16.386  32.416  1.00  0.00     0.015 C 
BRANCH   5   6
ATOM      6  C   UNL     1     -13.383 -16.576  31.220  1.00  0.00     0.028 C 
BRANCH   6   7
ATOM      7  C   UNL     1     -13.533 -15.452  30.224  1.00  0.00    -0.028 C 
ATOM      8  C   UNL     1     -13.621 -15.577  28.882  1.00  0.00    -0.070 CG0
ATOM      9  C   UNL     1     -14.029 -14.355  28.093  1.00  0.00     0.039 C 
ATOM     10  G   UNL     1     -13.401 -16.889  28.161  1.00  0.00     0.000 G0
ENDBRANCH   6   7
ENDBRANCH   5   6
ENDBRANCH   3   5
ENDBRANCH   1   3
BRANCH   1  11
ATOM     11  C   UNL     1     -10.246 -18.143  30.060  1.00  0.00     0.087 C 
BRANCH  11  12
ATOM     12  C   UNL     1     -11.450 -18.471  29.123  1.00  0.00     0.066 C 
BRANCH  12  13
ATOM     13  C   UNL     1     -11.949 -17.331  28.236  1.00  0.00     0.140 C 
ATOM     14  O   UNL     1     -11.125 -16.716  27.574  1.00  0.00    -0.299 OA
BRANCH  13  15
ATOM     15  C   UNL     1     -13.390 -16.889  28.154  1.00  0.00     0.106 CG0
ATOM     16  G   UNL     1     -13.610 -15.576  28.876  1.00  0.00     0.000 G0
ENDBRANCH  13  15
ENDBRANCH  12  13
BRANCH  12  17
ATOM     17  C   UNL     1     -12.612 -19.246  29.843  1.00  0.00    -0.006 C 
ATOM     18  C   UNL     1     -12.083 -20.069  31.029  1.00  0.00     0.008 C 
ATOM     19  C   UNL     1     -13.428 -20.166  28.911  1.00  0.00     0.008 C 
ENDBRANCH  12  17
ENDBRANCH  11  12
ENDBRANCH   1  11
TORSDOF 1
ENDMDL
