MODEL 1
REMARK VINA RESULT:    -4.997      0.000      0.000
REMARK INTER + INTRA:         -10.017
REMARK INTER:                  -7.626
REMARK INTRA:                  -2.391
REMARK UNBOUND:                -2.391
REMARK SMILES CC(=O)CCC=C(C)CCC=C(C)CCC=C(C)C
REMARK SMILES IDX 10 1 11 2 12 3 13 4 14 5 15 6 16 7 18 8 17 9 19 10 9 11 7 12
REMARK SMILES IDX 6 13 8 14 5 15 4 16 2 17 3 18 1 19
REMARK H PARENT
REMARK Flexibility Score: inf
ROOT
ATOM      1  C   UNL     1      13.361  19.751  58.866  1.00  0.00     0.032 C 
ENDROOT
BRANCH   1   2
ATOM      2  C   UNL     1      14.272  20.548  59.766  1.00  0.00    -0.028 C 
ATOM      3  C   UNL     1      14.034  21.820  60.157  1.00  0.00    -0.077 C 
ATOM      4  C   UNL     1      12.765  22.547  59.776  1.00  0.00     0.039 C 
BRANCH   3   5
ATOM      5  C   UNL     1      15.068  22.539  60.998  1.00  0.00     0.034 C 
BRANCH   5   6
ATOM      6  C   UNL     1      16.420  22.637  60.275  1.00  0.00     0.032 C 
BRANCH   6   7
ATOM      7  C   UNL     1      16.259  23.114  58.850  1.00  0.00    -0.028 C 
ATOM      8  C   UNL     1      16.504  23.074  56.406  1.00  0.00     0.039 C 
ATOM      9  C   UNL     1      16.692  22.442  57.761  1.00  0.00    -0.080 C 
ATOM     10  C   UNL     1      17.342  21.082  57.864  1.00  0.00     0.039 C 
ENDBRANCH   6   7
ENDBRANCH   5   6
ENDBRANCH   3   5
ENDBRANCH   1   2
BRANCH   1  11
ATOM     11  C   UNL     1      14.139  19.202  57.665  1.00  0.00     0.034 C 
BRANCH  11  12
ATOM     12  C   UNL     1      13.913  20.059  56.439  1.00  0.00    -0.077 C 
ATOM     13  C   UNL     1      13.264  21.237  56.566  1.00  0.00    -0.028 C 
ATOM     14  C   UNL     1      14.407  19.577  55.096  1.00  0.00     0.039 C 
BRANCH  13  15
ATOM     15  C   UNL     1      12.993  22.163  55.403  1.00  0.00     0.035 C 
BRANCH  15  16
ATOM     16  C   UNL     1      11.805  23.095  55.672  1.00  0.00     0.079 C 
BRANCH  16  17
ATOM     17  C   UNL     1      10.516  22.327  55.818  1.00  0.00     0.130 C 
ATOM     18  O   UNL     1      10.049  21.743  54.852  1.00  0.00    -0.300 OA
ATOM     19  C   UNL     1       9.792  22.257  57.131  1.00  0.00     0.087 C 
ENDBRANCH  16  17
ENDBRANCH  15  16
ENDBRANCH  13  15
ENDBRANCH  11  12
ENDBRANCH   1  11
TORSDOF 9
ENDMDL
MODEL 2
REMARK VINA RESULT:    -4.970     10.988     12.591
REMARK INTER + INTRA:          -9.976
REMARK INTER:                  -8.620
REMARK INTRA:                  -1.357
REMARK UNBOUND:                -2.391
REMARK SMILES CC(=O)CCC=C(C)CCC=C(C)CCC=C(C)C
REMARK SMILES IDX 10 1 11 2 12 3 13 4 14 5 15 6 16 7 18 8 17 9 19 10 9 11 7 12
REMARK SMILES IDX 6 13 8 14 5 15 4 16 2 17 3 18 1 19
REMARK H PARENT
REMARK Flexibility Score: inf
ROOT
ATOM      1  C   UNL     1       7.971  33.340  54.679  1.00  0.00     0.032 C 
ENDROOT
BRANCH   1   2
ATOM      2  C   UNL     1       8.906  33.496  53.505  1.00  0.00    -0.028 C 
ATOM      3  C   UNL     1      10.036  34.239  53.524  1.00  0.00    -0.077 C 
ATOM      4  C   UNL     1      10.510  34.937  54.778  1.00  0.00     0.039 C 
BRANCH   3   5
ATOM      5  C   UNL     1      10.847  34.379  52.254  1.00  0.00     0.034 C 
BRANCH   5   6
ATOM      6  C   UNL     1      10.441  33.336  51.202  1.00  0.00     0.032 C 
BRANCH   6   7
ATOM      7  C   UNL     1      11.604  32.452  50.812  1.00  0.00    -0.028 C 
ATOM      8  C   UNL     1      13.080  30.490  50.882  1.00  0.00     0.039 C 
ATOM      9  C   UNL     1      11.849  31.231  51.335  1.00  0.00    -0.080 C 
ATOM     10  C   UNL     1      10.924  30.590  52.344  1.00  0.00     0.039 C 
ENDBRANCH   6   7
ENDBRANCH   5   6
ENDBRANCH   3   5
ENDBRANCH   1   2
BRANCH   1  11
ATOM     11  C   UNL     1       7.919  31.877  55.133  1.00  0.00     0.034 C 
BRANCH  11  12
ATOM     12  C   UNL     1       6.881  31.106  54.348  1.00  0.00    -0.077 C 
ATOM     13  C   UNL     1       7.277  30.109  53.527  1.00  0.00    -0.028 C 
ATOM     14  C   UNL     1       5.422  31.473  54.488  1.00  0.00     0.039 C 
BRANCH  13  15
ATOM     15  C   UNL     1       6.316  29.282  52.705  1.00  0.00     0.035 C 
BRANCH  15  16
ATOM     16  C   UNL     1       5.867  28.016  53.444  1.00  0.00     0.079 C 
BRANCH  16  17
ATOM     17  C   UNL     1       4.877  27.218  52.632  1.00  0.00     0.130 C 
ATOM     18  O   UNL     1       3.764  26.999  53.085  1.00  0.00    -0.300 OA
ATOM     19  C   UNL     1       5.228  26.689  51.273  1.00  0.00     0.087 C 
ENDBRANCH  16  17
ENDBRANCH  15  16
ENDBRANCH  13  15
ENDBRANCH  11  12
ENDBRANCH   1  11
TORSDOF 9
ENDMDL
MODEL 3
REMARK VINA RESULT:    -4.883     11.490     13.850
REMARK INTER + INTRA:          -9.844
REMARK INTER:                  -7.199
REMARK INTRA:                  -2.645
REMARK UNBOUND:                -2.391
REMARK SMILES CC(=O)CCC=C(C)CCC=C(C)CCC=C(C)C
REMARK SMILES IDX 10 1 11 2 12 3 13 4 14 5 15 6 16 7 18 8 17 9 19 10 9 11 7 12
REMARK SMILES IDX 6 13 8 14 5 15 4 16 2 17 3 18 1 19
REMARK H PARENT
REMARK Flexibility Score: inf
ROOT
ATOM      1  C   UNL     1       2.962  28.223  54.307  1.00  0.00     0.032 C 
ENDROOT
BRANCH   1   2
ATOM      2  C   UNL     1       3.469  27.570  53.045  1.00  0.00    -0.028 C 
ATOM      3  C   UNL     1       4.777  27.431  52.732  1.00  0.00    -0.077 C 
ATOM      4  C   UNL     1       5.874  27.865  53.677  1.00  0.00     0.039 C 
BRANCH   3   5
ATOM      5  C   UNL     1       5.155  26.828  51.396  1.00  0.00     0.034 C 
BRANCH   5   6
ATOM      6  C   UNL     1       6.243  27.649  50.688  1.00  0.00     0.032 C 
BRANCH   6   7
ATOM      7  C   UNL     1       5.755  29.035  50.332  1.00  0.00    -0.028 C 
ATOM      8  C   UNL     1       5.756  31.490  50.269  1.00  0.00     0.039 C 
ATOM      9  C   UNL     1       6.396  30.180  50.650  1.00  0.00    -0.080 C 
ATOM     10  C   UNL     1       7.730  30.182  51.360  1.00  0.00     0.039 C 
ENDBRANCH   6   7
ENDBRANCH   5   6
ENDBRANCH   3   5
ENDBRANCH   1   2
BRANCH   1  11
ATOM     11  C   UNL     1       2.155  29.482  53.971  1.00  0.00     0.034 C 
BRANCH  11  12
ATOM     12  C   UNL     1       3.064  30.594  53.496  1.00  0.00    -0.077 C 
ATOM     13  C   UNL     1       4.130  30.945  54.248  1.00  0.00    -0.028 C 
ATOM     14  C   UNL     1       2.757  31.298  52.194  1.00  0.00     0.039 C 
BRANCH  13  15
ATOM     15  C   UNL     1       5.095  32.040  53.856  1.00  0.00     0.035 C 
BRANCH  15  16
ATOM     16  C   UNL     1       6.478  31.841  54.488  1.00  0.00     0.079 C 
BRANCH  16  17
ATOM     17  C   UNL     1       7.474  32.852  53.977  1.00  0.00     0.130 C 
ATOM     18  O   UNL     1       8.603  32.876  54.445  1.00  0.00    -0.300 OA
ATOM     19  C   UNL     1       7.112  33.830  52.898  1.00  0.00     0.087 C 
ENDBRANCH  16  17
ENDBRANCH  15  16
ENDBRANCH  13  15
ENDBRANCH  11  12
ENDBRANCH   1  11
TORSDOF 9
ENDMDL
MODEL 4
REMARK VINA RESULT:    -4.752      1.479      3.997
REMARK INTER + INTRA:          -9.643
REMARK INTER:                  -7.163
REMARK INTRA:                  -2.480
REMARK UNBOUND:                -2.391
REMARK SMILES CC(=O)CCC=C(C)CCC=C(C)CCC=C(C)C
REMARK SMILES IDX 10 1 11 2 12 3 13 4 14 5 15 6 16 7 18 8 17 9 19 10 9 11 7 12
REMARK SMILES IDX 6 13 8 14 5 15 4 16 2 17 3 18 1 19
REMARK H PARENT
REMARK Flexibility Score: inf
ROOT
ATOM      1  C   UNL     1      16.095  22.291  55.720  1.00  0.00     0.032 C 
ENDROOT
BRANCH   1   2
ATOM      2  C   UNL     1      15.839  21.101  56.610  1.00  0.00    -0.028 C 
ATOM      3  C   UNL     1      14.865  20.186  56.397  1.00  0.00    -0.077 C 
ATOM      4  C   UNL     1      13.973  20.241  55.178  1.00  0.00     0.039 C 
BRANCH   3   5
ATOM      5  C   UNL     1      14.659  19.080  57.409  1.00  0.00     0.034 C 
BRANCH   5   6
ATOM      6  C   UNL     1      14.411  19.637  58.819  1.00  0.00     0.032 C 
BRANCH   6   7
ATOM      7  C   UNL     1      13.161  20.485  58.873  1.00  0.00    -0.028 C 
ATOM      8  C   UNL     1      11.767  22.433  59.417  1.00  0.00     0.039 C 
ATOM      9  C   UNL     1      13.102  21.732  59.387  1.00  0.00    -0.080 C 
ATOM     10  C   UNL     1      14.326  22.442  59.916  1.00  0.00     0.039 C 
ENDBRANCH   6   7
ENDBRANCH   5   6
ENDBRANCH   3   5
ENDBRANCH   1   2
BRANCH   1  11
ATOM     11  C   UNL     1      15.605  23.579  56.394  1.00  0.00     0.034 C 
BRANCH  11  12
ATOM     12  C   UNL     1      14.279  24.019  55.813  1.00  0.00    -0.077 C 
ATOM     13  C   UNL     1      13.142  23.422  56.233  1.00  0.00    -0.028 C 
ATOM     14  C   UNL     1      14.253  25.111  54.769  1.00  0.00     0.039 C 
BRANCH  13  15
ATOM     15  C   UNL     1      11.772  23.794  55.714  1.00  0.00     0.035 C 
BRANCH  15  16
ATOM     16  C   UNL     1      10.815  22.596  55.704  1.00  0.00     0.079 C 
BRANCH  16  17
ATOM     17  C   UNL     1      10.506  22.141  54.300  1.00  0.00     0.130 C 
ATOM     18  O   UNL     1       9.724  21.220  54.123  1.00  0.00    -0.300 OA
ATOM     19  C   UNL     1      11.137  22.801  53.108  1.00  0.00     0.087 C 
ENDBRANCH  16  17
ENDBRANCH  15  16
ENDBRANCH  13  15
ENDBRANCH  11  12
ENDBRANCH   1  11
TORSDOF 9
ENDMDL
MODEL 5
REMARK VINA RESULT:    -4.696      2.114      4.601
REMARK INTER + INTRA:          -9.557
REMARK INTER:                  -7.251
REMARK INTRA:                  -2.306
REMARK UNBOUND:                -2.391
REMARK SMILES CC(=O)CCC=C(C)CCC=C(C)CCC=C(C)C
REMARK SMILES IDX 10 1 11 2 12 3 13 4 14 5 15 6 16 7 18 8 17 9 19 10 9 11 7 12
REMARK SMILES IDX 6 13 8 14 5 15 4 16 2 17 3 18 1 19
REMARK H PARENT
REMARK Flexibility Score: inf
ROOT
ATOM      1  C   UNL     1      16.020  23.204  55.941  1.00  0.00     0.032 C 
ENDROOT
BRANCH   1   2
ATOM      2  C   UNL     1      16.309  23.522  57.386  1.00  0.00    -0.028 C 
ATOM      3  C   UNL     1      16.832  22.642  58.270  1.00  0.00    -0.077 C 
ATOM      4  C   UNL     1      17.249  21.250  57.857  1.00  0.00     0.039 C 
BRANCH   3   5
ATOM      5  C   UNL     1      17.000  23.061  59.715  1.00  0.00     0.034 C 
BRANCH   5   6
ATOM      6  C   UNL     1      16.057  22.285  60.646  1.00  0.00     0.032 C 
BRANCH   6   7
ATOM      7  C   UNL     1      14.629  22.764  60.522  1.00  0.00    -0.028 C 
ATOM      8  C   UNL     1      12.273  22.705  59.832  1.00  0.00     0.039 C 
ATOM      9  C   UNL     1      13.637  22.071  59.922  1.00  0.00    -0.080 C 
ATOM     10  C   UNL     1      13.853  20.687  59.356  1.00  0.00     0.039 C 
ENDBRANCH   6   7
ENDBRANCH   5   6
ENDBRANCH   3   5
ENDBRANCH   1   2
BRANCH   1  11
ATOM     11  C   UNL     1      14.521  23.348  55.650  1.00  0.00     0.034 C 
BRANCH  11  12
ATOM     12  C   UNL     1      13.822  22.011  55.748  1.00  0.00    -0.077 C 
ATOM     13  C   UNL     1      14.494  20.887  55.418  1.00  0.00    -0.028 C 
ATOM     14  C   UNL     1      12.382  21.958  56.203  1.00  0.00     0.039 C 
BRANCH  13  15
ATOM     15  C   UNL     1      13.883  19.506  55.485  1.00  0.00     0.035 C 
BRANCH  15  16
ATOM     16  C   UNL     1      14.410  18.587  54.376  1.00  0.00     0.079 C 
BRANCH  16  17
ATOM     17  C   UNL     1      15.739  17.977  54.744  1.00  0.00     0.130 C 
ATOM     18  O   UNL     1      16.768  18.454  54.290  1.00  0.00    -0.300 OA
ATOM     19  C   UNL     1      15.828  16.795  55.664  1.00  0.00     0.087 C 
ENDBRANCH  16  17
ENDBRANCH  15  16
ENDBRANCH  13  15
ENDBRANCH  11  12
ENDBRANCH   1  11
TORSDOF 9
ENDMDL
MODEL 6
REMARK VINA RESULT:    -4.686      3.139      5.328
REMARK INTER + INTRA:          -9.543
REMARK INTER:                  -8.162
REMARK INTRA:                  -1.381
REMARK UNBOUND:                -2.391
REMARK SMILES CC(=O)CCC=C(C)CCC=C(C)CCC=C(C)C
REMARK SMILES IDX 10 1 11 2 12 3 13 4 14 5 15 6 16 7 18 8 17 9 19 10 9 11 7 12
REMARK SMILES IDX 6 13 8 14 5 15 4 16 2 17 3 18 1 19
REMARK H PARENT
REMARK Flexibility Score: inf
ROOT
ATOM      1  C   UNL     1      16.881  22.777  57.483  1.00  0.00     0.032 C 
ENDROOT
BRANCH   1   2
ATOM      2  C   UNL     1      15.929  22.814  58.652  1.00  0.00    -0.028 C 
ATOM      3  C   UNL     1      16.311  22.743  59.947  1.00  0.00    -0.077 C 
ATOM      4  C   UNL     1      17.767  22.692  60.348  1.00  0.00     0.039 C 
BRANCH   3   5
ATOM      5  C   UNL     1      15.250  22.709  61.027  1.00  0.00     0.034 C 
BRANCH   5   6
ATOM      6  C   UNL     1      14.247  21.568  60.804  1.00  0.00     0.032 C 
BRANCH   6   7
ATOM      7  C   UNL     1      13.024  22.036  60.051  1.00  0.00    -0.028 C 
ATOM      8  C   UNL     1      11.363  22.098  58.242  1.00  0.00     0.039 C 
ATOM      9  C   UNL     1      12.570  21.485  58.904  1.00  0.00    -0.080 C 
ATOM     10  C   UNL     1      13.226  20.274  58.281  1.00  0.00     0.039 C 
ENDBRANCH   6   7
ENDBRANCH   5   6
ENDBRANCH   3   5
ENDBRANCH   1   2
BRANCH   1  11
ATOM     11  C   UNL     1      16.109  22.635  56.166  1.00  0.00     0.034 C 
BRANCH  11  12
ATOM     12  C   UNL     1      15.267  23.863  55.900  1.00  0.00    -0.077 C 
ATOM     13  C   UNL     1      15.875  25.053  55.705  1.00  0.00    -0.028 C 
ATOM     14  C   UNL     1      13.762  23.737  55.868  1.00  0.00     0.039 C 
BRANCH  13  15
ATOM     15  C   UNL     1      15.120  26.334  55.431  1.00  0.00     0.035 C 
BRANCH  15  16
ATOM     16  C   UNL     1      16.059  27.539  55.299  1.00  0.00     0.079 C 
BRANCH  16  17
ATOM     17  C   UNL     1      16.670  27.621  53.922  1.00  0.00     0.130 C 
ATOM     18  O   UNL     1      15.962  27.890  52.964  1.00  0.00    -0.300 OA
ATOM     19  C   UNL     1      18.136  27.386  53.703  1.00  0.00     0.087 C 
ENDBRANCH  16  17
ENDBRANCH  15  16
ENDBRANCH  13  15
ENDBRANCH  11  12
ENDBRANCH   1  11
TORSDOF 9
ENDMDL
MODEL 7
REMARK VINA RESULT:    -4.674      1.904      3.990
REMARK INTER + INTRA:          -9.525
REMARK INTER:                  -7.819
REMARK INTRA:                  -1.705
REMARK UNBOUND:                -2.391
REMARK SMILES CC(=O)CCC=C(C)CCC=C(C)CCC=C(C)C
REMARK SMILES IDX 10 1 11 2 12 3 13 4 14 5 15 6 16 7 18 8 17 9 19 10 9 11 7 12
REMARK SMILES IDX 6 13 8 14 5 15 4 16 2 17 3 18 1 19
REMARK H PARENT
REMARK Flexibility Score: inf
ROOT
ATOM      1  C   UNL     1      16.870  22.746  57.505  1.00  0.00     0.032 C 
ENDROOT
BRANCH   1   2
ATOM      2  C   UNL     1      15.925  22.801  58.679  1.00  0.00    -0.028 C 
ATOM      3  C   UNL     1      16.315  22.754  59.974  1.00  0.00    -0.077 C 
ATOM      4  C   UNL     1      17.775  22.715  60.366  1.00  0.00     0.039 C 
BRANCH   3   5
ATOM      5  C   UNL     1      15.262  22.737  61.061  1.00  0.00     0.034 C 
BRANCH   5   6
ATOM      6  C   UNL     1      14.273  21.576  60.877  1.00  0.00     0.032 C 
BRANCH   6   7
ATOM      7  C   UNL     1      13.032  22.011  60.133  1.00  0.00    -0.028 C 
ATOM      8  C   UNL     1      11.355  22.026  58.338  1.00  0.00     0.039 C 
ATOM      9  C   UNL     1      12.583  21.445  58.991  1.00  0.00    -0.080 C 
ATOM     10  C   UNL     1      13.265  20.252  58.365  1.00  0.00     0.039 C 
ENDBRANCH   6   7
ENDBRANCH   5   6
ENDBRANCH   3   5
ENDBRANCH   1   2
BRANCH   1  11
ATOM     11  C   UNL     1      16.089  22.583  56.196  1.00  0.00     0.034 C 
BRANCH  11  12
ATOM     12  C   UNL     1      15.130  23.736  55.994  1.00  0.00    -0.077 C 
ATOM     13  C   UNL     1      13.800  23.513  56.076  1.00  0.00    -0.028 C 
ATOM     14  C   UNL     1      15.677  25.112  55.696  1.00  0.00     0.039 C 
BRANCH  13  15
ATOM     15  C   UNL     1      12.766  24.599  55.892  1.00  0.00     0.035 C 
BRANCH  15  16
ATOM     16  C   UNL     1      11.795  24.283  54.748  1.00  0.00     0.079 C 
BRANCH  16  17
ATOM     17  C   UNL     1      12.161  25.024  53.486  1.00  0.00     0.130 C 
ATOM     18  O   UNL     1      11.947  24.507  52.400  1.00  0.00    -0.300 OA
ATOM     19  C   UNL     1      12.780  26.390  53.534  1.00  0.00     0.087 C 
ENDBRANCH  16  17
ENDBRANCH  15  16
ENDBRANCH  13  15
ENDBRANCH  11  12
ENDBRANCH   1  11
TORSDOF 9
ENDMDL
MODEL 8
REMARK VINA RESULT:    -4.667     11.456     13.880
REMARK INTER + INTRA:          -9.514
REMARK INTER:                  -7.705
REMARK INTRA:                  -1.809
REMARK UNBOUND:                -2.391
REMARK SMILES CC(=O)CCC=C(C)CCC=C(C)CCC=C(C)C
REMARK SMILES IDX 10 1 11 2 12 3 13 4 14 5 15 6 16 7 18 8 17 9 19 10 9 11 7 12
REMARK SMILES IDX 6 13 8 14 5 15 4 16 2 17 3 18 1 19
REMARK H PARENT
REMARK Flexibility Score: inf
ROOT
ATOM      1  C   UNL     1       7.118  28.585  53.006  1.00  0.00     0.032 C 
ENDROOT
BRANCH   1   2
ATOM      2  C   UNL     1       5.732  28.346  53.549  1.00  0.00    -0.028 C 
ATOM      3  C   UNL     1       4.725  27.782  52.844  1.00  0.00    -0.077 C 
ATOM      4  C   UNL     1       4.928  27.262  51.439  1.00  0.00     0.039 C 
BRANCH   3   5
ATOM      5  C   UNL     1       3.354  27.670  53.477  1.00  0.00     0.034 C 
BRANCH   5   6
ATOM      6  C   UNL     1       2.794  29.046  53.868  1.00  0.00     0.032 C 
BRANCH   6   7
ATOM      7  C   UNL     1       3.037  30.076  52.790  1.00  0.00    -0.028 C 
ATOM      8  C   UNL     1       3.802  32.196  51.813  1.00  0.00     0.039 C 
ATOM      9  C   UNL     1       3.684  31.247  52.977  1.00  0.00    -0.080 C 
ATOM     10  C   UNL     1       4.297  31.621  54.307  1.00  0.00     0.039 C 
ENDBRANCH   6   7
ENDBRANCH   5   6
ENDBRANCH   3   5
ENDBRANCH   1   2
BRANCH   1  11
ATOM     11  C   UNL     1       7.203  29.963  52.340  1.00  0.00     0.034 C 
BRANCH  11  12
ATOM     12  C   UNL     1       8.070  30.901  53.151  1.00  0.00    -0.077 C 
ATOM     13  C   UNL     1       9.111  31.522  52.555  1.00  0.00    -0.028 C 
ATOM     14  C   UNL     1       7.761  31.117  54.614  1.00  0.00     0.039 C 
BRANCH  13  15
ATOM     15  C   UNL     1      10.031  32.476  53.280  1.00  0.00     0.035 C 
BRANCH  15  16
ATOM     16  C   UNL     1       9.784  33.935  52.875  1.00  0.00     0.079 C 
BRANCH  16  17
ATOM     17  C   UNL     1       8.608  34.526  53.611  1.00  0.00     0.130 C 
ATOM     18  O   UNL     1       8.726  34.835  54.786  1.00  0.00    -0.300 OA
ATOM     19  C   UNL     1       7.291  34.749  52.927  1.00  0.00     0.087 C 
ENDBRANCH  16  17
ENDBRANCH  15  16
ENDBRANCH  13  15
ENDBRANCH  11  12
ENDBRANCH   1  11
TORSDOF 9
ENDMDL
MODEL 9
REMARK VINA RESULT:    -4.665      1.636      2.136
REMARK INTER + INTRA:          -9.511
REMARK INTER:                  -7.187
REMARK INTRA:                  -2.324
REMARK UNBOUND:                -2.391
REMARK SMILES CC(=O)CCC=C(C)CCC=C(C)CCC=C(C)C
REMARK SMILES IDX 10 1 11 2 12 3 13 4 14 5 15 6 16 7 18 8 17 9 19 10 9 11 7 12
REMARK SMILES IDX 6 13 8 14 5 15 4 16 2 17 3 18 1 19
REMARK H PARENT
REMARK Flexibility Score: inf
ROOT
ATOM      1  C   UNL     1      13.174  20.062  58.716  1.00  0.00     0.032 C 
ENDROOT
BRANCH   1   2
ATOM      2  C   UNL     1      14.146  20.710  59.669  1.00  0.00    -0.028 C 
ATOM      3  C   UNL     1      13.981  21.940  60.207  1.00  0.00    -0.077 C 
ATOM      4  C   UNL     1      12.739  22.763  59.949  1.00  0.00     0.039 C 
BRANCH   3   5
ATOM      5  C   UNL     1      15.071  22.512  61.088  1.00  0.00     0.034 C 
BRANCH   5   6
ATOM      6  C   UNL     1      16.422  22.567  60.360  1.00  0.00     0.032 C 
BRANCH   6   7
ATOM      7  C   UNL     1      16.272  23.063  58.940  1.00  0.00    -0.028 C 
ATOM      8  C   UNL     1      16.537  23.055  56.498  1.00  0.00     0.039 C 
ATOM      9  C   UNL     1      16.715  22.405  57.846  1.00  0.00    -0.080 C 
ATOM     10  C   UNL     1      17.367  21.045  57.937  1.00  0.00     0.039 C 
ENDBRANCH   6   7
ENDBRANCH   5   6
ENDBRANCH   3   5
ENDBRANCH   1   2
BRANCH   1  11
ATOM     11  C   UNL     1      13.864  19.732  57.387  1.00  0.00     0.034 C 
BRANCH  11  12
ATOM     12  C   UNL     1      13.480  20.731  56.318  1.00  0.00    -0.077 C 
ATOM     13  C   UNL     1      12.738  21.808  56.655  1.00  0.00    -0.028 C 
ATOM     14  C   UNL     1      13.924  20.499  54.893  1.00  0.00     0.039 C 
BRANCH  13  15
ATOM     15  C   UNL     1      12.307  22.861  55.659  1.00  0.00     0.035 C 
BRANCH  15  16
ATOM     16  C   UNL     1      13.030  24.195  55.882  1.00  0.00     0.079 C 
BRANCH  16  17
ATOM     17  C   UNL     1      13.769  24.642  54.645  1.00  0.00     0.130 C 
ATOM     18  O   UNL     1      14.104  23.814  53.812  1.00  0.00    -0.300 OA
ATOM     19  C   UNL     1      14.097  26.087  54.411  1.00  0.00     0.087 C 
ENDBRANCH  16  17
ENDBRANCH  15  16
ENDBRANCH  13  15
ENDBRANCH  11  12
ENDBRANCH   1  11
TORSDOF 9
ENDMDL
