MODEL 1
REMARK VINA RESULT:    -5.640      0.000      0.000
REMARK INTER + INTRA:          -6.059
REMARK INTER:                  -5.970
REMARK INTRA:                  -0.089
REMARK UNBOUND:                -0.089
REMARK SMILES C=C(C)[C@H]1CC=C(C)C(=O)C1
REMARK SMILES IDX 8 1 7 2 6 3 5 4 4 5 11 6 9 7 10 8 2 9 1 10 3 11
REMARK H PARENT
REMARK Flexibility Score: inf
ROOT
ATOM      1  C   UNL     1     -12.482 -20.621  31.675  1.00  0.00     0.048 C 
ATOM      2  C   UNL     1     -12.404 -19.869  30.375  1.00  0.00    -0.012 C 
ATOM      3  C   UNL     1     -13.440 -19.905  29.519  1.00  0.00    -0.019 C 
ATOM      4  C   UNL     1     -13.407 -19.185  28.197  1.00  0.00     0.036 C 
ATOM      5  C   UNL     1     -12.575 -17.892  28.288  1.00  0.00     0.025 C 
ATOM      6  C   UNL     1     -11.162 -18.202  28.819  1.00  0.00     0.089 C 
ATOM      7  C   UNL     1     -11.239 -18.992  30.097  1.00  0.00     0.158 C 
ATOM      8  O   UNL     1     -10.282 -18.931  30.915  1.00  0.00    -0.295 OA
ENDROOT
BRANCH   5   9
ATOM      9  C   UNL     1     -12.525 -17.158  26.955  1.00  0.00    -0.077 C 
ATOM     10  C   UNL     1     -13.473 -16.271  26.609  1.00  0.00     0.008 C 
ATOM     11  C   UNL     1     -11.395 -17.418  25.991  1.00  0.00     0.039 C 
ENDBRANCH   5   9
TORSDOF 1
ENDMDL
MODEL 2
REMARK VINA RESULT:    -5.467      1.786      2.294
REMARK INTER + INTRA:          -5.876
REMARK INTER:                  -5.780
REMARK INTRA:                  -0.095
REMARK UNBOUND:                -0.089
REMARK SMILES C=C(C)[C@H]1CC=C(C)C(=O)C1
REMARK SMILES IDX 8 1 7 2 6 3 5 4 4 5 11 6 9 7 10 8 2 9 1 10 3 11
REMARK H PARENT
REMARK Flexibility Score: inf
ROOT
ATOM      1  C   UNL     1     -12.470 -21.007  31.381  1.00  0.00     0.048 C 
ATOM      2  C   UNL     1     -12.788 -19.787  30.562  1.00  0.00    -0.012 C 
ATOM      3  C   UNL     1     -12.609 -18.562  31.087  1.00  0.00    -0.019 C 
ATOM      4  C   UNL     1     -12.929 -17.309  30.317  1.00  0.00     0.036 C 
ATOM      5  C   UNL     1     -12.678 -17.504  28.810  1.00  0.00     0.025 C 
ATOM      6  C   UNL     1     -13.463 -18.723  28.291  1.00  0.00     0.089 C 
ATOM      7  C   UNL     1     -13.179 -19.934  29.137  1.00  0.00     0.158 C 
ATOM      8  O   UNL     1     -13.313 -21.081  28.632  1.00  0.00    -0.295 OA
ENDROOT
BRANCH   5   9
ATOM      9  C   UNL     1     -13.007 -16.246  28.017  1.00  0.00    -0.077 C 
ATOM     10  C   UNL     1     -12.949 -15.028  28.582  1.00  0.00     0.008 C 
ATOM     11  C   UNL     1     -13.404 -16.350  26.566  1.00  0.00     0.039 C 
ENDBRANCH   5   9
TORSDOF 1
ENDMDL
MODEL 3
REMARK VINA RESULT:    -5.154      1.029      1.125
REMARK INTER + INTRA:          -5.545
REMARK INTER:                  -5.451
REMARK INTRA:                  -0.094
REMARK UNBOUND:                -0.089
REMARK SMILES C=C(C)[C@H]1CC=C(C)C(=O)C1
REMARK SMILES IDX 8 1 7 2 6 3 5 4 4 5 11 6 9 7 10 8 2 9 1 10 3 11
REMARK H PARENT
REMARK Flexibility Score: inf
ROOT
ATOM      1  C   UNL     1     -12.419 -21.023  31.631  1.00  0.00     0.048 C 
ATOM      2  C   UNL     1     -12.387 -19.917  30.614  1.00  0.00    -0.012 C 
ATOM      3  C   UNL     1     -13.251 -19.929  29.584  1.00  0.00    -0.019 C 
ATOM      4  C   UNL     1     -13.250 -18.856  28.529  1.00  0.00     0.036 C 
ATOM      5  C   UNL     1     -12.832 -17.496  29.119  1.00  0.00     0.025 C 
ATOM      6  C   UNL     1     -11.471 -17.617  29.829  1.00  0.00     0.089 C 
ATOM      7  C   UNL     1     -11.489 -18.753  30.816  1.00  0.00     0.158 C 
ATOM      8  O   UNL     1     -10.702 -18.722  31.801  1.00  0.00    -0.295 OA
ENDROOT
BRANCH   5   9
ATOM      9  C   UNL     1     -12.817 -16.402  28.060  1.00  0.00    -0.077 C 
ATOM     10  C   UNL     1     -12.871 -15.102  28.397  1.00  0.00     0.008 C 
ATOM     11  C   UNL     1     -12.739 -16.766  26.599  1.00  0.00     0.039 C 
ENDBRANCH   5   9
TORSDOF 1
ENDMDL
MODEL 4
REMARK VINA RESULT:    -5.072      2.865      3.438
REMARK INTER + INTRA:          -5.458
REMARK INTER:                  -5.360
REMARK INTRA:                  -0.098
REMARK UNBOUND:                -0.089
REMARK SMILES C=C(C)[C@H]1CC=C(C)C(=O)C1
REMARK SMILES IDX 8 1 7 2 6 3 5 4 4 5 11 6 9 7 10 8 2 9 1 10 3 11
REMARK H PARENT
REMARK Flexibility Score: inf
ROOT
ATOM      1  C   UNL     1     -10.457 -15.772  32.340  1.00  0.00     0.048 C 
ATOM      2  C   UNL     1     -10.887 -15.923  30.907  1.00  0.00    -0.012 C 
ATOM      3  C   UNL     1      -9.987 -16.270  29.971  1.00  0.00    -0.019 C 
ATOM      4  C   UNL     1     -10.361 -16.417  28.520  1.00  0.00     0.036 C 
ATOM      5  C   UNL     1     -11.809 -16.920  28.367  1.00  0.00     0.025 C 
ATOM      6  C   UNL     1     -12.778 -15.996  29.128  1.00  0.00     0.089 C 
ATOM      7  C   UNL     1     -12.324 -15.810  30.551  1.00  0.00     0.158 C 
ATOM      8  O   UNL     1     -13.175 -15.519  31.434  1.00  0.00    -0.295 OA
ENDROOT
BRANCH   5   9
ATOM      9  C   UNL     1     -12.204 -17.063  26.904  1.00  0.00    -0.077 C 
ATOM     10  C   UNL     1     -13.468 -16.855  26.497  1.00  0.00     0.008 C 
ATOM     11  C   UNL     1     -11.169 -17.444  25.875  1.00  0.00     0.039 C 
ENDBRANCH   5   9
TORSDOF 1
ENDMDL
MODEL 5
REMARK VINA RESULT:    -5.010      1.896      4.415
REMARK INTER + INTRA:          -5.392
REMARK INTER:                  -5.296
REMARK INTRA:                  -0.096
REMARK UNBOUND:                -0.089
REMARK SMILES C=C(C)[C@H]1CC=C(C)C(=O)C1
REMARK SMILES IDX 8 1 7 2 6 3 5 4 4 5 11 6 9 7 10 8 2 9 1 10 3 11
REMARK H PARENT
REMARK Flexibility Score: inf
ROOT
ATOM      1  C   UNL     1     -13.373 -16.750  26.396  1.00  0.00     0.048 C 
ATOM      2  C   UNL     1     -13.073 -17.350  27.742  1.00  0.00    -0.012 C 
ATOM      3  C   UNL     1     -13.183 -18.677  27.922  1.00  0.00    -0.019 C 
ATOM      4  C   UNL     1     -12.912 -19.326  29.254  1.00  0.00     0.036 C 
ATOM      5  C   UNL     1     -11.817 -18.570  30.028  1.00  0.00     0.025 C 
ATOM      6  C   UNL     1     -12.194 -17.083  30.171  1.00  0.00     0.089 C 
ATOM      7  C   UNL     1     -12.537 -16.494  28.830  1.00  0.00     0.158 C 
ATOM      8  O   UNL     1     -12.399 -15.254  28.651  1.00  0.00    -0.295 OA
ENDROOT
BRANCH   5   9
ATOM      9  C   UNL     1     -11.539 -19.210  31.381  1.00  0.00    -0.077 C 
ATOM     10  C   UNL     1     -12.314 -20.198  31.860  1.00  0.00     0.008 C 
ATOM     11  C   UNL     1     -10.373 -18.741  32.215  1.00  0.00     0.039 C 
ENDBRANCH   5   9
TORSDOF 1
ENDMDL
MODEL 6
REMARK VINA RESULT:    -5.003      2.019      3.257
REMARK INTER + INTRA:          -5.385
REMARK INTER:                  -5.289
REMARK INTRA:                  -0.096
REMARK UNBOUND:                -0.089
REMARK SMILES C=C(C)[C@H]1CC=C(C)C(=O)C1
REMARK SMILES IDX 8 1 7 2 6 3 5 4 4 5 11 6 9 7 10 8 2 9 1 10 3 11
REMARK H PARENT
REMARK Flexibility Score: inf
ROOT
ATOM      1  C   UNL     1     -13.963 -20.569  28.437  1.00  0.00     0.048 C 
ATOM      2  C   UNL     1     -12.974 -19.517  28.856  1.00  0.00    -0.012 C 
ATOM      3  C   UNL     1     -12.782 -18.433  28.084  1.00  0.00    -0.019 C 
ATOM      4  C   UNL     1     -11.791 -17.359  28.448  1.00  0.00     0.036 C 
ATOM      5  C   UNL     1     -11.681 -17.200  29.976  1.00  0.00     0.025 C 
ATOM      6  C   UNL     1     -11.342 -18.552  30.631  1.00  0.00     0.089 C 
ATOM      7  C   UNL     1     -12.305 -19.615  30.178  1.00  0.00     0.158 C 
ATOM      8  O   UNL     1     -12.511 -20.614  30.919  1.00  0.00    -0.295 OA
ENDROOT
BRANCH   5   9
ATOM      9  C   UNL     1     -10.675 -16.123  30.359  1.00  0.00    -0.077 C 
ATOM     10  C   UNL     1     -10.081 -15.358  29.428  1.00  0.00     0.008 C 
ATOM     11  C   UNL     1     -10.327 -15.895  31.809  1.00  0.00     0.039 C 
ENDBRANCH   5   9
TORSDOF 1
ENDMDL
MODEL 7
REMARK VINA RESULT:    -4.999      2.467      4.749
REMARK INTER + INTRA:          -5.381
REMARK INTER:                  -5.288
REMARK INTRA:                  -0.093
REMARK UNBOUND:                -0.089
REMARK SMILES C=C(C)[C@H]1CC=C(C)C(=O)C1
REMARK SMILES IDX 8 1 7 2 6 3 5 4 4 5 11 6 9 7 10 8 2 9 1 10 3 11
REMARK H PARENT
REMARK Flexibility Score: inf
ROOT
ATOM      1  C   UNL     1     -13.948 -14.215  28.237  1.00  0.00     0.048 C 
ATOM      2  C   UNL     1     -13.189 -15.391  28.786  1.00  0.00    -0.012 C 
ATOM      3  C   UNL     1     -12.950 -15.475  30.107  1.00  0.00    -0.019 C 
ATOM      4  C   UNL     1     -12.179 -16.621  30.706  1.00  0.00     0.036 C 
ATOM      5  C   UNL     1     -12.420 -17.924  29.920  1.00  0.00     0.025 C 
ATOM      6  C   UNL     1     -12.090 -17.717  28.430  1.00  0.00     0.089 C 
ATOM      7  C   UNL     1     -12.815 -16.514  27.890  1.00  0.00     0.158 C 
ATOM      8  O   UNL     1     -13.070 -16.453  26.657  1.00  0.00    -0.295 OA
ENDROOT
BRANCH   5   9
ATOM      9  C   UNL     1     -11.639 -19.090  30.510  1.00  0.00    -0.077 C 
ATOM     10  C   UNL     1     -10.295 -19.117  30.485  1.00  0.00     0.008 C 
ATOM     11  C   UNL     1     -12.370 -20.247  31.142  1.00  0.00     0.039 C 
ENDBRANCH   5   9
TORSDOF 1
ENDMDL
MODEL 8
REMARK VINA RESULT:    -4.958      3.405      5.121
REMARK INTER + INTRA:          -5.338
REMARK INTER:                  -5.242
REMARK INTRA:                  -0.095
REMARK UNBOUND:                -0.089
REMARK SMILES C=C(C)[C@H]1CC=C(C)C(=O)C1
REMARK SMILES IDX 8 1 7 2 6 3 5 4 4 5 11 6 9 7 10 8 2 9 1 10 3 11
REMARK H PARENT
REMARK Flexibility Score: inf
ROOT
ATOM      1  C   UNL     1     -15.365 -13.148  29.374  1.00  0.00     0.048 C 
ATOM      2  C   UNL     1     -14.342 -14.247  29.467  1.00  0.00    -0.012 C 
ATOM      3  C   UNL     1     -13.597 -14.559  28.393  1.00  0.00    -0.019 C 
ATOM      4  C   UNL     1     -12.572 -15.661  28.427  1.00  0.00     0.036 C 
ATOM      5  C   UNL     1     -11.934 -15.785  29.824  1.00  0.00     0.025 C 
ATOM      6  C   UNL     1     -13.026 -15.971  30.894  1.00  0.00     0.089 C 
ATOM      7  C   UNL     1     -14.073 -14.897  30.774  1.00  0.00     0.158 C 
ATOM      8  O   UNL     1     -14.747 -14.581  31.791  1.00  0.00    -0.295 OA
ENDROOT
BRANCH   5   9
ATOM      9  C   UNL     1     -10.902 -16.903  29.875  1.00  0.00    -0.077 C 
ATOM     10  C   UNL     1     -10.248 -17.302  28.771  1.00  0.00     0.008 C 
ATOM     11  C   UNL     1     -10.593 -17.587  31.182  1.00  0.00     0.039 C 
ENDBRANCH   5   9
TORSDOF 1
ENDMDL
MODEL 9
REMARK VINA RESULT:    -3.843      1.753      2.857
REMARK INTER + INTRA:          -4.157
REMARK INTER:                  -4.068
REMARK INTRA:                  -0.088
REMARK UNBOUND:                -0.089
REMARK SMILES C=C(C)[C@H]1CC=C(C)C(=O)C1
REMARK SMILES IDX 8 1 7 2 6 3 5 4 4 5 11 6 9 7 10 8 2 9 1 10 3 11
REMARK H PARENT
REMARK Flexibility Score: inf
ROOT
ATOM      1  C   UNL     1      -9.875 -16.984  32.273  1.00  0.00     0.048 C 
ATOM      2  C   UNL     1     -10.570 -16.979  30.939  1.00  0.00    -0.012 C 
ATOM      3  C   UNL     1     -10.660 -15.836  30.237  1.00  0.00    -0.019 C 
ATOM      4  C   UNL     1     -11.361 -15.772  28.905  1.00  0.00     0.036 C 
ATOM      5  C   UNL     1     -11.212 -17.097  28.135  1.00  0.00     0.025 C 
ATOM      6  C   UNL     1     -11.705 -18.274  28.996  1.00  0.00     0.089 C 
ATOM      7  C   UNL     1     -11.043 -18.255  30.347  1.00  0.00     0.158 C 
ATOM      8  O   UNL     1     -10.927 -19.333  30.989  1.00  0.00    -0.295 OA
ENDROOT
BRANCH   5   9
ATOM      9  C   UNL     1     -11.924 -17.049  26.790  1.00  0.00    -0.077 C 
ATOM     10  C   UNL     1     -11.253 -17.220  25.637  1.00  0.00     0.008 C 
ATOM     11  C   UNL     1     -13.411 -16.809  26.729  1.00  0.00     0.039 C 
ENDBRANCH   5   9
TORSDOF 1
ENDMDL
