MODEL 1
REMARK VINA RESULT:    -3.593      0.000      0.000
REMARK INTER + INTRA:          -3.698
REMARK INTER:                  -3.698
REMARK INTRA:                   0.000
REMARK UNBOUND:                 0.000
REMARK SMILES CC1(C)[C@H]2CC[C@](C)(C2)[C@H]1O
REMARK SMILES IDX 1 1 2 2 4 3 5 4 6 5 7 6 9 7 10 8 8 9 3 10 11 11
REMARK H PARENT 11 12
REMARK Flexibility Score: inf
ROOT
ATOM      1  C   UNL     1     131.315 142.623 140.849  1.00  0.00     0.014 C 
ATOM      2  C   UNL     1     132.785 142.458 140.394  1.00  0.00    -0.006 C 
ATOM      3  C   UNL     1     133.158 140.936 140.316  1.00  0.00    -0.002 C 
ATOM      4  C   UNL     1     134.517 140.730 139.615  1.00  0.00     0.005 C 
ATOM      5  C   UNL     1     135.512 141.332 140.618  1.00  0.00     0.010 C 
ATOM      6  C   UNL     1     134.607 141.703 141.818  1.00  0.00    -0.006 C 
ATOM      7  C   UNL     1     133.554 140.618 141.748  1.00  0.00     0.013 C 
ATOM      8  C   UNL     1     133.773 142.969 141.495  1.00  0.00     0.126 C 
ATOM      9  C   UNL     1     135.347 141.768 143.156  1.00  0.00     0.014 C 
ATOM     10  C   UNL     1     132.934 143.194 139.036  1.00  0.00     0.014 C 
ENDROOT
BRANCH   8  11
ATOM     11  O   UNL     1     134.595 144.028 141.072  1.00  0.00    -0.392 OA
ATOM     12  H   UNL     1     135.193 143.657 140.373  1.00  0.00     0.211 HD
ENDBRANCH   8  11
TORSDOF 1
ENDMDL
MODEL 2
REMARK VINA RESULT:    -3.548     12.782     14.584
REMARK INTER + INTRA:          -3.652
REMARK INTER:                  -3.652
REMARK INTRA:                   0.000
REMARK UNBOUND:                 0.000
REMARK SMILES CC1(C)[C@H]2CC[C@](C)(C2)[C@H]1O
REMARK SMILES IDX 1 1 2 2 4 3 5 4 6 5 7 6 9 7 10 8 8 9 3 10 11 11
REMARK H PARENT 11 12
REMARK Flexibility Score: inf
ROOT
ATOM      1  C   UNL     1     150.366 139.031 140.821  1.00  0.00     0.014 C 
ATOM      2  C   UNL     1     148.881 139.169 140.404  1.00  0.00    -0.006 C 
ATOM      3  C   UNL     1     148.504 140.682 140.242  1.00  0.00    -0.002 C 
ATOM      4  C   UNL     1     147.123 140.845 139.574  1.00  0.00     0.005 C 
ATOM      5  C   UNL     1     146.161 140.308 140.645  1.00  0.00     0.010 C 
ATOM      6  C   UNL     1     147.105 140.014 141.835  1.00  0.00    -0.006 C 
ATOM      7  C   UNL     1     148.154 141.091 141.664  1.00  0.00     0.013 C 
ATOM      8  C   UNL     1     147.931 138.729 141.567  1.00  0.00     0.126 C 
ATOM      9  C   UNL     1     146.409 140.033 143.199  1.00  0.00     0.014 C 
ATOM     10  C   UNL     1     148.689 138.348 139.101  1.00  0.00     0.014 C 
ENDROOT
BRANCH   8  11
ATOM     11  O   UNL     1     147.097 137.646 141.239  1.00  0.00    -0.392 OA
ATOM     12  H   UNL     1     146.280 138.034 140.831  1.00  0.00     0.211 HD
ENDBRANCH   8  11
TORSDOF 1
ENDMDL
MODEL 3
REMARK VINA RESULT:    -3.517      9.139     10.133
REMARK INTER + INTRA:          -3.620
REMARK INTER:                  -3.620
REMARK INTRA:                   0.000
REMARK UNBOUND:                 0.000
REMARK SMILES CC1(C)[C@H]2CC[C@](C)(C2)[C@H]1O
REMARK SMILES IDX 1 1 2 2 4 3 5 4 6 5 7 6 9 7 10 8 8 9 3 10 11 11
REMARK H PARENT 11 12
REMARK Flexibility Score: inf
ROOT
ATOM      1  C   UNL     1     142.349 150.206 140.664  1.00  0.00     0.014 C 
ATOM      2  C   UNL     1     142.304 148.695 140.330  1.00  0.00    -0.006 C 
ATOM      3  C   UNL     1     140.819 148.192 140.304  1.00  0.00    -0.002 C 
ATOM      4  C   UNL     1     140.722 146.769 139.716  1.00  0.00     0.005 C 
ATOM      5  C   UNL     1     141.414 145.911 140.786  1.00  0.00     0.010 C 
ATOM      6  C   UNL     1     141.715 146.937 141.905  1.00  0.00    -0.006 C 
ATOM      7  C   UNL     1     140.546 147.888 141.767  1.00  0.00     0.013 C 
ATOM      8  C   UNL     1     142.904 147.846 141.499  1.00  0.00     0.126 C 
ATOM      9  C   UNL     1     141.853 146.315 143.297  1.00  0.00     0.014 C 
ATOM     10  C   UNL     1     143.041 148.499 138.978  1.00  0.00     0.014 C 
ENDROOT
BRANCH   8  11
ATOM     11  O   UNL     1     144.026 147.083 141.128  1.00  0.00    -0.392 OA
ATOM     12  H   UNL     1     144.448 146.776 141.972  1.00  0.00     0.211 HD
ENDBRANCH   8  11
TORSDOF 1
ENDMDL
MODEL 4
REMARK VINA RESULT:    -3.505      0.969      3.331
REMARK INTER + INTRA:          -3.608
REMARK INTER:                  -3.608
REMARK INTRA:                   0.000
REMARK UNBOUND:                 0.000
REMARK SMILES CC1(C)[C@H]2CC[C@](C)(C2)[C@H]1O
REMARK SMILES IDX 1 1 2 2 4 3 5 4 6 5 7 6 9 7 10 8 8 9 3 10 11 11
REMARK H PARENT 11 12
REMARK Flexibility Score: inf
ROOT
ATOM      1  C   UNL     1     137.076 141.950 141.361  1.00  0.00     0.014 C 
ATOM      2  C   UNL     1     135.557 141.808 141.628  1.00  0.00    -0.006 C 
ATOM      3  C   UNL     1     135.002 140.523 140.920  1.00  0.00    -0.002 C 
ATOM      4  C   UNL     1     133.564 140.209 141.382  1.00  0.00     0.005 C 
ATOM      5  C   UNL     1     132.754 141.371 140.786  1.00  0.00     0.010 C 
ATOM      6  C   UNL     1     133.815 142.140 139.963  1.00  0.00    -0.006 C 
ATOM      7  C   UNL     1     134.721 141.016 139.510  1.00  0.00     0.013 C 
ATOM      8  C   UNL     1     134.755 142.939 140.902  1.00  0.00     0.126 C 
ATOM      9  C   UNL     1     133.229 142.969 138.816  1.00  0.00     0.014 C 
ATOM     10  C   UNL     1     135.357 141.794 143.166  1.00  0.00     0.014 C 
ENDROOT
BRANCH   8  11
ATOM     11  O   UNL     1     134.023 143.765 141.774  1.00  0.00    -0.392 OA
ATOM     12  H   UNL     1     133.535 144.413 141.203  1.00  0.00     0.211 HD
ENDBRANCH   8  11
TORSDOF 1
ENDMDL
MODEL 5
REMARK VINA RESULT:    -3.497      9.143     10.203
REMARK INTER + INTRA:          -3.599
REMARK INTER:                  -3.599
REMARK INTRA:                   0.000
REMARK UNBOUND:                 0.000
REMARK SMILES CC1(C)[C@H]2CC[C@](C)(C2)[C@H]1O
REMARK SMILES IDX 1 1 2 2 4 3 5 4 6 5 7 6 9 7 10 8 8 9 3 10 11 11
REMARK H PARENT 11 12
REMARK Flexibility Score: inf
ROOT
ATOM      1  C   UNL     1     139.268 131.453 140.658  1.00  0.00     0.014 C 
ATOM      2  C   UNL     1     139.293 132.966 140.331  1.00  0.00    -0.006 C 
ATOM      3  C   UNL     1     140.773 133.469 140.211  1.00  0.00    -0.002 C 
ATOM      4  C   UNL     1     140.833 134.896 139.628  1.00  0.00     0.005 C 
ATOM      5  C   UNL     1     140.214 135.747 140.747  1.00  0.00     0.010 C 
ATOM      6  C   UNL     1     139.985 134.713 141.876  1.00  0.00    -0.006 C 
ATOM      7  C   UNL     1     141.142 133.763 141.656  1.00  0.00     0.013 C 
ATOM      8  C   UNL     1     138.771 133.808 141.543  1.00  0.00     0.126 C 
ATOM      9  C   UNL     1     139.940 135.325 143.278  1.00  0.00     0.014 C 
ATOM     10  C   UNL     1     138.469 133.172 139.032  1.00  0.00     0.014 C 
ENDROOT
BRANCH   8  11
ATOM     11  O   UNL     1     137.629 134.574 141.252  1.00  0.00    -0.392 OA
ATOM     12  H   UNL     1     137.654 134.755 140.276  1.00  0.00     0.211 HD
ENDBRANCH   8  11
TORSDOF 1
ENDMDL
MODEL 6
REMARK VINA RESULT:    -3.457      8.702     10.023
REMARK INTER + INTRA:          -3.558
REMARK INTER:                  -3.558
REMARK INTRA:                   0.000
REMARK UNBOUND:                 0.000
REMARK SMILES CC1(C)[C@H]2CC[C@](C)(C2)[C@H]1O
REMARK SMILES IDX 1 1 2 2 4 3 5 4 6 5 7 6 9 7 10 8 8 9 3 10 11 11
REMARK H PARENT 11 12
REMARK Flexibility Score: inf
ROOT
ATOM      1  C   UNL     1     142.060 144.584 141.404  1.00  0.00     0.014 C 
ATOM      2  C   UNL     1     141.822 146.090 141.675  1.00  0.00    -0.006 C 
ATOM      3  C   UNL     1     140.562 146.588 140.885  1.00  0.00    -0.002 C 
ATOM      4  C   UNL     1     140.142 148.002 141.339  1.00  0.00     0.005 C 
ATOM      5  C   UNL     1     141.299 148.878 140.835  1.00  0.00     0.010 C 
ATOM      6  C   UNL     1     142.178 147.870 140.056  1.00  0.00    -0.006 C 
ATOM      7  C   UNL     1     141.136 146.914 139.517  1.00  0.00     0.013 C 
ATOM      8  C   UNL     1     142.957 146.959 141.039  1.00  0.00     0.126 C 
ATOM      9  C   UNL     1     143.052 148.514 138.977  1.00  0.00     0.014 C 
ATOM     10  C   UNL     1     141.691 146.267 143.211  1.00  0.00     0.014 C 
ENDROOT
BRANCH   8  11
ATOM     11  O   UNL     1     143.681 147.719 141.974  1.00  0.00    -0.392 OA
ATOM     12  H   UNL     1     143.292 147.514 142.864  1.00  0.00     0.211 HD
ENDBRANCH   8  11
TORSDOF 1
ENDMDL
MODEL 7
REMARK VINA RESULT:    -3.451     12.005     13.749
REMARK INTER + INTRA:          -3.552
REMARK INTER:                  -3.552
REMARK INTRA:                   0.000
REMARK UNBOUND:                 0.000
REMARK SMILES CC1(C)[C@H]2CC[C@](C)(C2)[C@H]1O
REMARK SMILES IDX 1 1 2 2 4 3 5 4 6 5 7 6 9 7 10 8 8 9 3 10 11 11
REMARK H PARENT 11 12
REMARK Flexibility Score: inf
ROOT
ATOM      1  C   UNL     1     144.530 139.647 141.417  1.00  0.00     0.014 C 
ATOM      2  C   UNL     1     146.045 139.820 141.683  1.00  0.00    -0.006 C 
ATOM      3  C   UNL     1     146.579 141.099 140.949  1.00  0.00    -0.002 C 
ATOM      4  C   UNL     1     148.011 141.448 141.407  1.00  0.00     0.005 C 
ATOM      5  C   UNL     1     148.842 140.287 140.838  1.00  0.00     0.010 C 
ATOM      6  C   UNL     1     147.796 139.482 140.028  1.00  0.00    -0.006 C 
ATOM      7  C   UNL     1     146.872 140.581 139.551  1.00  0.00     0.013 C 
ATOM      8  C   UNL     1     146.868 138.688 140.982  1.00  0.00     0.126 C 
ATOM      9  C   UNL     1     148.399 138.640 138.901  1.00  0.00     0.014 C 
ATOM     10  C   UNL     1     146.241 139.869 143.221  1.00  0.00     0.014 C 
ENDROOT
BRANCH   8  11
ATOM     11  O   UNL     1     147.611 137.893 141.873  1.00  0.00    -0.392 OA
ATOM     12  H   UNL     1     148.525 138.280 141.899  1.00  0.00     0.211 HD
ENDBRANCH   8  11
TORSDOF 1
ENDMDL
MODEL 8
REMARK VINA RESULT:    -3.402      8.432      9.959
REMARK INTER + INTRA:          -3.501
REMARK INTER:                  -3.501
REMARK INTRA:                   0.000
REMARK UNBOUND:                 0.000
REMARK SMILES CC1(C)[C@H]2CC[C@](C)(C2)[C@H]1O
REMARK SMILES IDX 1 1 2 2 4 3 5 4 6 5 7 6 9 7 10 8 8 9 3 10 11 11
REMARK H PARENT 11 12
REMARK Flexibility Score: inf
ROOT
ATOM      1  C   UNL     1     139.579 137.145 141.414  1.00  0.00     0.014 C 
ATOM      2  C   UNL     1     139.777 135.633 141.680  1.00  0.00    -0.006 C 
ATOM      3  C   UNL     1     141.053 135.115 140.930  1.00  0.00    -0.002 C 
ATOM      4  C   UNL     1     141.429 133.690 141.385  1.00  0.00     0.005 C 
ATOM      5  C   UNL     1     140.272 132.841 140.834  1.00  0.00     0.010 C 
ATOM      6  C   UNL     1     139.442 133.874 140.034  1.00  0.00    -0.006 C 
ATOM      7  C   UNL     1     140.520 134.812 139.539  1.00  0.00     0.013 C 
ATOM      8  C   UNL     1     138.647 134.792 140.998  1.00  0.00     0.126 C 
ATOM      9  C   UNL     1     138.592 133.256 138.920  1.00  0.00     0.014 C 
ATOM     10  C   UNL     1     139.851 135.441 143.218  1.00  0.00     0.014 C 
ENDROOT
BRANCH   8  11
ATOM     11  O   UNL     1     137.876 134.040 141.901  1.00  0.00    -0.392 OA
ATOM     12  H   UNL     1     137.015 134.522 142.004  1.00  0.00     0.211 HD
ENDBRANCH   8  11
TORSDOF 1
ENDMDL
MODEL 9
REMARK VINA RESULT:    -3.363      1.720      2.804
REMARK INTER + INTRA:          -3.461
REMARK INTER:                  -3.461
REMARK INTRA:                   0.000
REMARK UNBOUND:                 0.000
REMARK SMILES CC1(C)[C@H]2CC[C@](C)(C2)[C@H]1O
REMARK SMILES IDX 1 1 2 2 4 3 5 4 6 5 7 6 9 7 10 8 8 9 3 10 11 11
REMARK H PARENT 11 12
REMARK Flexibility Score: inf
ROOT
ATOM      1  C   UNL     1     134.975 139.750 139.145  1.00  0.00     0.014 C 
ATOM      2  C   UNL     1     134.156 140.827 139.898  1.00  0.00    -0.006 C 
ATOM      3  C   UNL     1     134.857 142.224 139.771  1.00  0.00    -0.002 C 
ATOM      4  C   UNL     1     133.938 143.356 140.276  1.00  0.00     0.005 C 
ATOM      5  C   UNL     1     133.863 143.085 141.787  1.00  0.00     0.010 C 
ATOM      6  C   UNL     1     134.842 141.900 141.970  1.00  0.00    -0.006 C 
ATOM      7  C   UNL     1     135.872 142.190 140.901  1.00  0.00     0.013 C 
ATOM      8  C   UNL     1     134.207 140.587 141.444  1.00  0.00     0.126 C 
ATOM      9  C   UNL     1     135.423 141.789 143.382  1.00  0.00     0.014 C 
ATOM     10  C   UNL     1     132.719 140.807 139.313  1.00  0.00     0.014 C 
ENDROOT
BRANCH   8  11
ATOM     11  O   UNL     1     132.947 140.361 142.024  1.00  0.00    -0.392 OA
ATOM     12  H   UNL     1     132.493 139.686 141.454  1.00  0.00     0.211 HD
ENDBRANCH   8  11
TORSDOF 1
ENDMDL
