MODEL 1
REMARK VINA RESULT:    -3.657      0.000      0.000
REMARK INTER + INTRA:          -4.335
REMARK INTER:                  -4.298
REMARK INTRA:                  -0.037
REMARK UNBOUND:                -0.037
REMARK SMILES CCCCC(=O)[O-]
REMARK SMILES IDX 4 1 5 2 6 3 7 4 3 5 2 6 1 7
REMARK H PARENT
REMARK Flexibility Score: inf
ROOT
ATOM      1  C   UNL     1       3.098 -37.119  17.075  1.00  0.00     0.053 C 
ENDROOT
BRANCH   1   2
ATOM      2  C   UNL     1       3.009 -37.954  18.317  1.00  0.00     0.041 C 
ATOM      3  O   UNL     1       1.912 -38.468  18.656  1.00  0.00    -0.550 OA
ATOM      4  O   UNL     1       4.144 -38.190  19.082  1.00  0.00    -0.550 OA
ENDBRANCH   1   2
BRANCH   1   5
ATOM      5  C   UNL     1       1.957 -37.409  16.086  1.00  0.00     0.006 C 
BRANCH   5   6
ATOM      6  C   UNL     1       2.338 -37.183  14.612  1.00  0.00    -0.003 C 
ATOM      7  C   UNL     1       3.603 -37.931  14.195  1.00  0.00     0.004 C 
ENDBRANCH   5   6
ENDBRANCH   1   5
TORSDOF 3
ENDMDL
MODEL 2
REMARK VINA RESULT:    -3.437      1.318      1.770
REMARK INTER + INTRA:          -4.076
REMARK INTER:                  -4.061
REMARK INTRA:                  -0.015
REMARK UNBOUND:                -0.037
REMARK SMILES CCCCC(=O)[O-]
REMARK SMILES IDX 4 1 5 2 6 3 7 4 3 5 2 6 1 7
REMARK H PARENT
REMARK Flexibility Score: inf
ROOT
ATOM      1  C   UNL     1       3.064 -37.880  18.099  1.00  0.00     0.053 C 
ENDROOT
BRANCH   1   2
ATOM      2  C   UNL     1       3.978 -37.596  19.253  1.00  0.00     0.041 C 
ATOM      3  O   UNL     1       4.884 -38.415  19.559  1.00  0.00    -0.550 OA
ATOM      4  O   UNL     1       3.849 -36.413  19.970  1.00  0.00    -0.550 OA
ENDBRANCH   1   2
BRANCH   1   5
ATOM      5  C   UNL     1       3.121 -36.787  17.018  1.00  0.00     0.006 C 
BRANCH   5   6
ATOM      6  C   UNL     1       2.242 -37.080  15.789  1.00  0.00    -0.003 C 
ATOM      7  C   UNL     1       3.049 -37.443  14.544  1.00  0.00     0.004 C 
ENDBRANCH   5   6
ENDBRANCH   1   5
TORSDOF 3
ENDMDL
MODEL 3
REMARK VINA RESULT:    -3.382      2.269      4.099
REMARK INTER + INTRA:          -4.012
REMARK INTER:                  -3.989
REMARK INTRA:                  -0.022
REMARK UNBOUND:                -0.037
REMARK SMILES CCCCC(=O)[O-]
REMARK SMILES IDX 4 1 5 2 6 3 7 4 3 5 2 6 1 7
REMARK H PARENT
REMARK Flexibility Score: inf
ROOT
ATOM      1  C   UNL     1       2.351 -37.983  18.103  1.00  0.00     0.053 C 
ENDROOT
BRANCH   1   2
ATOM      2  C   UNL     1       2.360 -37.659  16.639  1.00  0.00     0.041 C 
ATOM      3  O   UNL     1       3.124 -38.284  15.858  1.00  0.00    -0.550 OA
ATOM      4  O   UNL     1       1.503 -36.690  16.133  1.00  0.00    -0.550 OA
ENDBRANCH   1   2
BRANCH   1   5
ATOM      5  C   UNL     1       3.756 -37.935  18.727  1.00  0.00     0.006 C 
BRANCH   5   6
ATOM      6  C   UNL     1       3.934 -36.823  19.775  1.00  0.00    -0.003 C 
ATOM      7  C   UNL     1       5.183 -37.001  20.636  1.00  0.00     0.004 C 
ENDBRANCH   5   6
ENDBRANCH   1   5
TORSDOF 3
ENDMDL
MODEL 4
REMARK VINA RESULT:    -3.265      4.094      6.139
REMARK INTER + INTRA:          -3.875
REMARK INTER:                  -3.831
REMARK INTRA:                  -0.044
REMARK UNBOUND:                -0.037
REMARK SMILES CCCCC(=O)[O-]
REMARK SMILES IDX 4 1 5 2 6 3 7 4 3 5 2 6 1 7
REMARK H PARENT
REMARK Flexibility Score: inf
ROOT
ATOM      1  C   UNL     1       4.942 -37.489  20.878  1.00  0.00     0.053 C 
ENDROOT
BRANCH   1   2
ATOM      2  C   UNL     1       4.351 -37.049  19.572  1.00  0.00     0.041 C 
ATOM      3  O   UNL     1       4.622 -35.912  19.107  1.00  0.00    -0.550 OA
ATOM      4  O   UNL     1       3.527 -37.907  18.854  1.00  0.00    -0.550 OA
ENDBRANCH   1   2
BRANCH   1   5
ATOM      5  C   UNL     1       5.751 -36.376  21.565  1.00  0.00     0.006 C 
BRANCH   5   6
ATOM      6  C   UNL     1       5.112 -35.853  22.863  1.00  0.00    -0.003 C 
ATOM      7  C   UNL     1       6.008 -34.879  23.626  1.00  0.00     0.004 C 
ENDBRANCH   5   6
ENDBRANCH   1   5
TORSDOF 3
ENDMDL
MODEL 5
REMARK VINA RESULT:    -3.260      2.854      4.832
REMARK INTER + INTRA:          -3.869
REMARK INTER:                  -3.853
REMARK INTRA:                  -0.016
REMARK UNBOUND:                -0.037
REMARK SMILES CCCCC(=O)[O-]
REMARK SMILES IDX 4 1 5 2 6 3 7 4 3 5 2 6 1 7
REMARK H PARENT
REMARK Flexibility Score: inf
ROOT
ATOM      1  C   UNL     1       4.287 -37.831  19.517  1.00  0.00     0.053 C 
ENDROOT
BRANCH   1   2
ATOM      2  C   UNL     1       3.080 -37.877  18.628  1.00  0.00     0.041 C 
ATOM      3  O   UNL     1       2.010 -38.392  19.042  1.00  0.00    -0.550 OA
ATOM      4  O   UNL     1       3.130 -37.322  17.356  1.00  0.00    -0.550 OA
ENDBRANCH   1   2
BRANCH   1   5
ATOM      5  C   UNL     1       4.639 -36.401  19.961  1.00  0.00     0.006 C 
BRANCH   5   6
ATOM      6  C   UNL     1       5.656 -36.339  21.114  1.00  0.00    -0.003 C 
ATOM      7  C   UNL     1       5.005 -36.363  22.495  1.00  0.00     0.004 C 
ENDBRANCH   5   6
ENDBRANCH   1   5
TORSDOF 3
ENDMDL
MODEL 6
REMARK VINA RESULT:    -3.257      4.506      6.637
REMARK INTER + INTRA:          -3.865
REMARK INTER:                  -3.812
REMARK INTRA:                  -0.052
REMARK UNBOUND:                -0.037
REMARK SMILES CCCCC(=O)[O-]
REMARK SMILES IDX 4 1 5 2 6 3 7 4 3 5 2 6 1 7
REMARK H PARENT
REMARK Flexibility Score: inf
ROOT
ATOM      1  C   UNL     1       5.765 -36.386  21.452  1.00  0.00     0.053 C 
ENDROOT
BRANCH   1   2
ATOM      2  C   UNL     1       4.943 -36.893  20.305  1.00  0.00     0.041 C 
ATOM      3  O   UNL     1       4.175 -36.113  19.684  1.00  0.00    -0.550 OA
ATOM      4  O   UNL     1       5.050 -38.218  19.902  1.00  0.00    -0.550 OA
ENDBRANCH   1   2
BRANCH   1   5
ATOM      5  C   UNL     1       5.021 -36.472  22.795  1.00  0.00     0.006 C 
BRANCH   5   6
ATOM      6  C   UNL     1       5.070 -37.866  23.446  1.00  0.00    -0.003 C 
ATOM      7  C   UNL     1       5.051 -37.819  24.972  1.00  0.00     0.004 C 
ENDBRANCH   5   6
ENDBRANCH   1   5
TORSDOF 3
ENDMDL
MODEL 7
REMARK VINA RESULT:    -3.243      2.786      4.081
REMARK INTER + INTRA:          -3.849
REMARK INTER:                  -3.821
REMARK INTRA:                  -0.028
REMARK UNBOUND:                -0.037
REMARK SMILES CCCCC(=O)[O-]
REMARK SMILES IDX 4 1 5 2 6 3 7 4 3 5 2 6 1 7
REMARK H PARENT
REMARK Flexibility Score: inf
ROOT
ATOM      1  C   UNL     1       4.371 -36.536  20.251  1.00  0.00     0.053 C 
ENDROOT
BRANCH   1   2
ATOM      2  C   UNL     1       5.236 -36.808  21.446  1.00  0.00     0.041 C 
ATOM      3  O   UNL     1       6.125 -35.983  21.783  1.00  0.00    -0.550 OA
ATOM      4  O   UNL     1       5.039 -37.955  22.204  1.00  0.00    -0.550 OA
ENDBRANCH   1   2
BRANCH   1   5
ATOM      5  C   UNL     1       4.220 -37.766  19.341  1.00  0.00     0.006 C 
BRANCH   5   6
ATOM      6  C   UNL     1       2.798 -37.958  18.784  1.00  0.00    -0.003 C 
ATOM      7  C   UNL     1       2.738 -37.912  17.258  1.00  0.00     0.004 C 
ENDBRANCH   5   6
ENDBRANCH   1   5
TORSDOF 3
ENDMDL
MODEL 8
REMARK VINA RESULT:    -3.209      5.752      6.836
REMARK INTER + INTRA:          -3.809
REMARK INTER:                  -3.779
REMARK INTRA:                  -0.030
REMARK UNBOUND:                -0.037
REMARK SMILES CCCCC(=O)[O-]
REMARK SMILES IDX 4 1 5 2 6 3 7 4 3 5 2 6 1 7
REMARK H PARENT
REMARK Flexibility Score: inf
ROOT
ATOM      1  C   UNL     1       5.001 -37.708  23.229  1.00  0.00     0.053 C 
ENDROOT
BRANCH   1   2
ATOM      2  C   UNL     1       5.231 -37.501  24.696  1.00  0.00     0.041 C 
ATOM      3  O   UNL     1       4.639 -38.225  25.538  1.00  0.00    -0.550 OA
ATOM      4  O   UNL     1       6.124 -36.529  25.133  1.00  0.00    -0.550 OA
ENDBRANCH   1   2
BRANCH   1   5
ATOM      5  C   UNL     1       5.094 -36.399  22.427  1.00  0.00     0.006 C 
BRANCH   5   6
ATOM      6  C   UNL     1       5.364 -36.606  20.926  1.00  0.00    -0.003 C 
ATOM      7  C   UNL     1       4.985 -38.001  20.433  1.00  0.00     0.004 C 
ENDBRANCH   5   6
ENDBRANCH   1   5
TORSDOF 3
ENDMDL
MODEL 9
REMARK VINA RESULT:    -3.193      4.220      5.600
REMARK INTER + INTRA:          -3.790
REMARK INTER:                  -3.701
REMARK INTRA:                  -0.089
REMARK UNBOUND:                -0.037
REMARK SMILES CCCCC(=O)[O-]
REMARK SMILES IDX 4 1 5 2 6 3 7 4 3 5 2 6 1 7
REMARK H PARENT
REMARK Flexibility Score: inf
ROOT
ATOM      1  C   UNL     1       5.067 -36.262  22.386  1.00  0.00     0.053 C 
ENDROOT
BRANCH   1   2
ATOM      2  C   UNL     1       4.978 -37.399  23.359  1.00  0.00     0.041 C 
ATOM      3  O   UNL     1       4.974 -38.587  22.944  1.00  0.00    -0.550 OA
ATOM      4  O   UNL     1       4.932 -37.148  24.725  1.00  0.00    -0.550 OA
ENDBRANCH   1   2
BRANCH   1   5
ATOM      5  C   UNL     1       5.391 -36.731  20.958  1.00  0.00     0.006 C 
BRANCH   5   6
ATOM      6  C   UNL     1       4.250 -36.497  19.952  1.00  0.00    -0.003 C 
ATOM      7  C   UNL     1       3.657 -37.793  19.402  1.00  0.00     0.004 C 
ENDBRANCH   5   6
ENDBRANCH   1   5
TORSDOF 3
ENDMDL
