MODEL 1
REMARK VINA RESULT:    -4.666      0.000      0.000
REMARK INTER + INTRA:          -5.916
REMARK INTER:                  -5.621
REMARK INTRA:                  -0.295
REMARK UNBOUND:                -0.295
REMARK SMILES NC(=O)C[C@@H]([NH3+])C(=O)[O-]
REMARK SMILES IDX 4 1 5 2 6 3 7 7 8 8 9 9 2 10 3 11 1 12
REMARK H PARENT 6 4 6 5 6 6 1 13 1 14
REMARK Flexibility Score: inf
ROOT
ATOM      1  C   UNL     1     -19.108 -14.402 -11.615  1.00  0.00     0.171 C 
ENDROOT
BRANCH   1   2
ATOM      2  C   UNL     1     -20.232 -13.906 -12.548  1.00  0.00     0.237 C 
BRANCH   2   3
ATOM      3  N   UNL     1     -19.687 -13.547 -13.863  1.00  0.00    -0.350 N 
ATOM      4  H   UNL     1     -19.767 -12.514 -14.008  1.00  0.00     0.345 HD
ATOM      5  H   UNL     1     -20.232 -14.026 -14.617  1.00  0.00     0.345 HD
ATOM      6  H   UNL     1     -18.681 -13.825 -13.935  1.00  0.00     0.345 HD
ENDBRANCH   2   3
BRANCH   2   7
ATOM      7  C   UNL     1     -21.310 -14.949 -12.699  1.00  0.00     0.100 C 
ATOM      8  O   UNL     1     -21.431 -15.594 -13.773  1.00  0.00    -0.544 OA
ATOM      9  O   UNL     1     -22.171 -15.214 -11.640  1.00  0.00    -0.544 OA
ENDBRANCH   2   7
ENDBRANCH   1   2
BRANCH   1  10
ATOM     10  C   UNL     1     -17.821 -14.608 -12.360  1.00  0.00     0.223 C 
ATOM     11  O   UNL     1     -17.673 -15.629 -13.084  1.00  0.00    -0.275 OA
ATOM     12  N   UNL     1     -16.751 -13.674 -12.224  1.00  0.00    -0.369 N 
ATOM     13  H   UNL     1     -15.851 -13.827 -12.732  1.00  0.00     0.159 HD
ATOM     14  H   UNL     1     -16.853 -12.832 -11.616  1.00  0.00     0.159 HD
ENDBRANCH   1  10
TORSDOF 4
ENDMDL
MODEL 2
REMARK VINA RESULT:    -4.305      9.327     10.392
REMARK INTER + INTRA:          -5.480
REMARK INTER:                  -5.214
REMARK INTRA:                  -0.266
REMARK UNBOUND:                -0.295
REMARK SMILES NC(=O)C[C@@H]([NH3+])C(=O)[O-]
REMARK SMILES IDX 4 1 5 2 6 3 7 7 8 8 9 9 2 10 3 11 1 12
REMARK H PARENT 6 4 6 5 6 6 1 13 1 14
REMARK Flexibility Score: inf
ROOT
ATOM      1  C   UNL     1     -23.504 -23.983 -13.806  1.00  0.00     0.171 C 
ENDROOT
BRANCH   1   2
ATOM      2  C   UNL     1     -24.410 -23.561 -12.630  1.00  0.00     0.237 C 
BRANCH   2   3
ATOM      3  N   UNL     1     -24.255 -24.489 -11.503  1.00  0.00    -0.350 N 
ATOM      4  H   UNL     1     -24.011 -25.441 -11.860  1.00  0.00     0.345 HD
ATOM      5  H   UNL     1     -25.155 -24.558 -10.973  1.00  0.00     0.345 HD
ATOM      6  H   UNL     1     -23.499 -24.163 -10.857  1.00  0.00     0.345 HD
ENDBRANCH   2   3
BRANCH   2   7
ATOM      7  C   UNL     1     -24.106 -22.152 -12.191  1.00  0.00     0.100 C 
ATOM      8  O   UNL     1     -23.871 -21.896 -10.981  1.00  0.00    -0.544 OA
ATOM      9  O   UNL     1     -24.068 -21.127 -13.128  1.00  0.00    -0.544 OA
ENDBRANCH   2   7
ENDBRANCH   1   2
BRANCH   1  10
ATOM     10  C   UNL     1     -24.275 -24.087 -15.089  1.00  0.00     0.223 C 
ATOM     11  O   UNL     1     -24.629 -25.217 -15.520  1.00  0.00    -0.275 OA
ATOM     12  N   UNL     1     -24.580 -22.915 -15.844  1.00  0.00    -0.369 N 
ATOM     13  H   UNL     1     -25.105 -22.989 -16.744  1.00  0.00     0.159 HD
ATOM     14  H   UNL     1     -24.281 -21.972 -15.509  1.00  0.00     0.159 HD
ENDBRANCH   1  10
TORSDOF 4
ENDMDL
MODEL 3
REMARK VINA RESULT:    -4.286      9.551     10.443
REMARK INTER + INTRA:          -5.457
REMARK INTER:                  -5.202
REMARK INTRA:                  -0.256
REMARK UNBOUND:                -0.295
REMARK SMILES NC(=O)C[C@@H]([NH3+])C(=O)[O-]
REMARK SMILES IDX 4 1 5 2 6 3 7 7 8 8 9 9 2 10 3 11 1 12
REMARK H PARENT 6 4 6 5 6 6 1 13 1 14
REMARK Flexibility Score: inf
ROOT
ATOM      1  C   UNL     1     -23.538 -23.448 -13.614  1.00  0.00     0.171 C 
ENDROOT
BRANCH   1   2
ATOM      2  C   UNL     1     -24.637 -22.915 -12.671  1.00  0.00     0.237 C 
BRANCH   2   3
ATOM      3  N   UNL     1     -25.797 -23.814 -12.674  1.00  0.00    -0.350 N 
ATOM      4  H   UNL     1     -25.673 -24.553 -11.944  1.00  0.00     0.345 HD
ATOM      5  H   UNL     1     -25.881 -24.284 -13.605  1.00  0.00     0.345 HD
ATOM      6  H   UNL     1     -26.677 -23.283 -12.475  1.00  0.00     0.345 HD
ENDBRANCH   2   3
BRANCH   2   7
ATOM      7  C   UNL     1     -24.112 -22.747 -11.268  1.00  0.00     0.100 C 
ATOM      8  O   UNL     1     -24.004 -21.600 -10.758  1.00  0.00    -0.544 OA
ATOM      9  O   UNL     1     -23.757 -23.864 -10.522  1.00  0.00    -0.544 OA
ENDBRANCH   2   7
ENDBRANCH   1   2
BRANCH   1  10
ATOM     10  C   UNL     1     -24.110 -23.909 -14.923  1.00  0.00     0.223 C 
ATOM     11  O   UNL     1     -24.224 -25.142 -15.158  1.00  0.00    -0.275 OA
ATOM     12  N   UNL     1     -24.491 -22.961 -15.919  1.00  0.00    -0.369 N 
ATOM     13  H   UNL     1     -24.876 -23.284 -16.835  1.00  0.00     0.159 HD
ATOM     14  H   UNL     1     -24.389 -21.937 -15.746  1.00  0.00     0.159 HD
ENDBRANCH   1  10
TORSDOF 4
ENDMDL
MODEL 4
REMARK VINA RESULT:    -4.242      8.160      9.244
REMARK INTER + INTRA:          -5.405
REMARK INTER:                  -4.931
REMARK INTRA:                  -0.474
REMARK UNBOUND:                -0.295
REMARK SMILES NC(=O)C[C@@H]([NH3+])C(=O)[O-]
REMARK SMILES IDX 4 1 5 2 6 3 7 7 8 8 9 9 2 10 3 11 1 12
REMARK H PARENT 6 4 6 5 6 6 1 13 1 14
REMARK Flexibility Score: inf
ROOT
ATOM      1  C   UNL     1     -24.923 -22.853 -13.395  1.00  0.00     0.171 C 
ENDROOT
BRANCH   1   2
ATOM      2  C   UNL     1     -24.080 -21.627 -12.986  1.00  0.00     0.237 C 
BRANCH   2   3
ATOM      3  N   UNL     1     -22.691 -21.787 -13.432  1.00  0.00    -0.350 N 
ATOM      4  H   UNL     1     -22.480 -22.801 -13.577  1.00  0.00     0.345 HD
ATOM      5  H   UNL     1     -22.038 -21.417 -12.702  1.00  0.00     0.345 HD
ATOM      6  H   UNL     1     -22.530 -21.274 -14.330  1.00  0.00     0.345 HD
ENDBRANCH   2   3
BRANCH   2   7
ATOM      7  C   UNL     1     -24.665 -20.356 -13.546  1.00  0.00     0.100 C 
ATOM      8  O   UNL     1     -24.738 -20.180 -14.791  1.00  0.00    -0.544 OA
ATOM      9  O   UNL     1     -25.143 -19.375 -12.686  1.00  0.00    -0.544 OA
ENDBRANCH   2   7
ENDBRANCH   1   2
BRANCH   1  10
ATOM     10  C   UNL     1     -24.306 -23.588 -14.549  1.00  0.00     0.223 C 
ATOM     11  O   UNL     1     -23.557 -24.578 -14.334  1.00  0.00    -0.275 OA
ATOM     12  N   UNL     1     -24.533 -23.150 -15.889  1.00  0.00    -0.369 N 
ATOM     13  H   UNL     1     -24.091 -23.655 -16.690  1.00  0.00     0.159 HD
ATOM     14  H   UNL     1     -25.138 -22.323 -16.083  1.00  0.00     0.159 HD
ENDBRANCH   1  10
TORSDOF 4
ENDMDL
MODEL 5
REMARK VINA RESULT:    -4.202      2.474      3.272
REMARK INTER + INTRA:          -5.357
REMARK INTER:                  -5.075
REMARK INTRA:                  -0.282
REMARK UNBOUND:                -0.295
REMARK SMILES NC(=O)C[C@@H]([NH3+])C(=O)[O-]
REMARK SMILES IDX 4 1 5 2 6 3 7 7 8 8 9 9 2 10 3 11 1 12
REMARK H PARENT 6 4 6 5 6 6 1 13 1 14
REMARK Flexibility Score: inf
ROOT
ATOM      1  C   UNL     1     -20.552 -14.780 -11.721  1.00  0.00     0.171 C 
ENDROOT
BRANCH   1   2
ATOM      2  C   UNL     1     -20.194 -13.531 -12.554  1.00  0.00     0.237 C 
BRANCH   2   3
ATOM      3  N   UNL     1     -18.903 -13.716 -13.229  1.00  0.00    -0.350 N 
ATOM      4  H   UNL     1     -19.005 -14.413 -14.001  1.00  0.00     0.345 HD
ATOM      5  H   UNL     1     -18.196 -14.080 -12.549  1.00  0.00     0.345 HD
ATOM      6  H   UNL     1     -18.563 -12.811 -13.629  1.00  0.00     0.345 HD
ENDBRANCH   2   3
BRANCH   2   7
ATOM      7  C   UNL     1     -21.271 -13.227 -13.564  1.00  0.00     0.100 C 
ATOM      8  O   UNL     1     -21.031 -13.302 -14.797  1.00  0.00    -0.544 OA
ATOM      9  O   UNL     1     -22.545 -12.875 -13.134  1.00  0.00    -0.544 OA
ENDBRANCH   2   7
ENDBRANCH   1   2
BRANCH   1  10
ATOM     10  C   UNL     1     -21.140 -14.407 -10.391  1.00  0.00     0.223 C 
ATOM     11  O   UNL     1     -20.426 -14.456  -9.354  1.00  0.00    -0.275 OA
ATOM     12  N   UNL     1     -22.513 -14.033 -10.289  1.00  0.00    -0.369 N 
ATOM     13  H   UNL     1     -22.925 -13.787  -9.360  1.00  0.00     0.159 HD
ATOM     14  H   UNL     1     -23.122 -14.003 -11.136  1.00  0.00     0.159 HD
ENDBRANCH   1  10
TORSDOF 4
ENDMDL
MODEL 6
REMARK VINA RESULT:    -4.201      9.472     10.494
REMARK INTER + INTRA:          -5.355
REMARK INTER:                  -5.003
REMARK INTRA:                  -0.352
REMARK UNBOUND:                -0.295
REMARK SMILES NC(=O)C[C@@H]([NH3+])C(=O)[O-]
REMARK SMILES IDX 4 1 5 2 6 3 7 7 8 8 9 9 2 10 3 11 1 12
REMARK H PARENT 6 4 6 5 6 6 1 13 1 14
REMARK Flexibility Score: inf
ROOT
ATOM      1  C   UNL     1     -23.503 -24.441 -13.921  1.00  0.00     0.171 C 
ENDROOT
BRANCH   1   2
ATOM      2  C   UNL     1     -23.391 -23.274 -12.919  1.00  0.00     0.237 C 
BRANCH   2   3
ATOM      3  N   UNL     1     -22.836 -22.084 -13.575  1.00  0.00    -0.350 N 
ATOM      4  H   UNL     1     -22.072 -22.366 -14.231  1.00  0.00     0.345 HD
ATOM      5  H   UNL     1     -22.430 -21.439 -12.857  1.00  0.00     0.345 HD
ATOM      6  H   UNL     1     -23.578 -21.578 -14.112  1.00  0.00     0.345 HD
ENDBRANCH   2   3
BRANCH   2   7
ATOM      7  C   UNL     1     -24.732 -22.954 -12.308  1.00  0.00     0.100 C 
ATOM      8  O   UNL     1     -25.275 -21.835 -12.506  1.00  0.00    -0.544 OA
ATOM      9  O   UNL     1     -25.385 -23.904 -11.533  1.00  0.00    -0.544 OA
ENDBRANCH   2   7
ENDBRANCH   1   2
BRANCH   1  10
ATOM     10  C   UNL     1     -24.515 -24.155 -14.992  1.00  0.00     0.223 C 
ATOM     11  O   UNL     1     -24.416 -23.108 -15.686  1.00  0.00    -0.275 OA
ATOM     12  N   UNL     1     -25.610 -25.045 -15.207  1.00  0.00    -0.369 N 
ATOM     13  H   UNL     1     -26.322 -24.837 -15.943  1.00  0.00     0.159 HD
ATOM     14  H   UNL     1     -25.715 -25.909 -14.630  1.00  0.00     0.159 HD
ENDBRANCH   1  10
TORSDOF 4
ENDMDL
MODEL 7
REMARK VINA RESULT:    -4.084      8.981     10.026
REMARK INTER + INTRA:          -5.215
REMARK INTER:                  -4.745
REMARK INTRA:                  -0.470
REMARK UNBOUND:                -0.295
REMARK SMILES NC(=O)C[C@@H]([NH3+])C(=O)[O-]
REMARK SMILES IDX 4 1 5 2 6 3 7 7 8 8 9 9 2 10 3 11 1 12
REMARK H PARENT 6 4 6 5 6 6 1 13 1 14
REMARK Flexibility Score: inf
ROOT
ATOM      1  C   UNL     1     -23.112 -22.451 -13.116  1.00  0.00     0.171 C 
ENDROOT
BRANCH   1   2
ATOM      2  C   UNL     1     -23.808 -23.826 -13.067  1.00  0.00     0.237 C 
BRANCH   2   3
ATOM      3  N   UNL     1     -25.145 -23.705 -12.472  1.00  0.00    -0.350 N 
ATOM      4  H   UNL     1     -25.285 -22.733 -12.112  1.00  0.00     0.345 HD
ATOM      5  H   UNL     1     -25.237 -24.369 -11.668  1.00  0.00     0.345 HD
ATOM      6  H   UNL     1     -25.886 -23.916 -13.180  1.00  0.00     0.345 HD
ENDBRANCH   2   3
BRANCH   2   7
ATOM      7  C   UNL     1     -23.904 -24.434 -14.444  1.00  0.00     0.100 C 
ATOM      8  O   UNL     1     -23.546 -25.624 -14.644  1.00  0.00    -0.544 OA
ATOM      9  O   UNL     1     -24.406 -23.682 -15.499  1.00  0.00    -0.544 OA
ENDBRANCH   2   7
ENDBRANCH   1   2
BRANCH   1  10
ATOM     10  C   UNL     1     -24.107 -21.330 -13.209  1.00  0.00     0.223 C 
ATOM     11  O   UNL     1     -24.635 -20.872 -12.161  1.00  0.00    -0.275 OA
ATOM     12  N   UNL     1     -24.485 -20.805 -14.481  1.00  0.00    -0.369 N 
ATOM     13  H   UNL     1     -25.187 -20.034 -14.545  1.00  0.00     0.159 HD
ATOM     14  H   UNL     1     -24.068 -21.184 -15.359  1.00  0.00     0.159 HD
ENDBRANCH   1  10
TORSDOF 4
ENDMDL
MODEL 8
REMARK VINA RESULT:    -4.029      2.410      3.007
REMARK INTER + INTRA:          -5.148
REMARK INTER:                  -4.822
REMARK INTRA:                  -0.326
REMARK UNBOUND:                -0.295
REMARK SMILES NC(=O)C[C@@H]([NH3+])C(=O)[O-]
REMARK SMILES IDX 4 1 5 2 6 3 7 7 8 8 9 9 2 10 3 11 1 12
REMARK H PARENT 6 4 6 5 6 6 1 13 1 14
REMARK Flexibility Score: inf
ROOT
ATOM      1  C   UNL     1     -20.453 -13.307 -13.429  1.00  0.00     0.171 C 
ENDROOT
BRANCH   1   2
ATOM      2  C   UNL     1     -21.348 -13.623 -14.646  1.00  0.00     0.237 C 
BRANCH   2   3
ATOM      3  N   UNL     1     -21.365 -15.067 -14.911  1.00  0.00    -0.350 N 
ATOM      4  H   UNL     1     -20.553 -15.523 -14.436  1.00  0.00     0.345 HD
ATOM      5  H   UNL     1     -21.283 -15.240 -15.940  1.00  0.00     0.345 HD
ATOM      6  H   UNL     1     -22.252 -15.497 -14.559  1.00  0.00     0.345 HD
ENDBRANCH   2   3
BRANCH   2   7
ATOM      7  C   UNL     1     -22.752 -13.116 -14.431  1.00  0.00     0.100 C 
ATOM      8  O   UNL     1     -23.176 -12.879 -13.270  1.00  0.00    -0.544 OA
ATOM      9  O   UNL     1     -23.582 -12.892 -15.523  1.00  0.00    -0.544 OA
ENDBRANCH   2   7
ENDBRANCH   1   2
BRANCH   1  10
ATOM     10  C   UNL     1     -19.981 -14.560 -12.750  1.00  0.00     0.223 C 
ATOM     11  O   UNL     1     -20.767 -15.204 -12.005  1.00  0.00    -0.275 OA
ATOM     12  N   UNL     1     -18.636 -15.008 -12.915  1.00  0.00    -0.369 N 
ATOM     13  H   UNL     1     -18.306 -15.872 -12.430  1.00  0.00     0.159 HD
ATOM     14  H   UNL     1     -17.968 -14.477 -13.516  1.00  0.00     0.159 HD
ENDBRANCH   1  10
TORSDOF 4
ENDMDL
MODEL 9
REMARK VINA RESULT:    -4.001      9.051      9.917
REMARK INTER + INTRA:          -5.114
REMARK INTER:                  -4.840
REMARK INTRA:                  -0.275
REMARK UNBOUND:                -0.295
REMARK SMILES NC(=O)C[C@@H]([NH3+])C(=O)[O-]
REMARK SMILES IDX 4 1 5 2 6 3 7 7 8 8 9 9 2 10 3 11 1 12
REMARK H PARENT 6 4 6 5 6 6 1 13 1 14
REMARK Flexibility Score: inf
ROOT
ATOM      1  C   UNL     1     -23.792 -22.082 -11.839  1.00  0.00     0.171 C 
ENDROOT
BRANCH   1   2
ATOM      2  C   UNL     1     -24.492 -23.312 -11.225  1.00  0.00     0.237 C 
BRANCH   2   3
ATOM      3  N   UNL     1     -24.200 -24.516 -12.013  1.00  0.00    -0.350 N 
ATOM      4  H   UNL     1     -24.763 -25.320 -11.651  1.00  0.00     0.345 HD
ATOM      5  H   UNL     1     -23.186 -24.761 -11.925  1.00  0.00     0.345 HD
ATOM      6  H   UNL     1     -24.431 -24.363 -13.022  1.00  0.00     0.345 HD
ENDBRANCH   2   3
BRANCH   2   7
ATOM      7  C   UNL     1     -24.074 -23.513  -9.791  1.00  0.00     0.100 C 
ATOM      8  O   UNL     1     -23.340 -24.484  -9.469  1.00  0.00    -0.544 OA
ATOM      9  O   UNL     1     -24.487 -22.614  -8.816  1.00  0.00    -0.544 OA
ENDBRANCH   2   7
ENDBRANCH   1   2
BRANCH   1  10
ATOM     10  C   UNL     1     -23.363 -22.339 -13.255  1.00  0.00     0.223 C 
ATOM     11  O   UNL     1     -22.267 -22.916 -13.484  1.00  0.00    -0.275 OA
ATOM     12  N   UNL     1     -24.174 -21.900 -14.345  1.00  0.00    -0.369 N 
ATOM     13  H   UNL     1     -23.868 -22.067 -15.330  1.00  0.00     0.159 HD
ATOM     14  H   UNL     1     -25.077 -21.406 -14.172  1.00  0.00     0.159 HD
ENDBRANCH   1  10
TORSDOF 4
ENDMDL
