MODEL 1
REMARK VINA RESULT:    -3.633      0.000      0.000
REMARK INTER + INTRA:          -7.330
REMARK INTER:                  -5.757
REMARK INTRA:                  -1.573
REMARK UNBOUND:                -1.573
REMARK SMILES CCCCCCCCCCCC(=O)[O-]
REMARK SMILES IDX 7 1 8 2 9 3 10 4 11 5 12 6 13 7 14 8 6 9 5 10 4 11 3 12 2 13
REMARK SMILES IDX 1 14
REMARK H PARENT
REMARK Flexibility Score: inf
ROOT
ATOM      1  C   UNL     1      24.724  29.450 -14.682  1.00  0.00     0.000 C 
ENDROOT
BRANCH   1   2
ATOM      2  C   UNL     1      26.240  29.191 -14.639  1.00  0.00     0.000 C 
BRANCH   2   3
ATOM      3  C   UNL     1      27.069  30.484 -14.596  1.00  0.00     0.000 C 
BRANCH   3   4
ATOM      4  C   UNL     1      28.092  30.444 -13.454  1.00  0.00     0.006 C 
BRANCH   4   5
ATOM      5  C   UNL     1      27.823  29.264 -12.516  1.00  0.00     0.053 C 
BRANCH   5   6
ATOM      6  C   UNL     1      28.142  29.635 -11.103  1.00  0.00     0.041 C 
ATOM      7  O   UNL     1      27.501  29.117 -10.151  1.00  0.00    -0.550 OA
ATOM      8  O   UNL     1      29.182  30.515 -10.832  1.00  0.00    -0.550 OA
ENDBRANCH   5   6
ENDBRANCH   4   5
ENDBRANCH   3   4
ENDBRANCH   2   3
ENDBRANCH   1   2
BRANCH   1   9
ATOM      9  C   UNL     1      24.290  30.684 -15.494  1.00  0.00     0.000 C 
BRANCH   9  10
ATOM     10  C   UNL     1      23.454  31.680 -14.673  1.00  0.00    -0.000 C 
BRANCH  10  11
ATOM     11  C   UNL     1      24.317  32.704 -13.912  1.00  0.00    -0.000 C 
BRANCH  11  12
ATOM     12  C   UNL     1      24.169  32.681 -12.377  1.00  0.00    -0.000 C 
BRANCH  12  13
ATOM     13  C   UNL     1      25.054  31.651 -11.652  1.00  0.00    -0.003 C 
ATOM     14  C   UNL     1      24.275  30.423 -11.184  1.00  0.00     0.004 C 
ENDBRANCH  12  13
ENDBRANCH  11  12
ENDBRANCH  10  11
ENDBRANCH   9  10
ENDBRANCH   1   9
TORSDOF 10
ENDMDL
MODEL 2
REMARK VINA RESULT:    -3.552      2.935      4.997
REMARK INTER + INTRA:          -7.201
REMARK INTER:                  -5.832
REMARK INTRA:                  -1.368
REMARK UNBOUND:                -1.573
REMARK SMILES CCCCCCCCCCCC(=O)[O-]
REMARK SMILES IDX 7 1 8 2 9 3 10 4 11 5 12 6 13 7 14 8 6 9 5 10 4 11 3 12 2 13
REMARK SMILES IDX 1 14
REMARK H PARENT
REMARK Flexibility Score: inf
ROOT
ATOM      1  C   UNL     1      26.127  29.448 -13.084  1.00  0.00     0.000 C 
ENDROOT
BRANCH   1   2
ATOM      2  C   UNL     1      25.026  30.105 -12.232  1.00  0.00     0.000 C 
BRANCH   2   3
ATOM      3  C   UNL     1      25.224  31.618 -12.057  1.00  0.00     0.000 C 
BRANCH   3   4
ATOM      4  C   UNL     1      24.012  32.395 -12.588  1.00  0.00     0.006 C 
BRANCH   4   5
ATOM      5  C   UNL     1      24.156  32.681 -14.086  1.00  0.00     0.053 C 
BRANCH   5   6
ATOM      6  C   UNL     1      23.338  31.716 -14.884  1.00  0.00     0.041 C 
ATOM      7  O   UNL     1      22.130  31.516 -14.592  1.00  0.00    -0.550 OA
ATOM      8  O   UNL     1      23.895  31.076 -15.984  1.00  0.00    -0.550 OA
ENDBRANCH   5   6
ENDBRANCH   4   5
ENDBRANCH   3   4
ENDBRANCH   2   3
ENDBRANCH   1   2
BRANCH   1   9
ATOM      9  C   UNL     1      26.948  30.416 -13.955  1.00  0.00     0.000 C 
BRANCH   9  10
ATOM     10  C   UNL     1      28.434  30.467 -13.559  1.00  0.00    -0.000 C 
BRANCH  10  11
ATOM     11  C   UNL     1      28.734  29.698 -12.259  1.00  0.00    -0.000 C 
BRANCH  11  12
ATOM     12  C   UNL     1      29.050  30.575 -11.031  1.00  0.00    -0.000 C 
BRANCH  12  13
ATOM     13  C   UNL     1      28.034  30.474  -9.880  1.00  0.00    -0.003 C 
ATOM     14  C   UNL     1      27.493  29.059  -9.687  1.00  0.00     0.004 C 
ENDBRANCH  12  13
ENDBRANCH  11  12
ENDBRANCH  10  11
ENDBRANCH   9  10
ENDBRANCH   1   9
TORSDOF 10
ENDMDL
MODEL 3
REMARK VINA RESULT:    -3.537      3.105      5.207
REMARK INTER + INTRA:          -7.178
REMARK INTER:                  -5.955
REMARK INTRA:                  -1.223
REMARK UNBOUND:                -1.573
REMARK SMILES CCCCCCCCCCCC(=O)[O-]
REMARK SMILES IDX 7 1 8 2 9 3 10 4 11 5 12 6 13 7 14 8 6 9 5 10 4 11 3 12 2 13
REMARK SMILES IDX 1 14
REMARK H PARENT
REMARK Flexibility Score: inf
ROOT
ATOM      1  C   UNL     1      28.778  30.443 -13.169  1.00  0.00     0.000 C 
ENDROOT
BRANCH   1   2
ATOM      2  C   UNL     1      27.386  29.918 -13.565  1.00  0.00     0.000 C 
BRANCH   2   3
ATOM      3  C   UNL     1      26.451  31.022 -14.080  1.00  0.00     0.000 C 
BRANCH   3   4
ATOM      4  C   UNL     1      25.387  31.374 -13.032  1.00  0.00     0.006 C 
BRANCH   4   5
ATOM      5  C   UNL     1      24.569  32.593 -13.468  1.00  0.00     0.053 C 
BRANCH   5   6
ATOM      6  C   UNL     1      23.578  32.210 -14.521  1.00  0.00     0.041 C 
ATOM      7  O   UNL     1      23.738  32.592 -15.710  1.00  0.00    -0.550 OA
ATOM      8  O   UNL     1      22.505  31.389 -14.200  1.00  0.00    -0.550 OA
ENDBRANCH   5   6
ENDBRANCH   4   5
ENDBRANCH   3   4
ENDBRANCH   2   3
ENDBRANCH   1   2
BRANCH   1   9
ATOM      9  C   UNL     1      29.240  30.074 -11.747  1.00  0.00     0.000 C 
BRANCH   9  10
ATOM     10  C   UNL     1      28.208  30.438 -10.667  1.00  0.00    -0.000 C 
BRANCH  10  11
ATOM     11  C   UNL     1      27.576  29.202 -10.000  1.00  0.00    -0.000 C 
BRANCH  11  12
ATOM     12  C   UNL     1      26.043  29.091 -10.133  1.00  0.00    -0.000 C 
BRANCH  12  13
ATOM     13  C   UNL     1      25.535  27.768 -10.733  1.00  0.00    -0.003 C 
ATOM     14  C   UNL     1      26.612  27.019 -11.517  1.00  0.00     0.004 C 
ENDBRANCH  12  13
ENDBRANCH  11  12
ENDBRANCH  10  11
ENDBRANCH   9  10
ENDBRANCH   1   9
TORSDOF 10
ENDMDL
MODEL 4
REMARK VINA RESULT:    -3.432      1.904      3.669
REMARK INTER + INTRA:          -7.011
REMARK INTER:                  -5.948
REMARK INTRA:                  -1.063
REMARK UNBOUND:                -1.573
REMARK SMILES CCCCCCCCCCCC(=O)[O-]
REMARK SMILES IDX 7 1 8 2 9 3 10 4 11 5 12 6 13 7 14 8 6 9 5 10 4 11 3 12 2 13
REMARK SMILES IDX 1 14
REMARK H PARENT
REMARK Flexibility Score: inf
ROOT
ATOM      1  C   UNL     1      28.858  30.465 -13.122  1.00  0.00     0.000 C 
ENDROOT
BRANCH   1   2
ATOM      2  C   UNL     1      29.253  30.049 -11.694  1.00  0.00     0.000 C 
BRANCH   2   3
ATOM      3  C   UNL     1      28.225  30.481 -10.637  1.00  0.00     0.000 C 
BRANCH   3   4
ATOM      4  C   UNL     1      27.663  29.266  -9.887  1.00  0.00     0.006 C 
BRANCH   4   5
ATOM      5  C   UNL     1      26.164  29.103 -10.151  1.00  0.00     0.053 C 
BRANCH   5   6
ATOM      6  C   UNL     1      25.915  27.948 -11.068  1.00  0.00     0.041 C 
ATOM      7  O   UNL     1      26.782  27.044 -11.199  1.00  0.00    -0.550 OA
ATOM      8  O   UNL     1      24.703  27.841 -11.740  1.00  0.00    -0.550 OA
ENDBRANCH   5   6
ENDBRANCH   4   5
ENDBRANCH   3   4
ENDBRANCH   2   3
ENDBRANCH   1   2
BRANCH   1   9
ATOM      9  C   UNL     1      27.542  29.860 -13.643  1.00  0.00     0.000 C 
BRANCH   9  10
ATOM     10  C   UNL     1      26.548  30.923 -14.141  1.00  0.00    -0.000 C 
BRANCH  10  11
ATOM     11  C   UNL     1      25.462  31.260 -13.103  1.00  0.00    -0.000 C 
BRANCH  11  12
ATOM     12  C   UNL     1      24.463  32.356 -13.526  1.00  0.00    -0.000 C 
BRANCH  12  13
ATOM     13  C   UNL     1      24.452  32.684 -15.030  1.00  0.00    -0.003 C 
ATOM     14  C   UNL     1      23.337  31.964 -15.787  1.00  0.00     0.004 C 
ENDBRANCH  12  13
ENDBRANCH  11  12
ENDBRANCH  10  11
ENDBRANCH   9  10
ENDBRANCH   1   9
TORSDOF 10
ENDMDL
MODEL 5
REMARK VINA RESULT:    -3.384      1.489      3.104
REMARK INTER + INTRA:          -6.935
REMARK INTER:                  -5.987
REMARK INTRA:                  -0.948
REMARK UNBOUND:                -1.573
REMARK SMILES CCCCCCCCCCCC(=O)[O-]
REMARK SMILES IDX 7 1 8 2 9 3 10 4 11 5 12 6 13 7 14 8 6 9 5 10 4 11 3 12 2 13
REMARK SMILES IDX 1 14
REMARK H PARENT
REMARK Flexibility Score: inf
ROOT
ATOM      1  C   UNL     1      27.549  30.642 -13.343  1.00  0.00     0.000 C 
ENDROOT
BRANCH   1   2
ATOM      2  C   UNL     1      28.916  30.173 -12.814  1.00  0.00     0.000 C 
BRANCH   2   3
ATOM      3  C   UNL     1      28.958  30.051 -11.284  1.00  0.00     0.000 C 
BRANCH   3   4
ATOM      4  C   UNL     1      27.552  30.170 -10.684  1.00  0.00     0.006 C 
BRANCH   4   5
ATOM      5  C   UNL     1      26.964  28.789 -10.382  1.00  0.00     0.053 C 
BRANCH   5   6
ATOM      6  C   UNL     1      26.825  28.590  -8.906  1.00  0.00     0.041 C 
ATOM      7  O   UNL     1      27.393  29.376  -8.104  1.00  0.00    -0.550 OA
ATOM      8  O   UNL     1      26.026  27.565  -8.415  1.00  0.00    -0.550 OA
ENDBRANCH   5   6
ENDBRANCH   4   5
ENDBRANCH   3   4
ENDBRANCH   2   3
ENDBRANCH   1   2
BRANCH   1   9
ATOM      9  C   UNL     1      27.228  30.230 -14.791  1.00  0.00     0.000 C 
BRANCH   9  10
ATOM     10  C   UNL     1      25.898  29.467 -14.917  1.00  0.00    -0.000 C 
BRANCH  10  11
ATOM     11  C   UNL     1      24.826  29.964 -13.930  1.00  0.00    -0.000 C 
BRANCH  11  12
ATOM     12  C   UNL     1      23.938  31.115 -14.444  1.00  0.00    -0.000 C 
BRANCH  12  13
ATOM     13  C   UNL     1      24.324  32.515 -13.932  1.00  0.00    -0.003 C 
ATOM     14  C   UNL     1      24.344  32.605 -12.407  1.00  0.00     0.004 C 
ENDBRANCH  12  13
ENDBRANCH  11  12
ENDBRANCH  10  11
ENDBRANCH   9  10
ENDBRANCH   1   9
TORSDOF 10
ENDMDL
MODEL 6
REMARK VINA RESULT:    -3.368      2.477      4.630
REMARK INTER + INTRA:          -6.910
REMARK INTER:                  -5.623
REMARK INTRA:                  -1.288
REMARK UNBOUND:                -1.573
REMARK SMILES CCCCCCCCCCCC(=O)[O-]
REMARK SMILES IDX 7 1 8 2 9 3 10 4 11 5 12 6 13 7 14 8 6 9 5 10 4 11 3 12 2 13
REMARK SMILES IDX 1 14
REMARK H PARENT
REMARK Flexibility Score: inf
ROOT
ATOM      1  C   UNL     1      27.629  29.859 -13.431  1.00  0.00     0.000 C 
ENDROOT
BRANCH   1   2
ATOM      2  C   UNL     1      26.997  30.666 -14.579  1.00  0.00     0.000 C 
BRANCH   2   3
ATOM      3  C   UNL     1      25.690  31.364 -14.174  1.00  0.00     0.000 C 
BRANCH   3   4
ATOM      4  C   UNL     1      25.164  30.816 -12.841  1.00  0.00     0.006 C 
BRANCH   4   5
ATOM      5  C   UNL     1      24.575  31.936 -11.980  1.00  0.00     0.053 C 
BRANCH   5   6
ATOM      6  C   UNL     1      23.376  31.447 -11.231  1.00  0.00     0.041 C 
ATOM      7  O   UNL     1      23.098  30.219 -11.212  1.00  0.00    -0.550 OA
ATOM      8  O   UNL     1      22.594  32.341 -10.510  1.00  0.00    -0.550 OA
ENDBRANCH   5   6
ENDBRANCH   4   5
ENDBRANCH   3   4
ENDBRANCH   2   3
ENDBRANCH   1   2
BRANCH   1   9
ATOM      9  C   UNL     1      28.972  30.402 -12.908  1.00  0.00     0.000 C 
BRANCH   9  10
ATOM     10  C   UNL     1      29.262  29.987 -11.456  1.00  0.00    -0.000 C 
BRANCH  10  11
ATOM     11  C   UNL     1      28.178  30.459 -10.469  1.00  0.00    -0.000 C 
BRANCH  11  12
ATOM     12  C   UNL     1      27.559  29.354  -9.590  1.00  0.00    -0.000 C 
BRANCH  12  13
ATOM     13  C   UNL     1      26.215  28.797 -10.092  1.00  0.00    -0.003 C 
ATOM     14  C   UNL     1      26.368  27.497 -10.880  1.00  0.00     0.004 C 
ENDBRANCH  12  13
ENDBRANCH  11  12
ENDBRANCH  10  11
ENDBRANCH   9  10
ENDBRANCH   1   9
TORSDOF 10
ENDMDL
MODEL 7
REMARK VINA RESULT:    -3.356      3.993      5.359
REMARK INTER + INTRA:          -6.891
REMARK INTER:                  -5.877
REMARK INTRA:                  -1.014
REMARK UNBOUND:                -1.573
REMARK SMILES CCCCCCCCCCCC(=O)[O-]
REMARK SMILES IDX 7 1 8 2 9 3 10 4 11 5 12 6 13 7 14 8 6 9 5 10 4 11 3 12 2 13
REMARK SMILES IDX 1 14
REMARK H PARENT
REMARK Flexibility Score: inf
ROOT
ATOM      1  C   UNL     1      26.076  28.389 -13.232  1.00  0.00     0.000 C 
ENDROOT
BRANCH   1   2
ATOM      2  C   UNL     1      26.889  27.121 -12.918  1.00  0.00     0.000 C 
BRANCH   2   3
ATOM      3  C   UNL     1      26.479  26.456 -11.596  1.00  0.00     0.000 C 
BRANCH   3   4
ATOM      4  C   UNL     1      26.419  24.930 -11.743  1.00  0.00     0.006 C 
BRANCH   4   5
ATOM      5  C   UNL     1      27.378  24.445 -12.833  1.00  0.00     0.053 C 
BRANCH   5   6
ATOM      6  C   UNL     1      26.884  23.169 -13.437  1.00  0.00     0.041 C 
ATOM      7  O   UNL     1      26.566  23.126 -14.655  1.00  0.00    -0.550 OA
ATOM      8  O   UNL     1      26.821  22.014 -12.668  1.00  0.00    -0.550 OA
ENDBRANCH   5   6
ENDBRANCH   4   5
ENDBRANCH   3   4
ENDBRANCH   2   3
ENDBRANCH   1   2
BRANCH   1   9
ATOM      9  C   UNL     1      26.790  29.424 -14.121  1.00  0.00     0.000 C 
BRANCH   9  10
ATOM     10  C   UNL     1      27.466  30.545 -13.313  1.00  0.00    -0.000 C 
BRANCH  10  11
ATOM     11  C   UNL     1      28.938  30.239 -12.979  1.00  0.00    -0.000 C 
BRANCH  11  12
ATOM     12  C   UNL     1      29.251  30.058 -11.480  1.00  0.00    -0.000 C 
BRANCH  12  13
ATOM     13  C   UNL     1      28.132  30.506 -10.522  1.00  0.00    -0.003 C 
ATOM     14  C   UNL     1      27.569  29.357  -9.687  1.00  0.00     0.004 C 
ENDBRANCH  12  13
ENDBRANCH  11  12
ENDBRANCH  10  11
ENDBRANCH   9  10
ENDBRANCH   1   9
TORSDOF 10
ENDMDL
MODEL 8
REMARK VINA RESULT:    -3.342      1.313      1.944
REMARK INTER + INTRA:          -6.868
REMARK INTER:                  -5.472
REMARK INTRA:                  -1.396
REMARK UNBOUND:                -1.573
REMARK SMILES CCCCCCCCCCCC(=O)[O-]
REMARK SMILES IDX 7 1 8 2 9 3 10 4 11 5 12 6 13 7 14 8 6 9 5 10 4 11 3 12 2 13
REMARK SMILES IDX 1 14
REMARK H PARENT
REMARK Flexibility Score: inf
ROOT
ATOM      1  C   UNL     1      24.645  28.146 -14.682  1.00  0.00     0.000 C 
ENDROOT
BRANCH   1   2
ATOM      2  C   UNL     1      26.152  28.394 -14.495  1.00  0.00     0.000 C 
BRANCH   2   3
ATOM      3  C   UNL     1      26.605  29.762 -15.028  1.00  0.00     0.000 C 
BRANCH   3   4
ATOM      4  C   UNL     1      27.435  30.513 -13.979  1.00  0.00     0.006 C 
BRANCH   4   5
ATOM      5  C   UNL     1      27.132  30.001 -12.569  1.00  0.00     0.053 C 
BRANCH   5   6
ATOM      6  C   UNL     1      28.282  30.274 -11.653  1.00  0.00     0.041 C 
ATOM      7  O   UNL     1      28.074  30.618 -10.459  1.00  0.00    -0.550 OA
ATOM      8  O   UNL     1      29.585  30.100 -12.101  1.00  0.00    -0.550 OA
ENDBRANCH   5   6
ENDBRANCH   4   5
ENDBRANCH   3   4
ENDBRANCH   2   3
ENDBRANCH   1   2
BRANCH   1   9
ATOM      9  C   UNL     1      23.720  29.087 -13.889  1.00  0.00     0.000 C 
BRANCH   9  10
ATOM     10  C   UNL     1      22.614  29.712 -14.755  1.00  0.00    -0.000 C 
BRANCH  10  11
ATOM     11  C   UNL     1      22.520  31.241 -14.597  1.00  0.00    -0.000 C 
BRANCH  11  12
ATOM     12  C   UNL     1      23.601  32.050 -15.343  1.00  0.00    -0.000 C 
BRANCH  12  13
ATOM     13  C   UNL     1      24.612  32.776 -14.438  1.00  0.00    -0.003 C 
ATOM     14  C   UNL     1      24.302  32.613 -12.950  1.00  0.00     0.004 C 
ENDBRANCH  12  13
ENDBRANCH  11  12
ENDBRANCH  10  11
ENDBRANCH   9  10
ENDBRANCH   1   9
TORSDOF 10
ENDMDL
MODEL 9
REMARK VINA RESULT:    -3.304      1.264      3.291
REMARK INTER + INTRA:          -6.808
REMARK INTER:                  -5.475
REMARK INTRA:                  -1.333
REMARK UNBOUND:                -1.573
REMARK SMILES CCCCCCCCCCCC(=O)[O-]
REMARK SMILES IDX 7 1 8 2 9 3 10 4 11 5 12 6 13 7 14 8 6 9 5 10 4 11 3 12 2 13
REMARK SMILES IDX 1 14
REMARK H PARENT
REMARK Flexibility Score: inf
ROOT
ATOM      1  C   UNL     1      23.424  31.427 -11.877  1.00  0.00     0.000 C 
ENDROOT
BRANCH   1   2
ATOM      2  C   UNL     1      24.069  30.448 -10.880  1.00  0.00     0.000 C 
BRANCH   2   3
ATOM      3  C   UNL     1      25.076  29.494 -11.541  1.00  0.00     0.000 C 
BRANCH   3   4
ATOM      4  C   UNL     1      26.512  29.841 -11.129  1.00  0.00     0.006 C 
BRANCH   4   5
ATOM      5  C   UNL     1      27.529  29.100 -12.002  1.00  0.00     0.053 C 
BRANCH   5   6
ATOM      6  C   UNL     1      28.719  29.965 -12.271  1.00  0.00     0.041 C 
ATOM      7  O   UNL     1      28.807  30.604 -13.351  1.00  0.00    -0.550 OA
ATOM      8  O   UNL     1      29.708  30.105 -11.306  1.00  0.00    -0.550 OA
ENDBRANCH   5   6
ENDBRANCH   4   5
ENDBRANCH   3   4
ENDBRANCH   2   3
ENDBRANCH   1   2
BRANCH   1   9
ATOM      9  C   UNL     1      24.352  32.540 -12.398  1.00  0.00     0.000 C 
BRANCH   9  10
ATOM     10  C   UNL     1      24.443  32.576 -13.933  1.00  0.00    -0.000 C 
BRANCH  10  11
ATOM     11  C   UNL     1      25.572  31.688 -14.488  1.00  0.00    -0.000 C 
BRANCH  11  12
ATOM     12  C   UNL     1      25.129  30.309 -15.018  1.00  0.00    -0.000 C 
BRANCH  12  13
ATOM     13  C   UNL     1      26.276  29.369 -15.428  1.00  0.00    -0.003 C 
ATOM     14  C   UNL     1      25.942  27.894 -15.211  1.00  0.00     0.004 C 
ENDBRANCH  12  13
ENDBRANCH  11  12
ENDBRANCH  10  11
ENDBRANCH   9  10
ENDBRANCH   1   9
TORSDOF 10
ENDMDL
