MODEL 1
REMARK VINA RESULT:    -5.221      0.000      0.000
REMARK INTER + INTRA:          -5.602
REMARK INTER:                  -5.679
REMARK INTRA:                   0.077
REMARK UNBOUND:                 0.077
REMARK SMILES C=C(C)[C@H]1CC[C@H](C)C[C@H]1O
REMARK SMILES IDX 8 1 7 2 6 3 5 4 4 5 10 6 9 7 11 8 2 10 1 11 3 12
REMARK H PARENT 11 9
REMARK Flexibility Score: inf
ROOT
ATOM      1  C   UNL     1      -1.816  16.944  46.453  1.00  0.00     0.008 C 
ATOM      2  C   UNL     1      -2.691  18.191  46.626  1.00  0.00    -0.012 C 
ATOM      3  C   UNL     1      -3.472  18.122  47.953  1.00  0.00     0.004 C 
ATOM      4  C   UNL     1      -4.330  19.377  48.157  1.00  0.00     0.011 C 
ATOM      5  C   UNL     1      -3.460  20.650  48.099  1.00  0.00     0.043 C 
ATOM      6  C   UNL     1      -2.679  20.738  46.767  1.00  0.00     0.121 C 
ATOM      7  C   UNL     1      -1.828  19.469  46.567  1.00  0.00     0.035 C 
ENDROOT
BRANCH   6   8
ATOM      8  O   UNL     1      -3.559  20.898  45.683  1.00  0.00    -0.392 OA
ATOM      9  H   UNL     1      -3.013  20.832  44.857  1.00  0.00     0.210 HD
ENDBRANCH   6   8
BRANCH   5  10
ATOM     10  C   UNL     1      -4.267  21.915  48.379  1.00  0.00    -0.075 C 
ATOM     11  C   UNL     1      -5.450  22.146  47.783  1.00  0.00     0.008 C 
ATOM     12  C   UNL     1      -3.745  22.941  49.351  1.00  0.00     0.039 C 
ENDBRANCH   5  10
TORSDOF 2
ENDMDL
MODEL 2
REMARK VINA RESULT:    -5.031      1.525      2.123
REMARK INTER + INTRA:          -5.396
REMARK INTER:                  -5.204
REMARK INTRA:                  -0.192
REMARK UNBOUND:                 0.077
REMARK SMILES C=C(C)[C@H]1CC[C@H](C)C[C@H]1O
REMARK SMILES IDX 8 1 7 2 6 3 5 4 4 5 10 6 9 7 11 8 2 10 1 11 3 12
REMARK H PARENT 11 9
REMARK Flexibility Score: inf
ROOT
ATOM      1  C   UNL     1      -2.352  16.950  47.110  1.00  0.00     0.008 C 
ATOM      2  C   UNL     1      -2.562  18.446  47.371  1.00  0.00    -0.012 C 
ATOM      3  C   UNL     1      -2.727  19.208  46.041  1.00  0.00     0.004 C 
ATOM      4  C   UNL     1      -2.969  20.703  46.285  1.00  0.00     0.011 C 
ATOM      5  C   UNL     1      -4.197  20.917  47.196  1.00  0.00     0.043 C 
ATOM      6  C   UNL     1      -4.039  20.166  48.539  1.00  0.00     0.121 C 
ATOM      7  C   UNL     1      -3.787  18.668  48.283  1.00  0.00     0.035 C 
ENDROOT
BRANCH   6   8
ATOM      8  O   UNL     1      -2.982  20.707  49.290  1.00  0.00    -0.392 OA
ATOM      9  H   UNL     1      -3.169  21.675  49.396  1.00  0.00     0.210 HD
ENDBRANCH   6   8
BRANCH   5  10
ATOM     10  C   UNL     1      -4.518  22.395  47.395  1.00  0.00    -0.075 C 
ATOM     11  C   UNL     1      -5.633  22.798  48.030  1.00  0.00     0.008 C 
ATOM     12  C   UNL     1      -3.570  23.447  46.880  1.00  0.00     0.039 C 
ENDBRANCH   5  10
TORSDOF 2
ENDMDL
MODEL 3
REMARK VINA RESULT:    -5.006      1.455      4.630
REMARK INTER + INTRA:          -5.368
REMARK INTER:                  -5.251
REMARK INTRA:                  -0.117
REMARK UNBOUND:                 0.077
REMARK SMILES C=C(C)[C@H]1CC[C@H](C)C[C@H]1O
REMARK SMILES IDX 8 1 7 2 6 3 5 4 4 5 10 6 9 7 11 8 2 10 1 11 3 12
REMARK H PARENT 11 9
REMARK Flexibility Score: inf
ROOT
ATOM      1  C   UNL     1      -5.722  24.911  48.787  1.00  0.00     0.008 C 
ATOM      2  C   UNL     1      -4.882  23.700  48.362  1.00  0.00    -0.012 C 
ATOM      3  C   UNL     1      -3.982  23.234  49.523  1.00  0.00     0.004 C 
ATOM      4  C   UNL     1      -3.157  22.004  49.124  1.00  0.00     0.011 C 
ATOM      5  C   UNL     1      -4.076  20.859  48.648  1.00  0.00     0.043 C 
ATOM      6  C   UNL     1      -4.977  21.311  47.476  1.00  0.00     0.121 C 
ATOM      7  C   UNL     1      -5.795  22.552  47.882  1.00  0.00     0.035 C 
ENDROOT
BRANCH   6   8
ATOM      8  O   UNL     1      -4.205  21.600  46.337  1.00  0.00    -0.392 OA
ATOM      9  H   UNL     1      -4.063  22.582  46.327  1.00  0.00     0.210 HD
ENDBRANCH   6   8
BRANCH   5  10
ATOM     10  C   UNL     1      -3.295  19.590  48.321  1.00  0.00    -0.075 C 
ATOM     11  C   UNL     1      -3.831  18.367  48.483  1.00  0.00     0.008 C 
ATOM     12  C   UNL     1      -1.886  19.687  47.794  1.00  0.00     0.039 C 
ENDBRANCH   5  10
TORSDOF 2
ENDMDL
MODEL 4
REMARK VINA RESULT:    -4.982      4.242      6.093
REMARK INTER + INTRA:          -5.342
REMARK INTER:                  -5.170
REMARK INTRA:                  -0.172
REMARK UNBOUND:                 0.077
REMARK SMILES C=C(C)[C@H]1CC[C@H](C)C[C@H]1O
REMARK SMILES IDX 8 1 7 2 6 3 5 4 4 5 10 6 9 7 11 8 2 10 1 11 3 12
REMARK H PARENT 11 9
REMARK Flexibility Score: inf
ROOT
ATOM      1  C   UNL     1      -5.375  22.411  47.534  1.00  0.00     0.008 C 
ATOM      2  C   UNL     1      -5.409  23.297  48.785  1.00  0.00    -0.012 C 
ATOM      3  C   UNL     1      -4.123  23.110  49.614  1.00  0.00     0.004 C 
ATOM      4  C   UNL     1      -4.127  24.012  50.854  1.00  0.00     0.011 C 
ATOM      5  C   UNL     1      -4.311  25.492  50.454  1.00  0.00     0.043 C 
ATOM      6  C   UNL     1      -5.604  25.695  49.631  1.00  0.00     0.121 C 
ATOM      7  C   UNL     1      -5.595  24.778  48.393  1.00  0.00     0.035 C 
ENDROOT
BRANCH   6   8
ATOM      8  O   UNL     1      -6.740  25.429  50.414  1.00  0.00    -0.392 OA
ATOM      9  H   UNL     1      -6.858  26.204  51.022  1.00  0.00     0.210 HD
ENDBRANCH   6   8
BRANCH   5  10
ATOM     10  C   UNL     1      -4.238  26.429  51.656  1.00  0.00    -0.075 C 
ATOM     11  C   UNL     1      -4.407  27.757  51.529  1.00  0.00     0.008 C 
ATOM     12  C   UNL     1      -3.976  25.870  53.031  1.00  0.00     0.039 C 
ENDBRANCH   5  10
TORSDOF 2
ENDMDL
MODEL 5
REMARK VINA RESULT:    -4.840      1.474      4.516
REMARK INTER + INTRA:          -5.188
REMARK INTER:                  -5.086
REMARK INTRA:                  -0.101
REMARK UNBOUND:                 0.077
REMARK SMILES C=C(C)[C@H]1CC[C@H](C)C[C@H]1O
REMARK SMILES IDX 8 1 7 2 6 3 5 4 4 5 10 6 9 7 11 8 2 10 1 11 3 12
REMARK H PARENT 11 9
REMARK Flexibility Score: inf
ROOT
ATOM      1  C   UNL     1      -4.765  23.131  47.624  1.00  0.00     0.008 C 
ATOM      2  C   UNL     1      -4.478  21.670  47.260  1.00  0.00    -0.012 C 
ATOM      3  C   UNL     1      -3.242  21.575  46.344  1.00  0.00     0.004 C 
ATOM      4  C   UNL     1      -2.922  20.116  45.994  1.00  0.00     0.011 C 
ATOM      5  C   UNL     1      -2.722  19.277  47.274  1.00  0.00     0.043 C 
ATOM      6  C   UNL     1      -3.960  19.355  48.197  1.00  0.00     0.121 C 
ATOM      7  C   UNL     1      -4.278  20.825  48.535  1.00  0.00     0.035 C 
ENDROOT
BRANCH   6   8
ATOM      8  O   UNL     1      -5.074  18.753  47.588  1.00  0.00    -0.392 OA
ATOM      9  H   UNL     1      -4.774  17.870  47.248  1.00  0.00     0.210 HD
ENDBRANCH   6   8
BRANCH   5  10
ATOM     10  C   UNL     1      -2.321  17.838  46.965  1.00  0.00    -0.075 C 
ATOM     11  C   UNL     1      -2.358  16.876  47.904  1.00  0.00     0.008 C 
ATOM     12  C   UNL     1      -1.877  17.462  45.575  1.00  0.00     0.039 C 
ENDBRANCH   5  10
TORSDOF 2
ENDMDL
MODEL 6
REMARK VINA RESULT:    -4.836      2.499      3.725
REMARK INTER + INTRA:          -5.184
REMARK INTER:                  -4.990
REMARK INTRA:                  -0.194
REMARK UNBOUND:                 0.077
REMARK SMILES C=C(C)[C@H]1CC[C@H](C)C[C@H]1O
REMARK SMILES IDX 8 1 7 2 6 3 5 4 4 5 10 6 9 7 11 8 2 10 1 11 3 12
REMARK H PARENT 11 9
REMARK Flexibility Score: inf
ROOT
ATOM      1  C   UNL     1      -3.113  20.703  46.307  1.00  0.00     0.008 C 
ATOM      2  C   UNL     1      -3.530  21.929  47.129  1.00  0.00    -0.012 C 
ATOM      3  C   UNL     1      -5.039  21.883  47.438  1.00  0.00     0.004 C 
ATOM      4  C   UNL     1      -5.468  23.087  48.286  1.00  0.00     0.011 C 
ATOM      5  C   UNL     1      -4.644  23.161  49.589  1.00  0.00     0.043 C 
ATOM      6  C   UNL     1      -3.127  23.218  49.292  1.00  0.00     0.121 C 
ATOM      7  C   UNL     1      -2.708  22.010  48.432  1.00  0.00     0.035 C 
ENDROOT
BRANCH   6   8
ATOM      8  O   UNL     1      -2.794  24.413  48.632  1.00  0.00    -0.392 OA
ATOM      9  H   UNL     1      -3.646  24.822  48.328  1.00  0.00     0.210 HD
ENDBRANCH   6   8
BRANCH   5  10
ATOM     10  C   UNL     1      -5.099  24.299  50.497  1.00  0.00    -0.075 C 
ATOM     11  C   UNL     1      -6.081  25.144  50.135  1.00  0.00     0.008 C 
ATOM     12  C   UNL     1      -4.447  24.496  51.841  1.00  0.00     0.039 C 
ENDBRANCH   5  10
TORSDOF 2
ENDMDL
MODEL 7
REMARK VINA RESULT:    -4.752      4.460      6.236
REMARK INTER + INTRA:          -5.091
REMARK INTER:                  -4.949
REMARK INTRA:                  -0.143
REMARK UNBOUND:                 0.077
REMARK SMILES C=C(C)[C@H]1CC[C@H](C)C[C@H]1O
REMARK SMILES IDX 8 1 7 2 6 3 5 4 4 5 10 6 9 7 11 8 2 10 1 11 3 12
REMARK H PARENT 11 9
REMARK Flexibility Score: inf
ROOT
ATOM      1  C   UNL     1      -5.408  22.951  48.074  1.00  0.00     0.008 C 
ATOM      2  C   UNL     1      -4.738  23.905  49.070  1.00  0.00    -0.012 C 
ATOM      3  C   UNL     1      -5.765  24.418  50.099  1.00  0.00     0.004 C 
ATOM      4  C   UNL     1      -5.105  25.350  51.123  1.00  0.00     0.011 C 
ATOM      5  C   UNL     1      -3.928  24.643  51.828  1.00  0.00     0.043 C 
ATOM      6  C   UNL     1      -2.884  24.133  50.807  1.00  0.00     0.121 C 
ATOM      7  C   UNL     1      -3.559  23.205  49.778  1.00  0.00     0.035 C 
ENDROOT
BRANCH   6   8
ATOM      8  O   UNL     1      -2.266  25.209  50.147  1.00  0.00    -0.392 OA
ATOM      9  H   UNL     1      -1.912  24.855  49.290  1.00  0.00     0.210 HD
ENDBRANCH   6   8
BRANCH   5  10
ATOM     10  C   UNL     1      -3.297  25.512  52.912  1.00  0.00    -0.075 C 
ATOM     11  C   UNL     1      -3.892  26.635  53.354  1.00  0.00     0.008 C 
ATOM     12  C   UNL     1      -1.977  25.116  53.522  1.00  0.00     0.039 C 
ENDBRANCH   5  10
TORSDOF 2
ENDMDL
MODEL 8
REMARK VINA RESULT:    -4.648      1.829      4.697
REMARK INTER + INTRA:          -4.978
REMARK INTER:                  -4.785
REMARK INTRA:                  -0.193
REMARK UNBOUND:                 0.077
REMARK SMILES C=C(C)[C@H]1CC[C@H](C)C[C@H]1O
REMARK SMILES IDX 8 1 7 2 6 3 5 4 4 5 10 6 9 7 11 8 2 10 1 11 3 12
REMARK H PARENT 11 9
REMARK Flexibility Score: inf
ROOT
ATOM      1  C   UNL     1      -5.966  24.724  48.894  1.00  0.00     0.008 C 
ATOM      2  C   UNL     1      -5.153  23.426  48.838  1.00  0.00    -0.012 C 
ATOM      3  C   UNL     1      -5.740  22.466  47.785  1.00  0.00     0.004 C 
ATOM      4  C   UNL     1      -4.920  21.173  47.693  1.00  0.00     0.011 C 
ATOM      5  C   UNL     1      -3.440  21.485  47.386  1.00  0.00     0.043 C 
ATOM      6  C   UNL     1      -2.835  22.438  48.442  1.00  0.00     0.121 C 
ATOM      7  C   UNL     1      -3.671  23.730  48.533  1.00  0.00     0.035 C 
ENDROOT
BRANCH   6   8
ATOM      8  O   UNL     1      -2.779  21.817  49.701  1.00  0.00    -0.392 OA
ATOM      9  H   UNL     1      -3.502  22.216  50.252  1.00  0.00     0.210 HD
ENDBRANCH   6   8
BRANCH   5  10
ATOM     10  C   UNL     1      -2.608  20.218  47.207  1.00  0.00    -0.075 C 
ATOM     11  C   UNL     1      -3.112  18.998  47.466  1.00  0.00     0.008 C 
ATOM     12  C   UNL     1      -1.184  20.315  46.722  1.00  0.00     0.039 C 
ENDBRANCH   5  10
TORSDOF 2
ENDMDL
MODEL 9
REMARK VINA RESULT:    -4.561      1.410      4.173
REMARK INTER + INTRA:          -4.884
REMARK INTER:                  -4.693
REMARK INTRA:                  -0.191
REMARK UNBOUND:                 0.077
REMARK SMILES C=C(C)[C@H]1CC[C@H](C)C[C@H]1O
REMARK SMILES IDX 8 1 7 2 6 3 5 4 4 5 10 6 9 7 11 8 2 10 1 11 3 12
REMARK H PARENT 11 9
REMARK Flexibility Score: inf
ROOT
ATOM      1  C   UNL     1      -4.345  23.293  46.986  1.00  0.00     0.008 C 
ATOM      2  C   UNL     1      -3.660  21.998  47.438  1.00  0.00    -0.012 C 
ATOM      3  C   UNL     1      -4.676  21.058  48.115  1.00  0.00     0.004 C 
ATOM      4  C   UNL     1      -4.014  19.744  48.547  1.00  0.00     0.011 C 
ATOM      5  C   UNL     1      -3.341  19.049  47.345  1.00  0.00     0.043 C 
ATOM      6  C   UNL     1      -2.310  19.978  46.662  1.00  0.00     0.121 C 
ATOM      7  C   UNL     1      -2.983  21.298  46.241  1.00  0.00     0.035 C 
ENDROOT
BRANCH   6   8
ATOM      8  O   UNL     1      -1.233  20.245  47.525  1.00  0.00    -0.392 OA
ATOM      9  H   UNL     1      -0.605  19.481  47.446  1.00  0.00     0.210 HD
ENDBRANCH   6   8
BRANCH   5  10
ATOM     10  C   UNL     1      -2.741  17.697  47.720  1.00  0.00    -0.075 C 
ATOM     11  C   UNL     1      -2.834  17.203  48.968  1.00  0.00     0.008 C 
ATOM     12  C   UNL     1      -2.027  16.875  46.678  1.00  0.00     0.039 C 
ENDBRANCH   5  10
TORSDOF 2
ENDMDL
