MODEL 1
REMARK VINA RESULT:    -2.126      0.000      0.000
REMARK INTER + INTRA:          -2.363
REMARK INTER:                  -2.623
REMARK INTRA:                   0.260
REMARK UNBOUND:                 0.260
REMARK SMILES C=C1[C@@H]2CC[C@H]3[C@H]2C(C)(C)CCC[C@@]13C
REMARK SMILES IDX 14 1 6 2 7 3 3 4 2 5 1 6 4 7 5 8 15 9 8 10 9 11 10 12 11 13
REMARK SMILES IDX 13 15 12 16
REMARK H PARENT
REMARK Flexibility Score: 80.00
ROOT
ATOM      1  C   UNL     1     163.003 158.692 139.440  1.00  0.00    -0.008 C 
ATOM      2  C   UNL     1     163.670 157.521 140.158  1.00  0.00     0.003 C 
ATOM      3  C   UNL     1     165.114 157.802 139.714  1.00  0.00     0.006 C 
ATOM      4  C   UNL     1     164.839 157.490 138.251  1.00  0.00     0.019 C 
ATOM      5  C   UNL     1     163.659 158.473 138.063  1.00  0.00    -0.068 C 
ATOM      6  C   UNL     1     163.330 159.080 136.919  1.00  0.00     0.009 C 
ATOM      7  C   UNL     1     164.251 156.089 138.289  1.00  0.00     0.008 C 
ATOM      8  C   UNL     1     163.394 156.121 139.554  1.00  0.00     0.005 C 
ATOM      9  C   UNL     1     161.468 158.579 139.391  1.00  0.00     0.016 C 
ENDROOT
BRANCH   3  10
ATOM     10  C   UNL     1     166.072 157.923 140.919  1.00  0.00    -0.032 C 
ATOM     11  C   UNL     1     165.959 156.728 141.897  1.00  0.00     0.011 C 
ATOM     12  C   UNL     1     167.535 157.961 140.413  1.00  0.00     0.011 C 
BRANCH  10  13
ATOM     13  C   UNL     1     165.708 159.300 141.656  1.00  0.00     0.007 CG0
ATOM     14  G   UNL     1     164.221 159.869 141.573  1.00  0.00     0.000 G0
ENDBRANCH  10  13
ENDBRANCH   3  10
BRANCH   1  15
ATOM     15  C   UNL     1     163.474 160.033 140.183  1.00  0.00     0.011 C 
BRANCH  15  16
ATOM     16  C   UNL     1     164.221 159.879 141.586  1.00  0.00     0.001 CG0
ATOM     17  G   UNL     1     165.703 159.298 141.666  1.00  0.00     0.000 G0
ENDBRANCH  15  16
ENDBRANCH   1  15
TORSDOF 0
ENDMDL
MODEL 2
REMARK VINA RESULT:    -2.085     14.577     16.319
REMARK INTER + INTRA:          -2.312
REMARK INTER:                  -2.559
REMARK INTRA:                   0.247
REMARK UNBOUND:                 0.260
REMARK SMILES C=C1[C@@H]2CC[C@H]3[C@H]2C(C)(C)CCC[C@@]13C
REMARK SMILES IDX 14 1 6 2 7 3 3 4 2 5 1 6 4 7 5 8 15 9 8 10 9 11 10 12 11 13
REMARK SMILES IDX 13 15 12 16
REMARK H PARENT
REMARK Flexibility Score: 80.00
ROOT
ATOM      1  C   UNL     1     168.882 173.451 139.508  1.00  0.00    -0.008 C 
ATOM      2  C   UNL     1     168.256 174.635 140.240  1.00  0.00     0.003 C 
ATOM      3  C   UNL     1     166.797 174.387 139.824  1.00  0.00     0.006 C 
ATOM      4  C   UNL     1     167.050 174.695 138.357  1.00  0.00     0.019 C 
ATOM      5  C   UNL     1     168.204 173.687 138.144  1.00  0.00    -0.068 C 
ATOM      6  C   UNL     1     168.497 173.075 136.993  1.00  0.00     0.009 C 
ATOM      7  C   UNL     1     167.669 176.083 138.385  1.00  0.00     0.008 C 
ATOM      8  C   UNL     1     168.550 176.030 139.633  1.00  0.00     0.005 C 
ATOM      9  C   UNL     1     170.418 173.531 139.428  1.00  0.00     0.016 C 
ENDROOT
BRANCH   3  10
ATOM     10  C   UNL     1     165.861 174.285 141.048  1.00  0.00    -0.032 C 
ATOM     11  C   UNL     1     166.006 175.485 142.016  1.00  0.00     0.011 C 
ATOM     12  C   UNL     1     164.388 174.259 140.570  1.00  0.00     0.011 C 
BRANCH  10  13
ATOM     13  C   UNL     1     166.223 172.909 141.787  1.00  0.00     0.007 CG0
ATOM     14  G   UNL     1     167.693 172.306 141.655  1.00  0.00     0.000 G0
ENDBRANCH  10  13
ENDBRANCH   3  10
BRANCH   1  15
ATOM     15  C   UNL     1     168.397 172.120 140.258  1.00  0.00     0.011 C 
BRANCH  15  16
ATOM     16  C   UNL     1     167.685 172.287 141.678  1.00  0.00     0.001 CG0
ATOM     17  G   UNL     1     166.226 172.920 141.793  1.00  0.00     0.000 G0
ENDBRANCH  15  16
ENDBRANCH   1  15
TORSDOF 0
ENDMDL
MODEL 3
REMARK VINA RESULT:    -1.940      1.604      3.290
REMARK INTER + INTRA:          -2.133
REMARK INTER:                  -2.394
REMARK INTRA:                   0.261
REMARK UNBOUND:                 0.260
REMARK SMILES C=C1[C@@H]2CC[C@H]3[C@H]2C(C)(C)CCC[C@@]13C
REMARK SMILES IDX 14 1 6 2 7 3 3 4 2 5 1 6 4 7 5 8 15 9 8 10 9 11 10 12 11 13
REMARK SMILES IDX 13 15 12 16
REMARK H PARENT
REMARK Flexibility Score: 80.00
ROOT
ATOM      1  C   UNL     1     163.689 158.238 138.597  1.00  0.00    -0.008 C 
ATOM      2  C   UNL     1     164.888 158.893 139.278  1.00  0.00     0.003 C 
ATOM      3  C   UNL     1     164.632 158.364 140.699  1.00  0.00     0.006 C 
ATOM      4  C   UNL     1     163.359 159.174 140.886  1.00  0.00     0.019 C 
ATOM      5  C   UNL     1     162.623 158.672 139.621  1.00  0.00    -0.068 C 
ATOM      6  C   UNL     1     161.298 158.564 139.485  1.00  0.00     0.009 C 
ATOM      7  C   UNL     1     163.799 160.602 140.611  1.00  0.00     0.008 C 
ATOM      8  C   UNL     1     164.795 160.428 139.465  1.00  0.00     0.005 C 
ATOM      9  C   UNL     1     163.417 158.791 137.185  1.00  0.00     0.016 C 
ENDROOT
BRANCH   3  10
ATOM     10  C   UNL     1     165.859 157.614 141.261  1.00  0.00    -0.032 C 
ATOM     11  C   UNL     1     167.170 158.429 141.136  1.00  0.00     0.011 C 
ATOM     12  C   UNL     1     165.642 157.327 142.767  1.00  0.00     0.011 C 
BRANCH  10  13
ATOM     13  C   UNL     1     165.964 156.236 140.448  1.00  0.00     0.007 CG0
ATOM     14  G   UNL     1     165.440 156.165 138.944  1.00  0.00     0.000 G0
ENDBRANCH  10  13
ENDBRANCH   3  10
BRANCH   1  15
ATOM     15  C   UNL     1     163.965 156.659 138.569  1.00  0.00     0.011 C 
BRANCH  15  16
ATOM     16  C   UNL     1     165.437 156.157 138.937  1.00  0.00     0.001 CG0
ATOM     17  G   UNL     1     165.981 156.242 140.433  1.00  0.00     0.000 G0
ENDBRANCH  15  16
ENDBRANCH   1  15
TORSDOF 0
ENDMDL
MODEL 4
REMARK VINA RESULT:    -1.902     13.714     15.290
REMARK INTER + INTRA:          -2.087
REMARK INTER:                  -2.339
REMARK INTRA:                   0.252
REMARK UNBOUND:                 0.260
REMARK SMILES C=C1[C@@H]2CC[C@H]3[C@H]2C(C)(C)CCC[C@@]13C
REMARK SMILES IDX 14 1 6 2 7 3 3 4 2 5 1 6 4 7 5 8 15 9 8 10 9 11 10 12 11 13
REMARK SMILES IDX 13 15 12 16
REMARK H PARENT
REMARK Flexibility Score: 80.00
ROOT
ATOM      1  C   UNL     1     166.669 173.122 139.344  1.00  0.00    -0.008 C 
ATOM      2  C   UNL     1     167.756 173.437 138.320  1.00  0.00     0.003 C 
ATOM      3  C   UNL     1     168.959 172.936 139.135  1.00  0.00     0.006 C 
ATOM      4  C   UNL     1     168.837 174.025 140.188  1.00  0.00     0.019 C 
ATOM      5  C   UNL     1     167.358 173.766 140.562  1.00  0.00    -0.068 C 
ATOM      6  C   UNL     1     166.809 173.992 141.760  1.00  0.00     0.009 C 
ATOM      7  C   UNL     1     168.875 175.311 139.379  1.00  0.00     0.008 C 
ATOM      8  C   UNL     1     168.079 174.940 138.127  1.00  0.00     0.005 C 
ATOM      9  C   UNL     1     165.315 173.777 139.012  1.00  0.00     0.016 C 
ENDROOT
BRANCH   3  10
ATOM     10  C   UNL     1     169.782 171.887 138.356  1.00  0.00    -0.032 C 
ATOM     11  C   UNL     1     170.160 172.358 136.930  1.00  0.00     0.011 C 
ATOM     12  C   UNL     1     171.106 171.607 139.110  1.00  0.00     0.011 C 
BRANCH  10  13
ATOM     13  C   UNL     1     168.890 170.556 138.298  1.00  0.00     0.007 CG0
ATOM     14  G   UNL     1     167.300 170.672 138.293  1.00  0.00     0.000 G0
ENDBRANCH  10  13
ENDBRANCH   3  10
BRANCH   1  15
ATOM     15  C   UNL     1     166.548 171.525 139.430  1.00  0.00     0.011 C 
BRANCH  15  16
ATOM     16  C   UNL     1     167.288 170.665 138.306  1.00  0.00     0.001 CG0
ATOM     17  G   UNL     1     168.877 170.544 138.281  1.00  0.00     0.000 G0
ENDBRANCH  15  16
ENDBRANCH   1  15
TORSDOF 0
ENDMDL
MODEL 5
REMARK VINA RESULT:    -1.882     14.417     15.988
REMARK INTER + INTRA:          -2.061
REMARK INTER:                  -2.311
REMARK INTRA:                   0.249
REMARK UNBOUND:                 0.260
REMARK SMILES C=C1[C@@H]2CC[C@H]3[C@H]2C(C)(C)CCC[C@@]13C
REMARK SMILES IDX 14 1 6 2 7 3 3 4 2 5 1 6 4 7 5 8 15 9 8 10 9 11 10 12 11 13
REMARK SMILES IDX 13 15 12 16
REMARK H PARENT
REMARK Flexibility Score: 80.00
ROOT
ATOM      1  C   UNL     1     166.391 174.739 140.345  1.00  0.00    -0.008 C 
ATOM      2  C   UNL     1     167.737 174.088 140.650  1.00  0.00     0.003 C 
ATOM      3  C   UNL     1     167.576 172.850 139.753  1.00  0.00     0.006 C 
ATOM      4  C   UNL     1     166.454 172.256 140.590  1.00  0.00     0.019 C 
ATOM      5  C   UNL     1     165.518 173.488 140.558  1.00  0.00    -0.068 C 
ATOM      6  C   UNL     1     164.183 173.450 140.624  1.00  0.00     0.009 C 
ATOM      7  C   UNL     1     167.050 172.183 141.986  1.00  0.00     0.008 C 
ATOM      8  C   UNL     1     167.876 173.467 142.063  1.00  0.00     0.005 C 
ATOM      9  C   UNL     1     166.037 175.883 141.314  1.00  0.00     0.016 C 
ENDROOT
BRANCH   3  10
ATOM     10  C   UNL     1     168.745 172.709 138.754  1.00  0.00    -0.032 C 
ATOM     11  C   UNL     1     170.132 172.780 139.440  1.00  0.00     0.011 C 
ATOM     12  C   UNL     1     168.656 171.334 138.047  1.00  0.00     0.011 C 
BRANCH  10  13
ATOM     13  C   UNL     1     168.577 173.890 137.683  1.00  0.00     0.007 CG0
ATOM     14  G   UNL     1     167.875 175.254 138.117  1.00  0.00     0.000 G0
ENDBRANCH  10  13
ENDBRANCH   3  10
BRANCH   1  15
ATOM     15  C   UNL     1     166.445 175.248 138.825  1.00  0.00     0.011 C 
BRANCH  15  16
ATOM     16  C   UNL     1     167.867 175.263 138.099  1.00  0.00     0.001 CG0
ATOM     17  G   UNL     1     168.595 173.904 137.694  1.00  0.00     0.000 G0
ENDBRANCH  15  16
ENDBRANCH   1  15
TORSDOF 0
ENDMDL
MODEL 6
REMARK VINA RESULT:    -1.840      1.467      2.546
REMARK INTER + INTRA:          -2.010
REMARK INTER:                  -2.271
REMARK INTRA:                   0.261
REMARK UNBOUND:                 0.260
REMARK SMILES C=C1[C@@H]2CC[C@H]3[C@H]2C(C)(C)CCC[C@@]13C
REMARK SMILES IDX 14 1 6 2 7 3 3 4 2 5 1 6 4 7 5 8 15 9 8 10 9 11 10 12 11 13
REMARK SMILES IDX 13 15 12 16
REMARK H PARENT
REMARK Flexibility Score: 80.00
ROOT
ATOM      1  C   UNL     1     163.517 160.553 139.747  1.00  0.00    -0.008 C 
ATOM      2  C   UNL     1     162.962 159.218 139.258  1.00  0.00     0.003 C 
ATOM      3  C   UNL     1     164.304 158.547 138.922  1.00  0.00     0.006 C 
ATOM      4  C   UNL     1     164.610 159.491 137.771  1.00  0.00     0.019 C 
ATOM      5  C   UNL     1     164.467 160.813 138.562  1.00  0.00    -0.068 C 
ATOM      6  C   UNL     1     165.121 161.949 138.301  1.00  0.00     0.009 C 
ATOM      7  C   UNL     1     163.388 159.372 136.875  1.00  0.00     0.008 C 
ATOM      8  C   UNL     1     162.246 159.253 137.885  1.00  0.00     0.005 C 
ATOM      9  C   UNL     1     162.438 161.642 139.893  1.00  0.00     0.016 C 
ENDROOT
BRANCH   3  10
ATOM     10  C   UNL     1     164.466 157.194 139.648  1.00  0.00    -0.032 C 
ATOM     11  C   UNL     1     163.242 156.263 139.463  1.00  0.00     0.011 C 
ATOM     12  C   UNL     1     165.697 156.447 139.077  1.00  0.00     0.011 C 
BRANCH  10  13
ATOM     13  C   UNL     1     164.697 157.531 141.198  1.00  0.00     0.007 CG0
ATOM     14  G   UNL     1     164.040 158.840 141.827  1.00  0.00     0.000 G0
ENDBRANCH  10  13
ENDBRANCH   3  10
BRANCH   1  15
ATOM     15  C   UNL     1     164.267 160.273 141.137  1.00  0.00     0.011 C 
BRANCH  15  16
ATOM     16  C   UNL     1     164.042 158.850 141.827  1.00  0.00     0.001 CG0
ATOM     17  G   UNL     1     164.680 157.529 141.205  1.00  0.00     0.000 G0
ENDBRANCH  15  16
ENDBRANCH   1  15
TORSDOF 0
ENDMDL
MODEL 7
REMARK VINA RESULT:    -1.808      1.727      4.207
REMARK INTER + INTRA:          -1.970
REMARK INTER:                  -2.249
REMARK INTRA:                   0.278
REMARK UNBOUND:                 0.260
REMARK SMILES C=C1[C@@H]2CC[C@H]3[C@H]2C(C)(C)CCC[C@@]13C
REMARK SMILES IDX 14 1 6 2 7 3 3 4 2 5 1 6 4 7 5 8 15 9 8 10 9 11 10 12 11 13
REMARK SMILES IDX 13 15 12 16
REMARK H PARENT
REMARK Flexibility Score: 80.00
ROOT
ATOM      1  C   UNL     1     164.268 159.554 140.103  1.00  0.00    -0.008 C 
ATOM      2  C   UNL     1     163.450 159.426 138.821  1.00  0.00     0.003 C 
ATOM      3  C   UNL     1     162.306 158.572 139.391  1.00  0.00     0.006 C 
ATOM      4  C   UNL     1     163.187 157.356 139.628  1.00  0.00     0.019 C 
ATOM      5  C   UNL     1     164.263 158.062 140.487  1.00  0.00    -0.068 C 
ATOM      6  C   UNL     1     164.994 157.483 141.445  1.00  0.00     0.009 C 
ATOM      7  C   UNL     1     163.805 157.091 138.265  1.00  0.00     0.008 C 
ATOM      8  C   UNL     1     164.053 158.503 137.732  1.00  0.00     0.005 C 
ATOM      9  C   UNL     1     165.689 160.101 139.865  1.00  0.00     0.016 C 
ENDROOT
BRANCH   3  10
ATOM     10  C   UNL     1     160.928 159.222 139.143  1.00  0.00    -0.032 C 
ATOM     11  C   UNL     1     160.715 159.635 137.666  1.00  0.00     0.011 C 
ATOM     12  C   UNL     1     159.809 158.212 139.500  1.00  0.00     0.011 C 
BRANCH  10  13
ATOM     13  C   UNL     1     160.844 160.499 140.109  1.00  0.00     0.007 CG0
ATOM     14  G   UNL     1     162.181 161.260 140.529  1.00  0.00     0.000 G0
ENDBRANCH  10  13
ENDBRANCH   3  10
BRANCH   1  15
ATOM     15  C   UNL     1     163.435 160.489 141.105  1.00  0.00     0.011 C 
BRANCH  15  16
ATOM     16  C   UNL     1     162.175 161.271 140.512  1.00  0.00     0.001 CG0
ATOM     17  G   UNL     1     160.845 160.492 140.105  1.00  0.00     0.000 G0
ENDBRANCH  15  16
ENDBRANCH   1  15
TORSDOF 0
ENDMDL
MODEL 8
REMARK VINA RESULT:    -1.788      1.863      4.403
REMARK INTER + INTRA:          -1.946
REMARK INTER:                  -2.207
REMARK INTRA:                   0.262
REMARK UNBOUND:                 0.260
REMARK SMILES C=C1[C@@H]2CC[C@H]3[C@H]2C(C)(C)CCC[C@@]13C
REMARK SMILES IDX 14 1 6 2 7 3 3 4 2 5 1 6 4 7 5 8 15 9 8 10 9 11 10 12 11 13
REMARK SMILES IDX 13 15 12 16
REMARK H PARENT
REMARK Flexibility Score: 80.00
ROOT
ATOM      1  C   UNL     1     165.889 157.134 140.480  1.00  0.00    -0.008 C 
ATOM      2  C   UNL     1     164.677 158.054 140.603  1.00  0.00     0.003 C 
ATOM      3  C   UNL     1     165.004 158.985 139.425  1.00  0.00     0.006 C 
ATOM      4  C   UNL     1     166.236 159.574 140.092  1.00  0.00     0.019 C 
ATOM      5  C   UNL     1     166.960 158.237 140.377  1.00  0.00    -0.068 C 
ATOM      6  C   UNL     1     168.284 158.069 140.439  1.00  0.00     0.009 C 
ATOM      7  C   UNL     1     165.711 160.090 141.422  1.00  0.00     0.008 C 
ATOM      8  C   UNL     1     164.691 159.020 141.814  1.00  0.00     0.005 C 
ATOM      9  C   UNL     1     166.089 156.225 141.707  1.00  0.00     0.016 C 
ENDROOT
BRANCH   3  10
ATOM     10  C   UNL     1     163.838 159.064 138.416  1.00  0.00    -0.032 C 
ATOM     11  C   UNL     1     162.480 159.379 139.092  1.00  0.00     0.011 C 
ATOM     12  C   UNL     1     164.113 160.198 137.397  1.00  0.00     0.011 C 
BRANCH  10  13
ATOM     13  C   UNL     1     163.786 157.649 137.664  1.00  0.00     0.007 CG0
ATOM     14  G   UNL     1     164.276 156.335 138.422  1.00  0.00     0.000 G0
ENDBRANCH  10  13
ENDBRANCH   3  10
BRANCH   1  15
ATOM     15  C   UNL     1     165.699 156.279 139.136  1.00  0.00     0.011 C 
BRANCH  15  16
ATOM     16  C   UNL     1     164.272 156.329 138.422  1.00  0.00     0.001 CG0
ATOM     17  G   UNL     1     163.780 157.644 137.665  1.00  0.00     0.000 G0
ENDBRANCH  15  16
ENDBRANCH   1  15
TORSDOF 0
ENDMDL
MODEL 9
REMARK VINA RESULT:    -1.755     14.504     16.131
REMARK INTER + INTRA:          -1.906
REMARK INTER:                  -2.166
REMARK INTRA:                   0.261
REMARK UNBOUND:                 0.260
REMARK SMILES C=C1[C@@H]2CC[C@H]3[C@H]2C(C)(C)CCC[C@@]13C
REMARK SMILES IDX 14 1 6 2 7 3 3 4 2 5 1 6 4 7 5 8 15 9 8 10 9 11 10 12 11 13
REMARK SMILES IDX 13 15 12 16
REMARK H PARENT
REMARK Flexibility Score: 80.00
ROOT
ATOM      1  C   UNL     1     168.973 173.165 138.806  1.00  0.00    -0.008 C 
ATOM      2  C   UNL     1     167.464 173.287 138.612  1.00  0.00     0.003 C 
ATOM      3  C   UNL     1     167.071 173.366 140.096  1.00  0.00     0.006 C 
ATOM      4  C   UNL     1     167.493 171.936 140.395  1.00  0.00     0.019 C 
ATOM      5  C   UNL     1     168.943 172.049 139.867  1.00  0.00    -0.068 C 
ATOM      6  C   UNL     1     169.989 171.351 140.319  1.00  0.00     0.009 C 
ATOM      7  C   UNL     1     166.711 171.113 139.384  1.00  0.00     0.008 C 
ATOM      8  C   UNL     1     166.744 171.999 138.139  1.00  0.00     0.005 C 
ATOM      9  C   UNL     1     169.717 172.746 137.524  1.00  0.00     0.016 C 
ENDROOT
BRANCH   3  10
ATOM     10  C   UNL     1     166.231 174.625 140.400  1.00  0.00    -0.032 C 
ATOM     11  C   UNL     1     165.029 174.792 139.439  1.00  0.00     0.011 C 
ATOM     12  C   UNL     1     165.657 174.527 141.836  1.00  0.00     0.011 C 
BRANCH  10  13
ATOM     13  C   UNL     1     167.227 175.877 140.291  1.00  0.00     0.007 CG0
ATOM     14  G   UNL     1     168.475 175.807 139.301  1.00  0.00     0.000 G0
ENDBRANCH  10  13
ENDBRANCH   3  10
BRANCH   1  15
ATOM     15  C   UNL     1     169.494 174.577 139.357  1.00  0.00     0.011 C 
BRANCH  15  16
ATOM     16  C   UNL     1     168.482 175.812 139.306  1.00  0.00     0.001 CG0
ATOM     17  G   UNL     1     167.227 175.884 140.285  1.00  0.00     0.000 G0
ENDBRANCH  15  16
ENDBRANCH   1  15
TORSDOF 0
ENDMDL
