MODEL 1
REMARK VINA RESULT:    -5.072      0.000      0.000
REMARK INTER + INTRA:          -7.228
REMARK INTER:                  -6.851
REMARK INTRA:                  -0.377
REMARK UNBOUND:                -0.377
REMARK SMILES CCCCCCC=CC(=O)[O-]
REMARK SMILES IDX 5 1 6 2 7 3 8 4 9 5 10 6 11 7 4 8 3 9 2 10 1 11
REMARK H PARENT
REMARK Flexibility Score: inf
ROOT
ATOM      1  C   UNL     1      42.387  45.384  42.164  1.00  0.00     0.004 C 
ENDROOT
BRANCH   1   2
ATOM      2  C   UNL     1      43.906  45.256  41.992  1.00  0.00     0.027 C 
BRANCH   2   3
ATOM      3  C   UNL     1      44.613  45.368  43.313  1.00  0.00    -0.025 C 
ATOM      4  C   UNL     1      43.992  45.838  44.399  1.00  0.00     0.020 C 
BRANCH   4   5
ATOM      5  C   UNL     1      44.675  45.965  45.695  1.00  0.00     0.064 C 
ATOM      6  O   UNL     1      44.356  46.900  46.476  1.00  0.00    -0.545 OA
ATOM      7  O   UNL     1      45.668  45.069  46.073  1.00  0.00    -0.545 OA
ENDBRANCH   4   5
ENDBRANCH   2   3
ENDBRANCH   1   2
BRANCH   1   8
ATOM      8  C   UNL     1      41.608  45.026  40.887  1.00  0.00     0.000 C 
BRANCH   8   9
ATOM      9  C   UNL     1      42.217  45.626  39.603  1.00  0.00    -0.000 C 
BRANCH   9  10
ATOM     10  C   UNL     1      42.388  44.576  38.494  1.00  0.00    -0.003 C 
ATOM     11  C   UNL     1      43.849  44.166  38.342  1.00  0.00     0.004 C 
ENDBRANCH   9  10
ENDBRANCH   8   9
ENDBRANCH   1   8
TORSDOF 6
ENDMDL
MODEL 2
REMARK VINA RESULT:    -4.851      1.273      1.755
REMARK INTER + INTRA:          -6.929
REMARK INTER:                  -6.750
REMARK INTRA:                  -0.179
REMARK UNBOUND:                -0.377
REMARK SMILES CCCCCCC=CC(=O)[O-]
REMARK SMILES IDX 5 1 6 2 7 3 8 4 9 5 10 6 11 7 4 8 3 9 2 10 1 11
REMARK H PARENT
REMARK Flexibility Score: inf
ROOT
ATOM      1  C   UNL     1      43.374  45.482  43.005  1.00  0.00     0.004 C 
ENDROOT
BRANCH   1   2
ATOM      2  C   UNL     1      44.812  45.264  43.496  1.00  0.00     0.027 C 
BRANCH   2   3
ATOM      3  C   UNL     1      44.931  45.543  44.966  1.00  0.00    -0.025 C 
ATOM      4  C   UNL     1      44.110  46.398  45.584  1.00  0.00     0.020 C 
BRANCH   4   5
ATOM      5  C   UNL     1      44.223  46.691  47.020  1.00  0.00     0.064 C 
ATOM      6  O   UNL     1      44.832  47.726  47.397  1.00  0.00    -0.545 OA
ATOM      7  O   UNL     1      43.669  45.842  47.971  1.00  0.00    -0.545 OA
ENDBRANCH   4   5
ENDBRANCH   2   3
ENDBRANCH   1   2
BRANCH   1   8
ATOM      8  C   UNL     1      43.256  45.469  41.472  1.00  0.00     0.000 C 
BRANCH   8   9
ATOM      9  C   UNL     1      41.811  45.275  40.965  1.00  0.00    -0.000 C 
BRANCH   9  10
ATOM     10  C   UNL     1      41.601  45.870  39.565  1.00  0.00    -0.003 C 
ATOM     11  C   UNL     1      42.268  45.011  38.494  1.00  0.00     0.004 C 
ENDBRANCH   9  10
ENDBRANCH   8   9
ENDBRANCH   1   8
TORSDOF 6
ENDMDL
MODEL 3
REMARK VINA RESULT:    -4.830      3.763      6.331
REMARK INTER + INTRA:          -6.902
REMARK INTER:                  -6.599
REMARK INTRA:                  -0.303
REMARK UNBOUND:                -0.377
REMARK SMILES CCCCCCC=CC(=O)[O-]
REMARK SMILES IDX 5 1 6 2 7 3 8 4 9 5 10 6 11 7 4 8 3 9 2 10 1 11
REMARK H PARENT
REMARK Flexibility Score: inf
ROOT
ATOM      1  C   UNL     1      44.397  45.070  42.833  1.00  0.00     0.004 C 
ENDROOT
BRANCH   1   2
ATOM      2  C   UNL     1      42.976  45.527  42.476  1.00  0.00     0.027 C 
BRANCH   2   3
ATOM      3  C   UNL     1      42.630  45.166  41.060  1.00  0.00    -0.025 C 
ATOM      4  C   UNL     1      43.563  45.116  40.104  1.00  0.00     0.020 C 
BRANCH   4   5
ATOM      5  C   UNL     1      43.237  44.777  38.711  1.00  0.00     0.064 C 
ATOM      6  O   UNL     1      44.059  44.120  38.022  1.00  0.00    -0.545 OA
ATOM      7  O   UNL     1      42.032  45.172  38.141  1.00  0.00    -0.545 OA
ENDBRANCH   4   5
ENDBRANCH   2   3
ENDBRANCH   1   2
BRANCH   1   8
ATOM      8  C   UNL     1      44.922  45.706  44.130  1.00  0.00     0.000 C 
BRANCH   8   9
ATOM      9  C   UNL     1      43.811  46.301  45.021  1.00  0.00    -0.000 C 
BRANCH   9  10
ATOM     10  C   UNL     1      44.369  47.253  46.089  1.00  0.00    -0.003 C 
ATOM     11  C   UNL     1      45.843  46.971  46.365  1.00  0.00     0.004 C 
ENDBRANCH   9  10
ENDBRANCH   8   9
ENDBRANCH   1   8
TORSDOF 6
ENDMDL
MODEL 4
REMARK VINA RESULT:    -4.663      2.900      6.362
REMARK INTER + INTRA:          -6.676
REMARK INTER:                  -6.205
REMARK INTRA:                  -0.471
REMARK UNBOUND:                -0.377
REMARK SMILES CCCCCCC=CC(=O)[O-]
REMARK SMILES IDX 5 1 6 2 7 3 8 4 9 5 10 6 11 7 4 8 3 9 2 10 1 11
REMARK H PARENT
REMARK Flexibility Score: inf
ROOT
ATOM      1  C   UNL     1      45.709  46.754  45.804  1.00  0.00     0.004 C 
ENDROOT
BRANCH   1   2
ATOM      2  C   UNL     1      45.586  45.453  44.998  1.00  0.00     0.027 C 
BRANCH   2   3
ATOM      3  C   UNL     1      44.405  45.499  44.072  1.00  0.00    -0.025 C 
ATOM      4  C   UNL     1      44.528  45.228  42.769  1.00  0.00     0.020 C 
BRANCH   4   5
ATOM      5  C   UNL     1      43.383  45.281  41.848  1.00  0.00     0.064 C 
ATOM      6  O   UNL     1      42.213  45.236  42.309  1.00  0.00    -0.545 OA
ATOM      7  O   UNL     1      43.572  45.379  40.474  1.00  0.00    -0.545 OA
ENDBRANCH   4   5
ENDBRANCH   2   3
ENDBRANCH   1   2
BRANCH   1   8
ATOM      8  C   UNL     1      44.381  47.190  46.444  1.00  0.00     0.000 C 
BRANCH   8   9
ATOM      9  C   UNL     1      44.320  46.949  47.967  1.00  0.00    -0.000 C 
BRANCH   9  10
ATOM     10  C   UNL     1      43.540  45.674  48.323  1.00  0.00    -0.003 C 
ATOM     11  C   UNL     1      44.485  44.528  48.673  1.00  0.00     0.004 C 
ENDBRANCH   9  10
ENDBRANCH   8   9
ENDBRANCH   1   8
TORSDOF 6
ENDMDL
MODEL 5
REMARK VINA RESULT:    -4.660      4.270      7.188
REMARK INTER + INTRA:          -6.672
REMARK INTER:                  -5.988
REMARK INTRA:                  -0.684
REMARK UNBOUND:                -0.377
REMARK SMILES CCCCCCC=CC(=O)[O-]
REMARK SMILES IDX 5 1 6 2 7 3 8 4 9 5 10 6 11 7 4 8 3 9 2 10 1 11
REMARK H PARENT
REMARK Flexibility Score: inf
ROOT
ATOM      1  C   UNL     1      46.004  46.586  49.389  1.00  0.00     0.004 C 
ENDROOT
BRANCH   1   2
ATOM      2  C   UNL     1      45.598  47.536  48.254  1.00  0.00     0.027 C 
BRANCH   2   3
ATOM      3  C   UNL     1      44.539  46.922  47.385  1.00  0.00    -0.025 C 
ATOM      4  C   UNL     1      44.720  46.764  46.070  1.00  0.00     0.020 C 
BRANCH   4   5
ATOM      5  C   UNL     1      43.687  46.177  45.204  1.00  0.00     0.064 C 
ATOM      6  O   UNL     1      44.007  45.724  44.074  1.00  0.00    -0.545 OA
ATOM      7  O   UNL     1      42.360  46.113  45.613  1.00  0.00    -0.545 OA
ENDBRANCH   4   5
ENDBRANCH   2   3
ENDBRANCH   1   2
BRANCH   1   8
ATOM      8  C   UNL     1      45.006  45.433  49.590  1.00  0.00     0.000 C 
BRANCH   8   9
ATOM      9  C   UNL     1      45.660  44.036  49.547  1.00  0.00    -0.000 C 
BRANCH   9  10
ATOM     10  C   UNL     1      46.885  43.995  48.621  1.00  0.00    -0.003 C 
ATOM     11  C   UNL     1      46.509  43.491  47.230  1.00  0.00     0.004 C 
ENDBRANCH   9  10
ENDBRANCH   8   9
ENDBRANCH   1   8
TORSDOF 6
ENDMDL
MODEL 6
REMARK VINA RESULT:    -4.616      4.609      7.498
REMARK INTER + INTRA:          -6.613
REMARK INTER:                  -5.915
REMARK INTRA:                  -0.697
REMARK UNBOUND:                -0.377
REMARK SMILES CCCCCCC=CC(=O)[O-]
REMARK SMILES IDX 5 1 6 2 7 3 8 4 9 5 10 6 11 7 4 8 3 9 2 10 1 11
REMARK H PARENT
REMARK Flexibility Score: inf
ROOT
ATOM      1  C   UNL     1      47.636  43.552  47.918  1.00  0.00     0.004 C 
ENDROOT
BRANCH   1   2
ATOM      2  C   UNL     1      47.532  44.288  46.575  1.00  0.00     0.027 C 
BRANCH   2   3
ATOM      3  C   UNL     1      46.140  44.800  46.343  1.00  0.00    -0.025 C 
ATOM      4  C   UNL     1      45.917  45.957  45.712  1.00  0.00     0.020 C 
BRANCH   4   5
ATOM      5  C   UNL     1      44.560  46.477  45.489  1.00  0.00     0.064 C 
ATOM      6  O   UNL     1      44.151  47.457  46.165  1.00  0.00    -0.545 OA
ATOM      7  O   UNL     1      43.719  45.902  44.543  1.00  0.00    -0.545 OA
ENDBRANCH   4   5
ENDBRANCH   2   3
ENDBRANCH   1   2
BRANCH   1   8
ATOM      8  C   UNL     1      46.391  43.736  48.800  1.00  0.00     0.000 C 
BRANCH   8   9
ATOM      9  C   UNL     1      46.616  44.687  49.995  1.00  0.00    -0.000 C 
BRANCH   9  10
ATOM     10  C   UNL     1      45.602  45.840  50.020  1.00  0.00    -0.003 C 
ATOM     11  C   UNL     1      46.157  47.078  49.320  1.00  0.00     0.004 C 
ENDBRANCH   9  10
ENDBRANCH   8   9
ENDBRANCH   1   8
TORSDOF 6
ENDMDL
MODEL 7
REMARK VINA RESULT:    -4.575      5.753      7.270
REMARK INTER + INTRA:          -6.557
REMARK INTER:                  -5.851
REMARK INTRA:                  -0.706
REMARK UNBOUND:                -0.377
REMARK SMILES CCCCCCC=CC(=O)[O-]
REMARK SMILES IDX 5 1 6 2 7 3 8 4 9 5 10 6 11 7 4 8 3 9 2 10 1 11
REMARK H PARENT
REMARK Flexibility Score: inf
ROOT
ATOM      1  C   UNL     1      46.172  46.641  49.802  1.00  0.00     0.004 C 
ENDROOT
BRANCH   1   2
ATOM      2  C   UNL     1      45.642  45.215  49.602  1.00  0.00     0.027 C 
BRANCH   2   3
ATOM      3  C   UNL     1      46.727  44.295  49.122  1.00  0.00    -0.025 C 
ATOM      4  C   UNL     1      46.595  43.588  47.994  1.00  0.00     0.020 C 
BRANCH   4   5
ATOM      5  C   UNL     1      47.643  42.674  47.518  1.00  0.00     0.064 C 
ATOM      6  O   UNL     1      48.852  43.006  47.623  1.00  0.00    -0.545 OA
ATOM      7  O   UNL     1      47.320  41.445  46.953  1.00  0.00    -0.545 OA
ENDBRANCH   4   5
ENDBRANCH   2   3
ENDBRANCH   1   2
BRANCH   1   8
ATOM      8  C   UNL     1      45.961  47.536  48.569  1.00  0.00     0.000 C 
BRANCH   8   9
ATOM      9  C   UNL     1      44.745  47.129  47.711  1.00  0.00    -0.000 C 
BRANCH   9  10
ATOM     10  C   UNL     1      45.101  46.996  46.223  1.00  0.00    -0.003 C 
ATOM     11  C   UNL     1      46.612  46.933  46.021  1.00  0.00     0.004 C 
ENDBRANCH   9  10
ENDBRANCH   8   9
ENDBRANCH   1   8
TORSDOF 6
ENDMDL
MODEL 8
REMARK VINA RESULT:    -4.572      8.650      9.775
REMARK INTER + INTRA:          -6.553
REMARK INTER:                  -5.785
REMARK INTRA:                  -0.768
REMARK UNBOUND:                -0.377
REMARK SMILES CCCCCCC=CC(=O)[O-]
REMARK SMILES IDX 5 1 6 2 7 3 8 4 9 5 10 6 11 7 4 8 3 9 2 10 1 11
REMARK H PARENT
REMARK Flexibility Score: inf
ROOT
ATOM      1  C   UNL     1      46.936  42.405  34.496  1.00  0.00     0.004 C 
ENDROOT
BRANCH   1   2
ATOM      2  C   UNL     1      48.279  42.429  35.239  1.00  0.00     0.027 C 
BRANCH   2   3
ATOM      3  C   UNL     1      48.813  43.828  35.350  1.00  0.00    -0.025 C 
ATOM      4  C   UNL     1      47.996  44.880  35.469  1.00  0.00     0.020 C 
BRANCH   4   5
ATOM      5  C   UNL     1      48.505  46.256  35.565  1.00  0.00     0.064 C 
ATOM      6  O   UNL     1      48.353  46.901  36.635  1.00  0.00    -0.545 OA
ATOM      7  O   UNL     1      49.151  46.858  34.491  1.00  0.00    -0.545 OA
ENDBRANCH   4   5
ENDBRANCH   2   3
ENDBRANCH   1   2
BRANCH   1   8
ATOM      8  C   UNL     1      47.092  42.172  32.984  1.00  0.00     0.000 C 
BRANCH   8   9
ATOM      9  C   UNL     1      46.625  43.365  32.124  1.00  0.00    -0.000 C 
BRANCH   9  10
ATOM     10  C   UNL     1      47.785  44.297  31.744  1.00  0.00    -0.003 C 
ATOM     11  C   UNL     1      49.075  43.513  31.525  1.00  0.00     0.004 C 
ENDBRANCH   9  10
ENDBRANCH   8   9
ENDBRANCH   1   8
TORSDOF 6
ENDMDL
MODEL 9
REMARK VINA RESULT:    -4.557      3.627      6.256
REMARK INTER + INTRA:          -6.533
REMARK INTER:                  -6.308
REMARK INTRA:                  -0.225
REMARK UNBOUND:                -0.377
REMARK SMILES CCCCCCC=CC(=O)[O-]
REMARK SMILES IDX 5 1 6 2 7 3 8 4 9 5 10 6 11 7 4 8 3 9 2 10 1 11
REMARK H PARENT
REMARK Flexibility Score: inf
ROOT
ATOM      1  C   UNL     1      44.002  45.497  43.328  1.00  0.00     0.004 C 
ENDROOT
BRANCH   1   2
ATOM      2  C   UNL     1      44.749  45.297  42.002  1.00  0.00     0.027 C 
BRANCH   2   3
ATOM      3  C   UNL     1      43.792  45.209  40.848  1.00  0.00    -0.025 C 
ATOM      4  C   UNL     1      42.509  45.564  40.976  1.00  0.00     0.020 C 
BRANCH   4   5
ATOM      5  C   UNL     1      41.558  45.471  39.859  1.00  0.00     0.064 C 
ATOM      6  O   UNL     1      41.850  45.989  38.750  1.00  0.00    -0.545 OA
ATOM      7  O   UNL     1      40.339  44.819  40.007  1.00  0.00    -0.545 OA
ENDBRANCH   4   5
ENDBRANCH   2   3
ENDBRANCH   1   2
BRANCH   1   8
ATOM      8  C   UNL     1      44.902  45.293  44.558  1.00  0.00     0.000 C 
BRANCH   8   9
ATOM      9  C   UNL     1      45.333  46.613  45.233  1.00  0.00    -0.000 C 
BRANCH   9  10
ATOM     10  C   UNL     1      44.196  47.246  46.050  1.00  0.00    -0.003 C 
ATOM     11  C   UNL     1      44.541  47.289  47.535  1.00  0.00     0.004 C 
ENDBRANCH   9  10
ENDBRANCH   8   9
ENDBRANCH   1   8
TORSDOF 6
ENDMDL
