MODEL 1
REMARK VINA RESULT:    -6.328      0.000      0.000
REMARK INTER + INTRA:          -7.732
REMARK INTER:                  -7.438
REMARK INTRA:                  -0.294
REMARK UNBOUND:                -0.294
REMARK SMILES O=c1cc(-c2ccc(O)c(O)c2)oc2cc(O)cc(O)c12
REMARK SMILES IDX 4 1 3 2 2 3 1 4 21 5 19 6 18 7 16 8 15 9 14 10 13 11 5 12
REMARK SMILES IDX 6 13 7 14 8 15 12 16 10 17 9 18 11 20 20 22 17 24
REMARK H PARENT 9 19 11 21 20 23 17 25
REMARK Flexibility Score: inf
ROOT
ATOM      1  C   UNL     1     308.881 226.438 204.186  1.00  0.00     0.138 A 
ATOM      2  C   UNL     1     310.036 225.903 203.601  1.00  0.00     0.100 A 
ATOM      3  C   UNL     1     310.206 224.519 203.545  1.00  0.00     0.197 A 
ATOM      4  O   UNL     1     311.279 224.072 203.065  1.00  0.00    -0.289 OA
ATOM      5  C   UNL     1     309.193 223.666 204.046  1.00  0.00     0.107 A 
ATOM      6  C   UNL     1     309.239 222.239 204.012  1.00  0.00     0.134 A 
ATOM      7  C   UNL     1     308.221 221.501 204.627  1.00  0.00     0.093 A 
ATOM      8  C   UNL     1     307.132 222.133 205.224  1.00  0.00     0.123 A 
ATOM      9  C   UNL     1     307.050 223.525 205.219  1.00  0.00     0.094 A 
ATOM     10  C   UNL     1     308.066 224.292 204.644  1.00  0.00     0.146 A 
ATOM     11  O   UNL     1     307.959 225.616 204.677  1.00  0.00    -0.456 OA
ENDROOT
BRANCH   1  12
ATOM     12  C   UNL     1     308.648 227.903 204.269  1.00  0.00     0.021 A 
ATOM     13  C   UNL     1     307.422 228.433 204.707  1.00  0.00     0.016 A 
ATOM     14  C   UNL     1     307.230 229.815 204.765  1.00  0.00     0.051 A 
ATOM     15  C   UNL     1     308.245 230.695 204.382  1.00  0.00     0.157 A 
ATOM     16  C   UNL     1     309.664 228.787 203.870  1.00  0.00     0.062 A 
ATOM     17  C   UNL     1     309.479 230.175 203.926  1.00  0.00     0.158 A 
BRANCH  15  18
ATOM     18  O   UNL     1     307.988 232.065 204.467  1.00  0.00    -0.504 OA
ATOM     19  H   UNL     1     307.814 232.657 203.666  1.00  0.00     0.293 HD
ENDBRANCH  15  18
BRANCH  17  20
ATOM     20  O   UNL     1     310.538 230.990 203.522  1.00  0.00    -0.504 OA
ATOM     21  H   UNL     1     311.429 231.034 203.994  1.00  0.00     0.293 HD
ENDBRANCH  17  20
ENDBRANCH   1  12
BRANCH   6  22
ATOM     22  O   UNL     1     310.242 221.503 203.372  1.00  0.00    -0.507 OA
ATOM     23  H   UNL     1     311.057 221.118 203.825  1.00  0.00     0.293 HD
ENDBRANCH   6  22
BRANCH   8  24
ATOM     24  O   UNL     1     306.129 221.365 205.813  1.00  0.00    -0.508 OA
ATOM     25  H   UNL     1     305.149 221.535 205.620  1.00  0.00     0.293 HD
ENDBRANCH   8  24
TORSDOF 5
ENDMDL
MODEL 2
REMARK VINA RESULT:    -6.178     11.663     14.375
REMARK INTER + INTRA:          -7.556
REMARK INTER:                  -7.271
REMARK INTRA:                  -0.285
REMARK UNBOUND:                -0.294
REMARK SMILES O=c1cc(-c2ccc(O)c(O)c2)oc2cc(O)cc(O)c12
REMARK SMILES IDX 4 1 3 2 2 3 1 4 21 5 19 6 18 7 16 8 15 9 14 10 13 11 5 12
REMARK SMILES IDX 6 13 7 14 8 15 12 16 10 17 9 18 11 20 20 22 17 24
REMARK H PARENT 9 19 11 21 20 23 17 25
REMARK Flexibility Score: inf
ROOT
ATOM      1  C   UNL     1     318.988 234.090 201.022  1.00  0.00     0.138 A 
ATOM      2  C   UNL     1     317.984 234.351 200.082  1.00  0.00     0.100 A 
ATOM      3  C   UNL     1     316.694 234.659 200.516  1.00  0.00     0.197 A 
ATOM      4  O   UNL     1     315.801 234.832 199.647  1.00  0.00    -0.289 OA
ATOM      5  C   UNL     1     316.419 234.741 201.902  1.00  0.00     0.107 A 
ATOM      6  C   UNL     1     315.150 235.080 202.463  1.00  0.00     0.134 A 
ATOM      7  C   UNL     1     314.974 235.033 203.851  1.00  0.00     0.093 A 
ATOM      8  C   UNL     1     316.033 234.717 204.702  1.00  0.00     0.123 A 
ATOM      9  C   UNL     1     317.290 234.433 204.168  1.00  0.00     0.094 A 
ATOM     10  C   UNL     1     317.489 234.437 202.786  1.00  0.00     0.146 A 
ATOM     11  O   UNL     1     318.698 234.143 202.318  1.00  0.00    -0.456 OA
ENDROOT
BRANCH   1  12
ATOM     12  C   UNL     1     320.379 233.761 200.616  1.00  0.00     0.021 A 
ATOM     13  C   UNL     1     320.660 232.707 199.729  1.00  0.00     0.016 A 
ATOM     14  C   UNL     1     321.979 232.415 199.374  1.00  0.00     0.051 A 
ATOM     15  C   UNL     1     323.042 233.158 199.896  1.00  0.00     0.157 A 
ATOM     16  C   UNL     1     321.448 234.498 201.152  1.00  0.00     0.062 A 
ATOM     17  C   UNL     1     322.774 234.211 200.800  1.00  0.00     0.158 A 
BRANCH  15  18
ATOM     18  O   UNL     1     324.335 232.815 199.497  1.00  0.00    -0.504 OA
ATOM     19  H   UNL     1     324.715 231.880 199.554  1.00  0.00     0.293 HD
ENDBRANCH  15  18
BRANCH  17  20
ATOM     20  O   UNL     1     323.782 234.993 201.367  1.00  0.00    -0.504 OA
ATOM     21  H   UNL     1     324.759 234.920 201.122  1.00  0.00     0.293 HD
ENDBRANCH  17  20
ENDBRANCH   1  12
BRANCH   6  22
ATOM     22  O   UNL     1     314.045 235.489 201.710  1.00  0.00    -0.507 OA
ATOM     23  H   UNL     1     313.550 234.913 201.046  1.00  0.00     0.293 HD
ENDBRANCH   6  22
BRANCH   8  24
ATOM     24  O   UNL     1     315.824 234.696 206.079  1.00  0.00    -0.508 OA
ATOM     25  H   UNL     1     315.159 235.317 206.524  1.00  0.00     0.293 HD
ENDBRANCH   8  24
TORSDOF 5
ENDMDL
MODEL 3
REMARK VINA RESULT:    -6.128     13.016     16.143
REMARK INTER + INTRA:          -7.497
REMARK INTER:                  -7.212
REMARK INTRA:                  -0.285
REMARK UNBOUND:                -0.294
REMARK SMILES O=c1cc(-c2ccc(O)c(O)c2)oc2cc(O)cc(O)c12
REMARK SMILES IDX 4 1 3 2 2 3 1 4 21 5 19 6 18 7 16 8 15 9 14 10 13 11 5 12
REMARK SMILES IDX 6 13 7 14 8 15 12 16 10 17 9 18 11 20 20 22 17 24
REMARK H PARENT 9 19 11 21 20 23 17 25
REMARK Flexibility Score: inf
ROOT
ATOM      1  C   UNL     1     320.857 234.111 200.582  1.00  0.00     0.138 A 
ATOM      2  C   UNL     1     321.861 234.431 201.505  1.00  0.00     0.100 A 
ATOM      3  C   UNL     1     323.201 234.263 201.155  1.00  0.00     0.197 A 
ATOM      4  O   UNL     1     324.076 234.505 202.025  1.00  0.00    -0.289 OA
ATOM      5  C   UNL     1     323.537 233.806 199.858  1.00  0.00     0.107 A 
ATOM      6  C   UNL     1     324.870 233.629 199.376  1.00  0.00     0.134 A 
ATOM      7  C   UNL     1     325.077 233.077 198.107  1.00  0.00     0.093 A 
ATOM      8  C   UNL     1     324.004 232.749 197.279  1.00  0.00     0.123 A 
ATOM      9  C   UNL     1     322.698 232.964 197.719  1.00  0.00     0.094 A 
ATOM     10  C   UNL     1     322.457 233.482 198.994  1.00  0.00     0.146 A 
ATOM     11  O   UNL     1     321.197 233.654 199.381  1.00  0.00    -0.456 OA
ENDROOT
BRANCH   1  12
ATOM     12  C   UNL     1     319.415 234.274 200.901  1.00  0.00     0.021 A 
ATOM     13  C   UNL     1     318.471 234.599 199.912  1.00  0.00     0.016 A 
ATOM     14  C   UNL     1     317.124 234.755 200.244  1.00  0.00     0.051 A 
ATOM     15  C   UNL     1     316.690 234.600 201.563  1.00  0.00     0.157 A 
ATOM     16  C   UNL     1     318.982 234.132 202.230  1.00  0.00     0.062 A 
ATOM     17  C   UNL     1     317.631 234.287 202.571  1.00  0.00     0.158 A 
BRANCH  15  18
ATOM     18  O   UNL     1     315.329 234.768 201.827  1.00  0.00    -0.504 OA
ATOM     19  H   UNL     1     314.700 234.010 202.055  1.00  0.00     0.293 HD
ENDBRANCH  15  18
BRANCH  17  20
ATOM     20  O   UNL     1     317.275 234.122 203.911  1.00  0.00    -0.504 OA
ATOM     21  H   UNL     1     317.931 234.147 204.678  1.00  0.00     0.293 HD
ENDBRANCH  17  20
ENDBRANCH   1  12
BRANCH   6  22
ATOM     22  O   UNL     1     326.016 233.997 200.089  1.00  0.00    -0.507 OA
ATOM     23  H   UNL     1     326.680 233.354 200.491  1.00  0.00     0.293 HD
ENDBRANCH   6  22
BRANCH   8  24
ATOM     24  O   UNL     1     324.249 232.216 196.015  1.00  0.00    -0.508 OA
ATOM     25  H   UNL     1     324.044 232.738 195.171  1.00  0.00     0.293 HD
ENDBRANCH   8  24
TORSDOF 5
ENDMDL
MODEL 4
REMARK VINA RESULT:    -6.078      1.445      7.399
REMARK INTER + INTRA:          -7.438
REMARK INTER:                  -7.143
REMARK INTRA:                  -0.295
REMARK UNBOUND:                -0.294
REMARK SMILES O=c1cc(-c2ccc(O)c(O)c2)oc2cc(O)cc(O)c12
REMARK SMILES IDX 4 1 3 2 2 3 1 4 21 5 19 6 18 7 16 8 15 9 14 10 13 11 5 12
REMARK SMILES IDX 6 13 7 14 8 15 12 16 10 17 9 18 11 20 20 22 17 24
REMARK H PARENT 9 19 11 21 20 23 17 25
REMARK Flexibility Score: inf
ROOT
ATOM      1  C   UNL     1     308.238 225.680 204.650  1.00  0.00     0.138 A 
ATOM      2  C   UNL     1     307.188 225.928 205.543  1.00  0.00     0.100 A 
ATOM      3  C   UNL     1     306.783 227.241 205.785  1.00  0.00     0.197 A 
ATOM      4  O   UNL     1     305.875 227.435 206.634  1.00  0.00    -0.289 OA
ATOM      5  C   UNL     1     307.411 228.309 205.100  1.00  0.00     0.107 A 
ATOM      6  C   UNL     1     307.061 229.686 205.241  1.00  0.00     0.134 A 
ATOM      7  C   UNL     1     307.820 230.662 204.585  1.00  0.00     0.093 A 
ATOM      8  C   UNL     1     308.880 230.310 203.750  1.00  0.00     0.123 A 
ATOM      9  C   UNL     1     309.200 228.966 203.565  1.00  0.00     0.094 A 
ATOM     10  C   UNL     1     308.484 227.969 204.232  1.00  0.00     0.146 A 
ATOM     11  O   UNL     1     308.834 226.701 204.043  1.00  0.00    -0.456 OA
ENDROOT
BRANCH   1  12
ATOM     12  C   UNL     1     308.707 224.302 204.353  1.00  0.00     0.021 A 
ATOM     13  C   UNL     1     309.799 224.060 203.501  1.00  0.00     0.016 A 
ATOM     14  C   UNL     1     310.210 222.753 203.232  1.00  0.00     0.051 A 
ATOM     15  C   UNL     1     309.542 221.662 203.796  1.00  0.00     0.157 A 
ATOM     16  C   UNL     1     308.026 223.205 204.909  1.00  0.00     0.062 A 
ATOM     17  C   UNL     1     308.433 221.891 204.644  1.00  0.00     0.158 A 
BRANCH  15  18
ATOM     18  O   UNL     1     310.006 220.382 203.488  1.00  0.00    -0.504 OA
ATOM     19  H   UNL     1     309.452 219.677 203.023  1.00  0.00     0.293 HD
ENDBRANCH  15  18
BRANCH  17  20
ATOM     20  O   UNL     1     307.714 220.854 205.240  1.00  0.00    -0.504 OA
ATOM     21  H   UNL     1     307.157 220.960 206.075  1.00  0.00     0.293 HD
ENDBRANCH  17  20
ENDBRANCH   1  12
BRANCH   6  22
ATOM     22  O   UNL     1     305.970 230.145 205.987  1.00  0.00    -0.507 OA
ATOM     23  H   UNL     1     305.199 230.680 205.619  1.00  0.00     0.293 HD
ENDBRANCH   6  22
BRANCH   8  24
ATOM     24  O   UNL     1     309.604 231.309 203.100  1.00  0.00    -0.508 OA
ATOM     25  H   UNL     1     309.235 231.786 202.286  1.00  0.00     0.293 HD
ENDBRANCH   8  24
TORSDOF 5
ENDMDL
MODEL 5
REMARK VINA RESULT:    -6.048      1.812      7.404
REMARK INTER + INTRA:          -7.403
REMARK INTER:                  -7.139
REMARK INTRA:                  -0.263
REMARK UNBOUND:                -0.294
REMARK SMILES O=c1cc(-c2ccc(O)c(O)c2)oc2cc(O)cc(O)c12
REMARK SMILES IDX 4 1 3 2 2 3 1 4 21 5 19 6 18 7 16 8 15 9 14 10 13 11 5 12
REMARK SMILES IDX 6 13 7 14 8 15 12 16 10 17 9 18 11 20 20 22 17 24
REMARK H PARENT 9 19 11 21 20 23 17 25
REMARK Flexibility Score: inf
ROOT
ATOM      1  C   UNL     1     308.054 226.654 203.573  1.00  0.00     0.138 A 
ATOM      2  C   UNL     1     307.007 227.111 202.761  1.00  0.00     0.100 A 
ATOM      3  C   UNL     1     306.857 228.479 202.532  1.00  0.00     0.197 A 
ATOM      4  O   UNL     1     305.875 228.861 201.846  1.00  0.00    -0.289 OA
ATOM      5  C   UNL     1     307.784 229.391 203.091  1.00  0.00     0.107 A 
ATOM      6  C   UNL     1     307.752 230.806 202.898  1.00  0.00     0.134 A 
ATOM      7  C   UNL     1     308.666 231.617 203.582  1.00  0.00     0.093 A 
ATOM      8  C   UNL     1     309.645 231.063 204.406  1.00  0.00     0.123 A 
ATOM      9  C   UNL     1     309.718 229.679 204.562  1.00  0.00     0.094 A 
ATOM     10  C   UNL     1     308.800 228.845 203.920  1.00  0.00     0.146 A 
ATOM     11  O   UNL     1     308.893 227.533 204.111  1.00  0.00    -0.456 OA
ENDROOT
BRANCH   1  12
ATOM     12  C   UNL     1     308.263 225.209 203.847  1.00  0.00     0.021 A 
ATOM     13  C   UNL     1     309.298 224.481 203.234  1.00  0.00     0.016 A 
ATOM     14  C   UNL     1     309.462 223.121 203.504  1.00  0.00     0.051 A 
ATOM     15  C   UNL     1     308.600 222.456 204.379  1.00  0.00     0.157 A 
ATOM     16  C   UNL     1     307.386 224.537 204.715  1.00  0.00     0.062 A 
ATOM     17  C   UNL     1     307.545 223.172 204.991  1.00  0.00     0.158 A 
BRANCH  15  18
ATOM     18  O   UNL     1     308.821 221.097 204.607  1.00  0.00    -0.504 OA
ATOM     19  H   UNL     1     309.699 220.630 204.427  1.00  0.00     0.293 HD
ENDBRANCH  15  18
BRANCH  17  20
ATOM     20  O   UNL     1     306.640 222.576 205.872  1.00  0.00    -0.504 OA
ATOM     21  H   UNL     1     306.778 222.518 206.870  1.00  0.00     0.293 HD
ENDBRANCH  17  20
ENDBRANCH   1  12
BRANCH   6  22
ATOM     22  O   UNL     1     306.866 231.459 202.035  1.00  0.00    -0.507 OA
ATOM     23  H   UNL     1     305.948 231.791 202.289  1.00  0.00     0.293 HD
ENDBRANCH   6  22
BRANCH   8  24
ATOM     24  O   UNL     1     310.548 231.901 205.058  1.00  0.00    -0.508 OA
ATOM     25  H   UNL     1     310.428 232.153 206.032  1.00  0.00     0.293 HD
ENDBRANCH   8  24
TORSDOF 5
ENDMDL
MODEL 6
REMARK VINA RESULT:    -5.998      1.398      3.027
REMARK INTER + INTRA:          -7.345
REMARK INTER:                  -7.026
REMARK INTRA:                  -0.319
REMARK UNBOUND:                -0.294
REMARK SMILES O=c1cc(-c2ccc(O)c(O)c2)oc2cc(O)cc(O)c12
REMARK SMILES IDX 4 1 3 2 2 3 1 4 21 5 19 6 18 7 16 8 15 9 14 10 13 11 5 12
REMARK SMILES IDX 6 13 7 14 8 15 12 16 10 17 9 18 11 20 20 22 17 24
REMARK H PARENT 9 19 11 21 20 23 17 25
REMARK Flexibility Score: inf
ROOT
ATOM      1  C   UNL     1     308.465 227.957 204.246  1.00  0.00     0.138 A 
ATOM      2  C   UNL     1     307.262 227.554 204.840  1.00  0.00     0.100 A 
ATOM      3  C   UNL     1     307.000 226.195 205.017  1.00  0.00     0.197 A 
ATOM      4  O   UNL     1     305.887 225.863 205.502  1.00  0.00    -0.289 OA
ATOM      5  C   UNL     1     307.966 225.236 204.629  1.00  0.00     0.107 A 
ATOM      6  C   UNL     1     307.824 223.824 204.792  1.00  0.00     0.134 A 
ATOM      7  C   UNL     1     308.806 222.968 204.279  1.00  0.00     0.093 A 
ATOM      8  C   UNL     1     309.951 223.471 203.662  1.00  0.00     0.123 A 
ATOM      9  C   UNL     1     310.124 224.850 203.542  1.00  0.00     0.094 A 
ATOM     10  C   UNL     1     309.146 225.730 204.012  1.00  0.00     0.146 A 
ATOM     11  O   UNL     1     309.342 227.036 203.861  1.00  0.00    -0.456 OA
ENDROOT
BRANCH   1  12
ATOM     12  C   UNL     1     308.796 229.390 204.037  1.00  0.00     0.021 A 
ATOM     13  C   UNL     1     307.905 230.415 204.397  1.00  0.00     0.016 A 
ATOM     14  C   UNL     1     308.241 231.753 204.178  1.00  0.00     0.051 A 
ATOM     15  C   UNL     1     309.461 232.098 203.592  1.00  0.00     0.157 A 
ATOM     16  C   UNL     1     310.018 229.735 203.434  1.00  0.00     0.062 A 
ATOM     17  C   UNL     1     310.361 231.075 203.211  1.00  0.00     0.158 A 
BRANCH  15  18
ATOM     18  O   UNL     1     309.735 233.454 203.404  1.00  0.00    -0.504 OA
ATOM     19  H   UNL     1     309.161 234.202 203.767  1.00  0.00     0.293 HD
ENDBRANCH  15  18
BRANCH  17  20
ATOM     20  O   UNL     1     311.596 231.341 202.616  1.00  0.00    -0.504 OA
ATOM     21  H   UNL     1     311.745 232.055 201.919  1.00  0.00     0.293 HD
ENDBRANCH  17  20
ENDBRANCH   1  12
BRANCH   6  22
ATOM     22  O   UNL     1     306.759 223.216 205.464  1.00  0.00    -0.507 OA
ATOM     23  H   UNL     1     306.037 222.664 205.027  1.00  0.00     0.293 HD
ENDBRANCH   6  22
BRANCH   8  24
ATOM     24  O   UNL     1     310.915 222.589 203.178  1.00  0.00    -0.508 OA
ATOM     25  H   UNL     1     310.901 221.605 203.419  1.00  0.00     0.293 HD
ENDBRANCH   8  24
TORSDOF 5
ENDMDL
MODEL 7
REMARK VINA RESULT:    -5.958      1.658      7.411
REMARK INTER + INTRA:          -7.297
REMARK INTER:                  -6.984
REMARK INTRA:                  -0.313
REMARK UNBOUND:                -0.294
REMARK SMILES O=c1cc(-c2ccc(O)c(O)c2)oc2cc(O)cc(O)c12
REMARK SMILES IDX 4 1 3 2 2 3 1 4 21 5 19 6 18 7 16 8 15 9 14 10 13 11 5 12
REMARK SMILES IDX 6 13 7 14 8 15 12 16 10 17 9 18 11 20 20 22 17 24
REMARK H PARENT 9 19 11 21 20 23 17 25
REMARK Flexibility Score: inf
ROOT
ATOM      1  C   UNL     1     308.627 227.118 204.234  1.00  0.00     0.138 A 
ATOM      2  C   UNL     1     307.516 227.451 205.020  1.00  0.00     0.100 A 
ATOM      3  C   UNL     1     307.185 228.792 205.214  1.00  0.00     0.197 A 
ATOM      4  O   UNL     1     306.216 229.061 205.970  1.00  0.00    -0.289 OA
ATOM      5  C   UNL     1     307.950 229.804 204.586  1.00  0.00     0.107 A 
ATOM      6  C   UNL     1     307.687 231.205 204.684  1.00  0.00     0.134 A 
ATOM      7  C   UNL     1     308.573 232.116 204.098  1.00  0.00     0.093 A 
ATOM      8  C   UNL     1     309.680 231.680 203.371  1.00  0.00     0.123 A 
ATOM      9  C   UNL     1     309.920 230.314 203.227  1.00  0.00     0.094 A 
ATOM     10  C   UNL     1     309.074 229.379 203.828  1.00  0.00     0.146 A 
ATOM     11  O   UNL     1     309.349 228.087 203.681  1.00  0.00    -0.456 OA
ENDROOT
BRANCH   1  12
ATOM     12  C   UNL     1     309.023 225.706 203.992  1.00  0.00     0.021 A 
ATOM     13  C   UNL     1     308.130 224.641 204.202  1.00  0.00     0.016 A 
ATOM     14  C   UNL     1     308.534 223.324 203.975  1.00  0.00     0.051 A 
ATOM     15  C   UNL     1     309.832 223.039 203.544  1.00  0.00     0.157 A 
ATOM     16  C   UNL     1     310.333 225.419 203.573  1.00  0.00     0.062 A 
ATOM     17  C   UNL     1     310.746 224.100 203.343  1.00  0.00     0.158 A 
BRANCH  15  18
ATOM     18  O   UNL     1     310.171 221.701 203.334  1.00  0.00    -0.504 OA
ATOM     19  H   UNL     1     310.089 221.231 202.443  1.00  0.00     0.293 HD
ENDBRANCH  15  18
BRANCH  17  20
ATOM     20  O   UNL     1     312.060 223.893 202.918  1.00  0.00    -0.504 OA
ATOM     21  H   UNL     1     312.397 224.116 201.993  1.00  0.00     0.293 HD
ENDBRANCH  17  20
ENDBRANCH   1  12
BRANCH   6  22
ATOM     22  O   UNL     1     306.566 231.748 205.319  1.00  0.00    -0.507 OA
ATOM     23  H   UNL     1     305.827 232.256 204.858  1.00  0.00     0.293 HD
ENDBRANCH   6  22
BRANCH   8  24
ATOM     24  O   UNL     1     310.532 232.616 202.789  1.00  0.00    -0.508 OA
ATOM     25  H   UNL     1     310.593 233.566 203.136  1.00  0.00     0.293 HD
ENDBRANCH   8  24
TORSDOF 5
ENDMDL
MODEL 8
REMARK VINA RESULT:    -5.874     11.784     14.601
REMARK INTER + INTRA:          -7.198
REMARK INTER:                  -6.929
REMARK INTRA:                  -0.270
REMARK UNBOUND:                -0.294
REMARK SMILES O=c1cc(-c2ccc(O)c(O)c2)oc2cc(O)cc(O)c12
REMARK SMILES IDX 4 1 3 2 2 3 1 4 21 5 19 6 18 7 16 8 15 9 14 10 13 11 5 12
REMARK SMILES IDX 6 13 7 14 8 15 12 16 10 17 9 18 11 20 20 22 17 24
REMARK H PARENT 9 19 11 21 20 23 17 25
REMARK Flexibility Score: inf
ROOT
ATOM      1  C   UNL     1     318.997 234.120 200.794  1.00  0.00     0.138 A 
ATOM      2  C   UNL     1     318.485 234.226 202.094  1.00  0.00     0.100 A 
ATOM      3  C   UNL     1     317.138 234.537 202.283  1.00  0.00     0.197 A 
ATOM      4  O   UNL     1     316.722 234.680 203.462  1.00  0.00    -0.289 OA
ATOM      5  C   UNL     1     316.291 234.707 201.162  1.00  0.00     0.107 A 
ATOM      6  C   UNL     1     314.894 234.993 201.232  1.00  0.00     0.134 A 
ATOM      7  C   UNL     1     314.179 235.237 200.053  1.00  0.00     0.093 A 
ATOM      8  C   UNL     1     314.796 235.151 198.805  1.00  0.00     0.123 A 
ATOM      9  C   UNL     1     316.149 234.823 198.721  1.00  0.00     0.094 A 
ATOM     10  C   UNL     1     316.898 234.607 199.881  1.00  0.00     0.146 A 
ATOM     11  O   UNL     1     318.188 234.315 199.757  1.00  0.00    -0.456 OA
ENDROOT
BRANCH   1  12
ATOM     12  C   UNL     1     320.422 233.788 200.535  1.00  0.00     0.021 A 
ATOM     13  C   UNL     1     320.792 232.707 199.716  1.00  0.00     0.016 A 
ATOM     14  C   UNL     1     322.140 232.414 199.500  1.00  0.00     0.051 A 
ATOM     15  C   UNL     1     323.144 233.180 200.097  1.00  0.00     0.157 A 
ATOM     16  C   UNL     1     321.431 234.550 201.148  1.00  0.00     0.062 A 
ATOM     17  C   UNL     1     322.785 234.262 200.935  1.00  0.00     0.158 A 
BRANCH  15  18
ATOM     18  O   UNL     1     324.471 232.834 199.837  1.00  0.00    -0.504 OA
ATOM     19  H   UNL     1     324.988 232.142 200.362  1.00  0.00     0.293 HD
ENDBRANCH  15  18
BRANCH  17  20
ATOM     20  O   UNL     1     323.731 235.069 201.570  1.00  0.00    -0.504 OA
ATOM     21  H   UNL     1     324.689 234.796 201.733  1.00  0.00     0.293 HD
ENDBRANCH  17  20
ENDBRANCH   1  12
BRANCH   6  22
ATOM     22  O   UNL     1     314.159 235.025 202.422  1.00  0.00    -0.507 OA
ATOM     23  H   UNL     1     313.876 234.215 202.950  1.00  0.00     0.293 HD
ENDBRANCH   6  22
BRANCH   8  24
ATOM     24  O   UNL     1     314.049 235.385 197.652  1.00  0.00    -0.508 OA
ATOM     25  H   UNL     1     313.331 234.739 197.345  1.00  0.00     0.293 HD
ENDBRANCH   8  24
TORSDOF 5
ENDMDL
MODEL 9
REMARK VINA RESULT:    -5.688      8.895     11.988
REMARK INTER + INTRA:          -6.980
REMARK INTER:                  -6.667
REMARK INTRA:                  -0.313
REMARK UNBOUND:                -0.294
REMARK SMILES O=c1cc(-c2ccc(O)c(O)c2)oc2cc(O)cc(O)c12
REMARK SMILES IDX 4 1 3 2 2 3 1 4 21 5 19 6 18 7 16 8 15 9 14 10 13 11 5 12
REMARK SMILES IDX 6 13 7 14 8 15 12 16 10 17 9 18 11 20 20 22 17 24
REMARK H PARENT 9 19 11 21 20 23 17 25
REMARK Flexibility Score: inf
ROOT
ATOM      1  C   UNL     1     312.833 232.380 196.934  1.00  0.00     0.138 A 
ATOM      2  C   UNL     1     314.117 232.535 196.396  1.00  0.00     0.100 A 
ATOM      3  C   UNL     1     314.279 232.641 195.015  1.00  0.00     0.197 A 
ATOM      4  O   UNL     1     315.448 232.723 194.559  1.00  0.00    -0.289 OA
ATOM      5  C   UNL     1     313.143 232.628 194.170  1.00  0.00     0.107 A 
ATOM      6  C   UNL     1     313.182 232.763 192.748  1.00  0.00     0.134 A 
ATOM      7  C   UNL     1     312.000 232.637 192.010  1.00  0.00     0.093 A 
ATOM      8  C   UNL     1     310.773 232.437 192.642  1.00  0.00     0.123 A 
ATOM      9  C   UNL     1     310.715 232.354 194.033  1.00  0.00     0.094 A 
ATOM     10  C   UNL     1     311.882 232.442 194.796  1.00  0.00     0.146 A 
ATOM     11  O   UNL     1     311.784 232.339 196.118  1.00  0.00    -0.456 OA
ENDROOT
BRANCH   1  12
ATOM     12  C   UNL     1     312.602 232.265 198.397  1.00  0.00     0.021 A 
ATOM     13  C   UNL     1     313.628 231.884 199.280  1.00  0.00     0.016 A 
ATOM     14  C   UNL     1     313.378 231.775 200.649  1.00  0.00     0.051 A 
ATOM     15  C   UNL     1     312.106 232.035 201.167  1.00  0.00     0.157 A 
ATOM     16  C   UNL     1     311.320 232.512 198.916  1.00  0.00     0.062 A 
ATOM     17  C   UNL     1     311.062 232.405 200.289  1.00  0.00     0.158 A 
BRANCH  15  18
ATOM     18  O   UNL     1     311.925 231.910 202.546  1.00  0.00    -0.504 OA
ATOM     19  H   UNL     1     311.861 232.694 203.181  1.00  0.00     0.293 HD
ENDBRANCH  15  18
BRANCH  17  20
ATOM     20  O   UNL     1     309.765 232.675 200.731  1.00  0.00    -0.504 OA
ATOM     21  H   UNL     1     309.120 231.969 201.055  1.00  0.00     0.293 HD
ENDBRANCH  17  20
ENDBRANCH   1  12
BRANCH   6  22
ATOM     22  O   UNL     1     314.343 233.043 192.020  1.00  0.00    -0.507 OA
ATOM     23  H   UNL     1     314.396 233.670 191.232  1.00  0.00     0.293 HD
ENDBRANCH   6  22
BRANCH   8  24
ATOM     24  O   UNL     1     309.614 232.332 191.875  1.00  0.00    -0.508 OA
ATOM     25  H   UNL     1     308.851 231.725 192.149  1.00  0.00     0.293 HD
ENDBRANCH   8  24
TORSDOF 5
ENDMDL
