MODEL 1
REMARK VINA RESULT:    -3.852      0.000      0.000
REMARK INTER + INTRA:          -6.246
REMARK INTER:                  -5.879
REMARK INTRA:                  -0.367
REMARK UNBOUND:                -0.367
REMARK SMILES CC1=CCC[C@H](C)C(=O)C[C@H](C(C)C)C(=O)C1
REMARK SMILES IDX 8 1 9 2 6 3 7 4 5 5 4 6 3 7 2 8 1 9 10 11 11 12 15 13 16 14
REMARK SMILES IDX 17 15 12 17 13 18 14 19
REMARK H PARENT
REMARK Flexibility Score: 70.00
ROOT
ATOM      1  C   UNL     1      20.899  25.650  29.261  1.00  0.00     0.136 C 
ATOM      2  O   UNL     1      20.995  24.672  29.991  1.00  0.00    -0.299 OA
ENDROOT
BRANCH   1   3
ATOM      3  C   UNL     1      20.313  25.502  27.866  1.00  0.00     0.053 C 
ATOM      4  C   UNL     1      20.898  24.295  27.115  1.00  0.00     0.016 C 
BRANCH   3   5
ATOM      5  C   UNL     1      18.767  25.446  27.886  1.00  0.00     0.015 C 
BRANCH   5   6
ATOM      6  C   UNL     1      18.074  26.772  27.486  1.00  0.00     0.028 C 
BRANCH   6   7
ATOM      7  C   UNL     1      17.605  27.525  28.710  1.00  0.00    -0.028 C 
ATOM      8  C   UNL     1      18.031  28.754  29.091  1.00  0.00    -0.070 CG0
ATOM      9  C   UNL     1      17.343  29.408  30.262  1.00  0.00     0.039 C 
ATOM     10  G   UNL     1      19.164  29.499  28.401  1.00  0.00     0.000 G0
ENDBRANCH   6   7
ENDBRANCH   5   6
ENDBRANCH   3   5
ENDBRANCH   1   3
BRANCH   1  11
ATOM     11  C   UNL     1      21.339  26.995  29.793  1.00  0.00     0.087 C 
BRANCH  11  12
ATOM     12  C   UNL     1      21.445  28.073  28.681  1.00  0.00     0.066 C 
BRANCH  12  13
ATOM     13  C   UNL     1      20.578  29.290  28.990  1.00  0.00     0.140 C 
ATOM     14  O   UNL     1      21.004  30.132  29.766  1.00  0.00    -0.299 OA
BRANCH  13  15
ATOM     15  C   UNL     1      19.191  29.514  28.412  1.00  0.00     0.106 CG0
ATOM     16  G   UNL     1      18.058  28.769  29.103  1.00  0.00     0.000 G0
ENDBRANCH  13  15
ENDBRANCH  12  13
BRANCH  12  17
ATOM     17  C   UNL     1      22.910  28.497  28.345  1.00  0.00    -0.006 C 
ATOM     18  C   UNL     1      23.611  27.453  27.460  1.00  0.00     0.008 C 
ATOM     19  C   UNL     1      23.783  28.806  29.574  1.00  0.00     0.008 C 
ENDBRANCH  12  17
ENDBRANCH  11  12
ENDBRANCH   1  11
TORSDOF 1
ENDMDL
MODEL 2
REMARK VINA RESULT:    -3.590      2.808      4.777
REMARK INTER + INTRA:          -5.845
REMARK INTER:                  -5.335
REMARK INTRA:                  -0.511
REMARK UNBOUND:                -0.367
REMARK SMILES CC1=CCC[C@H](C)C(=O)C[C@H](C(C)C)C(=O)C1
REMARK SMILES IDX 8 1 9 2 6 3 7 4 5 5 4 6 3 7 2 8 1 9 10 11 11 12 15 13 16 14
REMARK SMILES IDX 17 15 12 17 13 18 14 19
REMARK H PARENT
REMARK Flexibility Score: 70.00
ROOT
ATOM      1  C   UNL     1      17.070  28.903  31.081  1.00  0.00     0.136 C 
ATOM      2  O   UNL     1      16.680  28.275  32.056  1.00  0.00    -0.299 OA
ENDROOT
BRANCH   1   3
ATOM      3  C   UNL     1      16.073  29.387  30.041  1.00  0.00     0.053 C 
ATOM      4  C   UNL     1      14.992  28.337  29.740  1.00  0.00     0.016 C 
BRANCH   3   5
ATOM      5  C   UNL     1      15.437  30.742  30.431  1.00  0.00     0.015 C 
BRANCH   5   6
ATOM      6  C   UNL     1      16.083  31.973  29.747  1.00  0.00     0.028 C 
BRANCH   6   7
ATOM      7  C   UNL     1      16.946  32.738  30.723  1.00  0.00    -0.028 C 
ATOM      8  C   UNL     1      18.269  32.994  30.573  1.00  0.00    -0.070 CG0
ATOM      9  C   UNL     1      18.933  33.897  31.580  1.00  0.00     0.039 C 
ATOM     10  G   UNL     1      19.112  32.414  29.446  1.00  0.00     0.000 G0
ENDBRANCH   6   7
ENDBRANCH   5   6
ENDBRANCH   3   5
ENDBRANCH   1   3
BRANCH   1  11
ATOM     11  C   UNL     1      18.546  29.210  30.962  1.00  0.00     0.087 C 
BRANCH  11  12
ATOM     12  C   UNL     1      18.933  29.754  29.560  1.00  0.00     0.066 C 
BRANCH  12  13
ATOM     13  C   UNL     1      19.726  31.054  29.657  1.00  0.00     0.140 C 
ATOM     14  O   UNL     1      20.911  30.997  29.951  1.00  0.00    -0.299 OA
BRANCH  13  15
ATOM     15  C   UNL     1      19.129  32.432  29.439  1.00  0.00     0.106 CG0
ATOM     16  G   UNL     1      18.286  32.978  30.583  1.00  0.00     0.000 G0
ENDBRANCH  13  15
ENDBRANCH  12  13
BRANCH  12  17
ATOM     17  C   UNL     1      19.666  28.714  28.655  1.00  0.00    -0.006 C 
ATOM     18  C   UNL     1      18.680  27.955  27.752  1.00  0.00     0.008 C 
ATOM     19  C   UNL     1      20.546  27.709  29.421  1.00  0.00     0.008 C 
ENDBRANCH  12  17
ENDBRANCH  11  12
ENDBRANCH   1  11
TORSDOF 1
ENDMDL
MODEL 3
REMARK VINA RESULT:    -3.559      2.345      4.708
REMARK INTER + INTRA:          -5.799
REMARK INTER:                  -5.539
REMARK INTRA:                  -0.260
REMARK UNBOUND:                -0.367
REMARK SMILES CC1=CCC[C@H](C)C(=O)C[C@H](C(C)C)C(=O)C1
REMARK SMILES IDX 8 1 9 2 6 3 7 4 5 5 4 6 3 7 2 8 1 9 10 11 11 12 15 13 16 14
REMARK SMILES IDX 17 15 12 17 13 18 14 19
REMARK H PARENT
REMARK Flexibility Score: 70.00
ROOT
ATOM      1  C   UNL     1      18.612  26.205  28.071  1.00  0.00     0.136 C 
ATOM      2  O   UNL     1      18.727  25.254  27.308  1.00  0.00    -0.299 OA
ENDROOT
BRANCH   1   3
ATOM      3  C   UNL     1      19.758  26.578  28.998  1.00  0.00     0.053 C 
ATOM      4  C   UNL     1      20.829  25.478  29.068  1.00  0.00     0.016 C 
BRANCH   3   5
ATOM      5  C   UNL     1      20.386  27.941  28.627  1.00  0.00     0.015 C 
BRANCH   5   6
ATOM      6  C   UNL     1      20.283  29.016  29.738  1.00  0.00     0.028 C 
BRANCH   6   7
ATOM      7  C   UNL     1      19.476  30.203  29.264  1.00  0.00    -0.028 C 
ATOM      8  C   UNL     1      18.210  30.499  29.646  1.00  0.00    -0.070 CG0
ATOM      9  C   UNL     1      17.618  31.804  29.180  1.00  0.00     0.039 C 
ATOM     10  G   UNL     1      17.361  29.583  30.515  1.00  0.00     0.000 G0
ENDBRANCH   6   7
ENDBRANCH   5   6
ENDBRANCH   3   5
ENDBRANCH   1   3
BRANCH   1  11
ATOM     11  C   UNL     1      17.331  27.008  28.037  1.00  0.00     0.087 C 
BRANCH  11  12
ATOM     12  C   UNL     1      16.698  27.183  29.444  1.00  0.00     0.066 C 
BRANCH  12  13
ATOM     13  C   UNL     1      16.409  28.650  29.753  1.00  0.00     0.140 C 
ATOM     14  O   UNL     1      15.358  29.135  29.365  1.00  0.00    -0.299 OA
BRANCH  13  15
ATOM     15  C   UNL     1      17.365  29.565  30.497  1.00  0.00     0.106 CG0
ATOM     16  G   UNL     1      18.188  30.508  29.632  1.00  0.00     0.000 G0
ENDBRANCH  13  15
ENDBRANCH  12  13
BRANCH  12  17
ATOM     17  C   UNL     1      15.435  26.298  29.688  1.00  0.00    -0.006 C 
ATOM     18  C   UNL     1      15.051  26.258  31.175  1.00  0.00     0.008 C 
ATOM     19  C   UNL     1      15.548  24.862  29.142  1.00  0.00     0.008 C 
ENDBRANCH  12  17
ENDBRANCH  11  12
ENDBRANCH   1  11
TORSDOF 1
ENDMDL
MODEL 4
REMARK VINA RESULT:    -3.484      2.019      4.192
REMARK INTER + INTRA:          -5.685
REMARK INTER:                  -5.456
REMARK INTRA:                  -0.229
REMARK UNBOUND:                -0.367
REMARK SMILES CC1=CCC[C@H](C)C(=O)C[C@H](C(C)C)C(=O)C1
REMARK SMILES IDX 8 1 9 2 6 3 7 4 5 5 4 6 3 7 2 8 1 9 10 11 11 12 15 13 16 14
REMARK SMILES IDX 17 15 12 17 13 18 14 19
REMARK H PARENT
REMARK Flexibility Score: 70.00
ROOT
ATOM      1  C   UNL     1      18.322  27.594  27.782  1.00  0.00     0.136 C 
ATOM      2  O   UNL     1      18.335  27.727  26.565  1.00  0.00    -0.299 OA
ENDROOT
BRANCH   1   3
ATOM      3  C   UNL     1      18.381  26.204  28.394  1.00  0.00     0.053 C 
ATOM      4  C   UNL     1      17.032  25.474  28.308  1.00  0.00     0.016 C 
BRANCH   3   5
ATOM      5  C   UNL     1      19.516  25.347  27.785  1.00  0.00     0.015 C 
BRANCH   5   6
ATOM      6  C   UNL     1      20.786  25.248  28.665  1.00  0.00     0.028 C 
BRANCH   6   7
ATOM      7  C   UNL     1      21.873  26.160  28.145  1.00  0.00    -0.028 C 
ATOM      8  C   UNL     1      22.307  27.294  28.749  1.00  0.00    -0.070 CG0
ATOM      9  C   UNL     1      23.500  27.997  28.156  1.00  0.00     0.039 C 
ATOM     10  G   UNL     1      21.649  27.889  29.985  1.00  0.00     0.000 G0
ENDBRANCH   6   7
ENDBRANCH   5   6
ENDBRANCH   3   5
ENDBRANCH   1   3
BRANCH   1  11
ATOM     11  C   UNL     1      18.283  28.835  28.645  1.00  0.00     0.087 C 
BRANCH  11  12
ATOM     12  C   UNL     1      19.085  28.672  29.964  1.00  0.00     0.066 C 
BRANCH  12  13
ATOM     13  C   UNL     1      20.574  28.938  29.755  1.00  0.00     0.140 C 
ATOM     14  O   UNL     1      20.922  30.037  29.350  1.00  0.00    -0.299 OA
BRANCH  13  15
ATOM     15  C   UNL     1      21.663  27.908  29.994  1.00  0.00     0.106 CG0
ATOM     16  G   UNL     1      22.299  27.315  28.746  1.00  0.00     0.000 G0
ENDBRANCH  13  15
ENDBRANCH  12  13
BRANCH  12  17
ATOM     17  C   UNL     1      18.525  29.510  31.156  1.00  0.00    -0.006 C 
ATOM     18  C   UNL     1      17.899  30.829  30.676  1.00  0.00     0.008 C 
ATOM     19  C   UNL     1      19.548  29.797  32.271  1.00  0.00     0.008 C 
ENDBRANCH  12  17
ENDBRANCH  11  12
ENDBRANCH   1  11
TORSDOF 1
ENDMDL
MODEL 5
REMARK VINA RESULT:    -3.454      2.362      4.804
REMARK INTER + INTRA:          -5.639
REMARK INTER:                  -5.511
REMARK INTRA:                  -0.128
REMARK UNBOUND:                -0.367
REMARK SMILES CC1=CCC[C@H](C)C(=O)C[C@H](C(C)C)C(=O)C1
REMARK SMILES IDX 8 1 9 2 6 3 7 4 5 5 4 6 3 7 2 8 1 9 10 11 11 12 15 13 16 14
REMARK SMILES IDX 17 15 12 17 13 18 14 19
REMARK H PARENT
REMARK Flexibility Score: 70.00
ROOT
ATOM      1  C   UNL     1      17.550  28.153  29.417  1.00  0.00     0.136 C 
ATOM      2  O   UNL     1      16.775  27.802  30.297  1.00  0.00    -0.299 OA
ENDROOT
BRANCH   1   3
ATOM      3  C   UNL     1      18.364  27.114  28.663  1.00  0.00     0.053 C 
ATOM      4  C   UNL     1      18.338  27.347  27.144  1.00  0.00     0.016 C 
BRANCH   3   5
ATOM      5  C   UNL     1      19.817  27.021  29.185  1.00  0.00     0.015 C 
BRANCH   5   6
ATOM      6  C   UNL     1      20.763  28.120  28.642  1.00  0.00     0.028 C 
BRANCH   6   7
ATOM      7  C   UNL     1      21.541  28.763  29.766  1.00  0.00    -0.028 C 
ATOM      8  C   UNL     1      21.265  29.966  30.329  1.00  0.00    -0.070 CG0
ATOM      9  C   UNL     1      22.064  30.380  31.538  1.00  0.00     0.039 C 
ATOM     10  G   UNL     1      20.198  30.913  29.800  1.00  0.00     0.000 G0
ENDBRANCH   6   7
ENDBRANCH   5   6
ENDBRANCH   3   5
ENDBRANCH   1   3
BRANCH   1  11
ATOM     11  C   UNL     1      17.644  29.625  29.082  1.00  0.00     0.087 C 
BRANCH  11  12
ATOM     12  C   UNL     1      17.596  30.530  30.342  1.00  0.00     0.066 C 
BRANCH  12  13
ATOM     13  C   UNL     1      18.969  31.109  30.674  1.00  0.00     0.140 C 
ATOM     14  O   UNL     1      19.092  31.782  31.685  1.00  0.00    -0.299 OA
BRANCH  13  15
ATOM     15  C   UNL     1      20.201  30.925  29.805  1.00  0.00     0.106 CG0
ATOM     16  G   UNL     1      21.255  29.969  30.343  1.00  0.00     0.000 G0
ENDBRANCH  13  15
ENDBRANCH  12  13
BRANCH  12  17
ATOM     17  C   UNL     1      16.513  31.652  30.279  1.00  0.00    -0.006 C 
ATOM     18  C   UNL     1      15.103  31.067  30.095  1.00  0.00     0.008 C 
ATOM     19  C   UNL     1      16.771  32.729  29.209  1.00  0.00     0.008 C 
ENDBRANCH  12  17
ENDBRANCH  11  12
ENDBRANCH   1  11
TORSDOF 1
ENDMDL
MODEL 6
REMARK VINA RESULT:    -3.393      2.647      5.691
REMARK INTER + INTRA:          -5.546
REMARK INTER:                  -5.175
REMARK INTRA:                  -0.371
REMARK UNBOUND:                -0.367
REMARK SMILES CC1=CCC[C@H](C)C(=O)C[C@H](C(C)C)C(=O)C1
REMARK SMILES IDX 8 1 9 2 6 3 7 4 5 5 4 6 3 7 2 8 1 9 10 11 11 12 15 13 16 14
REMARK SMILES IDX 17 15 12 17 13 18 14 19
REMARK H PARENT
REMARK Flexibility Score: 70.00
ROOT
ATOM      1  C   UNL     1      19.567  31.447  31.373  1.00  0.00     0.136 C 
ATOM      2  O   UNL     1      19.570  32.652  31.159  1.00  0.00    -0.299 OA
ENDROOT
BRANCH   1   3
ATOM      3  C   UNL     1      20.880  30.684  31.447  1.00  0.00     0.053 C 
ATOM      4  C   UNL     1      20.890  29.656  32.589  1.00  0.00     0.016 C 
BRANCH   3   5
ATOM      5  C   UNL     1      21.245  30.020  30.099  1.00  0.00     0.015 C 
BRANCH   5   6
ATOM      6  C   UNL     1      21.126  28.476  30.093  1.00  0.00     0.028 C 
BRANCH   6   7
ATOM      7  C   UNL     1      20.339  28.001  28.894  1.00  0.00    -0.028 C 
ATOM      8  C   UNL     1      18.989  27.911  28.822  1.00  0.00    -0.070 CG0
ATOM      9  C   UNL     1      18.374  27.554  27.493  1.00  0.00     0.039 C 
ATOM     10  G   UNL     1      18.069  28.149  30.010  1.00  0.00     0.000 G0
ENDBRANCH   6   7
ENDBRANCH   5   6
ENDBRANCH   3   5
ENDBRANCH   1   3
BRANCH   1  11
ATOM     11  C   UNL     1      18.240  30.756  31.597  1.00  0.00     0.087 C 
BRANCH  11  12
ATOM     12  C   UNL     1      17.361  30.721  30.317  1.00  0.00     0.066 C 
BRANCH  12  13
ATOM     13  C   UNL     1      17.075  29.290  29.869  1.00  0.00     0.140 C 
ATOM     14  O   UNL     1      15.985  29.037  29.378  1.00  0.00    -0.299 OA
BRANCH  13  15
ATOM     15  C   UNL     1      18.055  28.141  30.019  1.00  0.00     0.106 CG0
ATOM     16  G   UNL     1      18.983  27.903  28.837  1.00  0.00     0.000 G0
ENDBRANCH  13  15
ENDBRANCH  12  13
BRANCH  12  17
ATOM     17  C   UNL     1      16.043  31.550  30.428  1.00  0.00    -0.006 C 
ATOM     18  C   UNL     1      16.061  32.769  29.492  1.00  0.00     0.008 C 
ATOM     19  C   UNL     1      15.690  31.999  31.858  1.00  0.00     0.008 C 
ENDBRANCH  12  17
ENDBRANCH  11  12
ENDBRANCH   1  11
TORSDOF 1
ENDMDL
MODEL 7
REMARK VINA RESULT:    -3.381      2.629      5.083
REMARK INTER + INTRA:          -5.527
REMARK INTER:                  -5.669
REMARK INTRA:                   0.142
REMARK UNBOUND:                -0.367
REMARK SMILES CC1=CCC[C@H](C)C(=O)C[C@H](C(C)C)C(=O)C1
REMARK SMILES IDX 8 1 9 2 6 3 7 4 5 5 4 6 3 7 2 8 1 9 10 11 11 12 15 13 16 14
REMARK SMILES IDX 17 15 12 17 13 18 14 19
REMARK H PARENT
REMARK Flexibility Score: 70.00
ROOT
ATOM      1  C   UNL     1      18.749  25.786  27.785  1.00  0.00     0.136 C 
ATOM      2  O   UNL     1      19.327  25.058  26.989  1.00  0.00    -0.299 OA
ENDROOT
BRANCH   1   3
ATOM      3  C   UNL     1      19.521  26.426  28.928  1.00  0.00     0.053 C 
ATOM      4  C   UNL     1      20.737  25.586  29.349  1.00  0.00     0.016 C 
BRANCH   3   5
ATOM      5  C   UNL     1      19.936  27.881  28.608  1.00  0.00     0.015 C 
BRANCH   5   6
ATOM      6  C   UNL     1      18.762  28.892  28.590  1.00  0.00     0.028 C 
BRANCH   6   7
ATOM      7  C   UNL     1      18.175  29.059  29.972  1.00  0.00    -0.028 C 
ATOM      8  C   UNL     1      16.968  28.594  30.378  1.00  0.00    -0.070 CG0
ATOM      9  C   UNL     1      16.613  28.731  31.836  1.00  0.00     0.039 C 
ATOM     10  G   UNL     1      15.961  27.946  29.439  1.00  0.00     0.000 G0
ENDBRANCH   6   7
ENDBRANCH   5   6
ENDBRANCH   3   5
ENDBRANCH   1   3
BRANCH   1  11
ATOM     11  C   UNL     1      17.276  26.056  27.580  1.00  0.00     0.087 C 
BRANCH  11  12
ATOM     12  C   UNL     1      16.388  25.395  28.668  1.00  0.00     0.066 C 
BRANCH  12  13
ATOM     13  C   UNL     1      15.785  26.431  29.612  1.00  0.00     0.140 C 
ATOM     14  O   UNL     1      15.104  26.045  30.549  1.00  0.00    -0.299 OA
BRANCH  13  15
ATOM     15  C   UNL     1      15.953  27.931  29.445  1.00  0.00     0.106 CG0
ATOM     16  G   UNL     1      16.963  28.592  30.372  1.00  0.00     0.000 G0
ENDBRANCH  13  15
ENDBRANCH  12  13
BRANCH  12  17
ATOM     17  C   UNL     1      15.289  24.443  28.100  1.00  0.00    -0.006 C 
ATOM     18  C   UNL     1      14.942  23.323  29.094  1.00  0.00     0.008 C 
ATOM     19  C   UNL     1      15.620  23.834  26.726  1.00  0.00     0.008 C 
ENDBRANCH  12  17
ENDBRANCH  11  12
ENDBRANCH   1  11
TORSDOF 1
ENDMDL
MODEL 8
REMARK VINA RESULT:    -3.257      2.485      5.581
REMARK INTER + INTRA:          -5.338
REMARK INTER:                  -4.861
REMARK INTRA:                  -0.477
REMARK UNBOUND:                -0.367
REMARK SMILES CC1=CCC[C@H](C)C(=O)C[C@H](C(C)C)C(=O)C1
REMARK SMILES IDX 8 1 9 2 6 3 7 4 5 5 4 6 3 7 2 8 1 9 10 11 11 12 15 13 16 14
REMARK SMILES IDX 17 15 12 17 13 18 14 19
REMARK H PARENT
REMARK Flexibility Score: 70.00
ROOT
ATOM      1  C   UNL     1      19.615  31.171  31.785  1.00  0.00     0.136 C 
ATOM      2  O   UNL     1      19.503  31.706  32.880  1.00  0.00    -0.299 OA
ENDROOT
BRANCH   1   3
ATOM      3  C   UNL     1      20.857  31.419  30.943  1.00  0.00     0.053 C 
ATOM      4  C   UNL     1      21.663  32.629  31.440  1.00  0.00     0.016 C 
BRANCH   3   5
ATOM      5  C   UNL     1      21.751  30.161  30.839  1.00  0.00     0.015 C 
BRANCH   5   6
ATOM      6  C   UNL     1      21.794  29.521  29.430  1.00  0.00     0.028 C 
BRANCH   6   7
ATOM      7  C   UNL     1      21.297  28.095  29.471  1.00  0.00    -0.028 C 
ATOM      8  C   UNL     1      20.166  27.637  28.879  1.00  0.00    -0.070 CG0
ATOM      9  C   UNL     1      19.907  26.152  28.906  1.00  0.00     0.039 C 
ATOM     10  G   UNL     1      19.152  28.542  28.196  1.00  0.00     0.000 G0
ENDBRANCH   6   7
ENDBRANCH   5   6
ENDBRANCH   3   5
ENDBRANCH   1   3
BRANCH   1  11
ATOM     11  C   UNL     1      18.518  30.241  31.318  1.00  0.00     0.087 C 
BRANCH  11  12
ATOM     12  C   UNL     1      18.162  30.439  29.820  1.00  0.00     0.066 C 
BRANCH  12  13
ATOM     13  C   UNL     1      18.045  29.106  29.086  1.00  0.00     0.140 C 
ATOM     14  O   UNL     1      17.031  28.442  29.236  1.00  0.00    -0.299 OA
BRANCH  13  15
ATOM     15  C   UNL     1      19.130  28.530  28.194  1.00  0.00     0.106 CG0
ATOM     16  G   UNL     1      20.158  27.648  28.886  1.00  0.00     0.000 G0
ENDBRANCH  13  15
ENDBRANCH  12  13
BRANCH  12  17
ATOM     17  C   UNL     1      16.901  31.328  29.578  1.00  0.00    -0.006 C 
ATOM     18  C   UNL     1      17.264  32.646  28.875  1.00  0.00     0.008 C 
ATOM     19  C   UNL     1      16.078  31.624  30.845  1.00  0.00     0.008 C 
ENDBRANCH  12  17
ENDBRANCH  11  12
ENDBRANCH   1  11
TORSDOF 1
ENDMDL
MODEL 9
REMARK VINA RESULT:    -3.249      2.130      3.074
REMARK INTER + INTRA:          -5.325
REMARK INTER:                  -5.204
REMARK INTRA:                  -0.121
REMARK UNBOUND:                -0.367
REMARK SMILES CC1=CCC[C@H](C)C(=O)C[C@H](C(C)C)C(=O)C1
REMARK SMILES IDX 8 1 9 2 6 3 7 4 5 5 4 6 3 7 2 8 1 9 10 11 11 12 15 13 16 14
REMARK SMILES IDX 17 15 12 17 13 18 14 19
REMARK H PARENT
REMARK Flexibility Score: 70.00
ROOT
ATOM      1  C   UNL     1      22.516  28.756  29.673  1.00  0.00     0.136 C 
ATOM      2  O   UNL     1      23.735  28.859  29.720  1.00  0.00    -0.299 OA
ENDROOT
BRANCH   1   3
ATOM      3  C   UNL     1      21.869  27.858  28.630  1.00  0.00     0.053 C 
ATOM      4  C   UNL     1      22.810  26.734  28.168  1.00  0.00     0.016 C 
BRANCH   3   5
ATOM      5  C   UNL     1      20.516  27.286  29.113  1.00  0.00     0.015 C 
BRANCH   5   6
ATOM      6  C   UNL     1      19.297  27.726  28.264  1.00  0.00     0.028 C 
BRANCH   6   7
ATOM      7  C   UNL     1      18.109  28.030  29.147  1.00  0.00    -0.028 C 
ATOM      8  C   UNL     1      17.727  29.264  29.559  1.00  0.00    -0.070 CG0
ATOM      9  C   UNL     1      16.431  29.386  30.317  1.00  0.00     0.039 C 
ATOM     10  G   UNL     1      18.541  30.523  29.297  1.00  0.00     0.000 G0
ENDBRANCH   6   7
ENDBRANCH   5   6
ENDBRANCH   3   5
ENDBRANCH   1   3
BRANCH   1  11
ATOM     11  C   UNL     1      21.688  29.506  30.692  1.00  0.00     0.087 C 
BRANCH  11  12
ATOM     12  C   UNL     1      21.082  30.817  30.122  1.00  0.00     0.066 C 
BRANCH  12  13
ATOM     13  C   UNL     1      19.575  30.888  30.350  1.00  0.00     0.140 C 
ATOM     14  O   UNL     1      19.163  31.223  31.451  1.00  0.00    -0.299 OA
BRANCH  13  15
ATOM     15  C   UNL     1      18.538  30.538  29.297  1.00  0.00     0.106 CG0
ATOM     16  G   UNL     1      17.728  29.277  29.559  1.00  0.00     0.000 G0
ENDBRANCH  13  15
ENDBRANCH  12  13
BRANCH  12  17
ATOM     17  C   UNL     1      21.789  32.115  30.625  1.00  0.00    -0.006 C 
ATOM     18  C   UNL     1      21.533  33.300  29.681  1.00  0.00     0.008 C 
ATOM     19  C   UNL     1      23.301  31.963  30.870  1.00  0.00     0.008 C 
ENDBRANCH  12  17
ENDBRANCH  11  12
ENDBRANCH   1  11
TORSDOF 1
ENDMDL
