MODEL 1
REMARK VINA RESULT:     2.300      0.000      0.000
REMARK INTER + INTRA:           5.899
REMARK INTER:                   4.989
REMARK INTRA:                   0.910
REMARK UNBOUND:                 0.910
REMARK SMILES CCCCCCCCCCCCCCCCCCCCCC(=O)[O-]
REMARK SMILES IDX 12 1 11 2 10 3 9 4 8 5 7 6 6 7 5 8 4 9 3 10 2 11 1 12 13 13
REMARK SMILES IDX 14 14 15 15 16 16 17 17 18 18 19 19 20 20 21 21 22 22 23 23
REMARK SMILES IDX 24 24
REMARK H PARENT
REMARK Flexibility Score: inf
ROOT
ATOM      1  C   UNL     1      44.849 -25.731   0.405  1.00  0.00     0.000 C 
ENDROOT
BRANCH   1   2
ATOM      2  C   UNL     1      45.965 -26.582   1.030  1.00  0.00     0.000 C 
BRANCH   2   3
ATOM      3  C   UNL     1      46.088 -26.390   2.553  1.00  0.00     0.000 C 
BRANCH   3   4
ATOM      4  C   UNL     1      46.010 -27.687   3.382  1.00  0.00    -0.000 C 
BRANCH   4   5
ATOM      5  C   UNL     1      45.243 -27.569   4.714  1.00  0.00    -0.000 C 
BRANCH   5   6
ATOM      6  C   UNL     1      46.108 -27.723   5.981  1.00  0.00    -0.000 C 
BRANCH   6   7
ATOM      7  C   UNL     1      45.833 -26.682   7.081  1.00  0.00    -0.000 C 
BRANCH   7   8
ATOM      8  C   UNL     1      45.871 -27.284   8.494  1.00  0.00    -0.000 C 
BRANCH   8   9
ATOM      9  C   UNL     1      46.125 -28.802   8.489  1.00  0.00    -0.000 C 
BRANCH   9  10
ATOM     10  C   UNL     1      45.400 -29.586   9.602  1.00  0.00    -0.000 C 
BRANCH  10  11
ATOM     11  C   UNL     1      45.687 -31.098   9.624  1.00  0.00    -0.003 C 
ATOM     12  C   UNL     1      45.918 -31.679   8.230  1.00  0.00     0.004 C 
ENDBRANCH  10  11
ENDBRANCH   9  10
ENDBRANCH   8   9
ENDBRANCH   7   8
ENDBRANCH   6   7
ENDBRANCH   5   6
ENDBRANCH   4   5
ENDBRANCH   3   4
ENDBRANCH   2   3
ENDBRANCH   1   2
BRANCH   1  13
ATOM     13  C   UNL     1      45.374 -24.336   0.030  1.00  0.00     0.000 C 
BRANCH  13  14
ATOM     14  C   UNL     1      46.051 -24.309  -1.349  1.00  0.00     0.000 C 
BRANCH  14  15
ATOM     15  C   UNL     1      45.447 -25.328  -2.327  1.00  0.00     0.000 C 
BRANCH  15  16
ATOM     16  C   UNL     1      43.954 -25.044  -2.551  1.00  0.00     0.000 C 
BRANCH  16  17
ATOM     17  C   UNL     1      43.610 -24.820  -4.032  1.00  0.00     0.000 C 
BRANCH  17  18
ATOM     18  C   UNL     1      44.655 -23.949  -4.749  1.00  0.00     0.000 C 
BRANCH  18  19
ATOM     19  C   UNL     1      45.500 -24.747  -5.757  1.00  0.00     0.000 C 
BRANCH  19  20
ATOM     20  C   UNL     1      45.379 -26.267  -5.564  1.00  0.00     0.006 C 
BRANCH  20  21
ATOM     21  C   UNL     1      46.125 -27.020  -6.667  1.00  0.00     0.053 C 
BRANCH  21  22
ATOM     22  C   UNL     1      46.111 -26.236  -7.942  1.00  0.00     0.041 C 
ATOM     23  O   UNL     1      46.122 -26.829  -9.052  1.00  0.00    -0.550 OA
ATOM     24  O   UNL     1      46.123 -24.846  -7.903  1.00  0.00    -0.550 OA
ENDBRANCH  21  22
ENDBRANCH  20  21
ENDBRANCH  19  20
ENDBRANCH  18  19
ENDBRANCH  17  18
ENDBRANCH  16  17
ENDBRANCH  15  16
ENDBRANCH  14  15
ENDBRANCH  13  14
ENDBRANCH   1  13
TORSDOF 20
ENDMDL
