MODEL 1
REMARK VINA RESULT:    -3.455      0.000      0.000
REMARK INTER + INTRA:          -4.033
REMARK INTER:                  -3.960
REMARK INTRA:                  -0.072
REMARK UNBOUND:                -0.072
REMARK SMILES CC(C)[C@H]([NH3+])C(=O)[O-]
REMARK SMILES IDX 4 1 5 2 6 6 7 7 8 8 2 9 1 10 3 11
REMARK H PARENT 5 3 5 4 5 5
REMARK Flexibility Score: inf
ROOT
ATOM      1  C   UNL     1       1.982   7.709   1.275  1.00  0.00     0.230 C 
ENDROOT
BRANCH   1   2
ATOM      2  N   UNL     1       1.767   8.830   0.348  1.00  0.00    -0.350 N 
ATOM      3  H   UNL     1       1.770   8.511  -0.647  1.00  0.00     0.345 HD
ATOM      4  H   UNL     1       0.855   9.298   0.557  1.00  0.00     0.345 HD
ATOM      5  H   UNL     1       2.529   9.537   0.474  1.00  0.00     0.345 HD
ENDBRANCH   1   2
BRANCH   1   6
ATOM      6  C   UNL     1       2.438   6.476   0.531  1.00  0.00     0.099 C 
ATOM      7  O   UNL     1       3.595   6.009   0.704  1.00  0.00    -0.544 OA
ATOM      8  O   UNL     1       1.584   5.863  -0.378  1.00  0.00    -0.544 OA
ENDBRANCH   1   6
BRANCH   1   9
ATOM      9  C   UNL     1       0.730   7.447   2.166  1.00  0.00     0.047 C 
ATOM     10  C   UNL     1       0.857   6.203   3.061  1.00  0.00     0.014 C 
ATOM     11  C   UNL     1       0.387   8.676   3.020  1.00  0.00     0.014 C 
ENDBRANCH   1   9
TORSDOF 3
ENDMDL
MODEL 2
REMARK VINA RESULT:    -3.398      1.609      2.183
REMARK INTER + INTRA:          -3.967
REMARK INTER:                  -3.912
REMARK INTRA:                  -0.054
REMARK UNBOUND:                -0.072
REMARK SMILES CC(C)[C@H]([NH3+])C(=O)[O-]
REMARK SMILES IDX 4 1 5 2 6 6 7 7 8 8 2 9 1 10 3 11
REMARK H PARENT 5 3 5 4 5 5
REMARK Flexibility Score: inf
ROOT
ATOM      1  C   UNL     1       2.548   7.484   1.277  1.00  0.00     0.230 C 
ENDROOT
BRANCH   1   2
ATOM      2  N   UNL     1       1.834   8.421   0.397  1.00  0.00    -0.350 N 
ATOM      3  H   UNL     1       1.505   9.263   0.920  1.00  0.00     0.345 HD
ATOM      4  H   UNL     1       2.458   8.724  -0.386  1.00  0.00     0.345 HD
ATOM      5  H   UNL     1       1.001   7.942  -0.020  1.00  0.00     0.345 HD
ENDBRANCH   1   2
BRANCH   1   6
ATOM      6  C   UNL     1       3.948   7.233   0.772  1.00  0.00     0.099 C 
ATOM      7  O   UNL     1       4.666   8.183   0.362  1.00  0.00    -0.544 OA
ATOM      8  O   UNL     1       4.445   5.936   0.730  1.00  0.00    -0.544 OA
ENDBRANCH   1   6
BRANCH   1   9
ATOM      9  C   UNL     1       1.741   6.168   1.496  1.00  0.00     0.047 C 
ATOM     10  C   UNL     1       0.850   6.191   2.750  1.00  0.00     0.014 C 
ATOM     11  C   UNL     1       0.899   5.818   0.260  1.00  0.00     0.014 C 
ENDBRANCH   1   9
TORSDOF 3
ENDMDL
MODEL 3
REMARK VINA RESULT:    -3.394      2.464      3.321
REMARK INTER + INTRA:          -3.962
REMARK INTER:                  -3.906
REMARK INTRA:                  -0.056
REMARK UNBOUND:                -0.072
REMARK SMILES CC(C)[C@H]([NH3+])C(=O)[O-]
REMARK SMILES IDX 4 1 5 2 6 6 7 7 8 8 2 9 1 10 3 11
REMARK H PARENT 5 3 5 4 5 5
REMARK Flexibility Score: inf
ROOT
ATOM      1  C   UNL     1       0.656   7.456   1.270  1.00  0.00     0.230 C 
ENDROOT
BRANCH   1   2
ATOM      2  N   UNL     1       1.350   8.634   0.730  1.00  0.00    -0.350 N 
ATOM      3  H   UNL     1       1.154   9.489   1.298  1.00  0.00     0.345 HD
ATOM      4  H   UNL     1       2.382   8.465   0.709  1.00  0.00     0.345 HD
ATOM      5  H   UNL     1       1.030   8.807  -0.252  1.00  0.00     0.345 HD
ENDBRANCH   1   2
BRANCH   1   6
ATOM      6  C   UNL     1       0.347   7.639   2.737  1.00  0.00     0.099 C 
ATOM      7  O   UNL     1       0.131   8.785   3.212  1.00  0.00    -0.544 OA
ATOM      8  O   UNL     1       0.329   6.536   3.582  1.00  0.00    -0.544 OA
ENDBRANCH   1   6
BRANCH   1   9
ATOM      9  C   UNL     1       1.440   6.140   0.979  1.00  0.00     0.047 C 
ATOM     10  C   UNL     1       0.989   5.423  -0.305  1.00  0.00     0.014 C 
ATOM     11  C   UNL     1       2.955   6.391   0.937  1.00  0.00     0.014 C 
ENDBRANCH   1   9
TORSDOF 3
ENDMDL
MODEL 4
REMARK VINA RESULT:    -3.306      2.124      2.347
REMARK INTER + INTRA:          -3.861
REMARK INTER:                  -3.802
REMARK INTRA:                  -0.059
REMARK UNBOUND:                -0.072
REMARK SMILES CC(C)[C@H]([NH3+])C(=O)[O-]
REMARK SMILES IDX 4 1 5 2 6 6 7 7 8 8 2 9 1 10 3 11
REMARK H PARENT 5 3 5 4 5 5
REMARK Flexibility Score: inf
ROOT
ATOM      1  C   UNL     1       3.052   6.715   1.961  1.00  0.00     0.230 C 
ENDROOT
BRANCH   1   2
ATOM      2  N   UNL     1       3.383   7.447   3.193  1.00  0.00    -0.350 N 
ATOM      3  H   UNL     1       3.354   8.481   3.045  1.00  0.00     0.345 HD
ATOM      4  H   UNL     1       2.712   7.190   3.954  1.00  0.00     0.345 HD
ATOM      5  H   UNL     1       4.346   7.183   3.508  1.00  0.00     0.345 HD
ENDBRANCH   1   2
BRANCH   1   6
ATOM      6  C   UNL     1       3.813   7.274   0.782  1.00  0.00     0.099 C 
ATOM      7  O   UNL     1       4.880   6.732   0.388  1.00  0.00    -0.544 OA
ATOM      8  O   UNL     1       3.351   8.416   0.140  1.00  0.00    -0.544 OA
ENDBRANCH   1   6
BRANCH   1   9
ATOM      9  C   UNL     1       1.513   6.664   1.715  1.00  0.00     0.047 C 
ATOM     10  C   UNL     1       1.105   5.756   0.543  1.00  0.00     0.014 C 
ATOM     11  C   UNL     1       0.759   6.250   2.988  1.00  0.00     0.014 C 
ENDBRANCH   1   9
TORSDOF 3
ENDMDL
MODEL 5
REMARK VINA RESULT:    -3.163      1.356      2.011
REMARK INTER + INTRA:          -3.698
REMARK INTER:                  -3.651
REMARK INTRA:                  -0.047
REMARK UNBOUND:                -0.072
REMARK SMILES CC(C)[C@H]([NH3+])C(=O)[O-]
REMARK SMILES IDX 4 1 5 2 6 6 7 7 8 8 2 9 1 10 3 11
REMARK H PARENT 5 3 5 4 5 5
REMARK Flexibility Score: inf
ROOT
ATOM      1  C   UNL     1       1.772   7.426   0.944  1.00  0.00     0.230 C 
ENDROOT
BRANCH   1   2
ATOM      2  N   UNL     1       0.956   6.416   0.253  1.00  0.00    -0.350 N 
ATOM      3  H   UNL     1       0.363   6.846  -0.491  1.00  0.00     0.345 HD
ATOM      4  H   UNL     1       1.574   5.688  -0.176  1.00  0.00     0.345 HD
ATOM      5  H   UNL     1       0.330   5.941   0.945  1.00  0.00     0.345 HD
ENDBRANCH   1   2
BRANCH   1   6
ATOM      6  C   UNL     1       3.241   7.216   0.661  1.00  0.00     0.099 C 
ATOM      7  O   UNL     1       3.980   8.184   0.339  1.00  0.00    -0.544 OA
ATOM      8  O   UNL     1       3.781   5.938   0.729  1.00  0.00    -0.544 OA
ENDBRANCH   1   6
BRANCH   1   9
ATOM      9  C   UNL     1       1.453   7.482   2.469  1.00  0.00     0.047 C 
ATOM     10  C   UNL     1       0.530   8.646   2.865  1.00  0.00     0.014 C 
ATOM     11  C   UNL     1       0.865   6.152   2.965  1.00  0.00     0.014 C 
ENDBRANCH   1   9
TORSDOF 3
ENDMDL
MODEL 6
REMARK VINA RESULT:    -3.105      2.401      2.842
REMARK INTER + INTRA:          -3.632
REMARK INTER:                  -3.589
REMARK INTRA:                  -0.043
REMARK UNBOUND:                -0.072
REMARK SMILES CC(C)[C@H]([NH3+])C(=O)[O-]
REMARK SMILES IDX 4 1 5 2 6 6 7 7 8 8 2 9 1 10 3 11
REMARK H PARENT 5 3 5 4 5 5
REMARK Flexibility Score: inf
ROOT
ATOM      1  C   UNL     1       2.754   7.151   0.923  1.00  0.00     0.230 C 
ENDROOT
BRANCH   1   2
ATOM      2  N   UNL     1       3.475   6.849   2.169  1.00  0.00    -0.350 N 
ATOM      3  H   UNL     1       4.505   6.984   2.059  1.00  0.00     0.345 HD
ATOM      4  H   UNL     1       3.128   7.462   2.942  1.00  0.00     0.345 HD
ATOM      5  H   UNL     1       3.297   5.854   2.441  1.00  0.00     0.345 HD
ENDBRANCH   1   2
BRANCH   1   6
ATOM      6  C   UNL     1       2.820   8.627   0.608  1.00  0.00     0.099 C 
ATOM      7  O   UNL     1       3.421   9.041  -0.418  1.00  0.00    -0.544 OA
ATOM      8  O   UNL     1       2.237   9.544   1.474  1.00  0.00    -0.544 OA
ENDBRANCH   1   6
BRANCH   1   9
ATOM      9  C   UNL     1       1.294   6.605   0.953  1.00  0.00     0.047 C 
ATOM     10  C   UNL     1       1.006   5.551  -0.128  1.00  0.00     0.014 C 
ATOM     11  C   UNL     1       0.935   6.049   2.339  1.00  0.00     0.014 C 
ENDBRANCH   1   9
TORSDOF 3
ENDMDL
MODEL 7
REMARK VINA RESULT:    -3.093      2.805      3.601
REMARK INTER + INTRA:          -3.617
REMARK INTER:                  -3.566
REMARK INTRA:                  -0.052
REMARK UNBOUND:                -0.072
REMARK SMILES CC(C)[C@H]([NH3+])C(=O)[O-]
REMARK SMILES IDX 4 1 5 2 6 6 7 7 8 8 2 9 1 10 3 11
REMARK H PARENT 5 3 5 4 5 5
REMARK Flexibility Score: inf
ROOT
ATOM      1  C   UNL     1       1.582   6.980   2.436  1.00  0.00     0.230 C 
ENDROOT
BRANCH   1   2
ATOM      2  N   UNL     1       0.843   5.800   2.910  1.00  0.00    -0.350 N 
ATOM      3  H   UNL     1      -0.145   6.038   3.151  1.00  0.00     0.345 HD
ATOM      4  H   UNL     1       0.848   5.055   2.175  1.00  0.00     0.345 HD
ATOM      5  H   UNL     1       1.311   5.415   3.763  1.00  0.00     0.345 HD
ENDBRANCH   1   2
BRANCH   1   6
ATOM      6  C   UNL     1       0.738   8.227   2.555  1.00  0.00     0.099 C 
ATOM      7  O   UNL     1       1.045   9.275   1.927  1.00  0.00    -0.544 OA
ATOM      8  O   UNL     1      -0.376   8.231   3.386  1.00  0.00    -0.544 OA
ENDBRANCH   1   6
BRANCH   1   9
ATOM      9  C   UNL     1       2.148   6.769   0.999  1.00  0.00     0.047 C 
ATOM     10  C   UNL     1       3.607   6.284   0.974  1.00  0.00     0.014 C 
ATOM     11  C   UNL     1       1.262   5.813   0.186  1.00  0.00     0.014 C 
ENDBRANCH   1   9
TORSDOF 3
ENDMDL
MODEL 8
REMARK VINA RESULT:    -2.938     15.721     16.198
REMARK INTER + INTRA:          -3.440
REMARK INTER:                  -3.392
REMARK INTRA:                  -0.048
REMARK UNBOUND:                -0.072
REMARK SMILES CC(C)[C@H]([NH3+])C(=O)[O-]
REMARK SMILES IDX 4 1 5 2 6 6 7 7 8 8 2 9 1 10 3 11
REMARK H PARENT 5 3 5 4 5 5
REMARK Flexibility Score: inf
ROOT
ATOM      1  C   UNL     1       7.907  -8.169   1.333  1.00  0.00     0.230 C 
ENDROOT
BRANCH   1   2
ATOM      2  N   UNL     1       8.924  -8.565   0.348  1.00  0.00    -0.350 N 
ATOM      3  H   UNL     1       8.887  -9.590   0.149  1.00  0.00     0.345 HD
ATOM      4  H   UNL     1       8.784  -8.036  -0.544  1.00  0.00     0.345 HD
ATOM      5  H   UNL     1       9.876  -8.331   0.716  1.00  0.00     0.345 HD
ENDBRANCH   1   2
BRANCH   1   6
ATOM      6  C   UNL     1       6.673  -7.633   0.648  1.00  0.00     0.099 C 
ATOM      7  O   UNL     1       6.626  -6.439   0.246  1.00  0.00    -0.544 OA
ATOM      8  O   UNL     1       5.564  -8.453   0.481  1.00  0.00    -0.544 OA
ENDBRANCH   1   6
BRANCH   1   9
ATOM      9  C   UNL     1       8.484  -7.183   2.395  1.00  0.00     0.047 C 
ATOM     10  C   UNL     1       8.593  -7.788   3.805  1.00  0.00     0.014 C 
ATOM     11  C   UNL     1       9.846  -6.625   1.955  1.00  0.00     0.014 C 
ENDBRANCH   1   9
TORSDOF 3
ENDMDL
MODEL 9
REMARK VINA RESULT:    -2.927      2.120      2.718
REMARK INTER + INTRA:          -3.427
REMARK INTER:                  -3.377
REMARK INTRA:                  -0.050
REMARK UNBOUND:                -0.072
REMARK SMILES CC(C)[C@H]([NH3+])C(=O)[O-]
REMARK SMILES IDX 4 1 5 2 6 6 7 7 8 8 2 9 1 10 3 11
REMARK H PARENT 5 3 5 4 5 5
REMARK Flexibility Score: inf
ROOT
ATOM      1  C   UNL     1       2.701   6.783   0.612  1.00  0.00     0.230 C 
ENDROOT
BRANCH   1   2
ATOM      2  N   UNL     1       2.445   8.198   0.303  1.00  0.00    -0.350 N 
ATOM      3  H   UNL     1       1.673   8.585   0.891  1.00  0.00     0.345 HD
ATOM      4  H   UNL     1       3.312   8.762   0.460  1.00  0.00     0.345 HD
ATOM      5  H   UNL     1       2.176   8.292  -0.704  1.00  0.00     0.345 HD
ENDBRANCH   1   2
BRANCH   1   6
ATOM      6  C   UNL     1       1.407   6.008   0.693  1.00  0.00     0.099 C 
ATOM      7  O   UNL     1       0.838   5.592  -0.350  1.00  0.00    -0.544 OA
ATOM      8  O   UNL     1       0.820   5.774   1.930  1.00  0.00    -0.544 OA
ENDBRANCH   1   6
BRANCH   1   9
ATOM      9  C   UNL     1       3.583   6.620   1.886  1.00  0.00     0.047 C 
ATOM     10  C   UNL     1       4.894   5.856   1.637  1.00  0.00     0.014 C 
ATOM     11  C   UNL     1       3.882   7.980   2.535  1.00  0.00     0.014 C 
ENDBRANCH   1   9
TORSDOF 3
ENDMDL
