MODEL 1
REMARK VINA RESULT:    -5.419      0.000      0.000
REMARK INTER + INTRA:          -5.578
REMARK INTER:                  -5.578
REMARK INTRA:                   0.000
REMARK UNBOUND:                 0.000
REMARK SMILES Cc1cccc(O)c1C
REMARK SMILES IDX 1 1 2 2 8 3 6 4 5 5 4 6 3 7 9 8 7 9
REMARK H PARENT 7 10
REMARK Flexibility Score: inf
ROOT
ATOM      1  C   UNL     1       9.506   9.515  79.849  1.00  0.00     0.045 C 
ATOM      2  C   UNL     1       8.796   8.186  79.815  1.00  0.00    -0.045 A 
ATOM      3  C   UNL     1       9.480   6.971  79.530  1.00  0.00    -0.006 A 
ATOM      4  C   UNL     1       8.747   5.757  79.514  1.00  0.00     0.118 A 
ATOM      5  C   UNL     1       7.374   5.763  79.776  1.00  0.00     0.046 A 
ATOM      6  C   UNL     1       6.712   6.956  80.053  1.00  0.00     0.004 A 
ATOM      7  C   UNL     1       7.414   8.157  80.073  1.00  0.00     0.004 A 
ATOM      8  C   UNL     1      10.964   6.941  79.245  1.00  0.00     0.048 C 
ENDROOT
BRANCH   4   9
ATOM      9  O   UNL     1       9.352   4.526  79.243  1.00  0.00    -0.508 OA
ATOM     10  H   UNL     1       9.001   3.872  78.557  1.00  0.00     0.293 HD
ENDBRANCH   4   9
TORSDOF 1
ENDMDL
MODEL 2
REMARK VINA RESULT:    -5.352      1.101      2.801
REMARK INTER + INTRA:          -5.508
REMARK INTER:                  -5.508
REMARK INTRA:                   0.000
REMARK UNBOUND:                 0.000
REMARK SMILES Cc1cccc(O)c1C
REMARK SMILES IDX 1 1 2 2 8 3 6 4 5 5 4 6 3 7 9 8 7 9
REMARK H PARENT 7 10
REMARK Flexibility Score: inf
ROOT
ATOM      1  C   UNL     1       6.477   8.831  81.434  1.00  0.00     0.045 C 
ATOM      2  C   UNL     1       7.677   8.398  80.630  1.00  0.00    -0.045 A 
ATOM      3  C   UNL     1       7.677   7.204  79.856  1.00  0.00    -0.006 A 
ATOM      4  C   UNL     1       8.841   6.859  79.124  1.00  0.00     0.118 A 
ATOM      5  C   UNL     1       9.968   7.685  79.168  1.00  0.00     0.046 A 
ATOM      6  C   UNL     1       9.961   8.852  79.928  1.00  0.00     0.004 A 
ATOM      7  C   UNL     1       8.827   9.207  80.653  1.00  0.00     0.004 A 
ATOM      8  C   UNL     1       6.470   6.296  79.793  1.00  0.00     0.048 C 
ENDROOT
BRANCH   4   9
ATOM      9  O   UNL     1       8.913   5.702  78.342  1.00  0.00    -0.508 OA
ATOM     10  H   UNL     1       9.655   5.524  77.678  1.00  0.00     0.293 HD
ENDBRANCH   4   9
TORSDOF 1
ENDMDL
MODEL 3
REMARK VINA RESULT:    -5.323      1.179      2.169
REMARK INTER + INTRA:          -5.479
REMARK INTER:                  -5.479
REMARK INTRA:                   0.000
REMARK UNBOUND:                 0.000
REMARK SMILES Cc1cccc(O)c1C
REMARK SMILES IDX 1 1 2 2 8 3 6 4 5 5 4 6 3 7 9 8 7 9
REMARK H PARENT 7 10
REMARK Flexibility Score: inf
ROOT
ATOM      1  C   UNL     1       6.690   9.211  80.921  1.00  0.00     0.045 C 
ATOM      2  C   UNL     1       7.493   8.079  80.333  1.00  0.00    -0.045 A 
ATOM      3  C   UNL     1       8.835   8.254  79.894  1.00  0.00    -0.006 A 
ATOM      4  C   UNL     1       9.531   7.144  79.350  1.00  0.00     0.118 A 
ATOM      5  C   UNL     1       8.899   5.901  79.251  1.00  0.00     0.046 A 
ATOM      6  C   UNL     1       7.585   5.738  79.682  1.00  0.00     0.004 A 
ATOM      7  C   UNL     1       6.887   6.815  80.219  1.00  0.00     0.004 A 
ATOM      8  C   UNL     1       9.538   9.588  79.992  1.00  0.00     0.048 C 
ENDROOT
BRANCH   4   9
ATOM      9  O   UNL     1      10.850   7.240  78.899  1.00  0.00    -0.508 OA
ATOM     10  H   UNL     1      11.097   7.440  77.939  1.00  0.00     0.293 HD
ENDBRANCH   4   9
TORSDOF 1
ENDMDL
MODEL 4
REMARK VINA RESULT:    -5.105      1.718      2.850
REMARK INTER + INTRA:          -5.254
REMARK INTER:                  -5.254
REMARK INTRA:                   0.000
REMARK UNBOUND:                 0.000
REMARK SMILES Cc1cccc(O)c1C
REMARK SMILES IDX 1 1 2 2 8 3 6 4 5 5 4 6 3 7 9 8 7 9
REMARK H PARENT 7 10
REMARK Flexibility Score: inf
ROOT
ATOM      1  C   UNL     1       9.658   4.284  79.927  1.00  0.00     0.045 C 
ATOM      2  C   UNL     1       8.912   5.579  79.728  1.00  0.00    -0.045 A 
ATOM      3  C   UNL     1       9.582   6.796  79.420  1.00  0.00    -0.006 A 
ATOM      4  C   UNL     1       8.816   7.977  79.246  1.00  0.00     0.118 A 
ATOM      5  C   UNL     1       7.425   7.936  79.376  1.00  0.00     0.046 A 
ATOM      6  C   UNL     1       6.777   6.741  79.678  1.00  0.00     0.004 A 
ATOM      7  C   UNL     1       7.512   5.572  79.852  1.00  0.00     0.004 A 
ATOM      8  C   UNL     1      11.085   6.864  79.274  1.00  0.00     0.048 C 
ENDROOT
BRANCH   4   9
ATOM      9  O   UNL     1       9.405   9.208  78.942  1.00  0.00    -0.508 OA
ATOM     10  H   UNL     1       9.076   9.815  78.203  1.00  0.00     0.293 HD
ENDBRANCH   4   9
TORSDOF 1
ENDMDL
MODEL 5
REMARK VINA RESULT:    -5.014      1.998      2.931
REMARK INTER + INTRA:          -5.161
REMARK INTER:                  -5.161
REMARK INTRA:                   0.000
REMARK UNBOUND:                 0.000
REMARK SMILES Cc1cccc(O)c1C
REMARK SMILES IDX 1 1 2 2 8 3 6 4 5 5 4 6 3 7 9 8 7 9
REMARK H PARENT 7 10
REMARK Flexibility Score: inf
ROOT
ATOM      1  C   UNL     1      10.782   6.931  79.160  1.00  0.00     0.045 C 
ATOM      2  C   UNL     1       9.342   7.116  79.569  1.00  0.00    -0.045 A 
ATOM      3  C   UNL     1       8.830   8.378  79.980  1.00  0.00    -0.006 A 
ATOM      4  C   UNL     1       7.465   8.479  80.351  1.00  0.00     0.118 A 
ATOM      5  C   UNL     1       6.642   7.350  80.309  1.00  0.00     0.046 A 
ATOM      6  C   UNL     1       7.151   6.118  79.906  1.00  0.00     0.004 A 
ATOM      7  C   UNL     1       8.488   6.000  79.538  1.00  0.00     0.004 A 
ATOM      8  C   UNL     1       9.701   9.612  80.032  1.00  0.00     0.048 C 
ENDROOT
BRANCH   4   9
ATOM      9  O   UNL     1       6.893   9.685  80.764  1.00  0.00    -0.508 OA
ATOM     10  H   UNL     1       6.267  10.231  80.188  1.00  0.00     0.293 HD
ENDBRANCH   4   9
TORSDOF 1
ENDMDL
MODEL 6
REMARK VINA RESULT:    -5.003      1.486      2.711
REMARK INTER + INTRA:          -5.150
REMARK INTER:                  -5.150
REMARK INTRA:                   0.000
REMARK UNBOUND:                 0.000
REMARK SMILES Cc1cccc(O)c1C
REMARK SMILES IDX 1 1 2 2 8 3 6 4 5 5 4 6 3 7 9 8 7 9
REMARK H PARENT 7 10
REMARK Flexibility Score: inf
ROOT
ATOM      1  C   UNL     1       9.760  10.045  79.650  1.00  0.00     0.045 C 
ATOM      2  C   UNL     1       9.271   8.618  79.633  1.00  0.00    -0.045 A 
ATOM      3  C   UNL     1       7.951   8.268  80.030  1.00  0.00    -0.006 A 
ATOM      4  C   UNL     1       7.559   6.906  79.989  1.00  0.00     0.118 A 
ATOM      5  C   UNL     1       8.463   5.929  79.562  1.00  0.00     0.046 A 
ATOM      6  C   UNL     1       9.754   6.279  79.176  1.00  0.00     0.004 A 
ATOM      7  C   UNL     1      10.156   7.611  79.210  1.00  0.00     0.004 A 
ATOM      8  C   UNL     1       6.956   9.308  80.493  1.00  0.00     0.048 C 
ENDROOT
BRANCH   4   9
ATOM      9  O   UNL     1       6.279   6.488  80.363  1.00  0.00    -0.508 OA
ATOM     10  H   UNL     1       5.436   6.778  79.886  1.00  0.00     0.293 HD
ENDBRANCH   4   9
TORSDOF 1
ENDMDL
MODEL 7
REMARK VINA RESULT:    -4.843      2.153      3.777
REMARK INTER + INTRA:          -4.985
REMARK INTER:                  -4.985
REMARK INTRA:                   0.000
REMARK UNBOUND:                 0.000
REMARK SMILES Cc1cccc(O)c1C
REMARK SMILES IDX 1 1 2 2 8 3 6 4 5 5 4 6 3 7 9 8 7 9
REMARK H PARENT 7 10
REMARK Flexibility Score: inf
ROOT
ATOM      1  C   UNL     1       6.419   6.475  79.824  1.00  0.00     0.045 C 
ATOM      2  C   UNL     1       7.789   7.097  79.731  1.00  0.00    -0.045 A 
ATOM      3  C   UNL     1       8.034   8.446  80.112  1.00  0.00    -0.006 A 
ATOM      4  C   UNL     1       9.349   8.965  79.998  1.00  0.00     0.118 A 
ATOM      5  C   UNL     1      10.382   8.157  79.517  1.00  0.00     0.046 A 
ATOM      6  C   UNL     1      10.135   6.837  79.146  1.00  0.00     0.004 A 
ATOM      7  C   UNL     1       8.851   6.311  79.251  1.00  0.00     0.004 A 
ATOM      8  C   UNL     1       6.931   9.339  80.635  1.00  0.00     0.048 C 
ENDROOT
BRANCH   4   9
ATOM      9  O   UNL     1       9.663  10.280  80.353  1.00  0.00    -0.508 OA
ATOM     10  H   UNL     1       8.999  11.042  80.314  1.00  0.00     0.293 HD
ENDBRANCH   4   9
TORSDOF 1
ENDMDL
MODEL 8
REMARK VINA RESULT:    -4.570      9.583     11.089
REMARK INTER + INTRA:          -4.704
REMARK INTER:                  -4.704
REMARK INTRA:                   0.000
REMARK UNBOUND:                 0.000
REMARK SMILES Cc1cccc(O)c1C
REMARK SMILES IDX 1 1 2 2 8 3 6 4 5 5 4 6 3 7 9 8 7 9
REMARK H PARENT 7 10
REMARK Flexibility Score: inf
ROOT
ATOM      1  C   UNL     1      -0.066   4.000  89.083  1.00  0.00     0.045 C 
ATOM      2  C   UNL     1       1.125   3.718  88.202  1.00  0.00    -0.045 A 
ATOM      3  C   UNL     1       1.462   4.550  87.099  1.00  0.00    -0.006 A 
ATOM      4  C   UNL     1       2.597   4.224  86.313  1.00  0.00     0.118 A 
ATOM      5  C   UNL     1       3.368   3.101  86.627  1.00  0.00     0.046 A 
ATOM      6  C   UNL     1       3.031   2.291  87.708  1.00  0.00     0.004 A 
ATOM      7  C   UNL     1       1.921   2.595  88.490  1.00  0.00     0.004 A 
ATOM      8  C   UNL     1       0.645   5.770  86.742  1.00  0.00     0.048 C 
ENDROOT
BRANCH   4   9
ATOM      9  O   UNL     1       2.989   4.995  85.215  1.00  0.00    -0.508 OA
ATOM     10  H   UNL     1       3.917   4.963  84.814  1.00  0.00     0.293 HD
ENDBRANCH   4   9
TORSDOF 1
ENDMDL
MODEL 9
REMARK VINA RESULT:    -4.501      9.197     10.645
REMARK INTER + INTRA:          -4.632
REMARK INTER:                  -4.632
REMARK INTRA:                   0.000
REMARK UNBOUND:                 0.000
REMARK SMILES Cc1cccc(O)c1C
REMARK SMILES IDX 1 1 2 2 8 3 6 4 5 5 4 6 3 7 9 8 7 9
REMARK H PARENT 7 10
REMARK Flexibility Score: inf
ROOT
ATOM      1  C   UNL     1       0.096   4.273  88.938  1.00  0.00     0.045 C 
ATOM      2  C   UNL     1       1.040   4.481  87.781  1.00  0.00    -0.045 A 
ATOM      3  C   UNL     1       2.044   3.530  87.446  1.00  0.00    -0.006 A 
ATOM      4  C   UNL     1       2.897   3.792  86.343  1.00  0.00     0.118 A 
ATOM      5  C   UNL     1       2.746   4.967  85.602  1.00  0.00     0.046 A 
ATOM      6  C   UNL     1       1.760   5.893  85.937  1.00  0.00     0.004 A 
ATOM      7  C   UNL     1       0.914   5.653  87.015  1.00  0.00     0.004 A 
ATOM      8  C   UNL     1       2.226   2.252  88.232  1.00  0.00     0.048 C 
ENDROOT
BRANCH   4   9
ATOM      9  O   UNL     1       3.906   2.904  85.956  1.00  0.00    -0.508 OA
ATOM     10  H   UNL     1       3.768   1.906  85.873  1.00  0.00     0.293 HD
ENDBRANCH   4   9
TORSDOF 1
ENDMDL
