MODEL 1
REMARK VINA RESULT:     5.676      0.000      0.000
REMARK INTER + INTRA:           9.333
REMARK INTER:                  10.322
REMARK INTRA:                  -0.989
REMARK UNBOUND:                -0.989
REMARK SMILES CCCCCCCCCCCCCC[C@@H](C)C(=O)[O-]
REMARK SMILES IDX 9 1 10 2 11 3 12 4 13 5 14 6 15 7 16 8 17 9 18 10 19 11 8 12
REMARK SMILES IDX 7 13 6 14 5 15 4 16 3 17 2 18 1 19
REMARK H PARENT
REMARK Flexibility Score: inf
ROOT
ATOM      1  C   UNL     1      22.029 -20.575  25.645  1.00  0.00     0.000 C 
ENDROOT
BRANCH   1   2
ATOM      2  C   UNL     1      20.566 -20.790  26.067  1.00  0.00     0.000 C 
BRANCH   2   3
ATOM      3  C   UNL     1      19.873 -19.486  26.498  1.00  0.00     0.000 C 
BRANCH   3   4
ATOM      4  C   UNL     1      18.704 -19.073  25.580  1.00  0.00     0.000 C 
BRANCH   4   5
ATOM      5  C   UNL     1      17.463 -18.638  26.380  1.00  0.00     0.001 C 
BRANCH   5   6
ATOM      6  C   UNL     1      16.611 -19.832  26.859  1.00  0.00     0.009 C 
BRANCH   6   7
ATOM      7  C   UNL     1      15.958 -19.610  28.243  1.00  0.00     0.032 C 
ATOM      8  C   UNL     1      16.022 -20.892  29.079  1.00  0.00     0.014 C 
BRANCH   7   9
ATOM      9  C   UNL     1      16.617 -18.489  28.998  1.00  0.00     0.044 C 
ATOM     10  O   UNL     1      17.663 -18.705  29.665  1.00  0.00    -0.550 OA
ATOM     11  O   UNL     1      16.085 -17.205  28.956  1.00  0.00    -0.550 OA
ENDBRANCH   7   9
ENDBRANCH   6   7
ENDBRANCH   5   6
ENDBRANCH   4   5
ENDBRANCH   3   4
ENDBRANCH   2   3
ENDBRANCH   1   2
BRANCH   1  12
ATOM     12  C   UNL     1      22.285 -20.972  24.181  1.00  0.00     0.000 C 
BRANCH  12  13
ATOM     13  C   UNL     1      23.742 -20.731  23.748  1.00  0.00    -0.000 C 
BRANCH  13  14
ATOM     14  C   UNL     1      24.448 -22.021  23.300  1.00  0.00    -0.000 C 
BRANCH  14  15
ATOM     15  C   UNL     1      25.043 -22.809  24.481  1.00  0.00    -0.000 C 
BRANCH  15  16
ATOM     16  C   UNL     1      25.712 -21.901  25.530  1.00  0.00    -0.000 C 
BRANCH  16  17
ATOM     17  C   UNL     1      25.589 -22.385  26.987  1.00  0.00    -0.000 C 
BRANCH  17  18
ATOM     18  C   UNL     1      24.132 -22.536  27.447  1.00  0.00    -0.003 C 
ATOM     19  C   UNL     1      23.981 -22.172  28.922  1.00  0.00     0.004 C 
ENDBRANCH  17  18
ENDBRANCH  16  17
ENDBRANCH  15  16
ENDBRANCH  14  15
ENDBRANCH  13  14
ENDBRANCH  12  13
ENDBRANCH   1  12
TORSDOF 14
ENDMDL
MODEL 2
REMARK VINA RESULT:     6.692      3.937      8.423
REMARK INTER + INTRA:          11.180
REMARK INTER:                  12.111
REMARK INTRA:                  -0.932
REMARK UNBOUND:                -0.989
REMARK SMILES CCCCCCCCCCCCCC[C@@H](C)C(=O)[O-]
REMARK SMILES IDX 9 1 10 2 11 3 12 4 13 5 14 6 15 7 16 8 17 9 18 10 19 11 8 12
REMARK SMILES IDX 7 13 6 14 5 15 4 16 3 17 2 18 1 19
REMARK H PARENT
REMARK Flexibility Score: inf
ROOT
ATOM      1  C   UNL     1      20.592 -19.560  26.037  1.00  0.00     0.000 C 
ENDROOT
BRANCH   1   2
ATOM      2  C   UNL     1      21.190 -20.970  25.915  1.00  0.00     0.000 C 
BRANCH   2   3
ATOM      3  C   UNL     1      21.774 -21.252  24.520  1.00  0.00     0.000 C 
BRANCH   3   4
ATOM      4  C   UNL     1      23.067 -20.466  24.220  1.00  0.00     0.000 C 
BRANCH   4   5
ATOM      5  C   UNL     1      24.115 -21.328  23.494  1.00  0.00     0.001 C 
BRANCH   5   6
ATOM      6  C   UNL     1      24.608 -22.516  24.347  1.00  0.00     0.009 C 
BRANCH   6   7
ATOM      7  C   UNL     1      25.400 -22.089  25.603  1.00  0.00     0.032 C 
ATOM      8  C   UNL     1      24.497 -22.107  26.840  1.00  0.00     0.014 C 
BRANCH   7   9
ATOM      9  C   UNL     1      26.589 -22.978  25.842  1.00  0.00     0.044 C 
ATOM     10  O   UNL     1      27.289 -22.833  26.878  1.00  0.00    -0.550 OA
ATOM     11  O   UNL     1      26.917 -23.975  24.928  1.00  0.00    -0.550 OA
ENDBRANCH   7   9
ENDBRANCH   6   7
ENDBRANCH   5   6
ENDBRANCH   4   5
ENDBRANCH   3   4
ENDBRANCH   2   3
ENDBRANCH   1   2
BRANCH   1  12
ATOM     12  C   UNL     1      19.157 -19.573  26.591  1.00  0.00     0.000 C 
BRANCH  12  13
ATOM     13  C   UNL     1      18.176 -18.772  25.716  1.00  0.00    -0.000 C 
BRANCH  13  14
ATOM     14  C   UNL     1      16.872 -18.426  26.454  1.00  0.00    -0.000 C 
BRANCH  14  15
ATOM     15  C   UNL     1      17.083 -18.233  27.965  1.00  0.00    -0.000 C 
BRANCH  15  16
ATOM     16  C   UNL     1      16.134 -19.095  28.819  1.00  0.00    -0.000 C 
BRANCH  16  17
ATOM     17  C   UNL     1      15.875 -20.513  28.278  1.00  0.00    -0.000 C 
BRANCH  17  18
ATOM     18  C   UNL     1      16.323 -21.616  29.248  1.00  0.00    -0.003 C 
ATOM     19  C   UNL     1      16.385 -22.971  28.549  1.00  0.00     0.004 C 
ENDBRANCH  17  18
ENDBRANCH  16  17
ENDBRANCH  15  16
ENDBRANCH  14  15
ENDBRANCH  13  14
ENDBRANCH  12  13
ENDBRANCH   1  12
TORSDOF 14
ENDMDL
MODEL 3
REMARK VINA RESULT:     6.846      4.715      7.814
REMARK INTER + INTRA:          11.460
REMARK INTER:                  12.471
REMARK INTRA:                  -1.011
REMARK UNBOUND:                -0.989
REMARK SMILES CCCCCCCCCCCCCC[C@@H](C)C(=O)[O-]
REMARK SMILES IDX 9 1 10 2 11 3 12 4 13 5 14 6 15 7 16 8 17 9 18 10 19 11 8 12
REMARK SMILES IDX 7 13 6 14 5 15 4 16 3 17 2 18 1 19
REMARK H PARENT
REMARK Flexibility Score: inf
ROOT
ATOM      1  C   UNL     1      17.737 -18.580  25.079  1.00  0.00     0.000 C 
ENDROOT
BRANCH   1   2
ATOM      2  C   UNL     1      17.515 -19.048  26.526  1.00  0.00     0.000 C 
BRANCH   2   3
ATOM      3  C   UNL     1      18.767 -19.695  27.142  1.00  0.00     0.000 C 
BRANCH   3   4
ATOM      4  C   UNL     1      20.062 -19.411  26.354  1.00  0.00     0.000 C 
BRANCH   4   5
ATOM      5  C   UNL     1      21.062 -20.578  26.439  1.00  0.00     0.001 C 
BRANCH   5   6
ATOM      6  C   UNL     1      21.643 -20.970  25.065  1.00  0.00     0.009 C 
BRANCH   6   7
ATOM      7  C   UNL     1      23.178 -20.808  24.973  1.00  0.00     0.032 C 
ATOM      8  C   UNL     1      23.881 -21.829  25.873  1.00  0.00     0.014 C 
BRANCH   7   9
ATOM      9  C   UNL     1      23.673 -20.965  23.561  1.00  0.00     0.044 C 
ATOM     10  O   UNL     1      23.392 -20.098  22.693  1.00  0.00    -0.550 OA
ATOM     11  O   UNL     1      24.453 -22.061  23.208  1.00  0.00    -0.550 OA
ENDBRANCH   7   9
ENDBRANCH   6   7
ENDBRANCH   5   6
ENDBRANCH   4   5
ENDBRANCH   3   4
ENDBRANCH   2   3
ENDBRANCH   1   2
BRANCH   1  12
ATOM     12  C   UNL     1      16.888 -19.369  24.067  1.00  0.00     0.000 C 
BRANCH  12  13
ATOM     13  C   UNL     1      17.697 -19.817  22.837  1.00  0.00    -0.000 C 
BRANCH  13  14
ATOM     14  C   UNL     1      16.864 -20.658  21.855  1.00  0.00    -0.000 C 
BRANCH  14  15
ATOM     15  C   UNL     1      16.515 -22.047  22.417  1.00  0.00    -0.000 C 
BRANCH  15  16
ATOM     16  C   UNL     1      16.445 -23.134  21.328  1.00  0.00    -0.000 C 
BRANCH  16  17
ATOM     17  C   UNL     1      17.719 -23.985  21.172  1.00  0.00    -0.000 C 
BRANCH  17  18
ATOM     18  C   UNL     1      18.074 -24.268  19.705  1.00  0.00    -0.003 C 
ATOM     19  C   UNL     1      18.496 -22.989  18.986  1.00  0.00     0.004 C 
ENDBRANCH  17  18
ENDBRANCH  16  17
ENDBRANCH  15  16
ENDBRANCH  14  15
ENDBRANCH  13  14
ENDBRANCH  12  13
ENDBRANCH   1  12
TORSDOF 14
ENDMDL
MODEL 4
REMARK VINA RESULT:     6.850      4.001      8.431
REMARK INTER + INTRA:          11.468
REMARK INTER:                  12.715
REMARK INTRA:                  -1.248
REMARK UNBOUND:                -0.989
REMARK SMILES CCCCCCCCCCCCCC[C@@H](C)C(=O)[O-]
REMARK SMILES IDX 9 1 10 2 11 3 12 4 13 5 14 6 15 7 16 8 17 9 18 10 19 11 8 12
REMARK SMILES IDX 7 13 6 14 5 15 4 16 3 17 2 18 1 19
REMARK H PARENT
REMARK Flexibility Score: inf
ROOT
ATOM      1  C   UNL     1      20.834 -19.519  26.362  1.00  0.00     0.000 C 
ENDROOT
BRANCH   1   2
ATOM      2  C   UNL     1      21.523 -20.851  26.022  1.00  0.00     0.000 C 
BRANCH   2   3
ATOM      3  C   UNL     1      21.796 -21.013  24.516  1.00  0.00     0.000 C 
BRANCH   3   4
ATOM      4  C   UNL     1      23.080 -20.303  24.040  1.00  0.00     0.000 C 
BRANCH   4   5
ATOM      5  C   UNL     1      24.118 -21.293  23.482  1.00  0.00     0.001 C 
BRANCH   5   6
ATOM      6  C   UNL     1      24.371 -22.489  24.424  1.00  0.00     0.009 C 
BRANCH   6   7
ATOM      7  C   UNL     1      25.329 -22.164  25.593  1.00  0.00     0.032 C 
ATOM      8  C   UNL     1      24.576 -22.184  26.927  1.00  0.00     0.014 C 
BRANCH   7   9
ATOM      9  C   UNL     1      26.481 -23.129  25.657  1.00  0.00     0.044 C 
ATOM     10  O   UNL     1      26.628 -23.998  24.758  1.00  0.00    -0.550 OA
ATOM     11  O   UNL     1      27.398 -23.061  26.700  1.00  0.00    -0.550 OA
ENDBRANCH   7   9
ENDBRANCH   6   7
ENDBRANCH   5   6
ENDBRANCH   4   5
ENDBRANCH   3   4
ENDBRANCH   2   3
ENDBRANCH   1   2
BRANCH   1  12
ATOM     12  C   UNL     1      19.340 -19.693  26.684  1.00  0.00     0.000 C 
BRANCH  12  13
ATOM     13  C   UNL     1      18.443 -18.748  25.864  1.00  0.00    -0.000 C 
BRANCH  13  14
ATOM     14  C   UNL     1      16.950 -19.098  25.983  1.00  0.00    -0.000 C 
BRANCH  14  15
ATOM     15  C   UNL     1      16.684 -20.197  27.026  1.00  0.00    -0.000 C 
BRANCH  15  16
ATOM     16  C   UNL     1      16.046 -19.655  28.319  1.00  0.00    -0.000 C 
BRANCH  16  17
ATOM     17  C   UNL     1      17.041 -19.305  29.441  1.00  0.00    -0.000 C 
BRANCH  17  18
ATOM     18  C   UNL     1      17.052 -17.810  29.787  1.00  0.00    -0.003 C 
ATOM     19  C   UNL     1      16.067 -17.036  28.916  1.00  0.00     0.004 C 
ENDBRANCH  17  18
ENDBRANCH  16  17
ENDBRANCH  15  16
ENDBRANCH  14  15
ENDBRANCH  13  14
ENDBRANCH  12  13
ENDBRANCH   1  12
TORSDOF 14
ENDMDL
MODEL 5
REMARK VINA RESULT:     7.127     13.321     15.174
REMARK INTER + INTRA:          11.971
REMARK INTER:                  12.615
REMARK INTRA:                  -0.644
REMARK UNBOUND:                -0.989
REMARK SMILES CCCCCCCCCCCCCC[C@@H](C)C(=O)[O-]
REMARK SMILES IDX 9 1 10 2 11 3 12 4 13 5 14 6 15 7 16 8 17 9 18 10 19 11 8 12
REMARK SMILES IDX 7 13 6 14 5 15 4 16 3 17 2 18 1 19
REMARK H PARENT
REMARK Flexibility Score: inf
ROOT
ATOM      1  C   UNL     1      24.523 -22.176  14.394  1.00  0.00     0.000 C 
ENDROOT
BRANCH   1   2
ATOM      2  C   UNL     1      25.303 -20.858  14.265  1.00  0.00     0.000 C 
BRANCH   2   3
ATOM      3  C   UNL     1      25.619 -20.216  15.627  1.00  0.00     0.000 C 
BRANCH   3   4
ATOM      4  C   UNL     1      25.407 -18.688  15.656  1.00  0.00     0.000 C 
BRANCH   4   5
ATOM      5  C   UNL     1      26.737 -17.920  15.752  1.00  0.00     0.001 C 
BRANCH   5   6
ATOM      6  C   UNL     1      26.615 -16.452  15.294  1.00  0.00     0.009 C 
BRANCH   6   7
ATOM      7  C   UNL     1      27.976 -15.775  15.014  1.00  0.00     0.032 C 
ATOM      8  C   UNL     1      28.843 -15.769  16.277  1.00  0.00     0.014 C 
BRANCH   7   9
ATOM      9  C   UNL     1      28.722 -16.459  13.902  1.00  0.00     0.044 C 
ATOM     10  O   UNL     1      28.136 -16.730  12.821  1.00  0.00    -0.550 OA
ATOM     11  O   UNL     1      30.066 -16.786  14.053  1.00  0.00    -0.550 OA
ENDBRANCH   7   9
ENDBRANCH   6   7
ENDBRANCH   5   6
ENDBRANCH   4   5
ENDBRANCH   3   4
ENDBRANCH   2   3
ENDBRANCH   1   2
BRANCH   1  12
ATOM     12  C   UNL     1      25.259 -23.215  15.257  1.00  0.00     0.000 C 
BRANCH  12  13
ATOM     13  C   UNL     1      26.023 -24.251  14.413  1.00  0.00    -0.000 C 
BRANCH  13  14
ATOM     14  C   UNL     1      27.509 -23.893  14.238  1.00  0.00    -0.000 C 
BRANCH  14  15
ATOM     15  C   UNL     1      28.380 -25.124  13.933  1.00  0.00    -0.000 C 
BRANCH  15  16
ATOM     16  C   UNL     1      29.888 -24.807  13.938  1.00  0.00    -0.000 C 
BRANCH  16  17
ATOM     17  C   UNL     1      30.585 -24.928  12.570  1.00  0.00    -0.000 C 
BRANCH  17  18
ATOM     18  C   UNL     1      32.089 -24.628  12.636  1.00  0.00    -0.003 C 
ATOM     19  C   UNL     1      32.374 -23.167  12.299  1.00  0.00     0.004 C 
ENDBRANCH  17  18
ENDBRANCH  16  17
ENDBRANCH  15  16
ENDBRANCH  14  15
ENDBRANCH  13  14
ENDBRANCH  12  13
ENDBRANCH   1  12
TORSDOF 14
ENDMDL
MODEL 6
REMARK VINA RESULT:     7.343     12.566     14.661
REMARK INTER + INTRA:          12.363
REMARK INTER:                  12.928
REMARK INTRA:                  -0.565
REMARK UNBOUND:                -0.989
REMARK SMILES CCCCCCCCCCCCCC[C@@H](C)C(=O)[O-]
REMARK SMILES IDX 9 1 10 2 11 3 12 4 13 5 14 6 15 7 16 8 17 9 18 10 19 11 8 12
REMARK SMILES IDX 7 13 6 14 5 15 4 16 3 17 2 18 1 19
REMARK H PARENT
REMARK Flexibility Score: inf
ROOT
ATOM      1  C   UNL     1      24.415 -21.857  14.498  1.00  0.00     0.000 C 
ENDROOT
BRANCH   1   2
ATOM      2  C   UNL     1      25.114 -20.881  15.458  1.00  0.00     0.000 C 
BRANCH   2   3
ATOM      3  C   UNL     1      24.350 -19.555  15.620  1.00  0.00     0.000 C 
BRANCH   3   4
ATOM      4  C   UNL     1      25.194 -18.427  16.248  1.00  0.00     0.000 C 
BRANCH   4   5
ATOM      5  C   UNL     1      26.460 -18.125  15.428  1.00  0.00     0.001 C 
BRANCH   5   6
ATOM      6  C   UNL     1      26.857 -16.635  15.465  1.00  0.00     0.009 C 
BRANCH   6   7
ATOM      7  C   UNL     1      28.381 -16.396  15.365  1.00  0.00     0.032 C 
ATOM      8  C   UNL     1      28.797 -16.181  13.906  1.00  0.00     0.014 C 
BRANCH   7   9
ATOM      9  C   UNL     1      28.816 -15.214  16.187  1.00  0.00     0.044 C 
ATOM     10  O   UNL     1      28.745 -14.052  15.709  1.00  0.00    -0.550 OA
ATOM     11  O   UNL     1      29.288 -15.394  17.482  1.00  0.00    -0.550 OA
ENDBRANCH   7   9
ENDBRANCH   6   7
ENDBRANCH   5   6
ENDBRANCH   4   5
ENDBRANCH   3   4
ENDBRANCH   2   3
ENDBRANCH   1   2
BRANCH   1  12
ATOM     12  C   UNL     1      24.873 -23.312  14.699  1.00  0.00     0.000 C 
BRANCH  12  13
ATOM     13  C   UNL     1      26.346 -23.414  15.137  1.00  0.00    -0.000 C 
BRANCH  13  14
ATOM     14  C   UNL     1      27.305 -23.607  13.951  1.00  0.00    -0.000 C 
BRANCH  14  15
ATOM     15  C   UNL     1      28.038 -24.959  14.000  1.00  0.00    -0.000 C 
BRANCH  15  16
ATOM     16  C   UNL     1      29.402 -24.927  13.284  1.00  0.00    -0.000 C 
BRANCH  16  17
ATOM     17  C   UNL     1      30.628 -25.032  14.209  1.00  0.00    -0.000 C 
BRANCH  17  18
ATOM     18  C   UNL     1      31.960 -24.984  13.446  1.00  0.00    -0.003 C 
ATOM     19  C   UNL     1      31.886 -24.014  12.271  1.00  0.00     0.004 C 
ENDBRANCH  17  18
ENDBRANCH  16  17
ENDBRANCH  15  16
ENDBRANCH  14  15
ENDBRANCH  13  14
ENDBRANCH  12  13
ENDBRANCH   1  12
TORSDOF 14
ENDMDL
MODEL 7
REMARK VINA RESULT:     7.558      5.216      7.057
REMARK INTER + INTRA:          12.755
REMARK INTER:                  13.791
REMARK INTRA:                  -1.036
REMARK UNBOUND:                -0.989
REMARK SMILES CCCCCCCCCCCCCC[C@@H](C)C(=O)[O-]
REMARK SMILES IDX 9 1 10 2 11 3 12 4 13 5 14 6 15 7 16 8 17 9 18 10 19 11 8 12
REMARK SMILES IDX 7 13 6 14 5 15 4 16 3 17 2 18 1 19
REMARK H PARENT
REMARK Flexibility Score: inf
ROOT
ATOM      1  C   UNL     1      17.764 -18.532  24.907  1.00  0.00     0.000 C 
ENDROOT
BRANCH   1   2
ATOM      2  C   UNL     1      16.947 -19.363  23.904  1.00  0.00     0.000 C 
BRANCH   2   3
ATOM      3  C   UNL     1      17.827 -20.055  22.847  1.00  0.00     0.000 C 
BRANCH   3   4
ATOM      4  C   UNL     1      17.022 -20.808  21.768  1.00  0.00     0.000 C 
BRANCH   4   5
ATOM      5  C   UNL     1      16.366 -22.086  22.321  1.00  0.00     0.001 C 
BRANCH   5   6
ATOM      6  C   UNL     1      16.470 -23.280  21.350  1.00  0.00     0.009 C 
BRANCH   6   7
ATOM      7  C   UNL     1      17.921 -23.624  20.944  1.00  0.00     0.032 C 
ATOM      8  C   UNL     1      18.324 -24.994  21.498  1.00  0.00     0.014 C 
BRANCH   7   9
ATOM      9  C   UNL     1      18.099 -23.619  19.450  1.00  0.00     0.044 C 
ATOM     10  O   UNL     1      18.508 -22.582  18.866  1.00  0.00    -0.550 OA
ATOM     11  O   UNL     1      17.825 -24.762  18.706  1.00  0.00    -0.550 OA
ENDBRANCH   7   9
ENDBRANCH   6   7
ENDBRANCH   5   6
ENDBRANCH   4   5
ENDBRANCH   3   4
ENDBRANCH   2   3
ENDBRANCH   1   2
BRANCH   1  12
ATOM     12  C   UNL     1      17.404 -18.851  26.368  1.00  0.00     0.000 C 
BRANCH  12  13
ATOM     13  C   UNL     1      18.554 -19.542  27.124  1.00  0.00    -0.000 C 
BRANCH  13  14
ATOM     14  C   UNL     1      19.901 -19.417  26.395  1.00  0.00    -0.000 C 
BRANCH  14  15
ATOM     15  C   UNL     1      20.595 -20.777  26.199  1.00  0.00    -0.000 C 
BRANCH  15  16
ATOM     16  C   UNL     1      22.040 -20.644  25.685  1.00  0.00    -0.000 C 
BRANCH  16  17
ATOM     17  C   UNL     1      22.250 -21.044  24.213  1.00  0.00    -0.000 C 
BRANCH  17  18
ATOM     18  C   UNL     1      23.676 -20.773  23.715  1.00  0.00    -0.003 C 
ATOM     19  C   UNL     1      24.300 -22.033  23.120  1.00  0.00     0.004 C 
ENDBRANCH  17  18
ENDBRANCH  16  17
ENDBRANCH  15  16
ENDBRANCH  14  15
ENDBRANCH  13  14
ENDBRANCH  12  13
ENDBRANCH   1  12
TORSDOF 14
ENDMDL
