MODEL 1
REMARK VINA RESULT:    -4.334      0.000      0.000
REMARK INTER + INTRA:          -6.814
REMARK INTER:                  -6.361
REMARK INTRA:                  -0.453
REMARK UNBOUND:                -0.453
REMARK SMILES O=C([O-])CCCCCCCC(=O)[O-]
REMARK SMILES IDX 7 1 6 2 5 3 4 4 2 5 1 6 3 7 8 8 9 9 10 10 11 11 12 12 13 13
REMARK H PARENT
REMARK Flexibility Score: inf
ROOT
ATOM      1  C   UNL     1      11.115 -29.972  21.699  1.00  0.00     0.000 C 
ENDROOT
BRANCH   1   2
ATOM      2  C   UNL     1      12.357 -30.779  22.104  1.00  0.00     0.000 C 
BRANCH   2   3
ATOM      3  C   UNL     1      13.361 -30.858  20.948  1.00  0.00     0.006 C 
BRANCH   3   4
ATOM      4  C   UNL     1      14.701 -31.431  21.421  1.00  0.00     0.053 C 
BRANCH   4   5
ATOM      5  C   UNL     1      14.670 -32.926  21.397  1.00  0.00     0.041 C 
ATOM      6  O   UNL     1      14.892 -33.581  22.449  1.00  0.00    -0.550 OA
ATOM      7  O   UNL     1      14.445 -33.597  20.201  1.00  0.00    -0.550 OA
ENDBRANCH   4   5
ENDBRANCH   3   4
ENDBRANCH   2   3
ENDBRANCH   1   2
BRANCH   1   8
ATOM      8  C   UNL     1      10.875 -28.755  22.607  1.00  0.00     0.000 C 
BRANCH   8   9
ATOM      9  C   UNL     1      11.806 -28.737  23.829  1.00  0.00     0.006 C 
BRANCH   9  10
ATOM     10  C   UNL     1      12.025 -27.306  24.329  1.00  0.00     0.053 C 
BRANCH  10  11
ATOM     11  C   UNL     1      13.085 -26.624  23.522  1.00  0.00     0.041 C 
ATOM     12  O   UNL     1      13.189 -25.370  23.545  1.00  0.00    -0.550 OA
ATOM     13  O   UNL     1      13.990 -27.379  22.786  1.00  0.00    -0.550 OA
ENDBRANCH  10  11
ENDBRANCH   9  10
ENDBRANCH   8   9
ENDBRANCH   1   8
TORSDOF 8
ENDMDL
MODEL 2
REMARK VINA RESULT:    -4.299      3.070      6.533
REMARK INTER + INTRA:          -6.763
REMARK INTER:                  -6.242
REMARK INTRA:                  -0.521
REMARK UNBOUND:                -0.453
REMARK SMILES O=C([O-])CCCCCCCC(=O)[O-]
REMARK SMILES IDX 7 1 6 2 5 3 4 4 2 5 1 6 3 7 8 8 9 9 10 10 11 11 12 12 13 13
REMARK H PARENT
REMARK Flexibility Score: inf
ROOT
ATOM      1  C   UNL     1      14.706 -33.137  23.888  1.00  0.00     0.000 C 
ENDROOT
BRANCH   1   2
ATOM      2  C   UNL     1      13.720 -31.964  23.993  1.00  0.00     0.000 C 
BRANCH   2   3
ATOM      3  C   UNL     1      14.120 -30.825  23.047  1.00  0.00     0.006 C 
BRANCH   3   4
ATOM      4  C   UNL     1      12.885 -30.079  22.531  1.00  0.00     0.053 C 
BRANCH   4   5
ATOM      5  C   UNL     1      12.318 -30.770  21.332  1.00  0.00     0.041 C 
ATOM      6  O   UNL     1      11.095 -30.659  21.055  1.00  0.00    -0.550 OA
ATOM      7  O   UNL     1      13.132 -31.578  20.546  1.00  0.00    -0.550 OA
ENDBRANCH   4   5
ENDBRANCH   3   4
ENDBRANCH   2   3
ENDBRANCH   1   2
BRANCH   1   8
ATOM      8  C   UNL     1      15.882 -32.842  22.943  1.00  0.00     0.000 C 
BRANCH   8   9
ATOM      9  C   UNL     1      16.319 -34.077  22.141  1.00  0.00     0.006 C 
BRANCH   9  10
ATOM     10  C   UNL     1      15.303 -34.402  21.041  1.00  0.00     0.053 C 
BRANCH  10  11
ATOM     11  C   UNL     1      15.986 -35.024  19.863  1.00  0.00     0.041 C 
ATOM     12  O   UNL     1      16.020 -36.277  19.740  1.00  0.00    -0.550 OA
ATOM     13  O   UNL     1      16.540 -34.219  18.877  1.00  0.00    -0.550 OA
ENDBRANCH  10  11
ENDBRANCH   9  10
ENDBRANCH   8   9
ENDBRANCH   1   8
TORSDOF 8
ENDMDL
MODEL 3
REMARK VINA RESULT:    -4.295      2.076      3.089
REMARK INTER + INTRA:          -6.756
REMARK INTER:                  -6.370
REMARK INTRA:                  -0.386
REMARK UNBOUND:                -0.453
REMARK SMILES O=C([O-])CCCCCCCC(=O)[O-]
REMARK SMILES IDX 7 1 6 2 5 3 4 4 2 5 1 6 3 7 8 8 9 9 10 10 11 11 12 12 13 13
REMARK H PARENT
REMARK Flexibility Score: inf
ROOT
ATOM      1  C   UNL     1      14.952 -31.976  23.027  1.00  0.00     0.000 C 
ENDROOT
BRANCH   1   2
ATOM      2  C   UNL     1      14.934 -31.872  21.494  1.00  0.00     0.000 C 
BRANCH   2   3
ATOM      3  C   UNL     1      14.482 -33.192  20.860  1.00  0.00     0.006 C 
BRANCH   3   4
ATOM      4  C   UNL     1      15.465 -34.323  21.184  1.00  0.00     0.053 C 
BRANCH   4   5
ATOM      5  C   UNL     1      16.010 -34.919  19.925  1.00  0.00     0.041 C 
ATOM      6  O   UNL     1      16.004 -36.167  19.761  1.00  0.00    -0.550 OA
ATOM      7  O   UNL     1      16.570 -34.098  18.953  1.00  0.00    -0.550 OA
ENDBRANCH   4   5
ENDBRANCH   3   4
ENDBRANCH   2   3
ENDBRANCH   1   2
BRANCH   1   8
ATOM      8  C   UNL     1      13.755 -31.269  23.684  1.00  0.00     0.000 C 
BRANCH   8   9
ATOM      9  C   UNL     1      13.080 -30.256  22.747  1.00  0.00     0.006 C 
BRANCH   9  10
ATOM     10  C   UNL     1      13.436 -28.820  23.144  1.00  0.00     0.053 C 
BRANCH  10  11
ATOM     11  C   UNL     1      12.311 -28.191  23.905  1.00  0.00     0.041 C 
ATOM     12  O   UNL     1      11.120 -28.378  23.543  1.00  0.00    -0.550 OA
ATOM     13  O   UNL     1      12.576 -27.440  25.042  1.00  0.00    -0.550 OA
ENDBRANCH  10  11
ENDBRANCH   9  10
ENDBRANCH   8   9
ENDBRANCH   1   8
TORSDOF 8
ENDMDL
MODEL 4
REMARK VINA RESULT:    -4.279      2.410      7.297
REMARK INTER + INTRA:          -6.733
REMARK INTER:                  -6.516
REMARK INTRA:                  -0.217
REMARK UNBOUND:                -0.453
REMARK SMILES O=C([O-])CCCCCCCC(=O)[O-]
REMARK SMILES IDX 7 1 6 2 5 3 4 4 2 5 1 6 3 7 8 8 9 9 10 10 11 11 12 12 13 13
REMARK H PARENT
REMARK Flexibility Score: inf
ROOT
ATOM      1  C   UNL     1      13.514 -32.049  20.651  1.00  0.00     0.000 C 
ENDROOT
BRANCH   1   2
ATOM      2  C   UNL     1      13.649 -30.661  21.294  1.00  0.00     0.000 C 
BRANCH   2   3
ATOM      3  C   UNL     1      12.557 -30.434  22.345  1.00  0.00     0.006 C 
BRANCH   3   4
ATOM      4  C   UNL     1      13.109 -29.678  23.558  1.00  0.00     0.053 C 
BRANCH   4   5
ATOM      5  C   UNL     1      12.197 -28.554  23.935  1.00  0.00     0.041 C 
ATOM      6  O   UNL     1      11.112 -28.385  23.320  1.00  0.00    -0.550 OA
ATOM      7  O   UNL     1      12.569 -27.663  24.935  1.00  0.00    -0.550 OA
ENDBRANCH   4   5
ENDBRANCH   3   4
ENDBRANCH   2   3
ENDBRANCH   1   2
BRANCH   1   8
ATOM      8  C   UNL     1      14.683 -32.983  21.002  1.00  0.00     0.000 C 
BRANCH   8   9
ATOM      9  C   UNL     1      14.801 -34.171  20.035  1.00  0.00     0.006 C 
BRANCH   9  10
ATOM     10  C   UNL     1      16.234 -34.307  19.509  1.00  0.00     0.053 C 
BRANCH  10  11
ATOM     11  C   UNL     1      16.804 -35.641  19.877  1.00  0.00     0.041 C 
ATOM     12  O   UNL     1      17.003 -36.511  18.989  1.00  0.00    -0.550 OA
ATOM     13  O   UNL     1      17.160 -35.904  21.193  1.00  0.00    -0.550 OA
ENDBRANCH  10  11
ENDBRANCH   9  10
ENDBRANCH   8   9
ENDBRANCH   1   8
TORSDOF 8
ENDMDL
MODEL 5
REMARK VINA RESULT:    -4.266      2.143      6.735
REMARK INTER + INTRA:          -6.714
REMARK INTER:                  -6.401
REMARK INTRA:                  -0.314
REMARK UNBOUND:                -0.453
REMARK SMILES O=C([O-])CCCCCCCC(=O)[O-]
REMARK SMILES IDX 7 1 6 2 5 3 4 4 2 5 1 6 3 7 8 8 9 9 10 10 11 11 12 12 13 13
REMARK H PARENT
REMARK Flexibility Score: inf
ROOT
ATOM      1  C   UNL     1      14.532 -30.667  21.373  1.00  0.00     0.000 C 
ENDROOT
BRANCH   1   2
ATOM      2  C   UNL     1      14.556 -29.811  22.648  1.00  0.00     0.000 C 
BRANCH   2   3
ATOM      3  C   UNL     1      13.297 -30.044  23.489  1.00  0.00     0.006 C 
BRANCH   3   4
ATOM      4  C   UNL     1      12.815 -28.739  24.131  1.00  0.00     0.053 C 
BRANCH   4   5
ATOM      5  C   UNL     1      11.575 -28.248  23.453  1.00  0.00     0.041 C 
ATOM      6  O   UNL     1      11.058 -28.915  22.519  1.00  0.00    -0.550 OA
ATOM      7  O   UNL     1      11.019 -27.028  23.819  1.00  0.00    -0.550 OA
ENDBRANCH   4   5
ENDBRANCH   3   4
ENDBRANCH   2   3
ENDBRANCH   1   2
BRANCH   1   8
ATOM      8  C   UNL     1      13.831 -32.019  21.579  1.00  0.00     0.000 C 
BRANCH   8   9
ATOM      9  C   UNL     1      14.230 -33.059  20.521  1.00  0.00     0.006 C 
BRANCH   9  10
ATOM     10  C   UNL     1      15.496 -33.811  20.942  1.00  0.00     0.053 C 
BRANCH  10  11
ATOM     11  C   UNL     1      16.006 -34.654  19.816  1.00  0.00     0.041 C 
ATOM     12  O   UNL     1      16.684 -34.132  18.892  1.00  0.00    -0.550 OA
ATOM     13  O   UNL     1      15.775 -36.023  19.814  1.00  0.00    -0.550 OA
ENDBRANCH  10  11
ENDBRANCH   9  10
ENDBRANCH   8   9
ENDBRANCH   1   8
TORSDOF 8
ENDMDL
MODEL 6
REMARK VINA RESULT:    -4.214      2.764      4.260
REMARK INTER + INTRA:          -6.638
REMARK INTER:                  -6.241
REMARK INTRA:                  -0.396
REMARK UNBOUND:                -0.453
REMARK SMILES O=C([O-])CCCCCCCC(=O)[O-]
REMARK SMILES IDX 7 1 6 2 5 3 4 4 2 5 1 6 3 7 8 8 9 9 10 10 11 11 12 12 13 13
REMARK H PARENT
REMARK Flexibility Score: inf
ROOT
ATOM      1  C   UNL     1      15.474 -33.283  22.378  1.00  0.00     0.000 C 
ENDROOT
BRANCH   1   2
ATOM      2  C   UNL     1      14.559 -33.209  21.147  1.00  0.00     0.000 C 
BRANCH   2   3
ATOM      3  C   UNL     1      15.194 -33.923  19.948  1.00  0.00     0.006 C 
BRANCH   3   4
ATOM      4  C   UNL     1      15.976 -35.162  20.397  1.00  0.00     0.053 C 
BRANCH   4   5
ATOM      5  C   UNL     1      17.038 -35.502  19.400  1.00  0.00     0.041 C 
ATOM      6  O   UNL     1      17.829 -34.613  18.990  1.00  0.00    -0.550 OA
ATOM      7  O   UNL     1      17.122 -36.790  18.885  1.00  0.00    -0.550 OA
ENDBRANCH   4   5
ENDBRANCH   3   4
ENDBRANCH   2   3
ENDBRANCH   1   2
BRANCH   1   8
ATOM      8  C   UNL     1      15.279 -32.095  23.334  1.00  0.00     0.000 C 
BRANCH   8   9
ATOM      9  C   UNL     1      13.798 -31.789  23.604  1.00  0.00     0.006 C 
BRANCH   9  10
ATOM     10  C   UNL     1      13.554 -30.278  23.670  1.00  0.00     0.053 C 
BRANCH  10  11
ATOM     11  C   UNL     1      12.453 -29.883  22.737  1.00  0.00     0.041 C 
ATOM     12  O   UNL     1      12.162 -30.614  21.755  1.00  0.00    -0.550 OA
ATOM     13  O   UNL     1      11.715 -28.732  22.983  1.00  0.00    -0.550 OA
ENDBRANCH  10  11
ENDBRANCH   9  10
ENDBRANCH   8   9
ENDBRANCH   1   8
TORSDOF 8
ENDMDL
MODEL 7
REMARK VINA RESULT:    -4.195      1.389      2.126
REMARK INTER + INTRA:          -6.610
REMARK INTER:                  -6.193
REMARK INTRA:                  -0.417
REMARK UNBOUND:                -0.453
REMARK SMILES O=C([O-])CCCCCCCC(=O)[O-]
REMARK SMILES IDX 7 1 6 2 5 3 4 4 2 5 1 6 3 7 8 8 9 9 10 10 11 11 12 12 13 13
REMARK H PARENT
REMARK Flexibility Score: inf
ROOT
ATOM      1  C   UNL     1      13.241 -31.222  20.975  1.00  0.00     0.000 C 
ENDROOT
BRANCH   1   2
ATOM      2  C   UNL     1      14.605 -30.678  21.426  1.00  0.00     0.000 C 
BRANCH   2   3
ATOM      3  C   UNL     1      15.582 -31.822  21.718  1.00  0.00     0.006 C 
BRANCH   3   4
ATOM      4  C   UNL     1      14.893 -33.184  21.575  1.00  0.00     0.053 C 
BRANCH   4   5
ATOM      5  C   UNL     1      15.598 -34.023  20.556  1.00  0.00     0.041 C 
ATOM      6  O   UNL     1      15.131 -35.144  20.226  1.00  0.00    -0.550 OA
ATOM      7  O   UNL     1      16.799 -33.588  20.008  1.00  0.00    -0.550 OA
ENDBRANCH   4   5
ENDBRANCH   3   4
ENDBRANCH   2   3
ENDBRANCH   1   2
BRANCH   1   8
ATOM      8  C   UNL     1      12.069 -30.606  21.756  1.00  0.00     0.000 C 
BRANCH   8   9
ATOM      9  C   UNL     1      12.532 -29.800  22.979  1.00  0.00     0.006 C 
BRANCH   9  10
ATOM     10  C   UNL     1      11.768 -28.476  23.083  1.00  0.00     0.053 C 
BRANCH  10  11
ATOM     11  C   UNL     1      12.551 -27.479  23.878  1.00  0.00     0.041 C 
ATOM     12  O   UNL     1      12.593 -27.562  25.133  1.00  0.00    -0.550 OA
ATOM     13  O   UNL     1      13.274 -26.487  23.228  1.00  0.00    -0.550 OA
ENDBRANCH  10  11
ENDBRANCH   9  10
ENDBRANCH   8   9
ENDBRANCH   1   8
TORSDOF 8
ENDMDL
MODEL 8
REMARK VINA RESULT:    -4.148      3.112      3.856
REMARK INTER + INTRA:          -6.541
REMARK INTER:                  -5.805
REMARK INTRA:                  -0.736
REMARK UNBOUND:                -0.453
REMARK SMILES O=C([O-])CCCCCCCC(=O)[O-]
REMARK SMILES IDX 7 1 6 2 5 3 4 4 2 5 1 6 3 7 8 8 9 9 10 10 11 11 12 12 13 13
REMARK H PARENT
REMARK Flexibility Score: inf
ROOT
ATOM      1  C   UNL     1      13.450 -30.983  22.619  1.00  0.00     0.000 C 
ENDROOT
BRANCH   1   2
ATOM      2  C   UNL     1      13.140 -31.274  21.144  1.00  0.00     0.000 C 
BRANCH   2   3
ATOM      3  C   UNL     1      13.930 -32.490  20.647  1.00  0.00     0.006 C 
BRANCH   3   4
ATOM      4  C   UNL     1      14.660 -33.182  21.803  1.00  0.00     0.053 C 
BRANCH   4   5
ATOM      5  C   UNL     1      15.552 -34.266  21.286  1.00  0.00     0.041 C 
ATOM      6  O   UNL     1      16.695 -34.437  21.784  1.00  0.00    -0.550 OA
ATOM      7  O   UNL     1      15.139 -35.056  20.220  1.00  0.00    -0.550 OA
ENDBRANCH   4   5
ENDBRANCH   3   4
ENDBRANCH   2   3
ENDBRANCH   1   2
BRANCH   1   8
ATOM      8  C   UNL     1      13.971 -29.555  22.846  1.00  0.00     0.000 C 
BRANCH   8   9
ATOM      9  C   UNL     1      15.154 -29.205  21.931  1.00  0.00     0.006 C 
BRANCH   9  10
ATOM     10  C   UNL     1      16.450 -29.842  22.443  1.00  0.00     0.053 C 
BRANCH  10  11
ATOM     11  C   UNL     1      17.406 -30.067  21.314  1.00  0.00     0.041 C 
ATOM     12  O   UNL     1      18.243 -29.178  21.007  1.00  0.00    -0.550 OA
ATOM     13  O   UNL     1      17.406 -31.278  20.635  1.00  0.00    -0.550 OA
ENDBRANCH  10  11
ENDBRANCH   9  10
ENDBRANCH   8   9
ENDBRANCH   1   8
TORSDOF 8
ENDMDL
MODEL 9
REMARK VINA RESULT:    -4.111      1.943      6.006
REMARK INTER + INTRA:          -6.486
REMARK INTER:                  -5.733
REMARK INTRA:                  -0.754
REMARK UNBOUND:                -0.453
REMARK SMILES O=C([O-])CCCCCCCC(=O)[O-]
REMARK SMILES IDX 7 1 6 2 5 3 4 4 2 5 1 6 3 7 8 8 9 9 10 10 11 11 12 12 13 13
REMARK H PARENT
REMARK Flexibility Score: inf
ROOT
ATOM      1  C   UNL     1      15.436 -29.785  22.249  1.00  0.00     0.000 C 
ENDROOT
BRANCH   1   2
ATOM      2  C   UNL     1      14.223 -30.123  21.370  1.00  0.00     0.000 C 
BRANCH   2   3
ATOM      3  C   UNL     1      12.973 -30.356  22.226  1.00  0.00     0.006 C 
BRANCH   3   4
ATOM      4  C   UNL     1      13.164 -29.800  23.641  1.00  0.00     0.053 C 
BRANCH   4   5
ATOM      5  C   UNL     1      12.272 -28.620  23.865  1.00  0.00     0.041 C 
ATOM      6  O   UNL     1      11.265 -28.439  23.132  1.00  0.00    -0.550 OA
ATOM      7  O   UNL     1      12.582 -27.693  24.853  1.00  0.00    -0.550 OA
ENDBRANCH   4   5
ENDBRANCH   3   4
ENDBRANCH   2   3
ENDBRANCH   1   2
BRANCH   1   8
ATOM      8  C   UNL     1      16.572 -30.812  22.113  1.00  0.00     0.000 C 
BRANCH   8   9
ATOM      9  C   UNL     1      16.721 -31.696  23.361  1.00  0.00     0.006 C 
BRANCH   9  10
ATOM     10  C   UNL     1      15.586 -32.721  23.445  1.00  0.00     0.053 C 
BRANCH  10  11
ATOM     11  C   UNL     1      15.616 -33.636  22.262  1.00  0.00     0.041 C 
ATOM     12  O   UNL     1      14.661 -33.642  21.441  1.00  0.00    -0.550 OA
ATOM     13  O   UNL     1      16.721 -34.447  22.039  1.00  0.00    -0.550 OA
ENDBRANCH  10  11
ENDBRANCH   9  10
ENDBRANCH   8   9
ENDBRANCH   1   8
TORSDOF 8
ENDMDL
