MODEL 1
REMARK VINA RESULT:    -5.836      0.000      0.000
REMARK INTER + INTRA:          -8.031
REMARK INTER:                  -8.224
REMARK INTRA:                   0.193
REMARK UNBOUND:                 0.193
REMARK SMILES CC1=CCC(=C(C)C)C(=O)CC(C)=CCC1
REMARK SMILES IDX 12 1 14 2 13 3 15 4 16 5 2 6 1 7 3 8 11 10 9 11 10 12 5 13
REMARK SMILES IDX 6 14 7 15 8 16 4 17
REMARK H PARENT
REMARK Flexibility Score: 60.00
ROOT
ATOM      1  C   UNL     1      -0.630  11.405  22.497  1.00  0.00    -0.070 C 
ATOM      2  C   UNL     1      -0.074  10.220  22.834  1.00  0.00    -0.027 C 
ATOM      3  C   UNL     1      -2.053  11.401  21.999  1.00  0.00     0.039 C 
ENDROOT
BRANCH   2   4
ATOM      4  C   UNL     1       1.298  10.029  23.441  1.00  0.00     0.032 C 
BRANCH   4   5
ATOM      5  C   UNL     1       2.473  10.441  22.529  1.00  0.00     0.034 C 
BRANCH   5   6
ATOM      6  C   UNL     1       2.315   9.963  21.097  1.00  0.00    -0.077 C 
ATOM      7  C   UNL     1       2.355   8.476  20.846  1.00  0.00     0.039 C 
ATOM      8  C   UNL     1       2.070  10.777  20.042  1.00  0.00    -0.023 CG0
ATOM      9  G   UNL     1       2.005  12.292  20.052  1.00  0.00     0.000 G0
ENDBRANCH   5   6
ENDBRANCH   4   5
ENDBRANCH   2   4
BRANCH   1  10
ATOM     10  C   UNL     1       0.073  12.735  22.683  1.00  0.00     0.111 C 
BRANCH  10  11
ATOM     11  C   UNL     1       0.178  13.493  21.385  1.00  0.00     0.163 C 
ATOM     12  O   UNL     1      -0.044  14.734  21.402  1.00  0.00    -0.294 OA
BRANCH  11  13
ATOM     13  C   UNL     1       0.593  12.841  20.108  1.00  0.00    -0.002 C 
ATOM     14  C   UNL     1      -0.249  12.811  19.032  1.00  0.00    -0.069 C 
ATOM     15  C   UNL     1       0.197  12.302  17.679  1.00  0.00     0.039 C 
ATOM     16  C   UNL     1      -1.680  13.292  19.142  1.00  0.00     0.039 C 
BRANCH  13  17
ATOM     17  C   UNL     1       2.014  12.304  20.030  1.00  0.00     0.066 CG0
ATOM     18  G   UNL     1       2.060  10.789  20.047  1.00  0.00     0.000 G0
ENDBRANCH  13  17
ENDBRANCH  11  13
ENDBRANCH  10  11
ENDBRANCH   1  10
TORSDOF 0
ENDMDL
MODEL 2
REMARK VINA RESULT:    -5.729      2.597      4.725
REMARK INTER + INTRA:          -7.881
REMARK INTER:                  -8.157
REMARK INTRA:                   0.276
REMARK UNBOUND:                 0.193
REMARK SMILES CC1=CCC(=C(C)C)C(=O)CC(C)=CCC1
REMARK SMILES IDX 12 1 14 2 13 3 15 4 16 5 2 6 1 7 3 8 11 10 9 11 10 12 5 13
REMARK SMILES IDX 6 14 7 15 8 16 4 17
REMARK H PARENT
REMARK Flexibility Score: 60.00
ROOT
ATOM      1  C   UNL     1       0.735  13.752  22.527  1.00  0.00    -0.070 C 
ATOM      2  C   UNL     1       0.225  14.964  22.839  1.00  0.00    -0.027 C 
ATOM      3  C   UNL     1       2.093  13.704  21.874  1.00  0.00     0.039 C 
ENDROOT
BRANCH   2   4
ATOM      4  C   UNL     1      -1.069  15.214  23.580  1.00  0.00     0.032 C 
BRANCH   4   5
ATOM      5  C   UNL     1      -2.348  14.943  22.759  1.00  0.00     0.034 C 
BRANCH   5   6
ATOM      6  C   UNL     1      -2.211  15.322  21.295  1.00  0.00    -0.077 C 
ATOM      7  C   UNL     1      -2.142  16.790  20.955  1.00  0.00     0.039 C 
ATOM      8  C   UNL     1      -2.074  14.429  20.285  1.00  0.00    -0.023 CG0
ATOM      9  G   UNL     1      -2.131  12.918  20.386  1.00  0.00     0.000 G0
ENDBRANCH   5   6
ENDBRANCH   4   5
ENDBRANCH   2   4
BRANCH   1  10
ATOM     10  C   UNL     1       0.052  12.447  22.884  1.00  0.00     0.111 C 
BRANCH  10  11
ATOM     11  C   UNL     1      -0.285  11.642  21.655  1.00  0.00     0.163 C 
ATOM     12  O   UNL     1      -0.221  10.385  21.732  1.00  0.00    -0.294 OA
BRANCH  11  13
ATOM     13  C   UNL     1      -0.746  12.276  20.385  1.00  0.00    -0.002 C 
ATOM     14  C   UNL     1       0.013  12.202  19.251  1.00  0.00    -0.069 C 
ATOM     15  C   UNL     1      -0.495  12.694  17.913  1.00  0.00     0.039 C 
ATOM     16  C   UNL     1       1.410  11.621  19.278  1.00  0.00     0.039 C 
BRANCH  13  17
ATOM     17  C   UNL     1      -2.127  12.914  20.387  1.00  0.00     0.066 CG0
ATOM     18  G   UNL     1      -2.063  14.425  20.287  1.00  0.00     0.000 G0
ENDBRANCH  13  17
ENDBRANCH  11  13
ENDBRANCH  10  11
ENDBRANCH   1  10
TORSDOF 0
ENDMDL
MODEL 3
REMARK VINA RESULT:    -5.698      2.340      4.692
REMARK INTER + INTRA:          -7.836
REMARK INTER:                  -8.215
REMARK INTRA:                   0.379
REMARK UNBOUND:                 0.193
REMARK SMILES CC1=CCC(=C(C)C)C(=O)CC(C)=CCC1
REMARK SMILES IDX 12 1 14 2 13 3 15 4 16 5 2 6 1 7 3 8 11 10 9 11 10 12 5 13
REMARK SMILES IDX 6 14 7 15 8 16 4 17
REMARK H PARENT
REMARK Flexibility Score: 60.00
ROOT
ATOM      1  C   UNL     1       1.909  14.026  21.865  1.00  0.00    -0.070 C 
ATOM      2  C   UNL     1       0.779  14.726  22.110  1.00  0.00    -0.027 C 
ATOM      3  C   UNL     1       3.159  14.418  22.611  1.00  0.00     0.039 C 
ENDROOT
BRANCH   2   4
ATOM      4  C   UNL     1      -0.588  14.425  21.537  1.00  0.00     0.032 C 
BRANCH   4   5
ATOM      5  C   UNL     1      -1.524  13.637  22.476  1.00  0.00     0.034 C 
BRANCH   5   6
ATOM      6  C   UNL     1      -1.955  12.297  21.906  1.00  0.00    -0.077 C 
ATOM      7  C   UNL     1      -3.214  12.261  21.077  1.00  0.00     0.039 C 
ATOM      8  C   UNL     1      -1.246  11.150  22.034  1.00  0.00    -0.023 CG0
ATOM      9  G   UNL     1       0.027  10.945  22.831  1.00  0.00     0.000 G0
ENDBRANCH   5   6
ENDBRANCH   4   5
ENDBRANCH   2   4
BRANCH   1  10
ATOM     10  C   UNL     1       1.956  12.817  20.951  1.00  0.00     0.111 C 
BRANCH  10  11
ATOM     11  C   UNL     1       2.251  11.554  21.717  1.00  0.00     0.163 C 
ATOM     12  O   UNL     1       3.411  11.401  22.187  1.00  0.00    -0.294 OA
BRANCH  11  13
ATOM     13  C   UNL     1       1.210  10.519  21.987  1.00  0.00    -0.002 C 
ATOM     14  C   UNL     1       1.370   9.234  21.547  1.00  0.00    -0.069 C 
ATOM     15  C   UNL     1       0.414   8.129  21.938  1.00  0.00     0.039 C 
ATOM     16  C   UNL     1       2.521   8.853  20.643  1.00  0.00     0.039 C 
BRANCH  13  17
ATOM     17  C   UNL     1       0.024  10.932  22.846  1.00  0.00     0.066 CG0
ATOM     18  G   UNL     1      -1.234  11.143  22.027  1.00  0.00     0.000 G0
ENDBRANCH  13  17
ENDBRANCH  11  13
ENDBRANCH  10  11
ENDBRANCH   1  10
TORSDOF 0
ENDMDL
MODEL 4
REMARK VINA RESULT:    -5.642      2.537      4.599
REMARK INTER + INTRA:          -7.757
REMARK INTER:                  -8.007
REMARK INTRA:                   0.250
REMARK UNBOUND:                 0.193
REMARK SMILES CC1=CCC(=C(C)C)C(=O)CC(C)=CCC1
REMARK SMILES IDX 12 1 14 2 13 3 15 4 16 5 2 6 1 7 3 8 11 10 9 11 10 12 5 13
REMARK SMILES IDX 6 14 7 15 8 16 4 17
REMARK H PARENT
REMARK Flexibility Score: 60.00
ROOT
ATOM      1  C   UNL     1      -2.422  15.484  21.056  1.00  0.00    -0.070 C 
ATOM      2  C   UNL     1      -2.617  14.862  19.872  1.00  0.00    -0.027 C 
ATOM      3  C   UNL     1      -2.093  16.955  21.035  1.00  0.00     0.039 C 
ENDROOT
BRANCH   2   4
ATOM      4  C   UNL     1      -3.047  13.424  19.689  1.00  0.00     0.032 C 
BRANCH   4   5
ATOM      5  C   UNL     1      -2.174  12.388  20.429  1.00  0.00     0.034 C 
BRANCH   5   6
ATOM      6  C   UNL     1      -0.699  12.494  20.085  1.00  0.00    -0.077 C 
ATOM      7  C   UNL     1      -0.301  12.311  18.642  1.00  0.00     0.039 C 
ATOM      8  C   UNL     1       0.272  12.811  20.975  1.00  0.00    -0.023 CG0
ATOM      9  G   UNL     1       0.112  13.019  22.468  1.00  0.00     0.000 G0
ENDBRANCH   5   6
ENDBRANCH   4   5
ENDBRANCH   2   4
BRANCH   1  10
ATOM     10  C   UNL     1      -2.608  14.798  22.394  1.00  0.00     0.111 C 
BRANCH  10  11
ATOM     11  C   UNL     1      -1.393  14.953  23.272  1.00  0.00     0.163 C 
ATOM     12  O   UNL     1      -1.551  15.438  24.425  1.00  0.00    -0.294 OA
BRANCH  11  13
ATOM     13  C   UNL     1      -0.035  14.500  22.848  1.00  0.00    -0.002 C 
ATOM     14  C   UNL     1       1.029  15.357  22.876  1.00  0.00    -0.069 C 
ATOM     15  C   UNL     1       2.442  14.889  22.606  1.00  0.00     0.039 C 
ATOM     16  C   UNL     1       0.844  16.827  23.184  1.00  0.00     0.039 C 
BRANCH  13  17
ATOM     17  C   UNL     1       0.125  13.033  22.479  1.00  0.00     0.066 CG0
ATOM     18  G   UNL     1       0.276  12.827  20.985  1.00  0.00     0.000 G0
ENDBRANCH  13  17
ENDBRANCH  11  13
ENDBRANCH  10  11
ENDBRANCH   1  10
TORSDOF 0
ENDMDL
MODEL 5
REMARK VINA RESULT:    -5.616      2.118      4.146
REMARK INTER + INTRA:          -7.722
REMARK INTER:                  -7.916
REMARK INTRA:                   0.195
REMARK UNBOUND:                 0.193
REMARK SMILES CC1=CCC(=C(C)C)C(=O)CC(C)=CCC1
REMARK SMILES IDX 12 1 14 2 13 3 15 4 16 5 2 6 1 7 3 8 11 10 9 11 10 12 5 13
REMARK SMILES IDX 6 14 7 15 8 16 4 17
REMARK H PARENT
REMARK Flexibility Score: 60.00
ROOT
ATOM      1  C   UNL     1      -1.590  15.259  21.950  1.00  0.00    -0.070 C 
ATOM      2  C   UNL     1      -2.320  15.015  20.839  1.00  0.00    -0.027 C 
ATOM      3  C   UNL     1      -2.328  15.606  23.218  1.00  0.00     0.039 C 
ENDROOT
BRANCH   2   4
ATOM      4  C   UNL     1      -1.773  14.559  19.505  1.00  0.00     0.032 C 
BRANCH   4   5
ATOM      5  C   UNL     1      -1.698  13.029  19.324  1.00  0.00     0.034 C 
BRANCH   5   6
ATOM      6  C   UNL     1      -0.425  12.568  18.637  1.00  0.00    -0.077 C 
ATOM      7  C   UNL     1      -0.318  12.777  17.147  1.00  0.00     0.039 C 
ATOM      8  C   UNL     1       0.647  12.050  19.283  1.00  0.00    -0.023 CG0
ATOM      9  G   UNL     1       0.760  11.735  20.762  1.00  0.00     0.000 G0
ENDBRANCH   5   6
ENDBRANCH   4   5
ENDBRANCH   2   4
BRANCH   1  10
ATOM     10  C   UNL     1      -0.083  15.110  22.003  1.00  0.00     0.111 C 
BRANCH  10  11
ATOM     11  C   UNL     1       0.324  13.707  22.370  1.00  0.00     0.163 C 
ATOM     12  O   UNL     1      -0.235  13.166  23.362  1.00  0.00    -0.294 OA
BRANCH  11  13
ATOM     13  C   UNL     1       1.311  12.924  21.568  1.00  0.00    -0.002 C 
ATOM     14  C   UNL     1       2.646  13.210  21.630  1.00  0.00    -0.069 C 
ATOM     15  C   UNL     1       3.684  12.339  20.957  1.00  0.00     0.039 C 
ATOM     16  C   UNL     1       3.155  14.421  22.380  1.00  0.00     0.039 C 
BRANCH  13  17
ATOM     17  C   UNL     1       0.778  11.746  20.766  1.00  0.00     0.066 CG0
ATOM     18  G   UNL     1       0.650  12.066  19.290  1.00  0.00     0.000 G0
ENDBRANCH  13  17
ENDBRANCH  11  13
ENDBRANCH  10  11
ENDBRANCH   1  10
TORSDOF 0
ENDMDL
MODEL 6
REMARK VINA RESULT:    -5.594      2.396      3.783
REMARK INTER + INTRA:          -7.690
REMARK INTER:                  -7.901
REMARK INTRA:                   0.210
REMARK UNBOUND:                 0.193
REMARK SMILES CC1=CCC(=C(C)C)C(=O)CC(C)=CCC1
REMARK SMILES IDX 12 1 14 2 13 3 15 4 16 5 2 6 1 7 3 8 11 10 9 11 10 12 5 13
REMARK SMILES IDX 6 14 7 15 8 16 4 17
REMARK H PARENT
REMARK Flexibility Score: 60.00
ROOT
ATOM      1  C   UNL     1      -0.897  12.525  19.934  1.00  0.00    -0.070 C 
ATOM      2  C   UNL     1       0.333  12.014  19.706  1.00  0.00    -0.027 C 
ATOM      3  C   UNL     1      -1.553  13.309  18.827  1.00  0.00     0.039 C 
ENDROOT
BRANCH   2   4
ATOM      4  C   UNL     1       1.110  11.123  20.651  1.00  0.00     0.032 C 
BRANCH   4   5
ATOM      5  C   UNL     1       1.338  11.715  22.057  1.00  0.00     0.034 C 
BRANCH   5   6
ATOM      6  C   UNL     1       1.979  13.091  22.031  1.00  0.00    -0.077 C 
ATOM      7  C   UNL     1       3.347  13.215  21.409  1.00  0.00     0.039 C 
ATOM      8  C   UNL     1       1.374  14.224  22.464  1.00  0.00    -0.023 CG0
ATOM      9  G   UNL     1       0.020  14.338  23.136  1.00  0.00     0.000 G0
ENDBRANCH   5   6
ENDBRANCH   4   5
ENDBRANCH   2   4
BRANCH   1  10
ATOM     10  C   UNL     1      -1.679  12.270  21.208  1.00  0.00     0.111 C 
BRANCH  10  11
ATOM     11  C   UNL     1      -2.085  13.558  21.877  1.00  0.00     0.163 C 
ATOM     12  O   UNL     1      -3.284  13.682  22.248  1.00  0.00    -0.294 OA
BRANCH  11  13
ATOM     13  C   UNL     1      -1.112  14.652  22.166  1.00  0.00    -0.002 C 
ATOM     14  C   UNL     1      -1.281  15.898  21.631  1.00  0.00    -0.069 C 
ATOM     15  C   UNL     1      -0.406  17.067  22.029  1.00  0.00     0.039 C 
ATOM     16  C   UNL     1      -2.361  16.172  20.608  1.00  0.00     0.039 C 
BRANCH  13  17
ATOM     17  C   UNL     1       0.008  14.345  23.149  1.00  0.00     0.066 CG0
ATOM     18  G   UNL     1       1.359  14.244  22.469  1.00  0.00     0.000 G0
ENDBRANCH  13  17
ENDBRANCH  11  13
ENDBRANCH  10  11
ENDBRANCH   1  10
TORSDOF 0
ENDMDL
MODEL 7
REMARK VINA RESULT:    -5.537      2.662      4.961
REMARK INTER + INTRA:          -7.609
REMARK INTER:                  -8.014
REMARK INTRA:                   0.404
REMARK UNBOUND:                 0.193
REMARK SMILES CC1=CCC(=C(C)C)C(=O)CC(C)=CCC1
REMARK SMILES IDX 12 1 14 2 13 3 15 4 16 5 2 6 1 7 3 8 11 10 9 11 10 12 5 13
REMARK SMILES IDX 6 14 7 15 8 16 4 17
REMARK H PARENT
REMARK Flexibility Score: 60.00
ROOT
ATOM      1  C   UNL     1      -2.546  11.959  21.796  1.00  0.00    -0.070 C 
ATOM      2  C   UNL     1      -3.379  13.002  22.008  1.00  0.00    -0.027 C 
ATOM      3  C   UNL     1      -3.037  10.579  22.152  1.00  0.00     0.039 C 
ENDROOT
BRANCH   2   4
ATOM      4  C   UNL     1      -3.109  14.440  21.628  1.00  0.00     0.032 C 
BRANCH   4   5
ATOM      5  C   UNL     1      -2.369  15.265  22.702  1.00  0.00     0.034 C 
BRANCH   5   6
ATOM      6  C   UNL     1      -1.058  15.852  22.209  1.00  0.00    -0.077 C 
ATOM      7  C   UNL     1      -1.122  17.105  21.372  1.00  0.00     0.039 C 
ATOM      8  C   UNL     1       0.165  15.365  22.528  1.00  0.00    -0.023 CG0
ATOM      9  G   UNL     1       0.471  14.117  23.333  1.00  0.00     0.000 G0
ENDBRANCH   5   6
ENDBRANCH   4   5
ENDBRANCH   2   4
BRANCH   1  10
ATOM     10  C   UNL     1      -1.189  12.101  21.136  1.00  0.00     0.111 C 
BRANCH  10  11
ATOM     11  C   UNL     1      -0.068  11.890  22.120  1.00  0.00     0.163 C 
ATOM     12  O   UNL     1       0.050  10.752  22.651  1.00  0.00    -0.294 OA
BRANCH  11  13
ATOM     13  C   UNL     1       0.932  12.952  22.435  1.00  0.00    -0.002 C 
ATOM     14  C   UNL     1       2.178  12.928  21.873  1.00  0.00    -0.069 C 
ATOM     15  C   UNL     1       3.157  14.068  22.046  1.00  0.00     0.039 C 
ATOM     16  C   UNL     1       2.642  11.750  21.044  1.00  0.00     0.039 C 
BRANCH  13  17
ATOM     17  C   UNL     1       0.473  14.099  23.322  1.00  0.00     0.066 CG0
ATOM     18  G   UNL     1       0.174  15.356  22.529  1.00  0.00     0.000 G0
ENDBRANCH  13  17
ENDBRANCH  11  13
ENDBRANCH  10  11
ENDBRANCH   1  10
TORSDOF 0
ENDMDL
MODEL 8
REMARK VINA RESULT:    -5.513      2.043      3.356
REMARK INTER + INTRA:          -7.575
REMARK INTER:                  -7.922
REMARK INTRA:                   0.347
REMARK UNBOUND:                 0.193
REMARK SMILES CC1=CCC(=C(C)C)C(=O)CC(C)=CCC1
REMARK SMILES IDX 12 1 14 2 13 3 15 4 16 5 2 6 1 7 3 8 11 10 9 11 10 12 5 13
REMARK SMILES IDX 6 14 7 15 8 16 4 17
REMARK H PARENT
REMARK Flexibility Score: 60.00
ROOT
ATOM      1  C   UNL     1       2.537  13.511  22.051  1.00  0.00    -0.070 C 
ATOM      2  C   UNL     1       3.526  12.594  22.145  1.00  0.00    -0.027 C 
ATOM      3  C   UNL     1       2.835  14.919  22.498  1.00  0.00     0.039 C 
ENDROOT
BRANCH   2   4
ATOM      4  C   UNL     1       3.453  11.163  21.661  1.00  0.00     0.032 C 
BRANCH   4   5
ATOM      5  C   UNL     1       2.664  10.208  22.580  1.00  0.00     0.034 C 
BRANCH   5   6
ATOM      6  C   UNL     1       1.498   9.532  21.881  1.00  0.00    -0.077 C 
ATOM      7  C   UNL     1       1.815   8.513  20.815  1.00  0.00     0.039 C 
ATOM      8  C   UNL     1       0.196   9.731  22.200  1.00  0.00    -0.023 CG0
ATOM      9  G   UNL     1      -0.357  10.712  23.215  1.00  0.00     0.000 G0
ENDBRANCH   5   6
ENDBRANCH   4   5
ENDBRANCH   2   4
BRANCH   1  10
ATOM     10  C   UNL     1       1.184  13.213  21.437  1.00  0.00     0.111 C 
BRANCH  10  11
ATOM     11  C   UNL     1       0.101  13.149  22.482  1.00  0.00     0.163 C 
ATOM     12  O   UNL     1      -0.020  14.124  23.273  1.00  0.00    -0.294 OA
BRANCH  11  13
ATOM     13  C   UNL     1      -0.860  12.010  22.571  1.00  0.00    -0.002 C 
ATOM     14  C   UNL     1      -2.106  12.102  22.016  1.00  0.00    -0.069 C 
ATOM     15  C   UNL     1      -3.043  10.916  21.950  1.00  0.00     0.039 C 
ATOM     16  C   UNL     1      -2.612  13.404  21.435  1.00  0.00     0.039 C 
BRANCH  13  17
ATOM     17  C   UNL     1      -0.360  10.726  23.214  1.00  0.00     0.066 CG0
ATOM     18  G   UNL     1       0.192   9.748  22.196  1.00  0.00     0.000 G0
ENDBRANCH  13  17
ENDBRANCH  11  13
ENDBRANCH  10  11
ENDBRANCH   1  10
TORSDOF 0
ENDMDL
MODEL 9
REMARK VINA RESULT:    -5.489      2.293      4.847
REMARK INTER + INTRA:          -7.542
REMARK INTER:                  -7.965
REMARK INTRA:                   0.422
REMARK UNBOUND:                 0.193
REMARK SMILES CC1=CCC(=C(C)C)C(=O)CC(C)=CCC1
REMARK SMILES IDX 12 1 14 2 13 3 15 4 16 5 2 6 1 7 3 8 11 10 9 11 10 12 5 13
REMARK SMILES IDX 6 14 7 15 8 16 4 17
REMARK H PARENT
REMARK Flexibility Score: 60.00
ROOT
ATOM      1  C   UNL     1      -0.154  15.354  22.994  1.00  0.00    -0.070 C 
ATOM      2  C   UNL     1      -1.486  15.552  22.875  1.00  0.00    -0.027 C 
ATOM      3  C   UNL     1       0.751  16.553  22.875  1.00  0.00     0.039 C 
ENDROOT
BRANCH   2   4
ATOM      4  C   UNL     1      -2.556  14.498  23.059  1.00  0.00     0.032 C 
BRANCH   4   5
ATOM      5  C   UNL     1      -3.352  14.154  21.783  1.00  0.00     0.034 C 
BRANCH   5   6
ATOM      6  C   UNL     1      -2.479  14.041  20.545  1.00  0.00    -0.077 C 
ATOM      7  C   UNL     1      -2.610  15.115  19.494  1.00  0.00     0.039 C 
ATOM      8  C   UNL     1      -1.543  13.080  20.356  1.00  0.00    -0.023 CG0
ATOM      9  G   UNL     1      -1.250  11.899  21.260  1.00  0.00     0.000 G0
ENDBRANCH   5   6
ENDBRANCH   4   5
ENDBRANCH   2   4
BRANCH   1  10
ATOM     10  C   UNL     1       0.459  14.010  23.331  1.00  0.00     0.111 C 
BRANCH  10  11
ATOM     11  C   UNL     1       0.791  13.224  22.089  1.00  0.00     0.163 C 
ATOM     12  O   UNL     1       1.658  13.694  21.302  1.00  0.00    -0.294 OA
BRANCH  11  13
ATOM     13  C   UNL     1       0.180  11.894  21.795  1.00  0.00    -0.002 C 
ATOM     14  C   UNL     1       0.851  10.738  22.078  1.00  0.00    -0.069 C 
ATOM     15  C   UNL     1       0.200   9.379  21.941  1.00  0.00     0.039 C 
ATOM     16  C   UNL     1       2.289  10.761  22.548  1.00  0.00     0.039 C 
BRANCH  13  17
ATOM     17  C   UNL     1      -1.245  11.885  21.262  1.00  0.00     0.066 CG0
ATOM     18  G   UNL     1      -1.535  13.079  20.373  1.00  0.00     0.000 G0
ENDBRANCH  13  17
ENDBRANCH  11  13
ENDBRANCH  10  11
ENDBRANCH   1  10
TORSDOF 0
ENDMDL
