MODEL 1
REMARK VINA RESULT:    -5.948      0.000      0.000
REMARK INTER + INTRA:         -17.058
REMARK INTER:                 -13.598
REMARK INTRA:                  -3.459
REMARK UNBOUND:                -3.459
REMARK SMILES CCCCCCCCCCCCCCCCCCCCCCCC(=O)[O-]
REMARK SMILES IDX 13 1 14 2 15 3 16 4 17 5 18 6 19 7 20 8 21 9 22 10 23 11
REMARK SMILES IDX 24 12 25 13 26 14 12 15 11 16 10 17 9 18 8 19 7 20 6 21 5 22
REMARK SMILES IDX 4 23 3 24 2 25 1 26
REMARK H PARENT
REMARK Flexibility Score: inf
ROOT
ATOM      1  C   UNL     1      -3.826 -32.075 -51.255  1.00  0.00     0.000 C 
ENDROOT
BRANCH   1   2
ATOM      2  C   UNL     1      -5.285 -32.280 -51.698  1.00  0.00     0.000 C 
BRANCH   2   3
ATOM      3  C   UNL     1      -5.535 -31.831 -53.147  1.00  0.00     0.000 C 
BRANCH   3   4
ATOM      4  C   UNL     1      -4.704 -30.595 -53.541  1.00  0.00     0.000 C 
BRANCH   4   5
ATOM      5  C   UNL     1      -5.433 -29.567 -54.431  1.00  0.00     0.000 C 
BRANCH   5   6
ATOM      6  C   UNL     1      -5.348 -28.106 -53.949  1.00  0.00     0.000 C 
BRANCH   6   7
ATOM      7  C   UNL     1      -5.082 -27.935 -52.441  1.00  0.00     0.000 C 
BRANCH   7   8
ATOM      8  C   UNL     1      -6.170 -27.123 -51.704  1.00  0.00     0.000 C 
BRANCH   8   9
ATOM      9  C   UNL     1      -6.371 -27.587 -50.254  1.00  0.00     0.000 C 
BRANCH   9  10
ATOM     10  C   UNL     1      -6.145 -29.100 -50.123  1.00  0.00     0.006 C 
BRANCH  10  11
ATOM     11  C   UNL     1      -6.574 -29.633 -48.750  1.00  0.00     0.053 C 
BRANCH  11  12
ATOM     12  C   UNL     1      -7.846 -30.419 -48.831  1.00  0.00     0.041 C 
ATOM     13  O   UNL     1      -8.913 -29.949 -48.353  1.00  0.00    -0.550 OA
ATOM     14  O   UNL     1      -7.865 -31.650 -49.476  1.00  0.00    -0.550 OA
ENDBRANCH  11  12
ENDBRANCH  10  11
ENDBRANCH   9  10
ENDBRANCH   8   9
ENDBRANCH   7   8
ENDBRANCH   6   7
ENDBRANCH   5   6
ENDBRANCH   4   5
ENDBRANCH   3   4
ENDBRANCH   2   3
ENDBRANCH   1   2
BRANCH   1  15
ATOM     15  C   UNL     1      -3.118 -33.397 -50.915  1.00  0.00     0.000 C 
BRANCH  15  16
ATOM     16  C   UNL     1      -2.154 -33.858 -52.023  1.00  0.00     0.000 C 
BRANCH  16  17
ATOM     17  C   UNL     1      -1.829 -32.799 -53.098  1.00  0.00     0.000 C 
BRANCH  17  18
ATOM     18  C   UNL     1      -0.349 -32.709 -53.513  1.00  0.00    -0.000 C 
BRANCH  18  19
ATOM     19  C   UNL     1       0.303 -31.376 -53.110  1.00  0.00    -0.000 C 
BRANCH  19  20
ATOM     20  C   UNL     1       0.133 -31.050 -51.613  1.00  0.00    -0.000 C 
BRANCH  20  21
ATOM     21  C   UNL     1      -0.413 -29.645 -51.298  1.00  0.00    -0.000 C 
BRANCH  21  22
ATOM     22  C   UNL     1      -1.596 -29.245 -52.194  1.00  0.00    -0.000 C 
BRANCH  22  23
ATOM     23  C   UNL     1      -1.448 -27.827 -52.774  1.00  0.00    -0.000 C 
BRANCH  23  24
ATOM     24  C   UNL     1       0.008 -27.459 -53.133  1.00  0.00    -0.000 C 
BRANCH  24  25
ATOM     25  C   UNL     1       0.172 -27.129 -54.624  1.00  0.00    -0.003 C 
ATOM     26  C   UNL     1       1.421 -26.285 -54.867  1.00  0.00     0.004 C 
ENDBRANCH  24  25
ENDBRANCH  23  24
ENDBRANCH  22  23
ENDBRANCH  21  22
ENDBRANCH  20  21
ENDBRANCH  19  20
ENDBRANCH  18  19
ENDBRANCH  17  18
ENDBRANCH  16  17
ENDBRANCH  15  16
ENDBRANCH   1  15
TORSDOF 22
ENDMDL
MODEL 2
REMARK VINA RESULT:    -5.618      3.516      7.203
REMARK INTER + INTRA:         -16.302
REMARK INTER:                 -13.399
REMARK INTRA:                  -2.902
REMARK UNBOUND:                -3.459
REMARK SMILES CCCCCCCCCCCCCCCCCCCCCCCC(=O)[O-]
REMARK SMILES IDX 13 1 14 2 15 3 16 4 17 5 18 6 19 7 20 8 21 9 22 10 23 11
REMARK SMILES IDX 24 12 25 13 26 14 12 15 11 16 10 17 9 18 8 19 7 20 6 21 5 22
REMARK SMILES IDX 4 23 3 24 2 25 1 26
REMARK H PARENT
REMARK Flexibility Score: inf
ROOT
ATOM      1  C   UNL     1      -3.009 -33.151 -51.964  1.00  0.00     0.000 C 
ENDROOT
BRANCH   1   2
ATOM      2  C   UNL     1      -2.150 -33.000 -53.229  1.00  0.00     0.000 C 
BRANCH   2   3
ATOM      3  C   UNL     1      -0.642 -33.109 -52.941  1.00  0.00     0.000 C 
BRANCH   3   4
ATOM      4  C   UNL     1       0.065 -31.741 -52.933  1.00  0.00     0.000 C 
BRANCH   4   5
ATOM      5  C   UNL     1       0.284 -31.120 -51.538  1.00  0.00     0.000 C 
BRANCH   5   6
ATOM      6  C   UNL     1      -0.257 -29.687 -51.367  1.00  0.00     0.000 C 
BRANCH   6   7
ATOM      7  C   UNL     1      -1.573 -29.396 -52.113  1.00  0.00     0.000 C 
BRANCH   7   8
ATOM      8  C   UNL     1      -1.527 -28.122 -52.984  1.00  0.00     0.000 C 
BRANCH   8   9
ATOM      9  C   UNL     1      -0.135 -27.473 -53.009  1.00  0.00     0.000 C 
BRANCH   9  10
ATOM     10  C   UNL     1      -0.242 -25.941 -53.000  1.00  0.00     0.006 C 
BRANCH  10  11
ATOM     11  C   UNL     1      -0.028 -25.354 -51.599  1.00  0.00     0.053 C 
BRANCH  11  12
ATOM     12  C   UNL     1       0.240 -23.881 -51.649  1.00  0.00     0.041 C 
ATOM     13  O   UNL     1      -0.668 -23.084 -52.004  1.00  0.00    -0.550 OA
ATOM     14  O   UNL     1       1.478 -23.384 -51.259  1.00  0.00    -0.550 OA
ENDBRANCH  11  12
ENDBRANCH  10  11
ENDBRANCH   9  10
ENDBRANCH   8   9
ENDBRANCH   7   8
ENDBRANCH   6   7
ENDBRANCH   5   6
ENDBRANCH   4   5
ENDBRANCH   3   4
ENDBRANCH   2   3
ENDBRANCH   1   2
BRANCH   1  15
ATOM     15  C   UNL     1      -3.944 -31.952 -51.735  1.00  0.00     0.000 C 
BRANCH  15  16
ATOM     16  C   UNL     1      -5.124 -31.920 -52.724  1.00  0.00     0.000 C 
BRANCH  16  17
ATOM     17  C   UNL     1      -4.912 -31.040 -53.974  1.00  0.00     0.000 C 
BRANCH  17  18
ATOM     18  C   UNL     1      -5.830 -29.808 -54.080  1.00  0.00    -0.000 C 
BRANCH  18  19
ATOM     19  C   UNL     1      -5.047 -28.486 -54.153  1.00  0.00    -0.000 C 
BRANCH  19  20
ATOM     20  C   UNL     1      -5.185 -27.634 -52.876  1.00  0.00    -0.000 C 
BRANCH  20  21
ATOM     21  C   UNL     1      -4.835 -28.353 -51.559  1.00  0.00    -0.000 C 
BRANCH  21  22
ATOM     22  C   UNL     1      -5.962 -28.280 -50.517  1.00  0.00    -0.000 C 
BRANCH  22  23
ATOM     23  C   UNL     1      -6.694 -29.622 -50.341  1.00  0.00    -0.000 C 
BRANCH  23  24
ATOM     24  C   UNL     1      -6.837 -30.056 -48.866  1.00  0.00    -0.000 C 
BRANCH  24  25
ATOM     25  C   UNL     1      -7.896 -31.153 -48.685  1.00  0.00    -0.003 C 
ATOM     26  C   UNL     1      -9.168 -30.592 -48.054  1.00  0.00     0.004 C 
ENDBRANCH  24  25
ENDBRANCH  23  24
ENDBRANCH  22  23
ENDBRANCH  21  22
ENDBRANCH  20  21
ENDBRANCH  19  20
ENDBRANCH  18  19
ENDBRANCH  17  18
ENDBRANCH  16  17
ENDBRANCH  15  16
ENDBRANCH   1  15
TORSDOF 22
ENDMDL
MODEL 3
REMARK VINA RESULT:    -5.473      3.149      7.120
REMARK INTER + INTRA:         -15.972
REMARK INTER:                 -12.643
REMARK INTRA:                  -3.329
REMARK UNBOUND:                -3.459
REMARK SMILES CCCCCCCCCCCCCCCCCCCCCCCC(=O)[O-]
REMARK SMILES IDX 13 1 14 2 15 3 16 4 17 5 18 6 19 7 20 8 21 9 22 10 23 11
REMARK SMILES IDX 24 12 25 13 26 14 12 15 11 16 10 17 9 18 8 19 7 20 6 21 5 22
REMARK SMILES IDX 4 23 3 24 2 25 1 26
REMARK H PARENT
REMARK Flexibility Score: inf
ROOT
ATOM      1  C   UNL     1      -4.056 -31.979 -51.273  1.00  0.00     0.000 C 
ENDROOT
BRANCH   1   2
ATOM      2  C   UNL     1      -3.434 -33.365 -51.042  1.00  0.00     0.000 C 
BRANCH   2   3
ATOM      3  C   UNL     1      -1.960 -33.435 -51.478  1.00  0.00     0.000 C 
BRANCH   3   4
ATOM      4  C   UNL     1      -1.759 -33.081 -52.964  1.00  0.00     0.000 C 
BRANCH   4   5
ATOM      5  C   UNL     1      -0.815 -31.892 -53.236  1.00  0.00     0.000 C 
BRANCH   5   6
ATOM      6  C   UNL     1       0.003 -31.413 -52.021  1.00  0.00     0.000 C 
BRANCH   6   7
ATOM      7  C   UNL     1      -0.489 -30.099 -51.385  1.00  0.00     0.000 C 
BRANCH   7   8
ATOM      8  C   UNL     1      -1.694 -29.466 -52.113  1.00  0.00     0.000 C 
BRANCH   8   9
ATOM      9  C   UNL     1      -1.368 -28.087 -52.707  1.00  0.00     0.000 C 
BRANCH   9  10
ATOM     10  C   UNL     1       0.022 -28.084 -53.359  1.00  0.00     0.006 C 
BRANCH  10  11
ATOM     11  C   UNL     1       0.104 -27.112 -54.543  1.00  0.00     0.053 C 
BRANCH  11  12
ATOM     12  C   UNL     1      -0.173 -25.701 -54.123  1.00  0.00     0.041 C 
ATOM     13  O   UNL     1      -1.131 -25.064 -54.635  1.00  0.00    -0.550 OA
ATOM     14  O   UNL     1       0.599 -25.104 -53.133  1.00  0.00    -0.550 OA
ENDBRANCH  11  12
ENDBRANCH  10  11
ENDBRANCH   9  10
ENDBRANCH   8   9
ENDBRANCH   7   8
ENDBRANCH   6   7
ENDBRANCH   5   6
ENDBRANCH   4   5
ENDBRANCH   3   4
ENDBRANCH   2   3
ENDBRANCH   1   2
BRANCH   1  15
ATOM     15  C   UNL     1      -5.245 -32.016 -52.247  1.00  0.00     0.000 C 
BRANCH  15  16
ATOM     16  C   UNL     1      -4.899 -31.440 -53.632  1.00  0.00     0.000 C 
BRANCH  16  17
ATOM     17  C   UNL     1      -5.648 -30.146 -54.015  1.00  0.00     0.000 C 
BRANCH  17  18
ATOM     18  C   UNL     1      -4.793 -28.866 -54.032  1.00  0.00    -0.000 C 
BRANCH  18  19
ATOM     19  C   UNL     1      -5.296 -27.799 -53.044  1.00  0.00    -0.000 C 
BRANCH  19  20
ATOM     20  C   UNL     1      -5.323 -28.296 -51.585  1.00  0.00    -0.000 C 
BRANCH  20  21
ATOM     21  C   UNL     1      -6.329 -27.583 -50.662  1.00  0.00    -0.000 C 
BRANCH  21  22
ATOM     22  C   UNL     1      -6.053 -27.828 -49.170  1.00  0.00    -0.000 C 
BRANCH  22  23
ATOM     23  C   UNL     1      -6.944 -28.934 -48.576  1.00  0.00    -0.000 C 
BRANCH  23  24
ATOM     24  C   UNL     1      -6.448 -30.361 -48.896  1.00  0.00    -0.000 C 
BRANCH  24  25
ATOM     25  C   UNL     1      -7.606 -31.323 -49.199  1.00  0.00    -0.003 C 
ATOM     26  C   UNL     1      -8.762 -31.117 -48.224  1.00  0.00     0.004 C 
ENDBRANCH  24  25
ENDBRANCH  23  24
ENDBRANCH  22  23
ENDBRANCH  21  22
ENDBRANCH  20  21
ENDBRANCH  19  20
ENDBRANCH  18  19
ENDBRANCH  17  18
ENDBRANCH  16  17
ENDBRANCH  15  16
ENDBRANCH   1  15
TORSDOF 22
ENDMDL
MODEL 4
REMARK VINA RESULT:    -5.465      1.383      2.020
REMARK INTER + INTRA:         -15.953
REMARK INTER:                 -13.071
REMARK INTRA:                  -2.882
REMARK UNBOUND:                -3.459
REMARK SMILES CCCCCCCCCCCCCCCCCCCCCCCC(=O)[O-]
REMARK SMILES IDX 13 1 14 2 15 3 16 4 17 5 18 6 19 7 20 8 21 9 22 10 23 11
REMARK SMILES IDX 24 12 25 13 26 14 12 15 11 16 10 17 9 18 8 19 7 20 6 21 5 22
REMARK SMILES IDX 4 23 3 24 2 25 1 26
REMARK H PARENT
REMARK Flexibility Score: inf
ROOT
ATOM      1  C   UNL     1      -3.927 -32.701 -50.826  1.00  0.00     0.000 C 
ENDROOT
BRANCH   1   2
ATOM      2  C   UNL     1      -4.959 -32.594 -51.960  1.00  0.00     0.000 C 
BRANCH   2   3
ATOM      3  C   UNL     1      -5.347 -31.139 -52.275  1.00  0.00     0.000 C 
BRANCH   3   4
ATOM      4  C   UNL     1      -5.340 -30.833 -53.785  1.00  0.00     0.000 C 
BRANCH   4   5
ATOM      5  C   UNL     1      -4.952 -29.388 -54.162  1.00  0.00     0.000 C 
BRANCH   5   6
ATOM      6  C   UNL     1      -6.118 -28.499 -54.635  1.00  0.00     0.000 C 
BRANCH   6   7
ATOM      7  C   UNL     1      -6.065 -27.041 -54.140  1.00  0.00     0.000 C 
BRANCH   7   8
ATOM      8  C   UNL     1      -5.329 -26.867 -52.794  1.00  0.00     0.000 C 
BRANCH   8   9
ATOM      9  C   UNL     1      -6.237 -27.141 -51.585  1.00  0.00     0.000 C 
BRANCH   9  10
ATOM     10  C   UNL     1      -5.647 -28.244 -50.694  1.00  0.00     0.006 C 
BRANCH  10  11
ATOM     11  C   UNL     1      -6.295 -28.273 -49.303  1.00  0.00     0.053 C 
BRANCH  11  12
ATOM     12  C   UNL     1      -6.890 -29.613 -48.995  1.00  0.00     0.041 C 
ATOM     13  O   UNL     1      -6.142 -30.592 -48.733  1.00  0.00    -0.550 OA
ATOM     14  O   UNL     1      -8.270 -29.770 -48.953  1.00  0.00    -0.550 OA
ENDBRANCH  11  12
ENDBRANCH  10  11
ENDBRANCH   9  10
ENDBRANCH   8   9
ENDBRANCH   7   8
ENDBRANCH   6   7
ENDBRANCH   5   6
ENDBRANCH   4   5
ENDBRANCH   3   4
ENDBRANCH   2   3
ENDBRANCH   1   2
BRANCH   1  15
ATOM     15  C   UNL     1      -2.742 -33.612 -51.185  1.00  0.00     0.000 C 
BRANCH  15  16
ATOM     16  C   UNL     1      -2.153 -33.303 -52.574  1.00  0.00     0.000 C 
BRANCH  16  17
ATOM     17  C   UNL     1      -1.575 -31.882 -52.744  1.00  0.00     0.000 C 
BRANCH  17  18
ATOM     18  C   UNL     1      -0.631 -31.413 -51.622  1.00  0.00    -0.000 C 
BRANCH  18  19
ATOM     19  C   UNL     1      -0.651 -29.887 -51.425  1.00  0.00    -0.000 C 
BRANCH  19  20
ATOM     20  C   UNL     1      -0.807 -29.112 -52.747  1.00  0.00    -0.000 C 
BRANCH  20  21
ATOM     21  C   UNL     1      -1.870 -27.996 -52.739  1.00  0.00    -0.000 C 
BRANCH  21  22
ATOM     22  C   UNL     1      -1.507 -26.814 -53.651  1.00  0.00    -0.000 C 
BRANCH  22  23
ATOM     23  C   UNL     1       0.011 -26.660 -53.846  1.00  0.00    -0.000 C 
BRANCH  23  24
ATOM     24  C   UNL     1       0.564 -25.313 -53.334  1.00  0.00    -0.000 C 
BRANCH  24  25
ATOM     25  C   UNL     1       0.224 -25.070 -51.856  1.00  0.00    -0.003 C 
ATOM     26  C   UNL     1      -0.449 -23.714 -51.661  1.00  0.00     0.004 C 
ENDBRANCH  24  25
ENDBRANCH  23  24
ENDBRANCH  22  23
ENDBRANCH  21  22
ENDBRANCH  20  21
ENDBRANCH  19  20
ENDBRANCH  18  19
ENDBRANCH  17  18
ENDBRANCH  16  17
ENDBRANCH  15  16
ENDBRANCH   1  15
TORSDOF 22
ENDMDL
MODEL 5
REMARK VINA RESULT:    -5.443      3.010      6.617
REMARK INTER + INTRA:         -15.902
REMARK INTER:                 -12.731
REMARK INTRA:                  -3.171
REMARK UNBOUND:                -3.459
REMARK SMILES CCCCCCCCCCCCCCCCCCCCCCCC(=O)[O-]
REMARK SMILES IDX 13 1 14 2 15 3 16 4 17 5 18 6 19 7 20 8 21 9 22 10 23 11
REMARK SMILES IDX 24 12 25 13 26 14 12 15 11 16 10 17 9 18 8 19 7 20 6 21 5 22
REMARK SMILES IDX 4 23 3 24 2 25 1 26
REMARK H PARENT
REMARK Flexibility Score: inf
ROOT
ATOM      1  C   UNL     1      -3.435 -32.096 -51.346  1.00  0.00     0.000 C 
ENDROOT
BRANCH   1   2
ATOM      2  C   UNL     1      -2.591 -33.373 -51.490  1.00  0.00     0.000 C 
BRANCH   2   3
ATOM      3  C   UNL     1      -1.668 -33.340 -52.720  1.00  0.00     0.000 C 
BRANCH   3   4
ATOM      4  C   UNL     1      -1.262 -31.910 -53.125  1.00  0.00     0.000 C 
BRANCH   4   5
ATOM      5  C   UNL     1      -0.121 -31.288 -52.295  1.00  0.00     0.000 C 
BRANCH   5   6
ATOM      6  C   UNL     1      -0.535 -30.114 -51.387  1.00  0.00     0.000 C 
BRANCH   6   7
ATOM      7  C   UNL     1      -1.198 -28.932 -52.118  1.00  0.00     0.000 C 
BRANCH   7   8
ATOM      8  C   UNL     1      -0.281 -28.245 -53.153  1.00  0.00     0.000 C 
BRANCH   8   9
ATOM      9  C   UNL     1      -0.557 -26.739 -53.280  1.00  0.00     0.000 C 
BRANCH   9  10
ATOM     10  C   UNL     1      -1.958 -26.485 -53.856  1.00  0.00     0.006 C 
BRANCH  10  11
ATOM     11  C   UNL     1      -2.108 -25.060 -54.405  1.00  0.00     0.053 C 
BRANCH  11  12
ATOM     12  C   UNL     1      -3.485 -24.813 -54.940  1.00  0.00     0.041 C 
ATOM     13  O   UNL     1      -4.473 -24.787 -54.159  1.00  0.00    -0.550 OA
ATOM     14  O   UNL     1      -3.673 -24.565 -56.295  1.00  0.00    -0.550 OA
ENDBRANCH  11  12
ENDBRANCH  10  11
ENDBRANCH   9  10
ENDBRANCH   8   9
ENDBRANCH   7   8
ENDBRANCH   6   7
ENDBRANCH   5   6
ENDBRANCH   4   5
ENDBRANCH   3   4
ENDBRANCH   2   3
ENDBRANCH   1   2
BRANCH   1  15
ATOM     15  C   UNL     1      -4.931 -32.392 -51.155  1.00  0.00     0.000 C 
BRANCH  15  16
ATOM     16  C   UNL     1      -5.765 -32.084 -52.412  1.00  0.00     0.000 C 
BRANCH  16  17
ATOM     17  C   UNL     1      -4.949 -31.736 -53.676  1.00  0.00     0.000 C 
BRANCH  17  18
ATOM     18  C   UNL     1      -5.293 -30.388 -54.335  1.00  0.00    -0.000 C 
BRANCH  18  19
ATOM     19  C   UNL     1      -4.596 -29.197 -53.654  1.00  0.00    -0.000 C 
BRANCH  19  20
ATOM     20  C   UNL     1      -5.507 -27.961 -53.525  1.00  0.00    -0.000 C 
BRANCH  20  21
ATOM     21  C   UNL     1      -5.661 -27.396 -52.100  1.00  0.00    -0.000 C 
BRANCH  21  22
ATOM     22  C   UNL     1      -5.525 -28.471 -51.009  1.00  0.00    -0.000 C 
BRANCH  22  23
ATOM     23  C   UNL     1      -6.226 -28.076 -49.698  1.00  0.00    -0.000 C 
BRANCH  23  24
ATOM     24  C   UNL     1      -6.526 -29.277 -48.774  1.00  0.00    -0.000 C 
BRANCH  24  25
ATOM     25  C   UNL     1      -7.426 -30.320 -49.453  1.00  0.00    -0.003 C 
ATOM     26  C   UNL     1      -8.347 -30.995 -48.440  1.00  0.00     0.004 C 
ENDBRANCH  24  25
ENDBRANCH  23  24
ENDBRANCH  22  23
ENDBRANCH  21  22
ENDBRANCH  20  21
ENDBRANCH  19  20
ENDBRANCH  18  19
ENDBRANCH  17  18
ENDBRANCH  16  17
ENDBRANCH  15  16
ENDBRANCH   1  15
TORSDOF 22
ENDMDL
MODEL 6
REMARK VINA RESULT:    -5.429      2.709      6.128
REMARK INTER + INTRA:         -15.871
REMARK INTER:                 -12.062
REMARK INTRA:                  -3.809
REMARK UNBOUND:                -3.459
REMARK SMILES CCCCCCCCCCCCCCCCCCCCCCCC(=O)[O-]
REMARK SMILES IDX 13 1 14 2 15 3 16 4 17 5 18 6 19 7 20 8 21 9 22 10 23 11
REMARK SMILES IDX 24 12 25 13 26 14 12 15 11 16 10 17 9 18 8 19 7 20 6 21 5 22
REMARK SMILES IDX 4 23 3 24 2 25 1 26
REMARK H PARENT
REMARK Flexibility Score: inf
ROOT
ATOM      1  C   UNL     1      -2.084 -32.814 -50.885  1.00  0.00     0.000 C 
ENDROOT
BRANCH   1   2
ATOM      2  C   UNL     1      -1.448 -32.807 -52.285  1.00  0.00     0.000 C 
BRANCH   2   3
ATOM      3  C   UNL     1      -1.026 -31.399 -52.739  1.00  0.00     0.000 C 
BRANCH   3   4
ATOM      4  C   UNL     1      -1.019 -30.376 -51.588  1.00  0.00     0.000 C 
BRANCH   4   5
ATOM      5  C   UNL     1      -0.395 -29.007 -51.926  1.00  0.00     0.000 C 
BRANCH   5   6
ATOM      6  C   UNL     1       0.133 -28.865 -53.367  1.00  0.00     0.000 C 
BRANCH   6   7
ATOM      7  C   UNL     1       0.168 -27.423 -53.906  1.00  0.00     0.000 C 
BRANCH   7   8
ATOM      8  C   UNL     1      -0.005 -26.344 -52.814  1.00  0.00     0.000 C 
BRANCH   8   9
ATOM      9  C   UNL     1      -1.194 -25.411 -53.088  1.00  0.00     0.000 C 
BRANCH   9  10
ATOM     10  C   UNL     1      -2.175 -26.049 -54.082  1.00  0.00     0.006 C 
BRANCH  10  11
ATOM     11  C   UNL     1      -3.142 -25.019 -54.683  1.00  0.00     0.053 C 
BRANCH  11  12
ATOM     12  C   UNL     1      -4.564 -25.483 -54.607  1.00  0.00     0.041 C 
ATOM     13  O   UNL     1      -4.913 -26.552 -55.173  1.00  0.00    -0.550 OA
ATOM     14  O   UNL     1      -5.496 -24.758 -53.872  1.00  0.00    -0.550 OA
ENDBRANCH  11  12
ENDBRANCH  10  11
ENDBRANCH   9  10
ENDBRANCH   8   9
ENDBRANCH   7   8
ENDBRANCH   6   7
ENDBRANCH   5   6
ENDBRANCH   4   5
ENDBRANCH   3   4
ENDBRANCH   2   3
ENDBRANCH   1   2
BRANCH   1  15
ATOM     15  C   UNL     1      -3.537 -33.317 -50.896  1.00  0.00     0.000 C 
BRANCH  15  16
ATOM     16  C   UNL     1      -4.563 -32.173 -50.977  1.00  0.00     0.000 C 
BRANCH  16  17
ATOM     17  C   UNL     1      -5.523 -32.232 -52.185  1.00  0.00     0.000 C 
BRANCH  17  18
ATOM     18  C   UNL     1      -4.975 -31.637 -53.495  1.00  0.00    -0.000 C 
BRANCH  18  19
ATOM     19  C   UNL     1      -5.264 -30.132 -53.633  1.00  0.00    -0.000 C 
BRANCH  19  20
ATOM     20  C   UNL     1      -4.069 -29.250 -53.223  1.00  0.00    -0.000 C 
BRANCH  20  21
ATOM     21  C   UNL     1      -4.271 -28.412 -51.946  1.00  0.00    -0.000 C 
BRANCH  21  22
ATOM     22  C   UNL     1      -5.632 -27.700 -51.904  1.00  0.00    -0.000 C 
BRANCH  22  23
ATOM     23  C   UNL     1      -6.247 -27.680 -50.493  1.00  0.00    -0.000 C 
BRANCH  23  24
ATOM     24  C   UNL     1      -6.528 -29.087 -49.925  1.00  0.00    -0.000 C 
BRANCH  24  25
ATOM     25  C   UNL     1      -6.331 -29.148 -48.403  1.00  0.00    -0.003 C 
ATOM     26  C   UNL     1      -6.469 -27.764 -47.774  1.00  0.00     0.004 C 
ENDBRANCH  24  25
ENDBRANCH  23  24
ENDBRANCH  22  23
ENDBRANCH  21  22
ENDBRANCH  20  21
ENDBRANCH  19  20
ENDBRANCH  18  19
ENDBRANCH  17  18
ENDBRANCH  16  17
ENDBRANCH  15  16
ENDBRANCH   1  15
TORSDOF 22
ENDMDL
MODEL 7
REMARK VINA RESULT:    -5.396      3.659      5.841
REMARK INTER + INTRA:         -15.796
REMARK INTER:                 -13.111
REMARK INTRA:                  -2.685
REMARK UNBOUND:                -3.459
REMARK SMILES CCCCCCCCCCCCCCCCCCCCCCCC(=O)[O-]
REMARK SMILES IDX 13 1 14 2 15 3 16 4 17 5 18 6 19 7 20 8 21 9 22 10 23 11
REMARK SMILES IDX 24 12 25 13 26 14 12 15 11 16 10 17 9 18 8 19 7 20 6 21 5 22
REMARK SMILES IDX 4 23 3 24 2 25 1 26
REMARK H PARENT
REMARK Flexibility Score: inf
ROOT
ATOM      1  C   UNL     1      -6.428 -28.954 -48.727  1.00  0.00     0.000 C 
ENDROOT
BRANCH   1   2
ATOM      2  C   UNL     1      -6.369 -27.592 -49.439  1.00  0.00     0.000 C 
BRANCH   2   3
ATOM      3  C   UNL     1      -6.288 -27.724 -50.970  1.00  0.00     0.000 C 
BRANCH   3   4
ATOM      4  C   UNL     1      -4.952 -28.322 -51.448  1.00  0.00     0.000 C 
BRANCH   4   5
ATOM      5  C   UNL     1      -4.875 -28.643 -52.955  1.00  0.00     0.000 C 
BRANCH   5   6
ATOM      6  C   UNL     1      -5.923 -27.929 -53.831  1.00  0.00     0.000 C 
BRANCH   6   7
ATOM      7  C   UNL     1      -5.341 -26.967 -54.884  1.00  0.00     0.000 C 
BRANCH   7   8
ATOM      8  C   UNL     1      -4.207 -26.067 -54.348  1.00  0.00     0.000 C 
BRANCH   8   9
ATOM      9  C   UNL     1      -4.273 -24.638 -54.907  1.00  0.00     0.000 C 
BRANCH   9  10
ATOM     10  C   UNL     1      -5.688 -24.058 -54.769  1.00  0.00     0.006 C 
BRANCH  10  11
ATOM     11  C   UNL     1      -6.081 -23.195 -55.976  1.00  0.00     0.053 C 
BRANCH  11  12
ATOM     12  C   UNL     1      -6.619 -24.026 -57.101  1.00  0.00     0.041 C 
ATOM     13  O   UNL     1      -7.858 -24.057 -57.328  1.00  0.00    -0.550 OA
ATOM     14  O   UNL     1      -5.750 -24.728 -57.927  1.00  0.00    -0.550 OA
ENDBRANCH  11  12
ENDBRANCH  10  11
ENDBRANCH   9  10
ENDBRANCH   8   9
ENDBRANCH   7   8
ENDBRANCH   6   7
ENDBRANCH   5   6
ENDBRANCH   4   5
ENDBRANCH   3   4
ENDBRANCH   2   3
ENDBRANCH   1   2
BRANCH   1  15
ATOM     15  C   UNL     1      -7.342 -29.960 -49.446  1.00  0.00     0.000 C 
BRANCH  15  16
ATOM     16  C   UNL     1      -6.738 -31.375 -49.508  1.00  0.00     0.000 C 
BRANCH  16  17
ATOM     17  C   UNL     1      -6.020 -31.728 -50.828  1.00  0.00     0.000 C 
BRANCH  17  18
ATOM     18  C   UNL     1      -4.559 -32.191 -50.684  1.00  0.00    -0.000 C 
BRANCH  18  19
ATOM     19  C   UNL     1      -3.790 -32.162 -52.016  1.00  0.00    -0.000 C 
BRANCH  19  20
ATOM     20  C   UNL     1      -2.673 -33.221 -52.089  1.00  0.00    -0.000 C 
BRANCH  20  21
ATOM     21  C   UNL     1      -1.820 -33.197 -53.371  1.00  0.00    -0.000 C 
BRANCH  21  22
ATOM     22  C   UNL     1      -0.322 -32.998 -53.093  1.00  0.00    -0.000 C 
BRANCH  22  23
ATOM     23  C   UNL     1       0.074 -31.513 -53.014  1.00  0.00    -0.000 C 
BRANCH  23  24
ATOM     24  C   UNL     1       0.357 -31.027 -51.577  1.00  0.00    -0.000 C 
BRANCH  24  25
ATOM     25  C   UNL     1      -0.395 -29.729 -51.245  1.00  0.00    -0.003 C 
ATOM     26  C   UNL     1      -1.318 -29.320 -52.389  1.00  0.00     0.004 C 
ENDBRANCH  24  25
ENDBRANCH  23  24
ENDBRANCH  22  23
ENDBRANCH  21  22
ENDBRANCH  20  21
ENDBRANCH  19  20
ENDBRANCH  18  19
ENDBRANCH  17  18
ENDBRANCH  16  17
ENDBRANCH  15  16
ENDBRANCH   1  15
TORSDOF 22
ENDMDL
MODEL 8
REMARK VINA RESULT:    -5.388      3.516      7.045
REMARK INTER + INTRA:         -15.777
REMARK INTER:                 -12.569
REMARK INTRA:                  -3.208
REMARK UNBOUND:                -3.459
REMARK SMILES CCCCCCCCCCCCCCCCCCCCCCCC(=O)[O-]
REMARK SMILES IDX 13 1 14 2 15 3 16 4 17 5 18 6 19 7 20 8 21 9 22 10 23 11
REMARK SMILES IDX 24 12 25 13 26 14 12 15 11 16 10 17 9 18 8 19 7 20 6 21 5 22
REMARK SMILES IDX 4 23 3 24 2 25 1 26
REMARK H PARENT
REMARK Flexibility Score: inf
ROOT
ATOM      1  C   UNL     1      -0.738 -33.147 -53.006  1.00  0.00     0.000 C 
ENDROOT
BRANCH   1   2
ATOM      2  C   UNL     1      -0.032 -31.815 -53.308  1.00  0.00     0.000 C 
BRANCH   2   3
ATOM      3  C   UNL     1       0.597 -31.178 -52.057  1.00  0.00     0.000 C 
BRANCH   3   4
ATOM      4  C   UNL     1      -0.429 -30.424 -51.191  1.00  0.00     0.000 C 
BRANCH   4   5
ATOM      5  C   UNL     1      -0.511 -28.904 -51.439  1.00  0.00     0.000 C 
BRANCH   5   6
ATOM      6  C   UNL     1      -1.573 -28.463 -52.464  1.00  0.00     0.000 C 
BRANCH   6   7
ATOM      7  C   UNL     1      -1.054 -27.536 -53.579  1.00  0.00     0.000 C 
BRANCH   7   8
ATOM      8  C   UNL     1       0.477 -27.588 -53.771  1.00  0.00     0.000 C 
BRANCH   8   9
ATOM      9  C   UNL     1       1.101 -26.192 -53.923  1.00  0.00     0.000 C 
BRANCH   9  10
ATOM     10  C   UNL     1       0.016 -25.106 -53.955  1.00  0.00     0.006 C 
BRANCH  10  11
ATOM     11  C   UNL     1       0.566 -23.727 -53.566  1.00  0.00     0.053 C 
BRANCH  11  12
ATOM     12  C   UNL     1       0.399 -23.454 -52.103  1.00  0.00     0.041 C 
ATOM     13  O   UNL     1      -0.733 -23.154 -51.640  1.00  0.00    -0.550 OA
ATOM     14  O   UNL     1       1.484 -23.576 -51.243  1.00  0.00    -0.550 OA
ENDBRANCH  11  12
ENDBRANCH  10  11
ENDBRANCH   9  10
ENDBRANCH   8   9
ENDBRANCH   7   8
ENDBRANCH   6   7
ENDBRANCH   5   6
ENDBRANCH   4   5
ENDBRANCH   3   4
ENDBRANCH   2   3
ENDBRANCH   1   2
BRANCH   1  15
ATOM     15  C   UNL     1      -2.268 -33.048 -53.123  1.00  0.00     0.000 C 
BRANCH  15  16
ATOM     16  C   UNL     1      -2.978 -33.153 -51.761  1.00  0.00     0.000 C 
BRANCH  16  17
ATOM     17  C   UNL     1      -4.073 -32.096 -51.505  1.00  0.00     0.000 C 
BRANCH  17  18
ATOM     18  C   UNL     1      -5.374 -32.283 -52.306  1.00  0.00    -0.000 C 
BRANCH  18  19
ATOM     19  C   UNL     1      -5.453 -31.365 -53.538  1.00  0.00    -0.000 C 
BRANCH  19  20
ATOM     20  C   UNL     1      -4.555 -30.119 -53.418  1.00  0.00    -0.000 C 
BRANCH  20  21
ATOM     21  C   UNL     1      -5.208 -28.789 -53.840  1.00  0.00    -0.000 C 
BRANCH  21  22
ATOM     22  C   UNL     1      -5.426 -27.825 -52.662  1.00  0.00    -0.000 C 
BRANCH  22  23
ATOM     23  C   UNL     1      -5.173 -28.490 -51.298  1.00  0.00    -0.000 C 
BRANCH  23  24
ATOM     24  C   UNL     1      -6.305 -28.250 -50.277  1.00  0.00    -0.000 C 
BRANCH  24  25
ATOM     25  C   UNL     1      -6.348 -29.336 -49.192  1.00  0.00    -0.003 C 
ATOM     26  C   UNL     1      -7.250 -30.495 -49.608  1.00  0.00     0.004 C 
ENDBRANCH  24  25
ENDBRANCH  23  24
ENDBRANCH  22  23
ENDBRANCH  21  22
ENDBRANCH  20  21
ENDBRANCH  19  20
ENDBRANCH  18  19
ENDBRANCH  17  18
ENDBRANCH  16  17
ENDBRANCH  15  16
ENDBRANCH   1  15
TORSDOF 22
ENDMDL
MODEL 9
REMARK VINA RESULT:    -5.356      2.524      4.101
REMARK INTER + INTRA:         -15.704
REMARK INTER:                 -13.323
REMARK INTRA:                  -2.381
REMARK UNBOUND:                -3.459
REMARK SMILES CCCCCCCCCCCCCCCCCCCCCCCC(=O)[O-]
REMARK SMILES IDX 13 1 14 2 15 3 16 4 17 5 18 6 19 7 20 8 21 9 22 10 23 11
REMARK SMILES IDX 24 12 25 13 26 14 12 15 11 16 10 17 9 18 8 19 7 20 6 21 5 22
REMARK SMILES IDX 4 23 3 24 2 25 1 26
REMARK H PARENT
REMARK Flexibility Score: inf
ROOT
ATOM      1  C   UNL     1      -2.283 -33.378 -52.036  1.00  0.00     0.000 C 
ENDROOT
BRANCH   1   2
ATOM      2  C   UNL     1      -2.894 -32.524 -53.159  1.00  0.00     0.000 C 
BRANCH   2   3
ATOM      3  C   UNL     1      -4.192 -31.819 -52.729  1.00  0.00     0.000 C 
BRANCH   3   4
ATOM      4  C   UNL     1      -4.668 -32.244 -51.327  1.00  0.00     0.000 C 
BRANCH   4   5
ATOM      5  C   UNL     1      -6.066 -31.733 -50.922  1.00  0.00     0.000 C 
BRANCH   5   6
ATOM      6  C   UNL     1      -6.156 -31.119 -49.512  1.00  0.00     0.000 C 
BRANCH   6   7
ATOM      7  C   UNL     1      -6.434 -29.605 -49.479  1.00  0.00     0.000 C 
BRANCH   7   8
ATOM      8  C   UNL     1      -5.680 -28.809 -50.566  1.00  0.00     0.000 C 
BRANCH   8   9
ATOM      9  C   UNL     1      -6.364 -27.475 -50.903  1.00  0.00     0.000 C 
BRANCH   9  10
ATOM     10  C   UNL     1      -5.961 -26.989 -52.303  1.00  0.00     0.006 C 
BRANCH  10  11
ATOM     11  C   UNL     1      -5.003 -27.964 -53.001  1.00  0.00     0.053 C 
BRANCH  11  12
ATOM     12  C   UNL     1      -5.337 -28.127 -54.452  1.00  0.00     0.041 C 
ATOM     13  O   UNL     1      -5.441 -27.116 -55.196  1.00  0.00    -0.550 OA
ATOM     14  O   UNL     1      -5.489 -29.398 -54.994  1.00  0.00    -0.550 OA
ENDBRANCH  11  12
ENDBRANCH  10  11
ENDBRANCH   9  10
ENDBRANCH   8   9
ENDBRANCH   7   8
ENDBRANCH   6   7
ENDBRANCH   5   6
ENDBRANCH   4   5
ENDBRANCH   3   4
ENDBRANCH   2   3
ENDBRANCH   1   2
BRANCH   1  15
ATOM     15  C   UNL     1      -0.829 -32.990 -51.719  1.00  0.00     0.000 C 
BRANCH  15  16
ATOM     16  C   UNL     1      -0.464 -31.583 -52.226  1.00  0.00     0.000 C 
BRANCH  16  17
ATOM     17  C   UNL     1      -0.569 -30.456 -51.176  1.00  0.00     0.000 C 
BRANCH  17  18
ATOM     18  C   UNL     1      -0.380 -29.028 -51.718  1.00  0.00    -0.000 C 
BRANCH  18  19
ATOM     19  C   UNL     1      -1.556 -28.563 -52.594  1.00  0.00    -0.000 C 
BRANCH  19  20
ATOM     20  C   UNL     1      -1.220 -27.322 -53.443  1.00  0.00    -0.000 C 
BRANCH  20  21
ATOM     21  C   UNL     1       0.012 -26.519 -52.985  1.00  0.00    -0.000 C 
BRANCH  21  22
ATOM     22  C   UNL     1      -0.355 -25.182 -52.320  1.00  0.00    -0.000 C 
BRANCH  22  23
ATOM     23  C   UNL     1       0.879 -24.413 -51.816  1.00  0.00    -0.000 C 
BRANCH  23  24
ATOM     24  C   UNL     1       1.845 -23.992 -52.944  1.00  0.00    -0.000 C 
BRANCH  24  25
ATOM     25  C   UNL     1       3.301 -24.369 -52.631  1.00  0.00    -0.003 C 
ATOM     26  C   UNL     1       3.848 -25.355 -53.660  1.00  0.00     0.004 C 
ENDBRANCH  24  25
ENDBRANCH  23  24
ENDBRANCH  22  23
ENDBRANCH  21  22
ENDBRANCH  20  21
ENDBRANCH  19  20
ENDBRANCH  18  19
ENDBRANCH  17  18
ENDBRANCH  16  17
ENDBRANCH  15  16
ENDBRANCH   1  15
TORSDOF 22
ENDMDL
