MODEL 1
REMARK VINA RESULT:     0.123      0.000      0.000
REMARK INTER + INTRA:          -0.490
REMARK INTER:                   0.141
REMARK INTRA:                  -0.632
REMARK UNBOUND:                -0.632
REMARK SMILES C=C(C)[C@H]1CC[C@]2(C(=O)[O-])CC[C@]3(C)[C@H](CC[C@@H]4[C@@]5(C)CC[C@H](O)C(C)(C)[C@H]5CC[C@]43C)[C@H]12
REMARK SMILES IDX 7 1 6 2 33 3 11 4 5 5 15 6 4 7 12 8 16 9 13 10 17 11 31 12
REMARK SMILES IDX 14 13 18 14 30 15 32 16 19 17 29 18 21 19 20 20 28 21 22 22
REMARK SMILES IDX 25 23 23 24 26 25 27 26 8 27 9 28 10 29 2 30 3 31 1 32 24 33
REMARK H PARENT 24 34
REMARK Flexibility Score: inf
ROOT
ATOM      1  C   UNL     1     367.053 240.905 277.832  1.00  0.00     0.014 C 
ATOM      2  C   UNL     1     368.212 239.875 277.709  1.00  0.00     0.014 C 
ATOM      3  C   UNL     1     367.742 242.294 278.049  1.00  0.00     0.012 C 
ATOM      4  C   UNL     1     366.132 240.887 276.573  1.00  0.00     0.014 C 
ATOM      5  C   UNL     1     369.545 240.614 277.778  1.00  0.00     0.009 C 
ATOM      6  C   UNL     1     367.290 243.363 277.004  1.00  0.00     0.000 C 
ATOM      7  C   UNL     1     369.267 242.068 278.175  1.00  0.00     0.018 C 
ATOM      8  C   UNL     1     366.787 241.479 275.317  1.00  0.00     0.008 C 
ATOM      9  C   UNL     1     367.859 244.766 277.250  1.00  0.00     0.005 C 
ATOM     10  C   UNL     1     367.315 242.959 275.477  1.00  0.00    -0.024 C 
ATOM     11  C   UNL     1     367.030 245.805 276.486  1.00  0.00     0.005 C 
ATOM     12  C   UNL     1     366.425 244.047 274.658  1.00  0.00    -0.024 C 
ATOM     13  C   UNL     1     368.783 242.931 274.930  1.00  0.00     0.012 C 
ATOM     14  C   UNL     1     366.932 245.513 274.956  1.00  0.00     0.002 C 
ATOM     15  C   UNL     1     366.608 243.854 273.128  1.00  0.00     0.008 C 
ATOM     16  C   UNL     1     364.903 243.900 275.015  1.00  0.00     0.012 C 
ATOM     17  C   UNL     1     366.266 246.706 274.114  1.00  0.00    -0.026 C 
ATOM     18  C   UNL     1     365.728 244.758 272.279  1.00  0.00     0.005 C 
ATOM     19  C   UNL     1     367.349 247.841 274.018  1.00  0.00     0.010 C 
ATOM     20  C   UNL     1     365.072 247.331 274.909  1.00  0.00     0.012 C 
ATOM     21  C   UNL     1     365.747 246.283 272.642  1.00  0.00     0.003 C 
ATOM     22  C   UNL     1     366.997 249.031 273.121  1.00  0.00     0.033 C 
ATOM     23  C   UNL     1     366.286 247.169 271.445  1.00  0.00    -0.006 C 
ATOM     24  C   UNL     1     366.227 248.677 271.838  1.00  0.00     0.120 C 
ATOM     25  C   UNL     1     367.729 246.755 271.026  1.00  0.00     0.014 C 
ATOM     26  C   UNL     1     365.380 247.008 270.184  1.00  0.00     0.014 C 
ENDROOT
BRANCH   1  27
ATOM     27  C   UNL     1     366.152 240.535 279.010  1.00  0.00     0.048 C 
ATOM     28  O   UNL     1     364.927 240.844 278.992  1.00  0.00    -0.550 OA
ATOM     29  O   UNL     1     366.685 240.000 280.179  1.00  0.00    -0.550 OA
ENDBRANCH   1  27
BRANCH   7  30
ATOM     30  C   UNL     1     369.770 242.371 279.588  1.00  0.00    -0.077 C 
ATOM     31  C   UNL     1     369.769 241.311 280.662  1.00  0.00     0.039 C 
ATOM     32  C   UNL     1     370.160 243.614 279.913  1.00  0.00     0.008 C 
ENDBRANCH   7  30
BRANCH  24  33
ATOM     33  O   UNL     1     364.888 249.082 271.984  1.00  0.00    -0.393 OA
ATOM     34  H   UNL     1     364.856 250.062 271.822  1.00  0.00     0.210 HD
ENDBRANCH  24  33
TORSDOF 3
ENDMDL
