MODEL 1
REMARK VINA RESULT:    -3.364      0.000      0.000
REMARK INTER + INTRA:          -5.444
REMARK INTER:                  -4.937
REMARK INTRA:                  -0.507
REMARK UNBOUND:                -0.507
REMARK SMILES O=C([O-])CCCCCCCC(=O)[O-]
REMARK SMILES IDX 7 1 6 2 5 3 4 4 2 5 1 6 3 7 8 8 9 9 10 10 11 11 12 12 13 13
REMARK H PARENT
REMARK Flexibility Score: inf
ROOT
ATOM      1  C   UNL     1      60.398   0.974  96.718  1.00  0.00     0.000 C 
ENDROOT
BRANCH   1   2
ATOM      2  C   UNL     1      60.404  -0.525  96.370  1.00  0.00     0.000 C 
BRANCH   2   3
ATOM      3  C   UNL     1      61.014  -0.814  94.991  1.00  0.00     0.006 C 
BRANCH   3   4
ATOM      4  C   UNL     1      60.113  -1.751  94.179  1.00  0.00     0.053 C 
BRANCH   4   5
ATOM      5  C   UNL     1      60.258  -1.479  92.716  1.00  0.00     0.041 C 
ATOM      6  O   UNL     1      60.767  -2.346  91.957  1.00  0.00    -0.550 OA
ATOM      7  O   UNL     1      59.877  -0.248  92.196  1.00  0.00    -0.550 OA
ENDBRANCH   4   5
ENDBRANCH   3   4
ENDBRANCH   2   3
ENDBRANCH   1   2
BRANCH   1   8
ATOM      8  C   UNL     1      59.011   1.646  96.692  1.00  0.00     0.000 C 
BRANCH   8   9
ATOM      9  C   UNL     1      57.929   0.887  95.897  1.00  0.00     0.006 C 
BRANCH   9  10
ATOM     10  C   UNL     1      56.660   0.564  96.702  1.00  0.00     0.053 C 
BRANCH  10  11
ATOM     11  C   UNL     1      56.299  -0.887  96.620  1.00  0.00     0.041 C 
ATOM     12  O   UNL     1      57.196  -1.768  96.695  1.00  0.00    -0.550 OA
ATOM     13  O   UNL     1      54.977  -1.266  96.428  1.00  0.00    -0.550 OA
ENDBRANCH  10  11
ENDBRANCH   9  10
ENDBRANCH   8   9
ENDBRANCH   1   8
TORSDOF 8
ENDMDL
MODEL 2
REMARK VINA RESULT:    -3.361      4.250      5.907
REMARK INTER + INTRA:          -5.440
REMARK INTER:                  -5.129
REMARK INTRA:                  -0.311
REMARK UNBOUND:                -0.507
REMARK SMILES O=C([O-])CCCCCCCC(=O)[O-]
REMARK SMILES IDX 7 1 6 2 5 3 4 4 2 5 1 6 3 7 8 8 9 9 10 10 11 11 12 12 13 13
REMARK H PARENT
REMARK Flexibility Score: inf
ROOT
ATOM      1  C   UNL     1      58.262   3.017  96.110  1.00  0.00     0.000 C 
ENDROOT
BRANCH   1   2
ATOM      2  C   UNL     1      58.575   1.668  96.780  1.00  0.00     0.000 C 
BRANCH   2   3
ATOM      3  C   UNL     1      60.080   1.370  96.847  1.00  0.00     0.006 C 
BRANCH   3   4
ATOM      4  C   UNL     1      60.353  -0.123  96.635  1.00  0.00     0.053 C 
BRANCH   4   5
ATOM      5  C   UNL     1      59.784  -0.580  95.330  1.00  0.00     0.041 C 
ATOM      6  O   UNL     1      60.269  -0.163  94.246  1.00  0.00    -0.550 OA
ATOM      7  O   UNL     1      58.685  -1.429  95.310  1.00  0.00    -0.550 OA
ENDBRANCH   4   5
ENDBRANCH   3   4
ENDBRANCH   2   3
ENDBRANCH   1   2
BRANCH   1   8
ATOM      8  C   UNL     1      58.810   4.256  96.847  1.00  0.00     0.000 C 
BRANCH   8   9
ATOM      9  C   UNL     1      59.092   5.480  95.953  1.00  0.00     0.006 C 
BRANCH   9  10
ATOM     10  C   UNL     1      60.384   6.237  96.303  1.00  0.00     0.053 C 
BRANCH  10  11
ATOM     11  C   UNL     1      60.784   7.192  95.221  1.00  0.00     0.041 C 
ATOM     12  O   UNL     1      60.997   8.402  95.492  1.00  0.00    -0.550 OA
ATOM     13  O   UNL     1      60.889   6.752  93.908  1.00  0.00    -0.550 OA
ENDBRANCH  10  11
ENDBRANCH   9  10
ENDBRANCH   8   9
ENDBRANCH   1   8
TORSDOF 8
ENDMDL
MODEL 3
REMARK VINA RESULT:    -3.361      2.643      3.412
REMARK INTER + INTRA:          -5.440
REMARK INTER:                  -4.822
REMARK INTRA:                  -0.618
REMARK UNBOUND:                -0.507
REMARK SMILES O=C([O-])CCCCCCCC(=O)[O-]
REMARK SMILES IDX 7 1 6 2 5 3 4 4 2 5 1 6 3 7 8 8 9 9 10 10 11 11 12 12 13 13
REMARK H PARENT
REMARK Flexibility Score: inf
ROOT
ATOM      1  C   UNL     1      59.937  -0.579  95.775  1.00  0.00     0.000 C 
ENDROOT
BRANCH   1   2
ATOM      2  C   UNL     1      60.760  -1.063  94.568  1.00  0.00     0.000 C 
BRANCH   2   3
ATOM      3  C   UNL     1      60.114  -0.699  93.223  1.00  0.00     0.006 C 
BRANCH   3   4
ATOM      4  C   UNL     1      58.669  -0.230  93.417  1.00  0.00     0.053 C 
BRANCH   4   5
ATOM      5  C   UNL     1      58.155   0.414  92.169  1.00  0.00     0.041 C 
ATOM      6  O   UNL     1      56.987   0.883  92.132  1.00  0.00    -0.550 OA
ATOM      7  O   UNL     1      58.949   0.454  91.030  1.00  0.00    -0.550 OA
ENDBRANCH   4   5
ENDBRANCH   3   4
ENDBRANCH   2   3
ENDBRANCH   1   2
BRANCH   1   8
ATOM      8  C   UNL     1      60.688   0.356  96.745  1.00  0.00     0.000 C 
BRANCH   8   9
ATOM      9  C   UNL     1      59.963   1.675  97.077  1.00  0.00     0.006 C 
BRANCH   9  10
ATOM     10  C   UNL     1      58.470   1.689  96.708  1.00  0.00     0.053 C 
BRANCH  10  11
ATOM     11  C   UNL     1      58.102   2.901  95.909  1.00  0.00     0.041 C 
ATOM     12  O   UNL     1      57.432   2.781  94.850  1.00  0.00    -0.550 OA
ATOM     13  O   UNL     1      58.527   4.159  96.316  1.00  0.00    -0.550 OA
ENDBRANCH  10  11
ENDBRANCH   9  10
ENDBRANCH   8   9
ENDBRANCH   1   8
TORSDOF 8
ENDMDL
MODEL 4
REMARK VINA RESULT:    -3.344      2.458      4.569
REMARK INTER + INTRA:          -5.416
REMARK INTER:                  -4.698
REMARK INTRA:                  -0.718
REMARK UNBOUND:                -0.507
REMARK SMILES O=C([O-])CCCCCCCC(=O)[O-]
REMARK SMILES IDX 7 1 6 2 5 3 4 4 2 5 1 6 3 7 8 8 9 9 10 10 11 11 12 12 13 13
REMARK H PARENT
REMARK Flexibility Score: inf
ROOT
ATOM      1  C   UNL     1      60.170  -0.662  95.888  1.00  0.00     0.000 C 
ENDROOT
BRANCH   1   2
ATOM      2  C   UNL     1      60.755   0.474  96.744  1.00  0.00     0.000 C 
BRANCH   2   3
ATOM      3  C   UNL     1      59.783   1.650  96.920  1.00  0.00     0.006 C 
BRANCH   3   4
ATOM      4  C   UNL     1      58.429   1.343  96.272  1.00  0.00     0.053 C 
BRANCH   4   5
ATOM      5  C   UNL     1      57.808   2.594  95.738  1.00  0.00     0.041 C 
ATOM      6  O   UNL     1      58.376   3.705  95.906  1.00  0.00    -0.550 OA
ATOM      7  O   UNL     1      56.578   2.540  95.095  1.00  0.00    -0.550 OA
ENDBRANCH   4   5
ENDBRANCH   3   4
ENDBRANCH   2   3
ENDBRANCH   1   2
BRANCH   1   8
ATOM      8  C   UNL     1      60.972  -1.002  94.616  1.00  0.00     0.000 C 
BRANCH   8   9
ATOM      9  C   UNL     1      60.127  -1.468  93.413  1.00  0.00     0.006 C 
BRANCH   9  10
ATOM     10  C   UNL     1      59.663  -0.332  92.486  1.00  0.00     0.053 C 
BRANCH  10  11
ATOM     11  C   UNL     1      58.240   0.056  92.745  1.00  0.00     0.041 C 
ATOM     12  O   UNL     1      57.788   1.143  92.297  1.00  0.00    -0.550 OA
ATOM     13  O   UNL     1      57.422  -0.766  93.510  1.00  0.00    -0.550 OA
ENDBRANCH  10  11
ENDBRANCH   9  10
ENDBRANCH   8   9
ENDBRANCH   1   8
TORSDOF 8
ENDMDL
MODEL 5
REMARK VINA RESULT:    -3.311      4.216      6.100
REMARK INTER + INTRA:          -5.367
REMARK INTER:                  -5.003
REMARK INTRA:                  -0.364
REMARK UNBOUND:                -0.507
REMARK SMILES O=C([O-])CCCCCCCC(=O)[O-]
REMARK SMILES IDX 7 1 6 2 5 3 4 4 2 5 1 6 3 7 8 8 9 9 10 10 11 11 12 12 13 13
REMARK H PARENT
REMARK Flexibility Score: inf
ROOT
ATOM      1  C   UNL     1      58.504   3.112  96.198  1.00  0.00     0.000 C 
ENDROOT
BRANCH   1   2
ATOM      2  C   UNL     1      57.818   4.131  97.125  1.00  0.00     0.000 C 
BRANCH   2   3
ATOM      3  C   UNL     1      58.379   5.552  96.968  1.00  0.00     0.006 C 
BRANCH   3   4
ATOM      4  C   UNL     1      59.861   5.517  96.580  1.00  0.00     0.053 C 
BRANCH   4   5
ATOM      5  C   UNL     1      60.288   6.837  96.023  1.00  0.00     0.041 C 
ATOM      6  O   UNL     1      60.968   6.889  94.965  1.00  0.00    -0.550 OA
ATOM      7  O   UNL     1      59.976   8.010  96.699  1.00  0.00    -0.550 OA
ENDBRANCH   4   5
ENDBRANCH   3   4
ENDBRANCH   2   3
ENDBRANCH   1   2
BRANCH   1   8
ATOM      8  C   UNL     1      58.800   1.741  96.838  1.00  0.00     0.000 C 
BRANCH   8   9
ATOM      9  C   UNL     1      60.280   1.309  96.809  1.00  0.00     0.006 C 
BRANCH   9  10
ATOM     10  C   UNL     1      60.496  -0.208  96.687  1.00  0.00     0.053 C 
BRANCH  10  11
ATOM     11  C   UNL     1      60.043  -0.732  95.359  1.00  0.00     0.041 C 
ATOM     12  O   UNL     1      60.768  -0.587  94.340  1.00  0.00    -0.550 OA
ATOM     13  O   UNL     1      58.805  -1.352  95.240  1.00  0.00    -0.550 OA
ENDBRANCH  10  11
ENDBRANCH   9  10
ENDBRANCH   8   9
ENDBRANCH   1   8
TORSDOF 8
ENDMDL
MODEL 6
REMARK VINA RESULT:    -3.260      2.718      3.390
REMARK INTER + INTRA:          -5.292
REMARK INTER:                  -4.950
REMARK INTRA:                  -0.341
REMARK UNBOUND:                -0.507
REMARK SMILES O=C([O-])CCCCCCCC(=O)[O-]
REMARK SMILES IDX 7 1 6 2 5 3 4 4 2 5 1 6 3 7 8 8 9 9 10 10 11 11 12 12 13 13
REMARK H PARENT
REMARK Flexibility Score: inf
ROOT
ATOM      1  C   UNL     1      60.072  -0.156  95.390  1.00  0.00     0.000 C 
ENDROOT
BRANCH   1   2
ATOM      2  C   UNL     1      61.105  -1.039  94.669  1.00  0.00     0.000 C 
BRANCH   2   3
ATOM      3  C   UNL     1      60.618  -1.527  93.297  1.00  0.00     0.006 C 
BRANCH   3   4
ATOM      4  C   UNL     1      60.394  -3.043  93.301  1.00  0.00     0.053 C 
BRANCH   4   5
ATOM      5  C   UNL     1      58.943  -3.358  93.128  1.00  0.00     0.041 C 
ATOM      6  O   UNL     1      58.069  -2.663  93.709  1.00  0.00    -0.550 OA
ATOM      7  O   UNL     1      58.556  -4.451  92.362  1.00  0.00    -0.550 OA
ENDBRANCH   4   5
ENDBRANCH   3   4
ENDBRANCH   2   3
ENDBRANCH   1   2
BRANCH   1   8
ATOM      8  C   UNL     1      60.525   0.398  96.756  1.00  0.00     0.000 C 
BRANCH   8   9
ATOM      9  C   UNL     1      59.953   1.782  97.125  1.00  0.00     0.006 C 
BRANCH   9  10
ATOM     10  C   UNL     1      58.431   1.906  96.946  1.00  0.00     0.053 C 
BRANCH  10  11
ATOM     11  C   UNL     1      58.066   3.024  96.019  1.00  0.00     0.041 C 
ATOM     12  O   UNL     1      57.436   2.785  94.955  1.00  0.00    -0.550 OA
ATOM     13  O   UNL     1      58.450   4.327  96.314  1.00  0.00    -0.550 OA
ENDBRANCH  10  11
ENDBRANCH   9  10
ENDBRANCH   8   9
ENDBRANCH   1   8
TORSDOF 8
ENDMDL
MODEL 7
REMARK VINA RESULT:    -3.249      1.474      2.180
REMARK INTER + INTRA:          -5.275
REMARK INTER:                  -4.691
REMARK INTRA:                  -0.585
REMARK UNBOUND:                -0.507
REMARK SMILES O=C([O-])CCCCCCCC(=O)[O-]
REMARK SMILES IDX 7 1 6 2 5 3 4 4 2 5 1 6 3 7 8 8 9 9 10 10 11 11 12 12 13 13
REMARK H PARENT
REMARK Flexibility Score: inf
ROOT
ATOM      1  C   UNL     1      60.224  -0.601  96.144  1.00  0.00     0.000 C 
ENDROOT
BRANCH   1   2
ATOM      2  C   UNL     1      61.100  -0.951  94.929  1.00  0.00     0.000 C 
BRANCH   2   3
ATOM      3  C   UNL     1      60.428  -1.953  93.979  1.00  0.00     0.006 C 
BRANCH   3   4
ATOM      4  C   UNL     1      60.380  -1.404  92.549  1.00  0.00     0.053 C 
BRANCH   4   5
ATOM      5  C   UNL     1      59.142  -0.592  92.342  1.00  0.00     0.041 C 
ATOM      6  O   UNL     1      58.087  -0.872  92.970  1.00  0.00    -0.550 OA
ATOM      7  O   UNL     1      59.136   0.444  91.417  1.00  0.00    -0.550 OA
ENDBRANCH   4   5
ENDBRANCH   3   4
ENDBRANCH   2   3
ENDBRANCH   1   2
BRANCH   1   8
ATOM      8  C   UNL     1      60.446   0.810  96.726  1.00  0.00     0.000 C 
BRANCH   8   9
ATOM      9  C   UNL     1      59.193   1.706  96.769  1.00  0.00     0.006 C 
BRANCH   9  10
ATOM     10  C   UNL     1      58.287   1.589  95.531  1.00  0.00     0.053 C 
BRANCH  10  11
ATOM     11  C   UNL     1      56.904   1.142  95.890  1.00  0.00     0.041 C 
ATOM     12  O   UNL     1      55.903   1.701  95.371  1.00  0.00    -0.550 OA
ATOM     13  O   UNL     1      56.719   0.130  96.824  1.00  0.00    -0.550 OA
ENDBRANCH  10  11
ENDBRANCH   9  10
ENDBRANCH   8   9
ENDBRANCH   1   8
TORSDOF 8
ENDMDL
MODEL 8
REMARK VINA RESULT:    -3.194      5.207      6.954
REMARK INTER + INTRA:          -5.195
REMARK INTER:                  -4.991
REMARK INTRA:                  -0.203
REMARK UNBOUND:                -0.507
REMARK SMILES O=C([O-])CCCCCCCC(=O)[O-]
REMARK SMILES IDX 7 1 6 2 5 3 4 4 2 5 1 6 3 7 8 8 9 9 10 10 11 11 12 12 13 13
REMARK H PARENT
REMARK Flexibility Score: inf
ROOT
ATOM      1  C   UNL     1      59.606   4.638  97.124  1.00  0.00     0.000 C 
ENDROOT
BRANCH   1   2
ATOM      2  C   UNL     1      58.623   3.520  96.734  1.00  0.00     0.000 C 
BRANCH   2   3
ATOM      3  C   UNL     1      59.157   2.117  97.059  1.00  0.00     0.006 C 
BRANCH   3   4
ATOM      4  C   UNL     1      58.855   1.138  95.920  1.00  0.00     0.053 C 
BRANCH   4   5
ATOM      5  C   UNL     1      59.706  -0.085  96.041  1.00  0.00     0.041 C 
ATOM      6  O   UNL     1      60.744  -0.068  96.753  1.00  0.00    -0.550 OA
ATOM      7  O   UNL     1      59.381  -1.232  95.327  1.00  0.00    -0.550 OA
ENDBRANCH   4   5
ENDBRANCH   3   4
ENDBRANCH   2   3
ENDBRANCH   1   2
BRANCH   1   8
ATOM      8  C   UNL     1      59.436   5.959  96.347  1.00  0.00     0.000 C 
BRANCH   8   9
ATOM      9  C   UNL     1      60.740   6.741  96.090  1.00  0.00     0.006 C 
BRANCH   9  10
ATOM     10  C   UNL     1      61.112   6.883  94.605  1.00  0.00     0.053 C 
BRANCH  10  11
ATOM     11  C   UNL     1      60.818   8.256  94.083  1.00  0.00     0.041 C 
ATOM     12  O   UNL     1      60.944   8.507  92.856  1.00  0.00    -0.550 OA
ATOM     13  O   UNL     1      60.438   9.266  94.957  1.00  0.00    -0.550 OA
ENDBRANCH  10  11
ENDBRANCH   9  10
ENDBRANCH   8   9
ENDBRANCH   1   8
TORSDOF 8
ENDMDL
MODEL 9
REMARK VINA RESULT:    -3.161      1.905      4.662
REMARK INTER + INTRA:          -5.147
REMARK INTER:                  -4.519
REMARK INTRA:                  -0.628
REMARK UNBOUND:                -0.507
REMARK SMILES O=C([O-])CCCCCCCC(=O)[O-]
REMARK SMILES IDX 7 1 6 2 5 3 4 4 2 5 1 6 3 7 8 8 9 9 10 10 11 11 12 12 13 13
REMARK H PARENT
REMARK Flexibility Score: inf
ROOT
ATOM      1  C   UNL     1      60.186  -0.613  96.099  1.00  0.00     0.000 C 
ENDROOT
BRANCH   1   2
ATOM      2  C   UNL     1      60.401   0.776  96.727  1.00  0.00     0.000 C 
BRANCH   2   3
ATOM      3  C   UNL     1      59.138   1.648  96.689  1.00  0.00     0.006 C 
BRANCH   3   4
ATOM      4  C   UNL     1      58.294   1.339  95.449  1.00  0.00     0.053 C 
BRANCH   4   5
ATOM      5  C   UNL     1      56.838   1.489  95.755  1.00  0.00     0.041 C 
ATOM      6  O   UNL     1      56.010   1.672  94.824  1.00  0.00    -0.550 OA
ATOM      7  O   UNL     1      56.399   1.476  97.073  1.00  0.00    -0.550 OA
ENDBRANCH   4   5
ENDBRANCH   3   4
ENDBRANCH   2   3
ENDBRANCH   1   2
BRANCH   1   8
ATOM      8  C   UNL     1      61.125  -0.951  94.923  1.00  0.00     0.000 C 
BRANCH   8   9
ATOM      9  C   UNL     1      60.439  -1.589  93.699  1.00  0.00     0.006 C 
BRANCH   9  10
ATOM     10  C   UNL     1      59.956  -0.578  92.645  1.00  0.00     0.053 C 
BRANCH  10  11
ATOM     11  C   UNL     1      58.525  -0.805  92.266  1.00  0.00     0.041 C 
ATOM     12  O   UNL     1      58.120  -0.503  91.113  1.00  0.00    -0.550 OA
ATOM     13  O   UNL     1      57.631  -1.319  93.197  1.00  0.00    -0.550 OA
ENDBRANCH  10  11
ENDBRANCH   9  10
ENDBRANCH   8   9
ENDBRANCH   1   8
TORSDOF 8
ENDMDL
