MODEL 1
REMARK VINA RESULT:    -3.453      0.000      0.000
REMARK INTER + INTRA:          -3.866
REMARK INTER:                  -3.857
REMARK INTRA:                  -0.009
REMARK UNBOUND:                -0.009
REMARK SMILES CCCC(=O)[O-]
REMARK SMILES IDX 3 1 4 2 5 3 6 4 2 5 1 6
REMARK H PARENT
REMARK Flexibility Score: inf
ROOT
ATOM      1  C   UNL     1      28.576  56.161  -6.511  1.00  0.00     0.052 C 
ENDROOT
BRANCH   1   2
ATOM      2  C   UNL     1      29.229  56.570  -5.229  1.00  0.00     0.041 C 
ATOM      3  O   UNL     1      30.398  57.038  -5.236  1.00  0.00    -0.550 OA
ATOM      4  O   UNL     1      28.567  56.387  -4.022  1.00  0.00    -0.550 OA
ENDBRANCH   1   2
BRANCH   1   5
ATOM      5  C   UNL     1      28.765  57.243  -7.578  1.00  0.00     0.003 C 
ATOM      6  C   UNL     1      28.184  56.802  -8.918  1.00  0.00     0.004 C 
ENDBRANCH   1   5
TORSDOF 2
ENDMDL
MODEL 2
REMARK VINA RESULT:    -3.319     17.808     18.431
REMARK INTER + INTRA:          -3.716
REMARK INTER:                  -3.709
REMARK INTRA:                  -0.007
REMARK UNBOUND:                -0.009
REMARK SMILES CCCC(=O)[O-]
REMARK SMILES IDX 3 1 4 2 5 3 6 4 2 5 1 6
REMARK H PARENT
REMARK Flexibility Score: inf
ROOT
ATOM      1  C   UNL     1      37.475  65.968   6.537  1.00  0.00     0.052 C 
ENDROOT
BRANCH   1   2
ATOM      2  C   UNL     1      37.491  67.079   5.535  1.00  0.00     0.041 C 
ATOM      3  O   UNL     1      36.905  68.165   5.786  1.00  0.00    -0.550 OA
ATOM      4  O   UNL     1      38.109  66.897   4.304  1.00  0.00    -0.550 OA
ENDBRANCH   1   2
BRANCH   1   5
ATOM      5  C   UNL     1      38.858  65.320   6.641  1.00  0.00     0.003 C 
ATOM      6  C   UNL     1      39.103  64.769   8.042  1.00  0.00     0.004 C 
ENDBRANCH   1   5
TORSDOF 2
ENDMDL
MODEL 3
REMARK VINA RESULT:    -3.304      2.890      3.860
REMARK INTER + INTRA:          -3.700
REMARK INTER:                  -3.688
REMARK INTRA:                  -0.012
REMARK UNBOUND:                -0.009
REMARK SMILES CCCC(=O)[O-]
REMARK SMILES IDX 3 1 4 2 5 3 6 4 2 5 1 6
REMARK H PARENT
REMARK Flexibility Score: inf
ROOT
ATOM      1  C   UNL     1      28.515  56.971  -7.920  1.00  0.00     0.052 C 
ENDROOT
BRANCH   1   2
ATOM      2  C   UNL     1      28.436  58.203  -8.765  1.00  0.00     0.041 C 
ATOM      3  O   UNL     1      27.791  58.189  -9.847  1.00  0.00    -0.550 OA
ATOM      4  O   UNL     1      29.117  59.353  -8.385  1.00  0.00    -0.550 OA
ENDBRANCH   1   2
BRANCH   1   5
ATOM      5  C   UNL     1      29.228  57.273  -6.599  1.00  0.00     0.003 C 
ATOM      6  C   UNL     1      28.799  56.297  -5.507  1.00  0.00     0.004 C 
ENDBRANCH   1   5
TORSDOF 2
ENDMDL
MODEL 4
REMARK VINA RESULT:    -3.282      2.374      3.069
REMARK INTER + INTRA:          -3.675
REMARK INTER:                  -3.656
REMARK INTRA:                  -0.019
REMARK UNBOUND:                -0.009
REMARK SMILES CCCC(=O)[O-]
REMARK SMILES IDX 3 1 4 2 5 3 6 4 2 5 1 6
REMARK H PARENT
REMARK Flexibility Score: inf
ROOT
ATOM      1  C   UNL     1      30.938  57.470  -5.167  1.00  0.00     0.052 C 
ENDROOT
BRANCH   1   2
ATOM      2  C   UNL     1      31.006  58.891  -4.703  1.00  0.00     0.041 C 
ATOM      3  O   UNL     1      31.055  59.829  -5.542  1.00  0.00    -0.550 OA
ATOM      4  O   UNL     1      31.068  59.177  -3.345  1.00  0.00    -0.550 OA
ENDBRANCH   1   2
BRANCH   1   5
ATOM      5  C   UNL     1      29.546  56.889  -4.908  1.00  0.00     0.003 C 
ATOM      6  C   UNL     1      28.878  56.459  -6.212  1.00  0.00     0.004 C 
ENDBRANCH   1   5
TORSDOF 2
ENDMDL
MODEL 5
REMARK VINA RESULT:    -3.281      2.207      3.455
REMARK INTER + INTRA:          -3.674
REMARK INTER:                  -3.637
REMARK INTRA:                  -0.037
REMARK UNBOUND:                -0.009
REMARK SMILES CCCC(=O)[O-]
REMARK SMILES IDX 3 1 4 2 5 3 6 4 2 5 1 6
REMARK H PARENT
REMARK Flexibility Score: inf
ROOT
ATOM      1  C   UNL     1      29.603  56.867  -5.175  1.00  0.00     0.052 C 
ENDROOT
BRANCH   1   2
ATOM      2  C   UNL     1      28.988  56.873  -6.538  1.00  0.00     0.041 C 
ATOM      3  O   UNL     1      28.411  55.844  -6.977  1.00  0.00    -0.550 OA
ATOM      4  O   UNL     1      29.095  57.999  -7.345  1.00  0.00    -0.550 OA
ENDBRANCH   1   2
BRANCH   1   5
ATOM      5  C   UNL     1      30.954  57.587  -5.194  1.00  0.00     0.003 C 
ATOM      6  C   UNL     1      30.957  58.777  -4.238  1.00  0.00     0.004 C 
ENDBRANCH   1   5
TORSDOF 2
ENDMDL
MODEL 6
REMARK VINA RESULT:    -3.207      2.932      3.786
REMARK INTER + INTRA:          -3.591
REMARK INTER:                  -3.562
REMARK INTRA:                  -0.029
REMARK UNBOUND:                -0.009
REMARK SMILES CCCC(=O)[O-]
REMARK SMILES IDX 3 1 4 2 5 3 6 4 2 5 1 6
REMARK H PARENT
REMARK Flexibility Score: inf
ROOT
ATOM      1  C   UNL     1      28.118  58.187  -9.824  1.00  0.00     0.052 C 
ENDROOT
BRANCH   1   2
ATOM      2  C   UNL     1      28.520  57.568  -8.523  1.00  0.00     0.041 C 
ATOM      3  O   UNL     1      28.259  56.358  -8.290  1.00  0.00    -0.550 OA
ATOM      4  O   UNL     1      29.139  58.339  -7.548  1.00  0.00    -0.550 OA
ENDBRANCH   1   2
BRANCH   1   5
ATOM      5  C   UNL     1      27.531  59.582  -9.594  1.00  0.00     0.003 C 
ATOM      6  C   UNL     1      28.487  60.668 -10.080  1.00  0.00     0.004 C 
ENDBRANCH   1   5
TORSDOF 2
ENDMDL
MODEL 7
REMARK VINA RESULT:    -3.186     17.899     18.668
REMARK INTER + INTRA:          -3.567
REMARK INTER:                  -3.549
REMARK INTRA:                  -0.018
REMARK UNBOUND:                -0.009
REMARK SMILES CCCC(=O)[O-]
REMARK SMILES IDX 3 1 4 2 5 3 6 4 2 5 1 6
REMARK H PARENT
REMARK Flexibility Score: inf
ROOT
ATOM      1  C   UNL     1      38.976  65.205   6.563  1.00  0.00     0.052 C 
ENDROOT
BRANCH   1   2
ATOM      2  C   UNL     1      37.928  66.157   6.080  1.00  0.00     0.041 C 
ATOM      3  O   UNL     1      36.955  66.457   6.820  1.00  0.00    -0.550 OA
ATOM      4  O   UNL     1      37.999  66.674   4.792  1.00  0.00    -0.550 OA
ENDBRANCH   1   2
BRANCH   1   5
ATOM      5  C   UNL     1      38.889  65.041   8.083  1.00  0.00     0.003 C 
ATOM      6  C   UNL     1      39.383  63.663   8.516  1.00  0.00     0.004 C 
ENDBRANCH   1   5
TORSDOF 2
ENDMDL
MODEL 8
REMARK VINA RESULT:    -3.061     19.161     19.451
REMARK INTER + INTRA:          -3.427
REMARK INTER:                  -3.401
REMARK INTRA:                  -0.027
REMARK UNBOUND:                -0.009
REMARK SMILES CCCC(=O)[O-]
REMARK SMILES IDX 3 1 4 2 5 3 6 4 2 5 1 6
REMARK H PARENT
REMARK Flexibility Score: inf
ROOT
ATOM      1  C   UNL     1      39.535  63.688   8.716  1.00  0.00     0.052 C 
ENDROOT
BRANCH   1   2
ATOM      2  C   UNL     1      39.309  64.750   7.687  1.00  0.00     0.041 C 
ATOM      3  O   UNL     1      38.330  65.535   7.793  1.00  0.00    -0.550 OA
ATOM      4  O   UNL     1      40.150  64.841   6.585  1.00  0.00    -0.550 OA
ENDBRANCH   1   2
BRANCH   1   5
ATOM      5  C   UNL     1      40.788  62.875   8.380  1.00  0.00     0.003 C 
ATOM      6  C   UNL     1      40.494  61.378   8.395  1.00  0.00     0.004 C 
ENDBRANCH   1   5
TORSDOF 2
ENDMDL
MODEL 9
REMARK VINA RESULT:    -2.984     19.072     19.582
REMARK INTER + INTRA:          -3.342
REMARK INTER:                  -3.334
REMARK INTRA:                  -0.007
REMARK UNBOUND:                -0.009
REMARK SMILES CCCC(=O)[O-]
REMARK SMILES IDX 3 1 4 2 5 3 6 4 2 5 1 6
REMARK H PARENT
REMARK Flexibility Score: inf
ROOT
ATOM      1  C   UNL     1      39.710  62.117   8.005  1.00  0.00     0.052 C 
ENDROOT
BRANCH   1   2
ATOM      2  C   UNL     1      39.941  63.489   8.554  1.00  0.00     0.041 C 
ATOM      3  O   UNL     1      38.968  64.189   8.941  1.00  0.00    -0.550 OA
ATOM      4  O   UNL     1      41.227  64.016   8.591  1.00  0.00    -0.550 OA
ENDBRANCH   1   2
BRANCH   1   5
ATOM      5  C   UNL     1      40.869  61.189   8.377  1.00  0.00     0.003 C 
ATOM      6  C   UNL     1      40.418  59.731   8.406  1.00  0.00     0.004 C 
ENDBRANCH   1   5
TORSDOF 2
ENDMDL
