MODEL 1
REMARK VINA RESULT:    -3.202      0.000      0.000
REMARK INTER + INTRA:          -3.483
REMARK INTER:                  -3.483
REMARK INTRA:                   0.000
REMARK UNBOUND:                 0.000
REMARK SMILES [NH3+]CC(=O)[O-]
REMARK SMILES IDX 2 1 1 2 3 6 4 7 5 8
REMARK H PARENT 1 3 1 4 1 5
REMARK Flexibility Score: inf
ROOT
ATOM      1  C   UNL     1      26.048   7.065  10.409  1.00  0.00     0.312 C 
ENDROOT
BRANCH   1   2
ATOM      2  N   UNL     1      24.652   7.016  10.839  1.00  0.00    -0.353 N 
ATOM      3  H   UNL     1      24.167   7.888  10.526  1.00  0.00     0.344 HD
ATOM      4  H   UNL     1      24.173   6.190  10.410  1.00  0.00     0.344 HD
ATOM      5  H   UNL     1      24.599   6.953  11.881  1.00  0.00     0.344 HD
ENDBRANCH   1   2
BRANCH   1   6
ATOM      6  C   UNL     1      26.347   5.948   9.456  1.00  0.00     0.096 C 
ATOM      7  O   UNL     1      26.262   4.751   9.838  1.00  0.00    -0.544 OA
ATOM      8  O   UNL     1      26.770   6.231   8.164  1.00  0.00    -0.544 OA
ENDBRANCH   1   6
TORSDOF 2
ENDMDL
MODEL 2
REMARK VINA RESULT:    -3.093      2.705      2.893
REMARK INTER + INTRA:          -3.364
REMARK INTER:                  -3.364
REMARK INTRA:                   0.000
REMARK UNBOUND:                 0.000
REMARK SMILES [NH3+]CC(=O)[O-]
REMARK SMILES IDX 2 1 1 2 3 6 4 7 5 8
REMARK H PARENT 1 3 1 4 1 5
REMARK Flexibility Score: inf
ROOT
ATOM      1  C   UNL     1      27.281   6.560   7.446  1.00  0.00     0.312 C 
ENDROOT
BRANCH   1   2
ATOM      2  N   UNL     1      26.645   5.856   6.334  1.00  0.00    -0.353 N 
ATOM      3  H   UNL     1      27.288   5.106   5.992  1.00  0.00     0.344 HD
ATOM      4  H   UNL     1      25.750   5.418   6.651  1.00  0.00     0.344 HD
ATOM      5  H   UNL     1      26.455   6.522   5.550  1.00  0.00     0.344 HD
ENDBRANCH   1   2
BRANCH   1   6
ATOM      6  C   UNL     1      26.570   6.267   8.732  1.00  0.00     0.096 C 
ATOM      7  O   UNL     1      25.816   5.263   8.824  1.00  0.00    -0.544 OA
ATOM      8  O   UNL     1      26.700   7.132   9.810  1.00  0.00    -0.544 OA
ENDBRANCH   1   6
TORSDOF 2
ENDMDL
MODEL 3
REMARK VINA RESULT:    -3.079      2.142      2.251
REMARK INTER + INTRA:          -3.349
REMARK INTER:                  -3.349
REMARK INTRA:                   0.000
REMARK UNBOUND:                 0.000
REMARK SMILES [NH3+]CC(=O)[O-]
REMARK SMILES IDX 2 1 1 2 3 6 4 7 5 8
REMARK H PARENT 1 3 1 4 1 5
REMARK Flexibility Score: inf
ROOT
ATOM      1  C   UNL     1      25.865   5.247   9.204  1.00  0.00     0.312 C 
ENDROOT
BRANCH   1   2
ATOM      2  N   UNL     1      25.065   4.997   8.006  1.00  0.00    -0.353 N 
ATOM      3  H   UNL     1      24.098   5.366   8.158  1.00  0.00     0.344 HD
ATOM      4  H   UNL     1      25.489   5.485   7.183  1.00  0.00     0.344 HD
ATOM      5  H   UNL     1      25.010   3.969   7.819  1.00  0.00     0.344 HD
ENDBRANCH   1   2
BRANCH   1   6
ATOM      6  C   UNL     1      26.618   6.535   9.076  1.00  0.00     0.096 C 
ATOM      7  O   UNL     1      26.605   7.372  10.017  1.00  0.00    -0.544 OA
ATOM      8  O   UNL     1      27.292   6.833   7.899  1.00  0.00    -0.544 OA
ENDBRANCH   1   6
TORSDOF 2
ENDMDL
MODEL 4
REMARK VINA RESULT:    -3.067      2.159      2.732
REMARK INTER + INTRA:          -3.336
REMARK INTER:                  -3.336
REMARK INTRA:                   0.000
REMARK UNBOUND:                 0.000
REMARK SMILES [NH3+]CC(=O)[O-]
REMARK SMILES IDX 2 1 1 2 3 6 4 7 5 8
REMARK H PARENT 1 3 1 4 1 5
REMARK Flexibility Score: inf
ROOT
ATOM      1  C   UNL     1      26.258   5.147   9.721  1.00  0.00     0.312 C 
ENDROOT
BRANCH   1   2
ATOM      2  N   UNL     1      25.487   5.088   8.481  1.00  0.00    -0.353 N 
ATOM      3  H   UNL     1      26.085   5.419   7.690  1.00  0.00     0.344 HD
ATOM      4  H   UNL     1      25.187   4.103   8.291  1.00  0.00     0.344 HD
ATOM      5  H   UNL     1      24.645   5.706   8.551  1.00  0.00     0.344 HD
ENDBRANCH   1   2
BRANCH   1   6
ATOM      6  C   UNL     1      26.005   6.436  10.440  1.00  0.00     0.096 C 
ATOM      7  O   UNL     1      26.547   7.500  10.041  1.00  0.00    -0.544 OA
ATOM      8  O   UNL     1      25.213   6.452  11.581  1.00  0.00    -0.544 OA
ENDBRANCH   1   6
TORSDOF 2
ENDMDL
MODEL 5
REMARK VINA RESULT:    -2.885      6.734      7.218
REMARK INTER + INTRA:          -3.138
REMARK INTER:                  -3.138
REMARK INTRA:                   0.000
REMARK UNBOUND:                 0.000
REMARK SMILES [NH3+]CC(=O)[O-]
REMARK SMILES IDX 2 1 1 2 3 6 4 7 5 8
REMARK H PARENT 1 3 1 4 1 5
REMARK Flexibility Score: inf
ROOT
ATOM      1  C   UNL     1      22.543   6.344  15.553  1.00  0.00     0.312 C 
ENDROOT
BRANCH   1   2
ATOM      2  N   UNL     1      21.138   6.303  15.955  1.00  0.00    -0.353 N 
ATOM      3  H   UNL     1      21.046   5.716  16.815  1.00  0.00     0.344 HD
ATOM      4  H   UNL     1      20.797   7.270  16.165  1.00  0.00     0.344 HD
ATOM      5  H   UNL     1      20.559   5.882  15.193  1.00  0.00     0.344 HD
ENDBRANCH   1   2
BRANCH   1   6
ATOM      6  C   UNL     1      23.295   5.191  16.142  1.00  0.00     0.096 C 
ATOM      7  O   UNL     1      22.989   4.751  17.281  1.00  0.00    -0.544 OA
ATOM      8  O   UNL     1      24.367   4.636  15.455  1.00  0.00    -0.544 OA
ENDBRANCH   1   6
TORSDOF 2
ENDMDL
MODEL 6
REMARK VINA RESULT:    -2.831      5.588      6.139
REMARK INTER + INTRA:          -3.079
REMARK INTER:                  -3.079
REMARK INTRA:                   0.000
REMARK UNBOUND:                 0.000
REMARK SMILES [NH3+]CC(=O)[O-]
REMARK SMILES IDX 2 1 1 2 3 6 4 7 5 8
REMARK H PARENT 1 3 1 4 1 5
REMARK Flexibility Score: inf
ROOT
ATOM      1  C   UNL     1      22.521   6.408  15.566  1.00  0.00     0.312 C 
ENDROOT
BRANCH   1   2
ATOM      2  N   UNL     1      22.218   7.838  15.537  1.00  0.00    -0.353 N 
ATOM      3  H   UNL     1      21.553   8.031  14.755  1.00  0.00     0.344 HD
ATOM      4  H   UNL     1      21.775   8.129  16.439  1.00  0.00     0.344 HD
ATOM      5  H   UNL     1      23.095   8.388  15.380  1.00  0.00     0.344 HD
ENDBRANCH   1   2
BRANCH   1   6
ATOM      6  C   UNL     1      23.858   6.138  14.949  1.00  0.00     0.096 C 
ATOM      7  O   UNL     1      24.219   6.767  13.919  1.00  0.00    -0.544 OA
ATOM      8  O   UNL     1      24.683   5.155  15.479  1.00  0.00    -0.544 OA
ENDBRANCH   1   6
TORSDOF 2
ENDMDL
MODEL 7
REMARK VINA RESULT:    -2.826      5.629      5.847
REMARK INTER + INTRA:          -3.074
REMARK INTER:                  -3.074
REMARK INTRA:                   0.000
REMARK UNBOUND:                 0.000
REMARK SMILES [NH3+]CC(=O)[O-]
REMARK SMILES IDX 2 1 1 2 3 6 4 7 5 8
REMARK H PARENT 1 3 1 4 1 5
REMARK Flexibility Score: inf
ROOT
ATOM      1  C   UNL     1      25.863   6.765  14.595  1.00  0.00     0.312 C 
ENDROOT
BRANCH   1   2
ATOM      2  N   UNL     1      27.009   6.036  15.135  1.00  0.00    -0.353 N 
ATOM      3  H   UNL     1      27.354   6.527  15.991  1.00  0.00     0.344 HD
ATOM      4  H   UNL     1      26.725   5.062  15.394  1.00  0.00     0.344 HD
ATOM      5  H   UNL     1      27.780   6.003  14.428  1.00  0.00     0.344 HD
ENDBRANCH   1   2
BRANCH   1   6
ATOM      6  C   UNL     1      24.585   6.053  14.917  1.00  0.00     0.096 C 
ATOM      7  O   UNL     1      23.478   6.616  14.709  1.00  0.00    -0.544 OA
ATOM      8  O   UNL     1      24.619   4.790  15.493  1.00  0.00    -0.544 OA
ENDBRANCH   1   6
TORSDOF 2
ENDMDL
MODEL 8
REMARK VINA RESULT:    -2.822      5.901      6.187
REMARK INTER + INTRA:          -3.069
REMARK INTER:                  -3.069
REMARK INTRA:                   0.000
REMARK UNBOUND:                 0.000
REMARK SMILES [NH3+]CC(=O)[O-]
REMARK SMILES IDX 2 1 1 2 3 6 4 7 5 8
REMARK H PARENT 1 3 1 4 1 5
REMARK Flexibility Score: inf
ROOT
ATOM      1  C   UNL     1      24.064   4.662  15.973  1.00  0.00     0.312 C 
ENDROOT
BRANCH   1   2
ATOM      2  N   UNL     1      24.815   3.414  15.850  1.00  0.00    -0.353 N 
ATOM      3  H   UNL     1      24.970   3.013  16.803  1.00  0.00     0.344 HD
ATOM      4  H   UNL     1      24.275   2.726  15.276  1.00  0.00     0.344 HD
ATOM      5  H   UNL     1      25.743   3.596  15.404  1.00  0.00     0.344 HD
ENDBRANCH   1   2
BRANCH   1   6
ATOM      6  C   UNL     1      24.706   5.747  15.165  1.00  0.00     0.096 C 
ATOM      7  O   UNL     1      25.935   5.987  15.291  1.00  0.00    -0.544 OA
ATOM      8  O   UNL     1      23.936   6.527  14.312  1.00  0.00    -0.544 OA
ENDBRANCH   1   6
TORSDOF 2
ENDMDL
MODEL 9
REMARK VINA RESULT:    -2.812      6.906      7.514
REMARK INTER + INTRA:          -3.059
REMARK INTER:                  -3.059
REMARK INTRA:                   0.000
REMARK UNBOUND:                 0.000
REMARK SMILES [NH3+]CC(=O)[O-]
REMARK SMILES IDX 2 1 1 2 3 6 4 7 5 8
REMARK H PARENT 1 3 1 4 1 5
REMARK Flexibility Score: inf
ROOT
ATOM      1  C   UNL     1      24.528   4.780  15.605  1.00  0.00     0.312 C 
ENDROOT
BRANCH   1   2
ATOM      2  N   UNL     1      24.756   3.356  15.845  1.00  0.00    -0.353 N 
ATOM      3  H   UNL     1      24.212   2.801  15.146  1.00  0.00     0.344 HD
ATOM      4  H   UNL     1      25.773   3.133  15.737  1.00  0.00     0.344 HD
ATOM      5  H   UNL     1      24.437   3.098  16.807  1.00  0.00     0.344 HD
ENDBRANCH   1   2
BRANCH   1   6
ATOM      6  C   UNL     1      23.234   5.219  16.218  1.00  0.00     0.096 C 
ATOM      7  O   UNL     1      22.489   6.031  15.611  1.00  0.00    -0.544 OA
ATOM      8  O   UNL     1      22.877   4.770  17.483  1.00  0.00    -0.544 OA
ENDBRANCH   1   6
TORSDOF 2
ENDMDL
