MODEL 1
REMARK VINA RESULT:    -6.750      0.000      0.000
REMARK INTER + INTRA:          -8.402
REMARK INTER:                  -7.737
REMARK INTRA:                  -0.665
REMARK UNBOUND:                -0.665
REMARK SMILES C=C(C)[C@H]1CC[C@]2(C(=O)[O-])CC[C@@]3(C)[C@@H](CC[C@H]4[C@]5(C)CC[C@@H](O)C(C)(C)[C@H]5CC[C@]43C)[C@H]12
REMARK SMILES IDX 7 1 6 2 33 3 11 4 5 5 15 6 4 7 12 8 16 9 13 10 17 11 31 12
REMARK SMILES IDX 14 13 18 14 30 15 32 16 19 17 29 18 21 19 20 20 28 21 22 22
REMARK SMILES IDX 25 23 23 24 26 25 27 26 8 27 9 28 10 29 2 30 3 31 1 32 24 33
REMARK H PARENT 24 34
REMARK Flexibility Score: inf
ROOT
ATOM      1  C   UNL     1      42.792  21.302  15.860  1.00  0.00     0.014 C 
ATOM      2  C   UNL     1      42.324  22.334  16.899  1.00  0.00     0.014 C 
ATOM      3  C   UNL     1      43.232  20.086  16.744  1.00  0.00     0.012 C 
ATOM      4  C   UNL     1      41.680  21.019  14.811  1.00  0.00     0.014 C 
ATOM      5  C   UNL     1      43.306  22.206  18.053  1.00  0.00     0.009 C 
ATOM      6  C   UNL     1      42.115  19.004  16.975  1.00  0.00     0.000 C 
ATOM      7  C   UNL     1      43.661  20.717  18.112  1.00  0.00     0.018 C 
ATOM      8  C   UNL     1      40.627  20.005  15.254  1.00  0.00     0.008 C 
ATOM      9  C   UNL     1      42.721  17.729  17.567  1.00  0.00     0.005 C 
ATOM     10  C   UNL     1      41.249  18.652  15.724  1.00  0.00    -0.024 C 
ATOM     11  C   UNL     1      41.625  16.775  18.014  1.00  0.00     0.005 C 
ATOM     12  C   UNL     1      40.082  17.577  16.092  1.00  0.00    -0.024 C 
ATOM     13  C   UNL     1      42.178  18.088  14.585  1.00  0.00     0.012 C 
ATOM     14  C   UNL     1      40.677  16.300  16.863  1.00  0.00     0.002 C 
ATOM     15  C   UNL     1      38.968  18.227  17.011  1.00  0.00     0.008 C 
ATOM     16  C   UNL     1      39.405  17.133  14.734  1.00  0.00     0.012 C 
ATOM     17  C   UNL     1      39.578  15.203  17.358  1.00  0.00    -0.026 C 
ATOM     18  C   UNL     1      38.150  17.257  17.903  1.00  0.00     0.005 C 
ATOM     19  C   UNL     1      39.573  13.938  16.417  1.00  0.00     0.010 C 
ATOM     20  C   UNL     1      39.934  14.671  18.786  1.00  0.00     0.012 C 
ATOM     21  C   UNL     1      38.134  15.826  17.343  1.00  0.00     0.003 C 
ATOM     22  C   UNL     1      38.179  13.327  16.126  1.00  0.00     0.033 C 
ATOM     23  C   UNL     1      36.939  14.892  17.799  1.00  0.00    -0.006 C 
ATOM     24  C   UNL     1      37.179  13.407  17.305  1.00  0.00     0.120 C 
ATOM     25  C   UNL     1      36.672  14.962  19.327  1.00  0.00     0.014 C 
ATOM     26  C   UNL     1      35.627  15.389  17.119  1.00  0.00     0.014 C 
ENDROOT
BRANCH   1  27
ATOM     27  C   UNL     1      43.991  21.844  15.086  1.00  0.00     0.048 C 
ATOM     28  O   UNL     1      44.994  21.108  14.883  1.00  0.00    -0.550 OA
ATOM     29  O   UNL     1      43.981  23.122  14.538  1.00  0.00    -0.550 OA
ENDBRANCH   1  27
BRANCH   7  30
ATOM     30  C   UNL     1      45.118  20.453  18.484  1.00  0.00    -0.077 C 
ATOM     31  C   UNL     1      46.161  21.520  18.259  1.00  0.00     0.039 C 
ATOM     32  C   UNL     1      45.511  19.288  19.025  1.00  0.00     0.008 C 
ENDBRANCH   7  30
BRANCH  24  33
ATOM     33  O   UNL     1      37.582  12.552  18.346  1.00  0.00    -0.393 OA
ATOM     34  H   UNL     1      38.079  13.101  19.008  1.00  0.00     0.210 HD
ENDBRANCH  24  33
TORSDOF 3
ENDMDL
MODEL 2
REMARK VINA RESULT:    -6.687      2.668      8.312
REMARK INTER + INTRA:          -8.329
REMARK INTER:                  -7.759
REMARK INTRA:                  -0.571
REMARK UNBOUND:                -0.665
REMARK SMILES C=C(C)[C@H]1CC[C@]2(C(=O)[O-])CC[C@@]3(C)[C@@H](CC[C@H]4[C@]5(C)CC[C@@H](O)C(C)(C)[C@H]5CC[C@]43C)[C@H]12
REMARK SMILES IDX 7 1 6 2 33 3 11 4 5 5 15 6 4 7 12 8 16 9 13 10 17 11 31 12
REMARK SMILES IDX 14 13 18 14 30 15 32 16 19 17 29 18 21 19 20 20 28 21 22 22
REMARK SMILES IDX 25 23 23 24 26 25 27 26 8 27 9 28 10 29 2 30 3 31 1 32 24 33
REMARK H PARENT 24 34
REMARK Flexibility Score: inf
ROOT
ATOM      1  C   UNL     1      36.197  15.745  17.974  1.00  0.00     0.014 C 
ATOM      2  C   UNL     1      35.243  15.049  16.990  1.00  0.00     0.014 C 
ATOM      3  C   UNL     1      37.611  15.411  17.390  1.00  0.00     0.012 C 
ATOM      4  C   UNL     1      35.853  17.256  18.114  1.00  0.00     0.014 C 
ATOM      5  C   UNL     1      35.924  13.736  16.641  1.00  0.00     0.009 C 
ATOM      6  C   UNL     1      38.194  16.499  16.416  1.00  0.00     0.000 C 
ATOM      7  C   UNL     1      37.423  14.054  16.631  1.00  0.00     0.018 C 
ATOM      8  C   UNL     1      36.432  18.147  17.017  1.00  0.00     0.008 C 
ATOM      9  C   UNL     1      39.680  16.242  16.156  1.00  0.00     0.005 C 
ATOM     10  C   UNL     1      37.976  17.983  16.855  1.00  0.00    -0.024 C 
ATOM     11  C   UNL     1      40.188  17.138  15.037  1.00  0.00     0.005 C 
ATOM     12  C   UNL     1      38.554  19.022  15.743  1.00  0.00    -0.024 C 
ATOM     13  C   UNL     1      38.670  18.223  18.248  1.00  0.00     0.012 C 
ATOM     14  C   UNL     1      40.066  18.669  15.334  1.00  0.00     0.002 C 
ATOM     15  C   UNL     1      37.675  19.005  14.425  1.00  0.00     0.008 C 
ATOM     16  C   UNL     1      38.478  20.473  16.368  1.00  0.00     0.012 C 
ATOM     17  C   UNL     1      40.711  19.597  14.158  1.00  0.00    -0.026 C 
ATOM     18  C   UNL     1      38.378  19.450  13.116  1.00  0.00     0.005 C 
ATOM     19  C   UNL     1      41.708  20.662  14.756  1.00  0.00     0.010 C 
ATOM     20  C   UNL     1      41.559  18.727  13.172  1.00  0.00     0.012 C 
ATOM     21  C   UNL     1      39.581  20.368  13.384  1.00  0.00     0.003 C 
ATOM     22  C   UNL     1      41.671  22.060  14.087  1.00  0.00     0.033 C 
ATOM     23  C   UNL     1      40.034  21.320  12.202  1.00  0.00    -0.006 C 
ATOM     24  C   UNL     1      41.396  22.041  12.564  1.00  0.00     0.120 C 
ATOM     25  C   UNL     1      40.108  20.585  10.835  1.00  0.00     0.014 C 
ATOM     26  C   UNL     1      38.963  22.438  12.021  1.00  0.00     0.014 C 
ENDROOT
BRANCH   1  27
ATOM     27  C   UNL     1      36.050  15.136  19.366  1.00  0.00     0.048 C 
ATOM     28  O   UNL     1      37.075  14.788  20.012  1.00  0.00    -0.550 OA
ATOM     29  O   UNL     1      34.806  15.011  19.975  1.00  0.00    -0.550 OA
ENDBRANCH   1  27
BRANCH   7  30
ATOM     30  C   UNL     1      38.290  12.919  17.171  1.00  0.00    -0.077 C 
ATOM     31  C   UNL     1      37.745  11.514  17.229  1.00  0.00     0.039 C 
ATOM     32  C   UNL     1      39.547  13.129  17.594  1.00  0.00     0.008 C 
ENDBRANCH   7  30
BRANCH  24  33
ATOM     33  O   UNL     1      42.493  21.494  11.876  1.00  0.00    -0.393 OA
ATOM     34  H   UNL     1      43.191  21.278  12.549  1.00  0.00     0.210 HD
ENDBRANCH  24  33
TORSDOF 3
ENDMDL
MODEL 3
REMARK VINA RESULT:    -6.524      4.255      8.610
REMARK INTER + INTRA:          -8.143
REMARK INTER:                  -7.739
REMARK INTRA:                  -0.405
REMARK UNBOUND:                -0.665
REMARK SMILES C=C(C)[C@H]1CC[C@]2(C(=O)[O-])CC[C@@]3(C)[C@@H](CC[C@H]4[C@]5(C)CC[C@@H](O)C(C)(C)[C@H]5CC[C@]43C)[C@H]12
REMARK SMILES IDX 7 1 6 2 33 3 11 4 5 5 15 6 4 7 12 8 16 9 13 10 17 11 31 12
REMARK SMILES IDX 14 13 18 14 30 15 32 16 19 17 29 18 21 19 20 20 28 21 22 22
REMARK SMILES IDX 25 23 23 24 26 25 27 26 8 27 9 28 10 29 2 30 3 31 1 32 24 33
REMARK H PARENT 24 34
REMARK Flexibility Score: inf
ROOT
ATOM      1  C   UNL     1      35.993  15.520  17.841  1.00  0.00     0.014 C 
ATOM      2  C   UNL     1      35.070  14.534  17.110  1.00  0.00     0.014 C 
ATOM      3  C   UNL     1      37.289  15.510  16.962  1.00  0.00     0.012 C 
ATOM      4  C   UNL     1      35.302  16.901  18.028  1.00  0.00     0.014 C 
ATOM      5  C   UNL     1      35.982  13.412  16.641  1.00  0.00     0.009 C 
ATOM      6  C   UNL     1      37.345  16.633  15.862  1.00  0.00     0.000 C 
ATOM      7  C   UNL     1      37.307  14.095  16.289  1.00  0.00     0.018 C 
ATOM      8  C   UNL     1      35.381  17.824  16.812  1.00  0.00     0.008 C 
ATOM      9  C   UNL     1      38.757  16.740  15.280  1.00  0.00     0.005 C 
ATOM     10  C   UNL     1      36.843  18.042  16.312  1.00  0.00    -0.024 C 
ATOM     11  C   UNL     1      38.763  17.646  14.060  1.00  0.00     0.005 C 
ATOM     12  C   UNL     1      36.879  19.106  15.079  1.00  0.00    -0.024 C 
ATOM     13  C   UNL     1      37.728  18.555  17.509  1.00  0.00     0.012 C 
ATOM     14  C   UNL     1      38.309  19.116  14.348  1.00  0.00     0.002 C 
ATOM     15  C   UNL     1      35.778  18.768  13.993  1.00  0.00     0.008 C 
ATOM     16  C   UNL     1      36.559  20.534  15.680  1.00  0.00     0.012 C 
ATOM     17  C   UNL     1      38.424  20.084  13.041  1.00  0.00    -0.026 C 
ATOM     18  C   UNL     1      36.045  19.275  12.552  1.00  0.00     0.005 C 
ATOM     19  C   UNL     1      39.208  21.408  13.381  1.00  0.00     0.010 C 
ATOM     20  C   UNL     1      39.241  19.383  11.906  1.00  0.00     0.012 C 
ATOM     21  C   UNL     1      36.993  20.484  12.527  1.00  0.00     0.003 C 
ATOM     22  C   UNL     1      38.665  22.696  12.711  1.00  0.00     0.033 C 
ATOM     23  C   UNL     1      36.919  21.426  11.255  1.00  0.00    -0.006 C 
ATOM     24  C   UNL     1      38.088  22.493  11.290  1.00  0.00     0.120 C 
ATOM     25  C   UNL     1      36.892  20.632   9.921  1.00  0.00     0.014 C 
ATOM     26  C   UNL     1      35.579  22.221  11.299  1.00  0.00     0.014 C 
ENDROOT
BRANCH   1  27
ATOM     27  C   UNL     1      36.310  15.002  19.242  1.00  0.00     0.048 C 
ATOM     28  O   UNL     1      35.407  14.974  20.122  1.00  0.00    -0.550 OA
ATOM     29  O   UNL     1      37.565  14.494  19.560  1.00  0.00    -0.550 OA
ENDBRANCH   1  27
BRANCH   7  30
ATOM     30  C   UNL     1      38.535  13.261  16.641  1.00  0.00    -0.077 C 
ATOM     31  C   UNL     1      38.369  11.895  17.261  1.00  0.00     0.039 C 
ATOM     32  C   UNL     1      39.782  13.701  16.405  1.00  0.00     0.008 C 
ENDBRANCH   7  30
BRANCH  24  33
ATOM     33  O   UNL     1      39.119  22.190  10.383  1.00  0.00    -0.393 OA
ATOM     34  H   UNL     1      38.759  22.317   9.466  1.00  0.00     0.210 HD
ENDBRANCH  24  33
TORSDOF 3
ENDMDL
MODEL 4
REMARK VINA RESULT:    -6.295      8.999     11.917
REMARK INTER + INTRA:          -7.880
REMARK INTER:                  -7.193
REMARK INTRA:                  -0.686
REMARK UNBOUND:                -0.665
REMARK SMILES C=C(C)[C@H]1CC[C@]2(C(=O)[O-])CC[C@@]3(C)[C@@H](CC[C@H]4[C@]5(C)CC[C@@H](O)C(C)(C)[C@H]5CC[C@]43C)[C@H]12
REMARK SMILES IDX 7 1 6 2 33 3 11 4 5 5 15 6 4 7 12 8 16 9 13 10 17 11 31 12
REMARK SMILES IDX 14 13 18 14 30 15 32 16 19 17 29 18 21 19 20 20 28 21 22 22
REMARK SMILES IDX 25 23 23 24 26 25 27 26 8 27 9 28 10 29 2 30 3 31 1 32 24 33
REMARK H PARENT 24 34
REMARK Flexibility Score: inf
ROOT
ATOM      1  C   UNL     1      36.193  19.573  11.815  1.00  0.00     0.014 C 
ATOM      2  C   UNL     1      36.982  18.258  11.916  1.00  0.00     0.014 C 
ATOM      3  C   UNL     1      37.225  20.555  11.163  1.00  0.00     0.012 C 
ATOM      4  C   UNL     1      34.859  19.369  11.043  1.00  0.00     0.014 C 
ATOM      5  C   UNL     1      38.392  18.672  12.306  1.00  0.00     0.009 C 
ATOM      6  C   UNL     1      37.139  20.653   9.596  1.00  0.00     0.000 C 
ATOM      7  C   UNL     1      38.628  20.007  11.592  1.00  0.00     0.018 C 
ATOM      8  C   UNL     1      34.991  19.403   9.521  1.00  0.00     0.008 C 
ATOM      9  C   UNL     1      37.949  21.849   9.091  1.00  0.00     0.005 C 
ATOM     10  C   UNL     1      35.694  20.697   9.003  1.00  0.00    -0.024 C 
ATOM     11  C   UNL     1      38.068  21.810   7.576  1.00  0.00     0.005 C 
ATOM     12  C   UNL     1      35.722  20.727   7.375  1.00  0.00    -0.024 C 
ATOM     13  C   UNL     1      34.935  21.957   9.565  1.00  0.00     0.012 C 
ATOM     14  C   UNL     1      36.699  21.875   6.821  1.00  0.00     0.002 C 
ATOM     15  C   UNL     1      36.210  19.343   6.780  1.00  0.00     0.008 C 
ATOM     16  C   UNL     1      34.240  20.981   6.883  1.00  0.00     0.012 C 
ATOM     17  C   UNL     1      36.869  21.933   5.201  1.00  0.00    -0.026 C 
ATOM     18  C   UNL     1      36.840  19.379   5.364  1.00  0.00     0.005 C 
ATOM     19  C   UNL     1      36.033  23.119   4.583  1.00  0.00     0.010 C 
ATOM     20  C   UNL     1      38.358  22.213   4.812  1.00  0.00     0.012 C 
ATOM     21  C   UNL     1      36.369  20.593   4.548  1.00  0.00     0.003 C 
ATOM     22  C   UNL     1      35.343  22.814   3.229  1.00  0.00     0.033 C 
ATOM     23  C   UNL     1      36.464  20.477   2.971  1.00  0.00    -0.006 C 
ATOM     24  C   UNL     1      36.139  21.871   2.295  1.00  0.00     0.120 C 
ATOM     25  C   UNL     1      37.824  19.900   2.493  1.00  0.00     0.014 C 
ATOM     26  C   UNL     1      35.382  19.470   2.477  1.00  0.00     0.014 C 
ENDROOT
BRANCH   1  27
ATOM     27  C   UNL     1      35.815  20.066  13.210  1.00  0.00     0.048 C 
ATOM     28  O   UNL     1      35.542  21.282  13.396  1.00  0.00    -0.550 OA
ATOM     29  O   UNL     1      35.702  19.187  14.282  1.00  0.00    -0.550 OA
ENDBRANCH   1  27
BRANCH   7  30
ATOM     30  C   UNL     1      39.454  20.996  12.410  1.00  0.00    -0.077 C 
ATOM     31  C   UNL     1      38.882  22.346  12.765  1.00  0.00     0.039 C 
ATOM     32  C   UNL     1      40.691  20.700  12.842  1.00  0.00     0.008 C 
ENDBRANCH   7  30
BRANCH  24  33
ATOM     33  O   UNL     1      37.292  22.518   1.815  1.00  0.00    -0.393 OA
ATOM     34  H   UNL     1      37.559  22.067   0.971  1.00  0.00     0.210 HD
ENDBRANCH  24  33
TORSDOF 3
ENDMDL
MODEL 5
REMARK VINA RESULT:    -6.289      5.073      7.963
REMARK INTER + INTRA:          -7.873
REMARK INTER:                  -7.213
REMARK INTRA:                  -0.661
REMARK UNBOUND:                -0.665
REMARK SMILES C=C(C)[C@H]1CC[C@]2(C(=O)[O-])CC[C@@]3(C)[C@@H](CC[C@H]4[C@]5(C)CC[C@@H](O)C(C)(C)[C@H]5CC[C@]43C)[C@H]12
REMARK SMILES IDX 7 1 6 2 33 3 11 4 5 5 15 6 4 7 12 8 16 9 13 10 17 11 31 12
REMARK SMILES IDX 14 13 18 14 30 15 32 16 19 17 29 18 21 19 20 20 28 21 22 22
REMARK SMILES IDX 25 23 23 24 26 25 27 26 8 27 9 28 10 29 2 30 3 31 1 32 24 33
REMARK H PARENT 24 34
REMARK Flexibility Score: inf
ROOT
ATOM      1  C   UNL     1      38.953  17.590  16.406  1.00  0.00     0.014 C 
ATOM      2  C   UNL     1      39.092  16.111  16.012  1.00  0.00     0.014 C 
ATOM      3  C   UNL     1      39.852  18.321  15.352  1.00  0.00     0.012 C 
ATOM      4  C   UNL     1      37.460  18.020  16.449  1.00  0.00     0.014 C 
ATOM      5  C   UNL     1      40.550  15.943  15.614  1.00  0.00     0.009 C 
ATOM      6  C   UNL     1      39.087  18.829  14.075  1.00  0.00     0.000 C 
ATOM      7  C   UNL     1      40.936  17.266  14.946  1.00  0.00     0.018 C 
ATOM      8  C   UNL     1      36.862  18.389  15.092  1.00  0.00     0.008 C 
ATOM      9  C   UNL     1      39.967  19.790  13.273  1.00  0.00     0.005 C 
ATOM     10  C   UNL     1      37.691  19.477  14.341  1.00  0.00    -0.024 C 
ATOM     11  C   UNL     1      39.333  20.094  11.925  1.00  0.00     0.005 C 
ATOM     12  C   UNL     1      36.959  19.902  12.949  1.00  0.00    -0.024 C 
ATOM     13  C   UNL     1      37.865  20.732  15.276  1.00  0.00     0.012 C 
ATOM     14  C   UNL     1      37.928  20.778  12.015  1.00  0.00     0.002 C 
ATOM     15  C   UNL     1      36.507  18.628  12.123  1.00  0.00     0.008 C 
ATOM     16  C   UNL     1      35.666  20.729  13.329  1.00  0.00     0.012 C 
ATOM     17  C   UNL     1      37.323  21.180  10.555  1.00  0.00    -0.026 C 
ATOM     18  C   UNL     1      36.350  18.813  10.591  1.00  0.00     0.005 C 
ATOM     19  C   UNL     1      36.852  22.685  10.530  1.00  0.00     0.010 C 
ATOM     20  C   UNL     1      38.423  21.059   9.450  1.00  0.00     0.012 C 
ATOM     21  C   UNL     1      36.084  20.277  10.206  1.00  0.00     0.003 C 
ATOM     22  C   UNL     1      35.551  22.963   9.735  1.00  0.00     0.033 C 
ATOM     23  C   UNL     1      35.371  20.533   8.815  1.00  0.00    -0.006 C 
ATOM     24  C   UNL     1      35.358  22.080   8.479  1.00  0.00     0.120 C 
ATOM     25  C   UNL     1      35.983  19.691   7.663  1.00  0.00     0.014 C 
ATOM     26  C   UNL     1      33.884  20.081   8.924  1.00  0.00     0.014 C 
ENDROOT
BRANCH   1  27
ATOM     27  C   UNL     1      39.510  17.813  17.809  1.00  0.00     0.048 C 
ATOM     28  O   UNL     1      39.955  18.946  18.138  1.00  0.00    -0.550 OA
ATOM     29  O   UNL     1      39.482  16.806  18.769  1.00  0.00    -0.550 OA
ENDBRANCH   1  27
BRANCH   7  30
ATOM     30  C   UNL     1      42.367  17.704  15.246  1.00  0.00    -0.077 C 
ATOM     31  C   UNL     1      43.312  18.026  14.115  1.00  0.00     0.039 C 
ATOM     32  C   UNL     1      42.821  17.827  16.504  1.00  0.00     0.008 C 
ENDBRANCH   7  30
BRANCH  24  33
ATOM     33  O   UNL     1      36.298  22.424   7.492  1.00  0.00    -0.393 OA
ATOM     34  H   UNL     1      36.901  21.644   7.368  1.00  0.00     0.210 HD
ENDBRANCH  24  33
TORSDOF 3
ENDMDL
MODEL 6
REMARK VINA RESULT:    -6.187     16.521     18.710
REMARK INTER + INTRA:          -7.757
REMARK INTER:                  -7.056
REMARK INTRA:                  -0.701
REMARK UNBOUND:                -0.665
REMARK SMILES C=C(C)[C@H]1CC[C@]2(C(=O)[O-])CC[C@@]3(C)[C@@H](CC[C@H]4[C@]5(C)CC[C@@H](O)C(C)(C)[C@H]5CC[C@]43C)[C@H]12
REMARK SMILES IDX 7 1 6 2 33 3 11 4 5 5 15 6 4 7 12 8 16 9 13 10 17 11 31 12
REMARK SMILES IDX 14 13 18 14 30 15 32 16 19 17 29 18 21 19 20 20 28 21 22 22
REMARK SMILES IDX 25 23 23 24 26 25 27 26 8 27 9 28 10 29 2 30 3 31 1 32 24 33
REMARK H PARENT 24 34
REMARK Flexibility Score: inf
ROOT
ATOM      1  C   UNL     1      52.095   4.947   6.054  1.00  0.00     0.014 C 
ATOM      2  C   UNL     1      51.925   3.721   5.143  1.00  0.00     0.014 C 
ATOM      3  C   UNL     1      51.884   6.149   5.072  1.00  0.00     0.012 C 
ATOM      4  C   UNL     1      51.129   4.879   7.271  1.00  0.00     0.014 C 
ATOM      5  C   UNL     1      52.595   4.106   3.834  1.00  0.00     0.009 C 
ATOM      6  C   UNL     1      50.410   6.692   5.006  1.00  0.00     0.000 C 
ATOM      7  C   UNL     1      52.321   5.604   3.670  1.00  0.00     0.018 C 
ATOM      8  C   UNL     1      49.708   5.364   6.987  1.00  0.00     0.008 C 
ATOM      9  C   UNL     1      50.369   8.039   4.280  1.00  0.00     0.005 C 
ATOM     10  C   UNL     1      49.669   6.801   6.377  1.00  0.00    -0.024 C 
ATOM     11  C   UNL     1      48.932   8.451   4.001  1.00  0.00     0.005 C 
ATOM     12  C   UNL     1      48.133   7.305   6.184  1.00  0.00    -0.024 C 
ATOM     13  C   UNL     1      50.457   7.784   7.321  1.00  0.00     0.012 C 
ATOM     14  C   UNL     1      48.055   8.632   5.284  1.00  0.00     0.002 C 
ATOM     15  C   UNL     1      47.243   6.192   5.491  1.00  0.00     0.008 C 
ATOM     16  C   UNL     1      47.543   7.581   7.625  1.00  0.00     0.012 C 
ATOM     17  C   UNL     1      46.552   9.171   4.954  1.00  0.00    -0.026 C 
ATOM     18  C   UNL     1      45.988   6.684   4.725  1.00  0.00     0.005 C 
ATOM     19  C   UNL     1      46.187  10.420   5.844  1.00  0.00     0.010 C 
ATOM     20  C   UNL     1      46.454   9.660   3.471  1.00  0.00     0.012 C 
ATOM     21  C   UNL     1      45.491   8.045   5.236  1.00  0.00     0.003 C 
ATOM     22  C   UNL     1      44.724  10.472   6.353  1.00  0.00     0.033 C 
ATOM     23  C   UNL     1      43.971   8.400   4.966  1.00  0.00    -0.006 C 
ATOM     24  C   UNL     1      43.675   9.903   5.367  1.00  0.00     0.120 C 
ATOM     25  C   UNL     1      43.531   8.088   3.510  1.00  0.00     0.014 C 
ATOM     26  C   UNL     1      43.078   7.504   5.877  1.00  0.00     0.014 C 
ENDROOT
BRANCH   1  27
ATOM     27  C   UNL     1      53.510   4.984   6.626  1.00  0.00     0.048 C 
ATOM     28  O   UNL     1      54.124   6.081   6.717  1.00  0.00    -0.550 OA
ATOM     29  O   UNL     1      54.125   3.835   7.112  1.00  0.00    -0.550 OA
ENDBRANCH   1  27
BRANCH   7  30
ATOM     30  C   UNL     1      53.483   6.371   3.045  1.00  0.00    -0.077 C 
ATOM     31  C   UNL     1      53.985   7.641   3.688  1.00  0.00     0.039 C 
ATOM     32  C   UNL     1      54.095   5.943   1.928  1.00  0.00     0.008 C 
ENDBRANCH   7  30
BRANCH  24  33
ATOM     33  O   UNL     1      43.550  10.744   4.247  1.00  0.00    -0.393 OA
ATOM     34  H   UNL     1      44.062  11.574   4.438  1.00  0.00     0.210 HD
ENDBRANCH  24  33
TORSDOF 3
ENDMDL
MODEL 7
REMARK VINA RESULT:    -6.102      1.960      4.381
REMARK INTER + INTRA:          -7.659
REMARK INTER:                  -7.117
REMARK INTRA:                  -0.542
REMARK UNBOUND:                -0.665
REMARK SMILES C=C(C)[C@H]1CC[C@]2(C(=O)[O-])CC[C@@]3(C)[C@@H](CC[C@H]4[C@]5(C)CC[C@@H](O)C(C)(C)[C@H]5CC[C@]43C)[C@H]12
REMARK SMILES IDX 7 1 6 2 33 3 11 4 5 5 15 6 4 7 12 8 16 9 13 10 17 11 31 12
REMARK SMILES IDX 14 13 18 14 30 15 32 16 19 17 29 18 21 19 20 20 28 21 22 22
REMARK SMILES IDX 25 23 23 24 26 25 27 26 8 27 9 28 10 29 2 30 3 31 1 32 24 33
REMARK H PARENT 24 34
REMARK Flexibility Score: inf
ROOT
ATOM      1  C   UNL     1      42.500  20.796  13.580  1.00  0.00     0.014 C 
ATOM      2  C   UNL     1      42.490  20.190  12.168  1.00  0.00     0.014 C 
ATOM      3  C   UNL     1      40.982  20.819  13.965  1.00  0.00     0.012 C 
ATOM      4  C   UNL     1      43.436  19.993  14.528  1.00  0.00     0.014 C 
ATOM      5  C   UNL     1      41.269  20.789  11.489  1.00  0.00     0.009 C 
ATOM      6  C   UNL     1      40.488  19.556  14.762  1.00  0.00     0.000 C 
ATOM      7  C   UNL     1      40.222  20.926  12.600  1.00  0.00     0.018 C 
ATOM      8  C   UNL     1      42.806  18.741  15.136  1.00  0.00     0.008 C 
ATOM      9  C   UNL     1      39.102  19.811  15.359  1.00  0.00     0.005 C 
ATOM     10  C   UNL     1      41.459  19.035  15.869  1.00  0.00    -0.024 C 
ATOM     11  C   UNL     1      38.518  18.524  15.921  1.00  0.00     0.005 C 
ATOM     12  C   UNL     1      40.882  17.688  16.579  1.00  0.00    -0.024 C 
ATOM     13  C   UNL     1      41.690  20.167  16.938  1.00  0.00     0.012 C 
ATOM     14  C   UNL     1      39.365  17.882  17.069  1.00  0.00     0.002 C 
ATOM     15  C   UNL     1      40.921  16.452  15.589  1.00  0.00     0.008 C 
ATOM     16  C   UNL     1      41.821  17.365  17.810  1.00  0.00     0.012 C 
ATOM     17  C   UNL     1      38.660  16.561  17.715  1.00  0.00    -0.026 C 
ATOM     18  C   UNL     1      39.915  15.305  15.871  1.00  0.00     0.005 C 
ATOM     19  C   UNL     1      38.597  16.661  19.287  1.00  0.00     0.010 C 
ATOM     20  C   UNL     1      37.176  16.438  17.235  1.00  0.00     0.012 C 
ATOM     21  C   UNL     1      39.473  15.268  17.342  1.00  0.00     0.003 C 
ATOM     22  C   UNL     1      38.856  15.338  20.051  1.00  0.00     0.033 C 
ATOM     23  C   UNL     1      38.924  13.886  17.890  1.00  0.00    -0.006 C 
ATOM     24  C   UNL     1      38.324  14.068  19.344  1.00  0.00     0.120 C 
ATOM     25  C   UNL     1      37.912  13.216  16.921  1.00  0.00     0.014 C 
ATOM     26  C   UNL     1      40.114  12.888  18.012  1.00  0.00     0.014 C 
ENDROOT
BRANCH   1  27
ATOM     27  C   UNL     1      43.048  22.220  13.535  1.00  0.00     0.048 C 
ATOM     28  O   UNL     1      43.034  22.933  14.575  1.00  0.00    -0.550 OA
ATOM     29  O   UNL     1      43.626  22.738  12.381  1.00  0.00    -0.550 OA
ENDBRANCH   1  27
BRANCH   7  30
ATOM     30  C   UNL     1      39.358  22.178  12.471  1.00  0.00    -0.077 C 
ATOM     31  C   UNL     1      38.525  22.397  11.233  1.00  0.00     0.039 C 
ATOM     32  C   UNL     1      39.303  23.103  13.443  1.00  0.00     0.008 C 
ENDBRANCH   7  30
BRANCH  24  33
ATOM     33  O   UNL     1      36.919  14.057  19.351  1.00  0.00    -0.393 OA
ATOM     34  H   UNL     1      36.626  13.756  20.252  1.00  0.00     0.210 HD
ENDBRANCH  24  33
TORSDOF 3
ENDMDL
MODEL 8
REMARK VINA RESULT:    -6.095      8.442     11.675
REMARK INTER + INTRA:          -7.652
REMARK INTER:                  -7.091
REMARK INTRA:                  -0.561
REMARK UNBOUND:                -0.665
REMARK SMILES C=C(C)[C@H]1CC[C@]2(C(=O)[O-])CC[C@@]3(C)[C@@H](CC[C@H]4[C@]5(C)CC[C@@H](O)C(C)(C)[C@H]5CC[C@]43C)[C@H]12
REMARK SMILES IDX 7 1 6 2 33 3 11 4 5 5 15 6 4 7 12 8 16 9 13 10 17 11 31 12
REMARK SMILES IDX 14 13 18 14 30 15 32 16 19 17 29 18 21 19 20 20 28 21 22 22
REMARK SMILES IDX 25 23 23 24 26 25 27 26 8 27 9 28 10 29 2 30 3 31 1 32 24 33
REMARK H PARENT 24 34
REMARK Flexibility Score: inf
ROOT
ATOM      1  C   UNL     1      36.421  20.177  11.334  1.00  0.00     0.014 C 
ATOM      2  C   UNL     1      36.462  18.651  11.512  1.00  0.00     0.014 C 
ATOM      3  C   UNL     1      37.924  20.546  11.096  1.00  0.00     0.012 C 
ATOM      4  C   UNL     1      35.429  20.583  10.207  1.00  0.00     0.014 C 
ATOM      5  C   UNL     1      37.724  18.381  12.316  1.00  0.00     0.009 C 
ATOM      6  C   UNL     1      38.353  20.613   9.585  1.00  0.00     0.000 C 
ATOM      7  C   UNL     1      38.735  19.428  11.836  1.00  0.00     0.018 C 
ATOM      8  C   UNL     1      35.999  20.495   8.793  1.00  0.00     0.008 C 
ATOM      9  C   UNL     1      39.724  21.279   9.448  1.00  0.00     0.005 C 
ATOM     10  C   UNL     1      37.328  21.297   8.624  1.00  0.00    -0.024 C 
ATOM     11  C   UNL     1      40.249  21.133   8.028  1.00  0.00     0.005 C 
ATOM     12  C   UNL     1      37.839  21.250   7.079  1.00  0.00    -0.024 C 
ATOM     13  C   UNL     1      37.094  22.786   9.082  1.00  0.00     0.012 C 
ATOM     14  C   UNL     1      39.343  21.795   6.937  1.00  0.00     0.002 C 
ATOM     15  C   UNL     1      37.798  19.775   6.503  1.00  0.00     0.008 C 
ATOM     16  C   UNL     1      36.849  22.141   6.227  1.00  0.00     0.012 C 
ATOM     17  C   UNL     1      39.985  21.706   5.441  1.00  0.00    -0.026 C 
ATOM     18  C   UNL     1      38.758  19.462   5.326  1.00  0.00     0.005 C 
ATOM     19  C   UNL     1      39.997  23.119   4.742  1.00  0.00     0.010 C 
ATOM     20  C   UNL     1      41.481  21.251   5.508  1.00  0.00     0.012 C 
ATOM     21  C   UNL     1      39.148  20.725   4.541  1.00  0.00     0.003 C 
ATOM     22  C   UNL     1      39.672  23.117   3.226  1.00  0.00     0.033 C 
ATOM     23  C   UNL     1      39.636  20.519   3.048  1.00  0.00    -0.006 C 
ATOM     24  C   UNL     1      40.190  21.878   2.456  1.00  0.00     0.120 C 
ATOM     25  C   UNL     1      40.661  19.361   2.906  1.00  0.00     0.014 C 
ATOM     26  C   UNL     1      38.413  20.108   2.174  1.00  0.00     0.014 C 
ENDROOT
BRANCH   1  27
ATOM     27  C   UNL     1      35.918  20.841  12.614  1.00  0.00     0.048 C 
ATOM     28  O   UNL     1      36.002  22.091  12.750  1.00  0.00    -0.550 OA
ATOM     29  O   UNL     1      35.305  20.102  13.621  1.00  0.00    -0.550 OA
ENDBRANCH   1  27
BRANCH   7  30
ATOM     30  C   UNL     1      39.640  19.954  12.947  1.00  0.00    -0.077 C 
ATOM     31  C   UNL     1      40.824  19.140  13.405  1.00  0.00     0.039 C 
ATOM     32  C   UNL     1      39.422  21.142  13.534  1.00  0.00     0.008 C 
ENDBRANCH   7  30
BRANCH  24  33
ATOM     33  O   UNL     1      41.593  21.901   2.381  1.00  0.00    -0.393 OA
ATOM     34  H   UNL     1      41.918  20.980   2.568  1.00  0.00     0.210 HD
ENDBRANCH  24  33
TORSDOF 3
ENDMDL
MODEL 9
REMARK VINA RESULT:    -6.042      1.946      4.151
REMARK INTER + INTRA:          -7.591
REMARK INTER:                  -6.884
REMARK INTRA:                  -0.707
REMARK UNBOUND:                -0.665
REMARK SMILES C=C(C)[C@H]1CC[C@]2(C(=O)[O-])CC[C@@]3(C)[C@@H](CC[C@H]4[C@]5(C)CC[C@@H](O)C(C)(C)[C@H]5CC[C@]43C)[C@H]12
REMARK SMILES IDX 7 1 6 2 33 3 11 4 5 5 15 6 4 7 12 8 16 9 13 10 17 11 31 12
REMARK SMILES IDX 14 13 18 14 30 15 32 16 19 17 29 18 21 19 20 20 28 21 22 22
REMARK SMILES IDX 25 23 23 24 26 25 27 26 8 27 9 28 10 29 2 30 3 31 1 32 24 33
REMARK H PARENT 24 34
REMARK Flexibility Score: inf
ROOT
ATOM      1  C   UNL     1      42.877  19.820  14.891  1.00  0.00     0.014 C 
ATOM      2  C   UNL     1      43.261  19.057  13.613  1.00  0.00     0.014 C 
ATOM      3  C   UNL     1      41.352  20.112  14.682  1.00  0.00     0.012 C 
ATOM      4  C   UNL     1      43.251  19.007  16.163  1.00  0.00     0.014 C 
ATOM      5  C   UNL     1      42.492  19.744  12.497  1.00  0.00     0.009 C 
ATOM      6  C   UNL     1      40.386  19.041  15.309  1.00  0.00     0.000 C 
ATOM      7  C   UNL     1      41.162  20.166  13.129  1.00  0.00     0.018 C 
ATOM      8  C   UNL     1      42.230  17.943  16.564  1.00  0.00     0.008 C 
ATOM      9  C   UNL     1      38.949  19.567  15.333  1.00  0.00     0.005 C 
ATOM     10  C   UNL     1      40.788  18.518  16.725  1.00  0.00    -0.024 C 
ATOM     11  C   UNL     1      37.981  18.456  15.710  1.00  0.00     0.005 C 
ATOM     12  C   UNL     1      39.762  17.366  17.246  1.00  0.00    -0.024 C 
ATOM     13  C   UNL     1      40.823  19.724  17.738  1.00  0.00     0.012 C 
ATOM     14  C   UNL     1      38.232  17.838  17.125  1.00  0.00     0.002 C 
ATOM     15  C   UNL     1      39.926  16.028  16.414  1.00  0.00     0.008 C 
ATOM     16  C   UNL     1      40.125  17.058  18.754  1.00  0.00     0.012 C 
ATOM     17  C   UNL     1      37.117  16.723  17.537  1.00  0.00    -0.026 C 
ATOM     18  C   UNL     1      38.697  15.084  16.367  1.00  0.00     0.005 C 
ATOM     19  C   UNL     1      36.516  17.019  18.965  1.00  0.00     0.010 C 
ATOM     20  C   UNL     1      35.905  16.762  16.548  1.00  0.00     0.012 C 
ATOM     21  C   UNL     1      37.760  15.288  17.568  1.00  0.00     0.003 C 
ATOM     22  C   UNL     1      36.241  15.773  19.845  1.00  0.00     0.033 C 
ATOM     23  C   UNL     1      36.812  14.078  17.951  1.00  0.00    -0.006 C 
ATOM     24  C   UNL     1      35.777  14.519  19.064  1.00  0.00     0.120 C 
ATOM     25  C   UNL     1      36.108  13.453  16.715  1.00  0.00     0.014 C 
ATOM     26  C   UNL     1      37.679  12.937  18.563  1.00  0.00     0.014 C 
ENDROOT
BRANCH   1  27
ATOM     27  C   UNL     1      43.652  21.132  14.972  1.00  0.00     0.048 C 
ATOM     28  O   UNL     1      43.095  22.166  15.430  1.00  0.00    -0.550 OA
ATOM     29  O   UNL     1      44.993  21.206  14.607  1.00  0.00    -0.550 OA
ENDBRANCH   1  27
BRANCH   7  30
ATOM     30  C   UNL     1      40.642  21.506  12.617  1.00  0.00    -0.077 C 
ATOM     31  C   UNL     1      40.496  21.744  11.134  1.00  0.00     0.039 C 
ATOM     32  C   UNL     1      40.293  22.497  13.454  1.00  0.00     0.008 C 
ENDBRANCH   7  30
BRANCH  24  33
ATOM     33  O   UNL     1      34.484  14.716  18.549  1.00  0.00    -0.393 OA
ATOM     34  H   UNL     1      34.376  14.109  17.770  1.00  0.00     0.210 HD
ENDBRANCH  24  33
TORSDOF 3
ENDMDL
