MODEL 1
REMARK VINA RESULT:    -3.857      0.000      0.000
REMARK INTER + INTRA:          -9.130
REMARK INTER:                  -6.789
REMARK INTRA:                  -2.342
REMARK UNBOUND:                -2.342
REMARK SMILES CCCCCCCCCCCCCCC(=O)[O-]
REMARK SMILES IDX 9 1 10 2 11 3 12 4 13 5 14 6 15 7 16 8 17 9 8 10 7 11 6 12
REMARK SMILES IDX 5 13 4 14 3 15 2 16 1 17
REMARK H PARENT
REMARK Flexibility Score: inf
ROOT
ATOM      1  C   UNL     1     -34.909  84.748 -18.783  1.00  0.00     0.000 C 
ENDROOT
BRANCH   1   2
ATOM      2  C   UNL     1     -33.435  84.678 -18.361  1.00  0.00     0.000 C 
BRANCH   2   3
ATOM      3  C   UNL     1     -32.651  83.583 -19.106  1.00  0.00     0.000 C 
BRANCH   3   4
ATOM      4  C   UNL     1     -33.362  82.995 -20.341  1.00  0.00     0.000 C 
BRANCH   4   5
ATOM      5  C   UNL     1     -33.357  81.456 -20.428  1.00  0.00     0.006 C 
BRANCH   5   6
ATOM      6  C   UNL     1     -32.935  80.748 -19.131  1.00  0.00     0.053 C 
BRANCH   6   7
ATOM      7  C   UNL     1     -31.701  79.921 -19.320  1.00  0.00     0.041 C 
ATOM      8  O   UNL     1     -31.043  80.001 -20.391  1.00  0.00    -0.550 OA
ATOM      9  O   UNL     1     -31.296  79.037 -18.328  1.00  0.00    -0.550 OA
ENDBRANCH   6   7
ENDBRANCH   5   6
ENDBRANCH   4   5
ENDBRANCH   3   4
ENDBRANCH   2   3
ENDBRANCH   1   2
BRANCH   1  10
ATOM     10  C   UNL     1     -35.833  84.742 -17.558  1.00  0.00     0.000 C 
BRANCH  10  11
ATOM     11  C   UNL     1     -36.824  83.572 -17.623  1.00  0.00    -0.000 C 
BRANCH  11  12
ATOM     12  C   UNL     1     -36.127  82.218 -17.833  1.00  0.00    -0.000 C 
BRANCH  12  13
ATOM     13  C   UNL     1     -36.713  81.429 -19.018  1.00  0.00    -0.000 C 
BRANCH  13  14
ATOM     14  C   UNL     1     -37.623  82.288 -19.910  1.00  0.00    -0.000 C 
BRANCH  14  15
ATOM     15  C   UNL     1     -36.967  82.640 -21.257  1.00  0.00    -0.000 C 
BRANCH  15  16
ATOM     16  C   UNL     1     -37.411  84.012 -21.787  1.00  0.00    -0.003 C 
ATOM     17  C   UNL     1     -36.234  84.905 -22.181  1.00  0.00     0.004 C 
ENDBRANCH  15  16
ENDBRANCH  14  15
ENDBRANCH  13  14
ENDBRANCH  12  13
ENDBRANCH  11  12
ENDBRANCH  10  11
ENDBRANCH   1  10
TORSDOF 13
ENDMDL
MODEL 2
REMARK VINA RESULT:    -3.729      1.790      3.170
REMARK INTER + INTRA:          -8.905
REMARK INTER:                  -6.792
REMARK INTRA:                  -2.113
REMARK UNBOUND:                -2.342
REMARK SMILES CCCCCCCCCCCCCCC(=O)[O-]
REMARK SMILES IDX 9 1 10 2 11 3 12 4 13 5 14 6 15 7 16 8 17 9 8 10 7 11 6 12
REMARK SMILES IDX 5 13 4 14 3 15 2 16 1 17
REMARK H PARENT
REMARK Flexibility Score: inf
ROOT
ATOM      1  C   UNL     1     -34.998  80.823 -19.544  1.00  0.00     0.000 C 
ENDROOT
BRANCH   1   2
ATOM      2  C   UNL     1     -33.938  81.121 -18.474  1.00  0.00     0.000 C 
BRANCH   2   3
ATOM      3  C   UNL     1     -32.503  81.074 -19.024  1.00  0.00     0.000 C 
BRANCH   3   4
ATOM      4  C   UNL     1     -31.692  82.373 -18.848  1.00  0.00     0.000 C 
BRANCH   4   5
ATOM      5  C   UNL     1     -31.317  83.095 -20.158  1.00  0.00     0.006 C 
BRANCH   5   6
ATOM      6  C   UNL     1     -31.266  82.181 -21.392  1.00  0.00     0.053 C 
BRANCH   6   7
ATOM      7  C   UNL     1     -29.885  81.657 -21.645  1.00  0.00     0.041 C 
ATOM      8  O   UNL     1     -29.575  80.491 -21.284  1.00  0.00    -0.550 OA
ATOM      9  O   UNL     1     -28.932  82.468 -22.247  1.00  0.00    -0.550 OA
ENDBRANCH   6   7
ENDBRANCH   5   6
ENDBRANCH   4   5
ENDBRANCH   3   4
ENDBRANCH   2   3
ENDBRANCH   1   2
BRANCH   1  10
ATOM     10  C   UNL     1     -36.375  81.344 -19.115  1.00  0.00     0.000 C 
BRANCH  10  11
ATOM     11  C   UNL     1     -36.276  82.149 -17.811  1.00  0.00    -0.000 C 
BRANCH  11  12
ATOM     12  C   UNL     1     -36.800  83.586 -17.963  1.00  0.00    -0.000 C 
BRANCH  12  13
ATOM     13  C   UNL     1     -35.703  84.642 -17.733  1.00  0.00    -0.000 C 
BRANCH  13  14
ATOM     14  C   UNL     1     -34.690  84.706 -18.887  1.00  0.00    -0.000 C 
BRANCH  14  15
ATOM     15  C   UNL     1     -35.371  84.787 -20.265  1.00  0.00    -0.000 C 
BRANCH  15  16
ATOM     16  C   UNL     1     -34.684  83.900 -21.314  1.00  0.00    -0.003 C 
ATOM     17  C   UNL     1     -34.869  84.416 -22.741  1.00  0.00     0.004 C 
ENDBRANCH  15  16
ENDBRANCH  14  15
ENDBRANCH  13  14
ENDBRANCH  12  13
ENDBRANCH  11  12
ENDBRANCH  10  11
ENDBRANCH   1  10
TORSDOF 13
ENDMDL
MODEL 3
REMARK VINA RESULT:    -3.709      3.368      5.682
REMARK INTER + INTRA:          -8.870
REMARK INTER:                  -6.581
REMARK INTRA:                  -2.289
REMARK UNBOUND:                -2.342
REMARK SMILES CCCCCCCCCCCCCCC(=O)[O-]
REMARK SMILES IDX 9 1 10 2 11 3 12 4 13 5 14 6 15 7 16 8 17 9 8 10 7 11 6 12
REMARK SMILES IDX 5 13 4 14 3 15 2 16 1 17
REMARK H PARENT
REMARK Flexibility Score: inf
ROOT
ATOM      1  C   UNL     1     -36.805  81.537 -18.987  1.00  0.00     0.000 C 
ENDROOT
BRANCH   1   2
ATOM      2  C   UNL     1     -37.510  82.441 -20.009  1.00  0.00     0.000 C 
BRANCH   2   3
ATOM      3  C   UNL     1     -37.311  81.971 -21.460  1.00  0.00     0.000 C 
BRANCH   3   4
ATOM      4  C   UNL     1     -36.833  83.062 -22.440  1.00  0.00     0.000 C 
BRANCH   4   5
ATOM      5  C   UNL     1     -36.946  84.508 -21.918  1.00  0.00     0.006 C 
BRANCH   5   6
ATOM      6  C   UNL     1     -35.760  85.412 -22.290  1.00  0.00     0.053 C 
BRANCH   6   7
ATOM      7  C   UNL     1     -36.058  86.260 -23.488  1.00  0.00     0.041 C 
ATOM      8  O   UNL     1     -36.403  87.462 -23.343  1.00  0.00    -0.550 OA
ATOM      9  O   UNL     1     -35.986  85.714 -24.763  1.00  0.00    -0.550 OA
ENDBRANCH   6   7
ENDBRANCH   5   6
ENDBRANCH   4   5
ENDBRANCH   3   4
ENDBRANCH   2   3
ENDBRANCH   1   2
BRANCH   1  10
ATOM     10  C   UNL     1     -36.484  82.308 -17.700  1.00  0.00     0.000 C 
BRANCH  10  11
ATOM     11  C   UNL     1     -36.826  83.797 -17.852  1.00  0.00    -0.000 C 
BRANCH  11  12
ATOM     12  C   UNL     1     -35.618  84.710 -17.586  1.00  0.00    -0.000 C 
BRANCH  12  13
ATOM     13  C   UNL     1     -34.780  84.965 -18.852  1.00  0.00    -0.000 C 
BRANCH  13  14
ATOM     14  C   UNL     1     -33.627  83.961 -19.011  1.00  0.00    -0.000 C 
BRANCH  14  15
ATOM     15  C   UNL     1     -33.752  83.118 -20.292  1.00  0.00    -0.000 C 
BRANCH  15  16
ATOM     16  C   UNL     1     -33.013  81.776 -20.187  1.00  0.00    -0.003 C 
ATOM     17  C   UNL     1     -33.120  81.145 -18.799  1.00  0.00     0.004 C 
ENDBRANCH  15  16
ENDBRANCH  14  15
ENDBRANCH  13  14
ENDBRANCH  12  13
ENDBRANCH  11  12
ENDBRANCH  10  11
ENDBRANCH   1  10
TORSDOF 13
ENDMDL
MODEL 4
REMARK VINA RESULT:    -3.686      1.137      3.120
REMARK INTER + INTRA:          -8.830
REMARK INTER:                  -6.620
REMARK INTRA:                  -2.210
REMARK UNBOUND:                -2.342
REMARK SMILES CCCCCCCCCCCCCCC(=O)[O-]
REMARK SMILES IDX 9 1 10 2 11 3 12 4 13 5 14 6 15 7 16 8 17 9 8 10 7 11 6 12
REMARK SMILES IDX 5 13 4 14 3 15 2 16 1 17
REMARK H PARENT
REMARK Flexibility Score: inf
ROOT
ATOM      1  C   UNL     1     -36.699  84.532 -22.429  1.00  0.00     0.000 C 
ENDROOT
BRANCH   1   2
ATOM      2  C   UNL     1     -35.217  84.133 -22.443  1.00  0.00     0.000 C 
BRANCH   2   3
ATOM      3  C   UNL     1     -34.618  84.006 -21.032  1.00  0.00     0.000 C 
BRANCH   3   4
ATOM      4  C   UNL     1     -33.727  82.767 -20.808  1.00  0.00     0.000 C 
BRANCH   4   5
ATOM      5  C   UNL     1     -32.889  82.787 -19.515  1.00  0.00     0.006 C 
BRANCH   5   6
ATOM      6  C   UNL     1     -32.633  81.400 -18.903  1.00  0.00     0.053 C 
BRANCH   6   7
ATOM      7  C   UNL     1     -31.646  80.609 -19.705  1.00  0.00     0.041 C 
ATOM      8  O   UNL     1     -30.423  80.910 -19.680  1.00  0.00    -0.550 OA
ATOM      9  O   UNL     1     -32.081  79.560 -20.505  1.00  0.00    -0.550 OA
ENDBRANCH   6   7
ENDBRANCH   5   6
ENDBRANCH   4   5
ENDBRANCH   3   4
ENDBRANCH   2   3
ENDBRANCH   1   2
BRANCH   1  10
ATOM     10  C   UNL     1     -37.494  83.658 -21.450  1.00  0.00     0.000 C 
BRANCH  10  11
ATOM     11  C   UNL     1     -37.659  82.232 -21.995  1.00  0.00    -0.000 C 
BRANCH  11  12
ATOM     12  C   UNL     1     -37.192  81.161 -20.997  1.00  0.00    -0.000 C 
BRANCH  12  13
ATOM     13  C   UNL     1     -37.518  81.530 -19.538  1.00  0.00    -0.000 C 
BRANCH  13  14
ATOM     14  C   UNL     1     -36.280  81.497 -18.627  1.00  0.00    -0.000 C 
BRANCH  14  15
ATOM     15  C   UNL     1     -36.380  82.496 -17.461  1.00  0.00    -0.000 C 
BRANCH  15  16
ATOM     16  C   UNL     1     -36.719  83.918 -17.933  1.00  0.00    -0.003 C 
ATOM     17  C   UNL     1     -35.618  84.930 -17.611  1.00  0.00     0.004 C 
ENDBRANCH  15  16
ENDBRANCH  14  15
ENDBRANCH  13  14
ENDBRANCH  12  13
ENDBRANCH  11  12
ENDBRANCH  10  11
ENDBRANCH   1  10
TORSDOF 13
ENDMDL
MODEL 5
REMARK VINA RESULT:    -3.685      1.880      2.938
REMARK INTER + INTRA:          -8.828
REMARK INTER:                  -6.979
REMARK INTRA:                  -1.849
REMARK UNBOUND:                -2.342
REMARK SMILES CCCCCCCCCCCCCCC(=O)[O-]
REMARK SMILES IDX 9 1 10 2 11 3 12 4 13 5 14 6 15 7 16 8 17 9 8 10 7 11 6 12
REMARK SMILES IDX 5 13 4 14 3 15 2 16 1 17
REMARK H PARENT
REMARK Flexibility Score: inf
ROOT
ATOM      1  C   UNL     1     -35.944  84.257 -17.609  1.00  0.00     0.000 C 
ENDROOT
BRANCH   1   2
ATOM      2  C   UNL     1     -35.076  84.822 -18.742  1.00  0.00     0.000 C 
BRANCH   2   3
ATOM      3  C   UNL     1     -33.844  83.952 -19.043  1.00  0.00     0.000 C 
BRANCH   3   4
ATOM      4  C   UNL     1     -33.864  83.241 -20.411  1.00  0.00     0.000 C 
BRANCH   4   5
ATOM      5  C   UNL     1     -33.782  81.702 -20.352  1.00  0.00     0.006 C 
BRANCH   5   6
ATOM      6  C   UNL     1     -33.478  81.137 -18.955  1.00  0.00     0.053 C 
BRANCH   6   7
ATOM      7  C   UNL     1     -32.080  80.606 -18.859  1.00  0.00     0.041 C 
ATOM      8  O   UNL     1     -31.852  79.530 -18.246  1.00  0.00    -0.550 OA
ATOM      9  O   UNL     1     -31.026  81.317 -19.418  1.00  0.00    -0.550 OA
ENDBRANCH   6   7
ENDBRANCH   5   6
ENDBRANCH   4   5
ENDBRANCH   3   4
ENDBRANCH   2   3
ENDBRANCH   1   2
BRANCH   1  10
ATOM     10  C   UNL     1     -36.877  83.156 -18.130  1.00  0.00     0.000 C 
BRANCH  10  11
ATOM     11  C   UNL     1     -37.382  83.485 -19.542  1.00  0.00    -0.000 C 
BRANCH  11  12
ATOM     12  C   UNL     1     -37.528  82.234 -20.424  1.00  0.00    -0.000 C 
BRANCH  12  13
ATOM     13  C   UNL     1     -37.486  80.929 -19.608  1.00  0.00    -0.000 C 
BRANCH  13  14
ATOM     14  C   UNL     1     -36.861  79.762 -20.390  1.00  0.00    -0.000 C 
BRANCH  14  15
ATOM     15  C   UNL     1     -37.715  78.484 -20.324  1.00  0.00    -0.000 C 
BRANCH  15  16
ATOM     16  C   UNL     1     -39.219  78.785 -20.239  1.00  0.00    -0.003 C 
ATOM     17  C   UNL     1     -39.873  78.937 -21.613  1.00  0.00     0.004 C 
ENDBRANCH  15  16
ENDBRANCH  14  15
ENDBRANCH  13  14
ENDBRANCH  12  13
ENDBRANCH  11  12
ENDBRANCH  10  11
ENDBRANCH   1  10
TORSDOF 13
ENDMDL
MODEL 6
REMARK VINA RESULT:    -3.681      1.513      2.669
REMARK INTER + INTRA:          -8.820
REMARK INTER:                  -7.063
REMARK INTRA:                  -1.757
REMARK UNBOUND:                -2.342
REMARK SMILES CCCCCCCCCCCCCCC(=O)[O-]
REMARK SMILES IDX 9 1 10 2 11 3 12 4 13 5 14 6 15 7 16 8 17 9 8 10 7 11 6 12
REMARK SMILES IDX 5 13 4 14 3 15 2 16 1 17
REMARK H PARENT
REMARK Flexibility Score: inf
ROOT
ATOM      1  C   UNL     1     -33.570  83.949 -19.095  1.00  0.00     0.000 C 
ENDROOT
BRANCH   1   2
ATOM      2  C   UNL     1     -33.608  83.186 -20.426  1.00  0.00     0.000 C 
BRANCH   2   3
ATOM      3  C   UNL     1     -33.937  81.693 -20.252  1.00  0.00     0.000 C 
BRANCH   3   4
ATOM      4  C   UNL     1     -33.677  81.127 -18.841  1.00  0.00     0.000 C 
BRANCH   4   5
ATOM      5  C   UNL     1     -32.232  80.660 -18.578  1.00  0.00     0.006 C 
BRANCH   5   6
ATOM      6  C   UNL     1     -31.531  80.046 -19.801  1.00  0.00     0.053 C 
BRANCH   6   7
ATOM      7  C   UNL     1     -30.375  80.880 -20.261  1.00  0.00     0.041 C 
ATOM      8  O   UNL     1     -29.645  80.483 -21.207  1.00  0.00    -0.550 OA
ATOM      9  O   UNL     1     -30.085  82.079 -19.623  1.00  0.00    -0.550 OA
ENDBRANCH   6   7
ENDBRANCH   5   6
ENDBRANCH   4   5
ENDBRANCH   3   4
ENDBRANCH   2   3
ENDBRANCH   1   2
BRANCH   1  10
ATOM     10  C   UNL     1     -34.851  84.770 -18.896  1.00  0.00     0.000 C 
BRANCH  10  11
ATOM     11  C   UNL     1     -35.634  84.279 -17.670  1.00  0.00    -0.000 C 
BRANCH  11  12
ATOM     12  C   UNL     1     -37.076  83.874 -18.014  1.00  0.00    -0.000 C 
BRANCH  12  13
ATOM     13  C   UNL     1     -37.152  82.526 -18.752  1.00  0.00    -0.000 C 
BRANCH  13  14
ATOM     14  C   UNL     1     -37.481  82.685 -20.245  1.00  0.00    -0.000 C 
BRANCH  14  15
ATOM     15  C   UNL     1     -37.683  81.333 -20.952  1.00  0.00    -0.000 C 
BRANCH  15  16
ATOM     16  C   UNL     1     -37.882  80.176 -19.962  1.00  0.00    -0.003 C 
ATOM     17  C   UNL     1     -39.331  79.694 -19.894  1.00  0.00     0.004 C 
ENDBRANCH  15  16
ENDBRANCH  14  15
ENDBRANCH  13  14
ENDBRANCH  12  13
ENDBRANCH  11  12
ENDBRANCH  10  11
ENDBRANCH   1  10
TORSDOF 13
ENDMDL
MODEL 7
REMARK VINA RESULT:    -3.557      1.200      2.552
REMARK INTER + INTRA:          -8.601
REMARK INTER:                  -6.413
REMARK INTRA:                  -2.188
REMARK UNBOUND:                -2.342
REMARK SMILES CCCCCCCCCCCCCCC(=O)[O-]
REMARK SMILES IDX 9 1 10 2 11 3 12 4 13 5 14 6 15 7 16 8 17 9 8 10 7 11 6 12
REMARK SMILES IDX 5 13 4 14 3 15 2 16 1 17
REMARK H PARENT
REMARK Flexibility Score: inf
ROOT
ATOM      1  C   UNL     1     -37.138  83.374 -18.779  1.00  0.00     0.000 C 
ENDROOT
BRANCH   1   2
ATOM      2  C   UNL     1     -35.945  83.952 -18.005  1.00  0.00     0.000 C 
BRANCH   2   3
ATOM      3  C   UNL     1     -34.917  84.643 -18.919  1.00  0.00     0.000 C 
BRANCH   3   4
ATOM      4  C   UNL     1     -33.553  83.932 -19.022  1.00  0.00     0.000 C 
BRANCH   4   5
ATOM      5  C   UNL     1     -33.571  82.584 -19.770  1.00  0.00     0.006 C 
BRANCH   5   6
ATOM      6  C   UNL     1     -33.404  81.354 -18.864  1.00  0.00     0.053 C 
BRANCH   6   7
ATOM      7  C   UNL     1     -32.011  80.805 -18.916  1.00  0.00     0.041 C 
ATOM      8  O   UNL     1     -31.077  81.495 -19.404  1.00  0.00    -0.550 OA
ATOM      9  O   UNL     1     -31.751  79.521 -18.456  1.00  0.00    -0.550 OA
ENDBRANCH   6   7
ENDBRANCH   5   6
ENDBRANCH   4   5
ENDBRANCH   3   4
ENDBRANCH   2   3
ENDBRANCH   1   2
BRANCH   1  10
ATOM     10  C   UNL     1     -37.126  81.841 -18.744  1.00  0.00     0.000 C 
BRANCH  10  11
ATOM     11  C   UNL     1     -37.041  81.260 -20.163  1.00  0.00    -0.000 C 
BRANCH  11  12
ATOM     12  C   UNL     1     -37.425  82.283 -21.244  1.00  0.00    -0.000 C 
BRANCH  12  13
ATOM     13  C   UNL     1     -36.391  82.357 -22.382  1.00  0.00    -0.000 C 
BRANCH  13  14
ATOM     14  C   UNL     1     -35.768  83.755 -22.528  1.00  0.00    -0.000 C 
BRANCH  14  15
ATOM     15  C   UNL     1     -36.748  84.879 -22.149  1.00  0.00    -0.000 C 
BRANCH  15  16
ATOM     16  C   UNL     1     -37.464  85.472 -23.371  1.00  0.00    -0.003 C 
ATOM     17  C   UNL     1     -38.973  85.222 -23.355  1.00  0.00     0.004 C 
ENDBRANCH  15  16
ENDBRANCH  14  15
ENDBRANCH  13  14
ENDBRANCH  12  13
ENDBRANCH  11  12
ENDBRANCH  10  11
ENDBRANCH   1  10
TORSDOF 13
ENDMDL
MODEL 8
REMARK VINA RESULT:    -3.556     16.575     18.576
REMARK INTER + INTRA:          -8.600
REMARK INTER:                  -6.668
REMARK INTRA:                  -1.932
REMARK UNBOUND:                -2.342
REMARK SMILES CCCCCCCCCCCCCCC(=O)[O-]
REMARK SMILES IDX 9 1 10 2 11 3 12 4 13 5 14 6 15 7 16 8 17 9 8 10 7 11 6 12
REMARK SMILES IDX 5 13 4 14 3 15 2 16 1 17
REMARK H PARENT
REMARK Flexibility Score: inf
ROOT
ATOM      1  C   UNL     1     -23.530  95.876 -31.768  1.00  0.00     0.000 C 
ENDROOT
BRANCH   1   2
ATOM      2  C   UNL     1     -24.693  95.606 -30.803  1.00  0.00     0.000 C 
BRANCH   2   3
ATOM      3  C   UNL     1     -24.413  96.105 -29.375  1.00  0.00     0.000 C 
BRANCH   3   4
ATOM      4  C   UNL     1     -24.795  95.120 -28.251  1.00  0.00     0.000 C 
BRANCH   4   5
ATOM      5  C   UNL     1     -24.383  93.654 -28.496  1.00  0.00     0.006 C 
BRANCH   5   6
ATOM      6  C   UNL     1     -25.483  92.626 -28.188  1.00  0.00     0.053 C 
BRANCH   6   7
ATOM      7  C   UNL     1     -26.790  92.999 -28.817  1.00  0.00     0.041 C 
ATOM      8  O   UNL     1     -27.780  93.288 -28.094  1.00  0.00    -0.550 OA
ATOM      9  O   UNL     1     -26.923  92.995 -30.199  1.00  0.00    -0.550 OA
ENDBRANCH   6   7
ENDBRANCH   5   6
ENDBRANCH   4   5
ENDBRANCH   3   4
ENDBRANCH   2   3
ENDBRANCH   1   2
BRANCH   1  10
ATOM     10  C   UNL     1     -23.283  94.668 -32.681  1.00  0.00     0.000 C 
BRANCH  10  11
ATOM     11  C   UNL     1     -23.076  93.389 -31.856  1.00  0.00    -0.000 C 
BRANCH  11  12
ATOM     12  C   UNL     1     -24.062  92.273 -32.240  1.00  0.00    -0.000 C 
BRANCH  12  13
ATOM     13  C   UNL     1     -24.012  91.081 -31.267  1.00  0.00    -0.000 C 
BRANCH  13  14
ATOM     14  C   UNL     1     -22.636  90.917 -30.601  1.00  0.00    -0.000 C 
BRANCH  14  15
ATOM     15  C   UNL     1     -22.710  90.132 -29.280  1.00  0.00    -0.000 C 
BRANCH  15  16
ATOM     16  C   UNL     1     -23.971  89.259 -29.184  1.00  0.00    -0.003 C 
ATOM     17  C   UNL     1     -24.276  88.810 -27.755  1.00  0.00     0.004 C 
ENDBRANCH  15  16
ENDBRANCH  14  15
ENDBRANCH  13  14
ENDBRANCH  12  13
ENDBRANCH  11  12
ENDBRANCH  10  11
ENDBRANCH   1  10
TORSDOF 13
ENDMDL
MODEL 9
REMARK VINA RESULT:    -3.554     12.065     13.644
REMARK INTER + INTRA:          -8.596
REMARK INTER:                  -6.689
REMARK INTRA:                  -1.907
REMARK UNBOUND:                -2.342
REMARK SMILES CCCCCCCCCCCCCCC(=O)[O-]
REMARK SMILES IDX 9 1 10 2 11 3 12 4 13 5 14 6 15 7 16 8 17 9 8 10 7 11 6 12
REMARK SMILES IDX 5 13 4 14 3 15 2 16 1 17
REMARK H PARENT
REMARK Flexibility Score: inf
ROOT
ATOM      1  C   UNL     1     -37.522  94.960 -28.070  1.00  0.00     0.000 C 
ENDROOT
BRANCH   1   2
ATOM      2  C   UNL     1     -36.246  95.243 -27.265  1.00  0.00     0.000 C 
BRANCH   2   3
ATOM      3  C   UNL     1     -35.484  93.964 -26.880  1.00  0.00     0.000 C 
BRANCH   3   4
ATOM      4  C   UNL     1     -34.967  93.922 -25.428  1.00  0.00     0.000 C 
BRANCH   4   5
ATOM      5  C   UNL     1     -33.455  94.174 -25.264  1.00  0.00     0.006 C 
BRANCH   5   6
ATOM      6  C   UNL     1     -32.563  93.255 -26.113  1.00  0.00     0.053 C 
BRANCH   6   7
ATOM      7  C   UNL     1     -31.707  94.030 -27.067  1.00  0.00     0.041 C 
ATOM      8  O   UNL     1     -30.457  93.877 -27.065  1.00  0.00    -0.550 OA
ATOM      9  O   UNL     1     -32.287  94.946 -27.936  1.00  0.00    -0.550 OA
ENDBRANCH   6   7
ENDBRANCH   5   6
ENDBRANCH   4   5
ENDBRANCH   3   4
ENDBRANCH   2   3
ENDBRANCH   1   2
BRANCH   1  10
ATOM     10  C   UNL     1     -38.769  95.091 -27.187  1.00  0.00     0.000 C 
BRANCH  10  11
ATOM     11  C   UNL     1     -38.435  95.800 -25.866  1.00  0.00    -0.000 C 
BRANCH  11  12
ATOM     12  C   UNL     1     -39.112  95.139 -24.654  1.00  0.00    -0.000 C 
BRANCH  12  13
ATOM     13  C   UNL     1     -38.414  93.834 -24.227  1.00  0.00    -0.000 C 
BRANCH  13  14
ATOM     14  C   UNL     1     -39.411  92.725 -23.851  1.00  0.00    -0.000 C 
BRANCH  14  15
ATOM     15  C   UNL     1     -39.393  91.555 -24.849  1.00  0.00    -0.000 C 
BRANCH  15  16
ATOM     16  C   UNL     1     -38.238  91.658 -25.857  1.00  0.00    -0.003 C 
ATOM     17  C   UNL     1     -38.685  91.413 -27.299  1.00  0.00     0.004 C 
ENDBRANCH  15  16
ENDBRANCH  14  15
ENDBRANCH  13  14
ENDBRANCH  12  13
ENDBRANCH  11  12
ENDBRANCH  10  11
ENDBRANCH   1  10
TORSDOF 13
ENDMDL
