MODEL 1
REMARK VINA RESULT:    27.131      0.000      0.000
REMARK INTER + INTRA:          43.142
REMARK INTER:                  38.234
REMARK INTRA:                   4.908
REMARK UNBOUND:                 4.908
REMARK SMILES O=C(C=Cc1ccc(O)cc1)CC(=O)C=Cc1ccc(O)cc1
REMARK SMILES IDX 12 1 2 2 1 3 3 4 4 5 5 6 6 7 7 8 8 9 11 10 10 11 9 12 13 14
REMARK SMILES IDX 14 15 15 16 16 17 17 18 18 19 23 20 19 21 22 22 20 23 21 24
REMARK H PARENT 9 13 21 25
REMARK Flexibility Score: inf
ROOT
ATOM      1  C   UNL     1      20.665  44.310  10.860  1.00  0.00     0.160 C 
ENDROOT
BRANCH   1   2
ATOM      2  C   UNL     1      19.931  43.340   9.964  1.00  0.00     0.163 C 
ATOM      3  O   UNL     1      20.450  42.974   8.874  1.00  0.00    -0.294 OA
BRANCH   2   4
ATOM      4  C   UNL     1      18.609  42.786  10.325  1.00  0.00     0.048 C 
ATOM      5  C   UNL     1      17.836  42.102   9.467  1.00  0.00     0.012 C 
BRANCH   5   6
ATOM      6  C   UNL     1      16.503  41.553   9.820  1.00  0.00    -0.025 A 
ATOM      7  C   UNL     1      15.400  42.422   9.831  1.00  0.00     0.012 A 
ATOM      8  C   UNL     1      14.123  41.948  10.148  1.00  0.00     0.047 A 
ATOM      9  C   UNL     1      13.929  40.596  10.448  1.00  0.00     0.115 A 
ATOM     10  C   UNL     1      16.297  40.189  10.109  1.00  0.00     0.012 A 
ATOM     11  C   UNL     1      15.019  39.718  10.424  1.00  0.00     0.047 A 
BRANCH   9  12
ATOM     12  O   UNL     1      12.653  40.137  10.762  1.00  0.00    -0.508 OA
ATOM     13  H   UNL     1      11.835  40.459  10.257  1.00  0.00     0.293 HD
ENDBRANCH   9  12
ENDBRANCH   5   6
ENDBRANCH   2   4
ENDBRANCH   1   2
BRANCH   1  14
ATOM     14  C   UNL     1      20.351  44.103  12.314  1.00  0.00     0.163 C 
ATOM     15  O   UNL     1      19.434  44.787  12.847  1.00  0.00    -0.294 OA
BRANCH  14  16
ATOM     16  C   UNL     1      21.187  43.190  13.124  1.00  0.00     0.048 C 
ATOM     17  C   UNL     1      21.178  41.849  13.047  1.00  0.00     0.012 C 
BRANCH  17  18
ATOM     18  C   UNL     1      20.471  41.057  12.020  1.00  0.00    -0.025 A 
ATOM     19  C   UNL     1      21.063  40.784  10.773  1.00  0.00     0.012 A 
ATOM     20  C   UNL     1      19.231  40.481  12.330  1.00  0.00     0.012 A 
ATOM     21  C   UNL     1      20.396  39.990   9.836  1.00  0.00     0.047 A 
ATOM     22  C   UNL     1      18.565  39.687  11.391  1.00  0.00     0.047 A 
ATOM     23  C   UNL     1      19.143  39.443  10.140  1.00  0.00     0.115 A 
BRANCH  23  24
ATOM     24  O   UNL     1      18.468  38.651   9.213  1.00  0.00    -0.508 OA
ATOM     25  H   UNL     1      18.620  38.757   8.218  1.00  0.00     0.293 HD
ENDBRANCH  23  24
ENDBRANCH  17  18
ENDBRANCH  14  16
ENDBRANCH   1  14
TORSDOF 8
ENDMDL
MODEL 2
REMARK VINA RESULT:    27.773      2.678      5.889
REMARK INTER + INTRA:          44.046
REMARK INTER:                  44.147
REMARK INTRA:                  -0.101
REMARK UNBOUND:                 4.908
REMARK SMILES O=C(C=Cc1ccc(O)cc1)CC(=O)C=Cc1ccc(O)cc1
REMARK SMILES IDX 12 1 2 2 1 3 3 4 4 5 5 6 6 7 7 8 8 9 11 10 10 11 9 12 13 14
REMARK SMILES IDX 14 15 15 16 16 17 17 18 18 19 23 20 19 21 22 22 20 23 21 24
REMARK H PARENT 9 13 21 25
REMARK Flexibility Score: inf
ROOT
ATOM      1  C   UNL     1      19.162  42.435  11.879  1.00  0.00     0.160 C 
ENDROOT
BRANCH   1   2
ATOM      2  C   UNL     1      20.151  43.476  11.411  1.00  0.00     0.163 C 
ATOM      3  O   UNL     1      20.274  44.560  12.046  1.00  0.00    -0.294 OA
BRANCH   2   4
ATOM      4  C   UNL     1      21.003  43.269  10.220  1.00  0.00     0.048 C 
ATOM      5  C   UNL     1      20.564  42.693   9.090  1.00  0.00     0.012 C 
BRANCH   5   6
ATOM      6  C   UNL     1      21.417  42.472   7.896  1.00  0.00    -0.025 A 
ATOM      7  C   UNL     1      21.594  43.532   6.992  1.00  0.00     0.012 A 
ATOM      8  C   UNL     1      22.397  43.373   5.858  1.00  0.00     0.047 A 
ATOM      9  C   UNL     1      23.044  42.157   5.619  1.00  0.00     0.115 A 
ATOM     10  C   UNL     1      22.085  41.254   7.656  1.00  0.00     0.012 A 
ATOM     11  C   UNL     1      22.888  41.099   6.522  1.00  0.00     0.047 A 
BRANCH   9  12
ATOM     12  O   UNL     1      23.841  42.013   4.486  1.00  0.00    -0.508 OA
ATOM     13  H   UNL     1      24.786  41.651   4.546  1.00  0.00     0.293 HD
ENDBRANCH   9  12
ENDBRANCH   5   6
ENDBRANCH   2   4
ENDBRANCH   1   2
BRANCH   1  14
ATOM     14  C   UNL     1      19.751  41.054  11.912  1.00  0.00     0.163 C 
ATOM     15  O   UNL     1      20.207  40.608  13.000  1.00  0.00    -0.294 OA
BRANCH  14  16
ATOM     16  C   UNL     1      19.891  40.284  10.656  1.00  0.00     0.048 C 
ATOM     17  C   UNL     1      18.878  39.872   9.877  1.00  0.00     0.012 C 
BRANCH  17  18
ATOM     18  C   UNL     1      17.463  40.265  10.035  1.00  0.00    -0.025 A 
ATOM     19  C   UNL     1      16.979  41.475   9.505  1.00  0.00     0.012 A 
ATOM     20  C   UNL     1      16.564  39.372  10.634  1.00  0.00     0.012 A 
ATOM     21  C   UNL     1      15.626  41.805   9.623  1.00  0.00     0.047 A 
ATOM     22  C   UNL     1      15.210  39.703  10.751  1.00  0.00     0.047 A 
ATOM     23  C   UNL     1      14.738  40.921  10.251  1.00  0.00     0.115 A 
BRANCH  23  24
ATOM     24  O   UNL     1      13.387  41.239  10.375  1.00  0.00    -0.508 OA
ATOM     25  H   UNL     1      13.062  42.197  10.324  1.00  0.00     0.293 HD
ENDBRANCH  23  24
ENDBRANCH  17  18
ENDBRANCH  14  16
ENDBRANCH   1  14
TORSDOF 8
ENDMDL
