MODEL 1
REMARK VINA RESULT:    -4.280      0.000      0.000
REMARK INTER + INTRA:          -4.629
REMARK INTER:                  -4.530
REMARK INTRA:                  -0.099
REMARK UNBOUND:                -0.099
REMARK SMILES C=C(C)[C@@H]1CC=C(C)C(=O)C1
REMARK SMILES IDX 8 1 7 2 6 3 5 4 4 5 11 6 9 7 10 8 2 9 1 10 3 11
REMARK H PARENT
REMARK Flexibility Score: inf
ROOT
ATOM      1  C   UNL     1      16.422   6.670  26.070  1.00  0.00     0.048 C 
ATOM      2  C   UNL     1      16.185   8.100  25.668  1.00  0.00    -0.012 C 
ATOM      3  C   UNL     1      17.104   8.750  24.934  1.00  0.00    -0.019 C 
ATOM      4  C   UNL     1      16.909  10.176  24.490  1.00  0.00     0.036 C 
ATOM      5  C   UNL     1      16.101  10.974  25.529  1.00  0.00     0.025 C 
ATOM      6  C   UNL     1      14.765  10.269  25.825  1.00  0.00     0.089 C 
ATOM      7  C   UNL     1      14.997   8.827  26.185  1.00  0.00     0.158 C 
ATOM      8  O   UNL     1      14.151   8.229  26.903  1.00  0.00    -0.295 OA
ENDROOT
BRANCH   5   9
ATOM      9  C   UNL     1      15.881  12.413  25.080  1.00  0.00    -0.077 C 
ATOM     10  C   UNL     1      14.639  12.915  25.011  1.00  0.00     0.008 C 
ATOM     11  C   UNL     1      17.040  13.303  24.702  1.00  0.00     0.039 C 
ENDBRANCH   5   9
TORSDOF 1
ENDMDL
MODEL 2
REMARK VINA RESULT:    -4.143      2.172      4.480
REMARK INTER + INTRA:          -4.484
REMARK INTER:                  -4.385
REMARK INTRA:                  -0.099
REMARK UNBOUND:                -0.099
REMARK SMILES C=C(C)[C@@H]1CC=C(C)C(=O)C1
REMARK SMILES IDX 8 1 7 2 6 3 5 4 4 5 11 6 9 7 10 8 2 9 1 10 3 11
REMARK H PARENT
REMARK Flexibility Score: inf
ROOT
ATOM      1  C   UNL     1      11.175  10.279  25.748  1.00  0.00     0.048 C 
ATOM      2  C   UNL     1      12.538   9.660  25.598  1.00  0.00    -0.012 C 
ATOM      3  C   UNL     1      12.652   8.335  25.407  1.00  0.00    -0.019 C 
ATOM      4  C   UNL     1      13.990   7.666  25.233  1.00  0.00     0.036 C 
ATOM      5  C   UNL     1      15.081   8.388  26.046  1.00  0.00     0.025 C 
ATOM      6  C   UNL     1      15.124   9.881  25.676  1.00  0.00     0.089 C 
ATOM      7  C   UNL     1      13.754  10.492  25.784  1.00  0.00     0.158 C 
ATOM      8  O   UNL     1      13.648  11.730  25.999  1.00  0.00    -0.295 OA
ENDROOT
BRANCH   5   9
ATOM      9  C   UNL     1      16.442   7.730  25.860  1.00  0.00    -0.077 C 
ATOM     10  C   UNL     1      17.453   8.418  25.308  1.00  0.00     0.008 C 
ATOM     11  C   UNL     1      16.690   6.303  26.285  1.00  0.00     0.039 C 
ENDBRANCH   5   9
TORSDOF 1
ENDMDL
MODEL 3
REMARK VINA RESULT:    -4.011      2.063      4.792
REMARK INTER + INTRA:          -4.344
REMARK INTER:                  -4.247
REMARK INTRA:                  -0.097
REMARK UNBOUND:                -0.099
REMARK SMILES C=C(C)[C@@H]1CC=C(C)C(=O)C1
REMARK SMILES IDX 8 1 7 2 6 3 5 4 4 5 11 6 9 7 10 8 2 9 1 10 3 11
REMARK H PARENT
REMARK Flexibility Score: inf
ROOT
ATOM      1  C   UNL     1      14.496  14.009  25.535  1.00  0.00     0.048 C 
ATOM      2  C   UNL     1      14.892  12.562  25.422  1.00  0.00    -0.012 C 
ATOM      3  C   UNL     1      14.080  11.606  25.903  1.00  0.00    -0.019 C 
ATOM      4  C   UNL     1      14.419  10.143  25.800  1.00  0.00     0.036 C 
ATOM      5  C   UNL     1      15.941   9.920  25.877  1.00  0.00     0.025 C 
ATOM      6  C   UNL     1      16.661  10.762  24.809  1.00  0.00     0.089 C 
ATOM      7  C   UNL     1      16.232  12.201  24.892  1.00  0.00     0.158 C 
ATOM      8  O   UNL     1      17.011  13.100  24.473  1.00  0.00    -0.295 OA
ENDROOT
BRANCH   5   9
ATOM      9  C   UNL     1      16.296   8.444  25.754  1.00  0.00    -0.077 C 
ATOM     10  C   UNL     1      17.561   8.075  25.497  1.00  0.00     0.008 C 
ATOM     11  C   UNL     1      15.250   7.368  25.914  1.00  0.00     0.039 C 
ENDBRANCH   5   9
TORSDOF 1
ENDMDL
MODEL 4
REMARK VINA RESULT:    -3.995      1.621      4.372
REMARK INTER + INTRA:          -4.328
REMARK INTER:                  -4.229
REMARK INTRA:                  -0.098
REMARK UNBOUND:                -0.099
REMARK SMILES C=C(C)[C@@H]1CC=C(C)C(=O)C1
REMARK SMILES IDX 8 1 7 2 6 3 5 4 4 5 11 6 9 7 10 8 2 9 1 10 3 11
REMARK H PARENT
REMARK Flexibility Score: inf
ROOT
ATOM      1  C   UNL     1      15.216  13.873  24.940  1.00  0.00     0.048 C 
ATOM      2  C   UNL     1      15.558  12.446  25.270  1.00  0.00    -0.012 C 
ATOM      3  C   UNL     1      16.444  11.777  24.513  1.00  0.00    -0.019 C 
ATOM      4  C   UNL     1      16.835  10.354  24.809  1.00  0.00     0.036 C 
ATOM      5  C   UNL     1      15.660   9.573  25.427  1.00  0.00     0.025 C 
ATOM      6  C   UNL     1      15.129  10.303  26.673  1.00  0.00     0.089 C 
ATOM      7  C   UNL     1      14.828  11.742  26.355  1.00  0.00     0.158 C 
ATOM      8  O   UNL     1      13.970  12.358  27.044  1.00  0.00    -0.295 OA
ENDROOT
BRANCH   5   9
ATOM      9  C   UNL     1      16.053   8.137  25.749  1.00  0.00    -0.077 C 
ATOM     10  C   UNL     1      17.342   7.766  25.707  1.00  0.00     0.008 C 
ATOM     11  C   UNL     1      15.017   7.104  26.118  1.00  0.00     0.039 C 
ENDBRANCH   5   9
TORSDOF 1
ENDMDL
MODEL 5
REMARK VINA RESULT:    -3.989      2.941      4.674
REMARK INTER + INTRA:          -4.321
REMARK INTER:                  -4.234
REMARK INTRA:                  -0.087
REMARK UNBOUND:                -0.099
REMARK SMILES C=C(C)[C@@H]1CC=C(C)C(=O)C1
REMARK SMILES IDX 8 1 7 2 6 3 5 4 4 5 11 6 9 7 10 8 2 9 1 10 3 11
REMARK H PARENT
REMARK Flexibility Score: inf
ROOT
ATOM      1  C   UNL     1      11.191   9.845  24.558  1.00  0.00     0.048 C 
ATOM      2  C   UNL     1      12.456   9.133  24.953  1.00  0.00    -0.012 C 
ATOM      3  C   UNL     1      13.165   9.565  26.010  1.00  0.00    -0.019 C 
ATOM      4  C   UNL     1      14.428   8.879  26.459  1.00  0.00     0.036 C 
ATOM      5  C   UNL     1      15.187   8.276  25.262  1.00  0.00     0.025 C 
ATOM      6  C   UNL     1      14.266   7.337  24.463  1.00  0.00     0.089 C 
ATOM      7  C   UNL     1      12.982   8.033  24.105  1.00  0.00     0.158 C 
ATOM      8  O   UNL     1      12.336   7.650  23.093  1.00  0.00    -0.295 OA
ENDROOT
BRANCH   5   9
ATOM      9  C   UNL     1      16.456   7.563  25.709  1.00  0.00    -0.077 C 
ATOM     10  C   UNL     1      17.657   8.113  25.471  1.00  0.00     0.008 C 
ATOM     11  C   UNL     1      16.401   6.234  26.423  1.00  0.00     0.039 C 
ENDBRANCH   5   9
TORSDOF 1
ENDMDL
MODEL 6
REMARK VINA RESULT:    -3.985      3.817      5.849
REMARK INTER + INTRA:          -4.317
REMARK INTER:                  -4.225
REMARK INTRA:                  -0.092
REMARK UNBOUND:                -0.099
REMARK SMILES C=C(C)[C@@H]1CC=C(C)C(=O)C1
REMARK SMILES IDX 8 1 7 2 6 3 5 4 4 5 11 6 9 7 10 8 2 9 1 10 3 11
REMARK H PARENT
REMARK Flexibility Score: inf
ROOT
ATOM      1  C   UNL     1      16.499  12.344  24.454  1.00  0.00     0.048 C 
ATOM      2  C   UNL     1      15.544  13.487  24.667  1.00  0.00    -0.012 C 
ATOM      3  C   UNL     1      14.290  13.409  24.192  1.00  0.00    -0.019 C 
ATOM      4  C   UNL     1      13.289  14.516  24.392  1.00  0.00     0.036 C 
ATOM      5  C   UNL     1      13.981  15.891  24.416  1.00  0.00     0.025 C 
ATOM      6  C   UNL     1      15.094  15.912  25.478  1.00  0.00     0.089 C 
ATOM      7  C   UNL     1      16.024  14.745  25.293  1.00  0.00     0.158 C 
ATOM      8  O   UNL     1      17.212  14.834  25.708  1.00  0.00    -0.295 OA
ENDROOT
BRANCH   5   9
ATOM      9  C   UNL     1      12.978  17.016  24.638  1.00  0.00    -0.077 C 
ATOM     10  C   UNL     1      12.050  17.284  23.707  1.00  0.00     0.008 C 
ATOM     11  C   UNL     1      13.000  17.851  25.895  1.00  0.00     0.039 C 
ENDBRANCH   5   9
TORSDOF 1
ENDMDL
MODEL 7
REMARK VINA RESULT:    -3.898     10.593     12.434
REMARK INTER + INTRA:          -4.224
REMARK INTER:                  -4.128
REMARK INTRA:                  -0.096
REMARK UNBOUND:                -0.099
REMARK SMILES C=C(C)[C@@H]1CC=C(C)C(=O)C1
REMARK SMILES IDX 8 1 7 2 6 3 5 4 4 5 11 6 9 7 10 8 2 9 1 10 3 11
REMARK H PARENT
REMARK Flexibility Score: inf
ROOT
ATOM      1  C   UNL     1      18.235   0.492  22.716  1.00  0.00     0.048 C 
ATOM      2  C   UNL     1      17.120   0.094  21.787  1.00  0.00    -0.012 C 
ATOM      3  C   UNL     1      16.174  -0.763  22.206  1.00  0.00    -0.019 C 
ATOM      4  C   UNL     1      15.027  -1.181  21.324  1.00  0.00     0.036 C 
ATOM      5  C   UNL     1      15.452  -1.221  19.845  1.00  0.00     0.025 C 
ATOM      6  C   UNL     1      16.050   0.132  19.422  1.00  0.00     0.089 C 
ATOM      7  C   UNL     1      17.135   0.552  20.375  1.00  0.00     0.158 C 
ATOM      8  O   UNL     1      18.042   1.329  19.970  1.00  0.00    -0.295 OA
ENDROOT
BRANCH   5   9
ATOM      9  C   UNL     1      14.293  -1.624  18.942  1.00  0.00    -0.077 C 
ATOM     10  C   UNL     1      14.436  -1.594  17.608  1.00  0.00     0.008 C 
ATOM     11  C   UNL     1      12.967  -2.060  19.515  1.00  0.00     0.039 C 
ENDBRANCH   5   9
TORSDOF 1
ENDMDL
MODEL 8
REMARK VINA RESULT:    -3.827      1.457      2.089
REMARK INTER + INTRA:          -4.150
REMARK INTER:                  -4.062
REMARK INTRA:                  -0.087
REMARK UNBOUND:                -0.099
REMARK SMILES C=C(C)[C@@H]1CC=C(C)C(=O)C1
REMARK SMILES IDX 8 1 7 2 6 3 5 4 4 5 11 6 9 7 10 8 2 9 1 10 3 11
REMARK H PARENT
REMARK Flexibility Score: inf
ROOT
ATOM      1  C   UNL     1      15.188   6.871  26.161  1.00  0.00     0.048 C 
ATOM      2  C   UNL     1      15.429   8.355  26.114  1.00  0.00    -0.012 C 
ATOM      3  C   UNL     1      14.461   9.203  26.502  1.00  0.00    -0.019 C 
ATOM      4  C   UNL     1      14.656  10.696  26.492  1.00  0.00     0.036 C 
ATOM      5  C   UNL     1      15.594  11.125  25.349  1.00  0.00     0.025 C 
ATOM      6  C   UNL     1      16.929  10.364  25.437  1.00  0.00     0.089 C 
ATOM      7  C   UNL     1      16.687   8.882  25.527  1.00  0.00     0.158 C 
ATOM      8  O   UNL     1      17.583   8.088  25.131  1.00  0.00    -0.295 OA
ENDROOT
BRANCH   5   9
ATOM      9  C   UNL     1      15.813  12.632  25.343  1.00  0.00    -0.077 C 
ATOM     10  C   UNL     1      15.091  13.415  24.526  1.00  0.00     0.008 C 
ATOM     11  C   UNL     1      16.835  13.281  26.243  1.00  0.00     0.039 C 
ENDBRANCH   5   9
TORSDOF 1
ENDMDL
MODEL 9
REMARK VINA RESULT:    -3.814      1.630      2.622
REMARK INTER + INTRA:          -4.136
REMARK INTER:                  -4.037
REMARK INTRA:                  -0.098
REMARK UNBOUND:                -0.099
REMARK SMILES C=C(C)[C@@H]1CC=C(C)C(=O)C1
REMARK SMILES IDX 8 1 7 2 6 3 5 4 4 5 11 6 9 7 10 8 2 9 1 10 3 11
REMARK H PARENT
REMARK Flexibility Score: inf
ROOT
ATOM      1  C   UNL     1      14.703   8.196  26.198  1.00  0.00     0.048 C 
ATOM      2  C   UNL     1      15.235   9.595  26.047  1.00  0.00    -0.012 C 
ATOM      3  C   UNL     1      14.727  10.588  26.795  1.00  0.00    -0.019 C 
ATOM      4  C   UNL     1      15.235  12.002  26.697  1.00  0.00     0.036 C 
ATOM      5  C   UNL     1      15.701  12.326  25.266  1.00  0.00     0.025 C 
ATOM      6  C   UNL     1      16.746  11.298  24.797  1.00  0.00     0.089 C 
ATOM      7  C   UNL     1      16.232   9.897  24.988  1.00  0.00     0.158 C 
ATOM      8  O   UNL     1      16.684   8.972  24.261  1.00  0.00    -0.295 OA
ENDROOT
BRANCH   5   9
ATOM      9  C   UNL     1      16.235  13.748  25.161  1.00  0.00    -0.077 C 
ATOM     10  C   UNL     1      17.543  13.963  24.950  1.00  0.00     0.008 C 
ATOM     11  C   UNL     1      15.322  14.942  25.291  1.00  0.00     0.039 C 
ENDBRANCH   5   9
TORSDOF 1
ENDMDL
