MODEL 1
REMARK VINA RESULT:    -5.731      0.000      0.000
REMARK INTER + INTRA:          -8.772
REMARK INTER:                  -8.244
REMARK INTRA:                  -0.528
REMARK UNBOUND:                -0.528
REMARK SMILES CC(C)=CCCC(C)=CCCC(C)=CCO
REMARK SMILES IDX 10 1 9 2 7 3 8 4 6 5 5 6 4 7 1 8 2 9 3 10 11 11 12 12 14 13
REMARK SMILES IDX 13 14 15 15 16 16
REMARK H PARENT 16 17
REMARK Flexibility Score: inf
ROOT
ATOM      1  C   UNL     1      19.519  14.200  26.797  1.00  0.00     0.032 C 
ENDROOT
BRANCH   1   2
ATOM      2  C   UNL     1      18.087  14.663  26.664  1.00  0.00    -0.028 C 
ATOM      3  C   UNL     1      17.650  15.915  26.930  1.00  0.00    -0.077 C 
ATOM      4  C   UNL     1      16.192  16.223  26.711  1.00  0.00     0.039 C 
BRANCH   3   5
ATOM      5  C   UNL     1      18.545  16.998  27.501  1.00  0.00     0.034 C 
BRANCH   5   6
ATOM      6  C   UNL     1      17.856  18.365  27.424  1.00  0.00     0.032 C 
BRANCH   6   7
ATOM      7  C   UNL     1      18.694  19.358  26.657  1.00  0.00    -0.028 C 
ATOM      8  C   UNL     1      16.811  20.994  26.544  1.00  0.00     0.039 C 
ATOM      9  C   UNL     1      18.227  20.559  26.253  1.00  0.00    -0.080 C 
ATOM     10  C   UNL     1      19.149  21.476  25.492  1.00  0.00     0.039 C 
ENDBRANCH   6   7
ENDBRANCH   5   6
ENDBRANCH   3   5
ENDBRANCH   1   2
BRANCH   1  11
ATOM     11  C   UNL     1      19.607  12.695  27.092  1.00  0.00     0.034 C 
BRANCH  11  12
ATOM     12  C   UNL     1      20.773  12.043  26.368  1.00  0.00    -0.075 C 
ATOM     13  C   UNL     1      20.702  10.804  25.833  1.00  0.00    -0.000 C 
ATOM     14  C   UNL     1      22.055  12.819  26.208  1.00  0.00     0.039 C 
BRANCH  13  15
ATOM     15  C   UNL     1      19.505   9.895  25.938  1.00  0.00     0.183 C 
BRANCH  15  16
ATOM     16  O   UNL     1      19.464   9.007  24.854  1.00  0.00    -0.392 OA
ATOM     17  H   UNL     1      19.005   8.186  25.175  1.00  0.00     0.210 HD
ENDBRANCH  15  16
ENDBRANCH  13  15
ENDBRANCH  11  12
ENDBRANCH   1  11
TORSDOF 8
ENDMDL
MODEL 2
REMARK VINA RESULT:    -5.720      6.774      8.977
REMARK INTER + INTRA:          -8.756
REMARK INTER:                  -7.174
REMARK INTRA:                  -1.583
REMARK UNBOUND:                -0.528
REMARK SMILES CC(C)=CCCC(C)=CCCC(C)=CCO
REMARK SMILES IDX 10 1 9 2 7 3 8 4 6 5 5 6 4 7 1 8 2 9 3 10 11 11 12 12 14 13
REMARK SMILES IDX 13 14 15 15 16 16
REMARK H PARENT 16 17
REMARK Flexibility Score: inf
ROOT
ATOM      1  C   UNL     1      13.191  20.828  29.892  1.00  0.00     0.032 C 
ENDROOT
BRANCH   1   2
ATOM      2  C   UNL     1      13.176  20.841  28.382  1.00  0.00    -0.028 C 
ATOM      3  C   UNL     1      14.035  20.156  27.593  1.00  0.00    -0.077 C 
ATOM      4  C   UNL     1      13.861  20.249  26.100  1.00  0.00     0.039 C 
BRANCH   3   5
ATOM      5  C   UNL     1      15.200  19.354  28.141  1.00  0.00     0.034 C 
BRANCH   5   6
ATOM      6  C   UNL     1      16.408  20.263  28.394  1.00  0.00     0.032 C 
BRANCH   6   7
ATOM      7  C   UNL     1      17.434  20.128  27.296  1.00  0.00    -0.028 C 
ATOM      8  C   UNL     1      16.813  22.341  26.321  1.00  0.00     0.039 C 
ATOM      9  C   UNL     1      17.626  21.069  26.347  1.00  0.00    -0.080 C 
ATOM     10  C   UNL     1      18.678  20.833  25.295  1.00  0.00     0.039 C 
ENDBRANCH   6   7
ENDBRANCH   5   6
ENDBRANCH   3   5
ENDBRANCH   1   2
BRANCH   1  11
ATOM     11  C   UNL     1      13.357  22.240  30.474  1.00  0.00     0.034 C 
BRANCH  11  12
ATOM     12  C   UNL     1      14.819  22.639  30.582  1.00  0.00    -0.075 C 
ATOM     13  C   UNL     1      15.641  22.154  31.540  1.00  0.00    -0.000 C 
ATOM     14  C   UNL     1      15.391  23.591  29.563  1.00  0.00     0.039 C 
BRANCH  13  15
ATOM     15  C   UNL     1      15.212  21.224  32.644  1.00  0.00     0.183 C 
BRANCH  15  16
ATOM     16  O   UNL     1      15.591  19.906  32.353  1.00  0.00    -0.392 OA
ATOM     17  H   UNL     1      14.918  19.551  31.714  1.00  0.00     0.210 HD
ENDBRANCH  15  16
ENDBRANCH  13  15
ENDBRANCH  11  12
ENDBRANCH   1  11
TORSDOF 8
ENDMDL
MODEL 3
REMARK VINA RESULT:    -5.579      3.203      7.737
REMARK INTER + INTRA:          -8.553
REMARK INTER:                  -7.804
REMARK INTRA:                  -0.749
REMARK UNBOUND:                -0.528
REMARK SMILES CC(C)=CCCC(C)=CCCC(C)=CCO
REMARK SMILES IDX 10 1 9 2 7 3 8 4 6 5 5 6 4 7 1 8 2 9 3 10 11 11 12 12 14 13
REMARK SMILES IDX 13 14 15 15 16 16
REMARK H PARENT 16 17
REMARK Flexibility Score: inf
ROOT
ATOM      1  C   UNL     1      18.665  18.571  27.198  1.00  0.00     0.032 C 
ENDROOT
BRANCH   1   2
ATOM      2  C   UNL     1      17.376  17.813  26.985  1.00  0.00    -0.028 C 
ATOM      3  C   UNL     1      17.248  16.468  27.052  1.00  0.00    -0.077 C 
ATOM      4  C   UNL     1      15.880  15.871  26.849  1.00  0.00     0.039 C 
BRANCH   3   5
ATOM      5  C   UNL     1      18.427  15.536  27.254  1.00  0.00     0.034 C 
BRANCH   5   6
ATOM      6  C   UNL     1      18.640  14.658  26.016  1.00  0.00     0.032 C 
BRANCH   6   7
ATOM      7  C   UNL     1      19.240  13.325  26.387  1.00  0.00    -0.028 C 
ATOM      8  C   UNL     1      21.380  13.861  25.216  1.00  0.00     0.039 C 
ATOM      9  C   UNL     1      20.487  12.952  26.027  1.00  0.00    -0.080 C 
ATOM     10  C   UNL     1      20.989  11.596  26.450  1.00  0.00     0.039 C 
ENDBRANCH   6   7
ENDBRANCH   5   6
ENDBRANCH   3   5
ENDBRANCH   1   2
BRANCH   1  11
ATOM     11  C   UNL     1      18.411  20.054  27.508  1.00  0.00     0.034 C 
BRANCH  11  12
ATOM     12  C   UNL     1      18.258  20.879  26.241  1.00  0.00    -0.075 C 
ATOM     13  C   UNL     1      17.084  21.437  25.867  1.00  0.00    -0.000 C 
ATOM     14  C   UNL     1      19.471  21.118  25.377  1.00  0.00     0.039 C 
BRANCH  13  15
ATOM     15  C   UNL     1      15.782  21.263  26.605  1.00  0.00     0.183 C 
BRANCH  15  16
ATOM     16  O   UNL     1      15.039  20.212  26.052  1.00  0.00    -0.392 OA
ATOM     17  H   UNL     1      15.693  19.587  25.641  1.00  0.00     0.210 HD
ENDBRANCH  15  16
ENDBRANCH  13  15
ENDBRANCH  11  12
ENDBRANCH   1  11
TORSDOF 8
ENDMDL
MODEL 4
REMARK VINA RESULT:    -5.569      4.594      8.396
REMARK INTER + INTRA:          -8.538
REMARK INTER:                  -7.403
REMARK INTRA:                  -1.136
REMARK UNBOUND:                -0.528
REMARK SMILES CC(C)=CCCC(C)=CCCC(C)=CCO
REMARK SMILES IDX 10 1 9 2 7 3 8 4 6 5 5 6 4 7 1 8 2 9 3 10 11 11 12 12 14 13
REMARK SMILES IDX 13 14 15 15 16 16
REMARK H PARENT 16 17
REMARK Flexibility Score: inf
ROOT
ATOM      1  C   UNL     1      16.116  21.062  28.556  1.00  0.00     0.032 C 
ENDROOT
BRANCH   1   2
ATOM      2  C   UNL     1      16.758  21.205  27.196  1.00  0.00    -0.028 C 
ATOM      3  C   UNL     1      17.885  20.570  26.800  1.00  0.00    -0.077 C 
ATOM      4  C   UNL     1      18.375  20.796  25.394  1.00  0.00     0.039 C 
BRANCH   3   5
ATOM      5  C   UNL     1      18.709  19.697  27.727  1.00  0.00     0.034 C 
BRANCH   5   6
ATOM      6  C   UNL     1      18.710  18.244  27.241  1.00  0.00     0.032 C 
BRANCH   6   7
ATOM      7  C   UNL     1      17.306  17.699  27.143  1.00  0.00    -0.028 C 
ATOM      8  C   UNL     1      18.132  15.446  26.454  1.00  0.00     0.039 C 
ATOM      9  C   UNL     1      17.033  16.426  26.786  1.00  0.00    -0.080 C 
ATOM     10  C   UNL     1      15.594  15.985  26.718  1.00  0.00     0.039 C 
ENDBRANCH   6   7
ENDBRANCH   5   6
ENDBRANCH   3   5
ENDBRANCH   1   2
BRANCH   1  11
ATOM     11  C   UNL     1      15.221  19.817  28.637  1.00  0.00     0.034 C 
BRANCH  11  12
ATOM     12  C   UNL     1      13.948  19.980  27.824  1.00  0.00    -0.075 C 
ATOM     13  C   UNL     1      12.899  20.720  28.247  1.00  0.00    -0.000 C 
ATOM     14  C   UNL     1      13.858  19.318  26.472  1.00  0.00     0.039 C 
BRANCH  13  15
ATOM     15  C   UNL     1      12.826  21.413  29.583  1.00  0.00     0.183 C 
BRANCH  15  16
ATOM     16  O   UNL     1      12.461  20.507  30.588  1.00  0.00    -0.392 OA
ATOM     17  H   UNL     1      12.614  20.967  31.455  1.00  0.00     0.210 HD
ENDBRANCH  15  16
ENDBRANCH  13  15
ENDBRANCH  11  12
ENDBRANCH   1  11
TORSDOF 8
ENDMDL
MODEL 5
REMARK VINA RESULT:    -5.529      9.222     12.466
REMARK INTER + INTRA:          -8.481
REMARK INTER:                  -6.387
REMARK INTRA:                  -2.094
REMARK UNBOUND:                -0.528
REMARK SMILES CC(C)=CCCC(C)=CCCC(C)=CCO
REMARK SMILES IDX 10 1 9 2 7 3 8 4 6 5 5 6 4 7 1 8 2 9 3 10 11 11 12 12 14 13
REMARK SMILES IDX 13 14 15 15 16 16
REMARK H PARENT 16 17
REMARK Flexibility Score: inf
ROOT
ATOM      1  C   UNL     1      11.347  22.214  23.669  1.00  0.00     0.032 C 
ENDROOT
BRANCH   1   2
ATOM      2  C   UNL     1      12.086  21.246  24.562  1.00  0.00    -0.028 C 
ATOM      3  C   UNL     1      11.827  21.051  25.875  1.00  0.00    -0.077 C 
ATOM      4  C   UNL     1      12.636  20.019  26.616  1.00  0.00     0.039 C 
BRANCH   3   5
ATOM      5  C   UNL     1      10.808  21.868  26.647  1.00  0.00     0.034 C 
BRANCH   5   6
ATOM      6  C   UNL     1       9.670  20.973  27.153  1.00  0.00     0.032 C 
BRANCH   6   7
ATOM      7  C   UNL     1       8.493  20.998  26.209  1.00  0.00    -0.028 C 
ATOM      8  C   UNL     1       9.050  18.734  25.314  1.00  0.00     0.039 C 
ATOM      9  C   UNL     1       8.202  19.983  25.368  1.00  0.00    -0.080 C 
ATOM     10  C   UNL     1       7.002  20.111  24.466  1.00  0.00     0.039 C 
ENDBRANCH   6   7
ENDBRANCH   5   6
ENDBRANCH   3   5
ENDBRANCH   1   2
BRANCH   1  11
ATOM     11  C   UNL     1      10.342  21.496  22.756  1.00  0.00     0.034 C 
BRANCH  11  12
ATOM     12  C   UNL     1       9.175  22.394  22.381  1.00  0.00    -0.075 C 
ATOM     13  C   UNL     1       8.587  22.359  21.164  1.00  0.00    -0.000 C 
ATOM     14  C   UNL     1       8.624  23.341  23.416  1.00  0.00     0.039 C 
BRANCH  13  15
ATOM     15  C   UNL     1       9.042  21.492  20.019  1.00  0.00     0.183 C 
BRANCH  15  16
ATOM     16  O   UNL     1       8.450  20.224  20.096  1.00  0.00    -0.392 OA
ATOM     17  H   UNL     1       7.469  20.362  20.016  1.00  0.00     0.210 HD
ENDBRANCH  15  16
ENDBRANCH  13  15
ENDBRANCH  11  12
ENDBRANCH   1  11
TORSDOF 8
ENDMDL
MODEL 6
REMARK VINA RESULT:    -5.515      6.913      9.556
REMARK INTER + INTRA:          -8.461
REMARK INTER:                  -6.337
REMARK INTRA:                  -2.124
REMARK UNBOUND:                -0.528
REMARK SMILES CC(C)=CCCC(C)=CCCC(C)=CCO
REMARK SMILES IDX 10 1 9 2 7 3 8 4 6 5 5 6 4 7 1 8 2 9 3 10 11 11 12 12 14 13
REMARK SMILES IDX 13 14 15 15 16 16
REMARK H PARENT 16 17
REMARK Flexibility Score: inf
ROOT
ATOM      1  C   UNL     1      12.583  22.337  29.125  1.00  0.00     0.032 C 
ENDROOT
BRANCH   1   2
ATOM      2  C   UNL     1      11.914  21.305  28.247  1.00  0.00    -0.028 C 
ATOM      3  C   UNL     1      12.198  21.098  26.941  1.00  0.00    -0.077 C 
ATOM      4  C   UNL     1      11.463  20.001  26.216  1.00  0.00     0.039 C 
BRANCH   3   5
ATOM      5  C   UNL     1      13.172  21.960  26.161  1.00  0.00     0.034 C 
BRANCH   5   6
ATOM      6  C   UNL     1      14.403  21.146  25.749  1.00  0.00     0.032 C 
BRANCH   6   7
ATOM      7  C   UNL     1      15.478  21.206  26.807  1.00  0.00    -0.028 C 
ATOM      8  C   UNL     1      15.057  18.842  27.493  1.00  0.00     0.039 C 
ATOM      9  C   UNL     1      15.783  20.161  27.607  1.00  0.00    -0.080 C 
ATOM     10  C   UNL     1      16.874  20.328  28.632  1.00  0.00     0.039 C 
ENDBRANCH   6   7
ENDBRANCH   5   6
ENDBRANCH   3   5
ENDBRANCH   1   2
BRANCH   1  11
ATOM     11  C   UNL     1      13.383  21.686  30.263  1.00  0.00     0.034 C 
BRANCH  11  12
ATOM     12  C   UNL     1      14.665  22.445  30.560  1.00  0.00    -0.075 C 
ATOM     13  C   UNL     1      15.445  22.174  31.631  1.00  0.00    -0.000 C 
ATOM     14  C   UNL     1      15.109  23.524  29.606  1.00  0.00     0.039 C 
BRANCH  13  15
ATOM     15  C   UNL     1      15.120  21.151  32.688  1.00  0.00     0.183 C 
BRANCH  15  16
ATOM     16  O   UNL     1      15.677  19.908  32.358  1.00  0.00    -0.392 OA
ATOM     17  H   UNL     1      16.662  20.004  32.451  1.00  0.00     0.210 HD
ENDBRANCH  15  16
ENDBRANCH  13  15
ENDBRANCH  11  12
ENDBRANCH   1  11
TORSDOF 8
ENDMDL
MODEL 7
REMARK VINA RESULT:    -5.375      6.556      9.491
REMARK INTER + INTRA:          -8.260
REMARK INTER:                  -6.461
REMARK INTRA:                  -1.799
REMARK UNBOUND:                -0.528
REMARK SMILES CC(C)=CCCC(C)=CCCC(C)=CCO
REMARK SMILES IDX 10 1 9 2 7 3 8 4 6 5 5 6 4 7 1 8 2 9 3 10 11 11 12 12 14 13
REMARK SMILES IDX 13 14 15 15 16 16
REMARK H PARENT 16 17
REMARK Flexibility Score: inf
ROOT
ATOM      1  C   UNL     1      15.014  22.544  28.159  1.00  0.00     0.032 C 
ENDROOT
BRANCH   1   2
ATOM      2  C   UNL     1      16.217  21.646  27.990  1.00  0.00    -0.028 C 
ATOM      3  C   UNL     1      16.173  20.296  27.923  1.00  0.00    -0.077 C 
ATOM      4  C   UNL     1      17.465  19.550  27.717  1.00  0.00     0.039 C 
BRANCH   3   5
ATOM      5  C   UNL     1      14.895  19.501  28.110  1.00  0.00     0.034 C 
BRANCH   5   6
ATOM      6  C   UNL     1      14.144  19.363  26.781  1.00  0.00     0.032 C 
BRANCH   6   7
ATOM      7  C   UNL     1      12.681  19.692  26.942  1.00  0.00    -0.028 C 
ATOM      8  C   UNL     1      12.842  21.602  25.342  1.00  0.00     0.039 C 
ATOM      9  C   UNL     1      12.078  20.710  26.291  1.00  0.00    -0.080 C 
ATOM     10  C   UNL     1      10.610  20.952  26.525  1.00  0.00     0.039 C 
ENDBRANCH   6   7
ENDBRANCH   5   6
ENDBRANCH   3   5
ENDBRANCH   1   2
BRANCH   1  11
ATOM     11  C   UNL     1      14.818  22.969  29.622  1.00  0.00     0.034 C 
BRANCH  11  12
ATOM     12  C   UNL     1      13.750  22.139  30.314  1.00  0.00    -0.075 C 
ATOM     13  C   UNL     1      13.999  21.397  31.417  1.00  0.00    -0.000 C 
ATOM     14  C   UNL     1      12.343  22.168  29.774  1.00  0.00     0.039 C 
BRANCH  13  15
ATOM     15  C   UNL     1      15.356  21.242  32.054  1.00  0.00     0.183 C 
BRANCH  15  16
ATOM     16  O   UNL     1      15.595  19.901  32.382  1.00  0.00    -0.392 OA
ATOM     17  H   UNL     1      15.663  19.858  33.372  1.00  0.00     0.210 HD
ENDBRANCH  15  16
ENDBRANCH  13  15
ENDBRANCH  11  12
ENDBRANCH   1  11
TORSDOF 8
ENDMDL
MODEL 8
REMARK VINA RESULT:    -5.367      8.553     11.847
REMARK INTER + INTRA:          -8.248
REMARK INTER:                  -6.277
REMARK INTRA:                  -1.971
REMARK UNBOUND:                -0.528
REMARK SMILES CC(C)=CCCC(C)=CCCC(C)=CCO
REMARK SMILES IDX 10 1 9 2 7 3 8 4 6 5 5 6 4 7 1 8 2 9 3 10 11 11 12 12 14 13
REMARK SMILES IDX 13 14 15 15 16 16
REMARK H PARENT 16 17
REMARK Flexibility Score: inf
ROOT
ATOM      1  C   UNL     1      11.267  22.838  22.594  1.00  0.00     0.032 C 
ENDROOT
BRANCH   1   2
ATOM      2  C   UNL     1      10.500  22.112  21.515  1.00  0.00    -0.028 C 
ATOM      3  C   UNL     1       9.189  21.787  21.581  1.00  0.00    -0.077 C 
ATOM      4  C   UNL     1       8.565  21.092  20.399  1.00  0.00     0.039 C 
BRANCH   3   5
ATOM      5  C   UNL     1       8.339  22.030  22.814  1.00  0.00     0.034 C 
BRANCH   5   6
ATOM      6  C   UNL     1       7.843  20.703  23.398  1.00  0.00     0.032 C 
BRANCH   6   7
ATOM      7  C   UNL     1       8.940  19.993  24.152  1.00  0.00    -0.028 C 
ATOM      8  C   UNL     1       8.036  20.745  26.355  1.00  0.00     0.039 C 
ATOM      9  C   UNL     1       9.037  20.006  25.498  1.00  0.00    -0.080 C 
ATOM     10  C   UNL     1      10.174  19.263  26.150  1.00  0.00     0.039 C 
ENDBRANCH   6   7
ENDBRANCH   5   6
ENDBRANCH   3   5
ENDBRANCH   1   2
BRANCH   1  11
ATOM     11  C   UNL     1      12.001  21.864  23.527  1.00  0.00     0.034 C 
BRANCH  11  12
ATOM     12  C   UNL     1      11.926  22.304  24.979  1.00  0.00    -0.075 C 
ATOM     13  C   UNL     1      12.866  21.975  25.893  1.00  0.00    -0.000 C 
ATOM     14  C   UNL     1      10.774  23.173  25.417  1.00  0.00     0.039 C 
BRANCH  13  15
ATOM     15  C   UNL     1      14.054  21.090  25.618  1.00  0.00     0.183 C 
BRANCH  15  16
ATOM     16  O   UNL     1      13.673  19.741  25.615  1.00  0.00    -0.392 OA
ATOM     17  H   UNL     1      13.966  19.365  24.744  1.00  0.00     0.210 HD
ENDBRANCH  15  16
ENDBRANCH  13  15
ENDBRANCH  11  12
ENDBRANCH   1  11
TORSDOF 8
ENDMDL
MODEL 9
REMARK VINA RESULT:    -5.306      7.690     10.102
REMARK INTER + INTRA:          -8.160
REMARK INTER:                  -6.316
REMARK INTRA:                  -1.844
REMARK UNBOUND:                -0.528
REMARK SMILES CC(C)=CCCC(C)=CCCC(C)=CCO
REMARK SMILES IDX 10 1 9 2 7 3 8 4 6 5 5 6 4 7 1 8 2 9 3 10 11 11 12 12 14 13
REMARK SMILES IDX 13 14 15 15 16 16
REMARK H PARENT 16 17
REMARK Flexibility Score: inf
ROOT
ATOM      1  C   UNL     1      13.047  22.570  29.959  1.00  0.00     0.032 C 
ENDROOT
BRANCH   1   2
ATOM      2  C   UNL     1      11.700  22.530  29.275  1.00  0.00    -0.028 C 
ATOM      3  C   UNL     1      11.486  22.805  27.968  1.00  0.00    -0.077 C 
ATOM      4  C   UNL     1      10.083  22.684  27.434  1.00  0.00     0.039 C 
BRANCH   3   5
ATOM      5  C   UNL     1      12.580  23.293  27.037  1.00  0.00     0.034 C 
BRANCH   5   6
ATOM      6  C   UNL     1      12.769  22.319  25.870  1.00  0.00     0.032 C 
BRANCH   6   7
ATOM      7  C   UNL     1      13.743  21.222  26.224  1.00  0.00    -0.028 C 
ATOM      8  C   UNL     1      11.903  19.560  26.516  1.00  0.00     0.039 C 
ATOM      9  C   UNL     1      13.358  19.962  26.520  1.00  0.00    -0.080 C 
ATOM     10  C   UNL     1      14.414  18.943  26.861  1.00  0.00     0.039 C 
ENDBRANCH   6   7
ENDBRANCH   5   6
ENDBRANCH   3   5
ENDBRANCH   1   2
BRANCH   1  11
ATOM     11  C   UNL     1      13.718  21.189  29.980  1.00  0.00     0.034 C 
BRANCH  11  12
ATOM     12  C   UNL     1      15.214  21.290  30.224  1.00  0.00    -0.075 C 
ATOM     13  C   UNL     1      15.751  21.351  31.464  1.00  0.00    -0.000 C 
ATOM     14  C   UNL     1      16.147  21.288  29.040  1.00  0.00     0.039 C 
BRANCH  13  15
ATOM     15  C   UNL     1      14.951  21.395  32.740  1.00  0.00     0.183 C 
BRANCH  15  16
ATOM     16  O   UNL     1      14.581  22.712  33.044  1.00  0.00    -0.392 OA
ATOM     17  H   UNL     1      14.285  23.128  32.192  1.00  0.00     0.210 HD
ENDBRANCH  15  16
ENDBRANCH  13  15
ENDBRANCH  11  12
ENDBRANCH   1  11
TORSDOF 8
ENDMDL
