MODEL 1
REMARK VINA RESULT:    -5.053      0.000      0.000
REMARK INTER + INTRA:          -5.053
REMARK INTER:                  -5.053
REMARK INTRA:                   0.000
REMARK UNBOUND:                 0.000
REMARK SMILES CC(C)=C1CC[C@@H](C)CC1=O
REMARK SMILES IDX 8 1 7 2 6 3 5 4 4 5 2 6 1 7 3 8 10 9 11 10 9 11
REMARK H PARENT
REMARK Flexibility Score: inf
ROOT
ATOM      1  C   UNL     1      11.989 -27.604  24.966  1.00  0.00     0.008 C 
ATOM      2  C   UNL     1      12.326 -28.988  24.401  1.00  0.00    -0.006 C 
ATOM      3  C   UNL     1      13.845 -29.142  24.218  1.00  0.00     0.008 C 
ATOM      4  C   UNL     1      14.209 -30.557  23.749  1.00  0.00     0.039 C 
ATOM      5  C   UNL     1      13.425 -30.983  22.515  1.00  0.00    -0.006 C 
ATOM      6  C   UNL     1      13.968 -31.824  21.586  1.00  0.00    -0.070 C 
ATOM      7  C   UNL     1      13.221 -32.209  20.330  1.00  0.00     0.039 C 
ATOM      8  C   UNL     1      15.363 -32.381  21.753  1.00  0.00     0.039 C 
ATOM      9  C   UNL     1      12.006 -30.524  22.449  1.00  0.00     0.159 C 
ATOM     10  O   UNL     1      11.117 -31.221  21.890  1.00  0.00    -0.295 OA
ATOM     11  C   UNL     1      11.611 -29.210  23.060  1.00  0.00     0.084 C 
ENDROOT
TORSDOF 0
ENDMDL
MODEL 2
REMARK VINA RESULT:    -5.022      2.484      3.651
REMARK INTER + INTRA:          -5.022
REMARK INTER:                  -5.022
REMARK INTRA:                   0.000
REMARK UNBOUND:                 0.000
REMARK SMILES CC(C)=C1CC[C@@H](C)CC1=O
REMARK SMILES IDX 8 1 7 2 6 3 5 4 4 5 2 6 1 7 3 8 10 9 11 10 9 11
REMARK H PARENT
REMARK Flexibility Score: inf
ROOT
ATOM      1  C   UNL     1      12.470 -30.135  22.893  1.00  0.00     0.008 C 
ATOM      2  C   UNL     1      13.041 -31.557  22.939  1.00  0.00    -0.006 C 
ATOM      3  C   UNL     1      13.919 -31.747  24.187  1.00  0.00     0.008 C 
ATOM      4  C   UNL     1      14.416 -33.195  24.302  1.00  0.00     0.039 C 
ATOM      5  C   UNL     1      15.094 -33.682  23.030  1.00  0.00    -0.006 C 
ATOM      6  C   UNL     1      16.115 -34.588  23.073  1.00  0.00    -0.070 C 
ATOM      7  C   UNL     1      16.834 -35.037  21.821  1.00  0.00     0.039 C 
ATOM      8  C   UNL     1      16.603 -35.158  24.386  1.00  0.00     0.039 C 
ATOM      9  C   UNL     1      14.501 -33.204  21.745  1.00  0.00     0.159 C 
ATOM     10  O   UNL     1      14.521 -33.919  20.708  1.00  0.00    -0.295 OA
ATOM     11  C   UNL     1      13.859 -31.848  21.673  1.00  0.00     0.084 C 
ENDROOT
TORSDOF 0
ENDMDL
MODEL 3
REMARK VINA RESULT:    -5.010      2.165      3.193
REMARK INTER + INTRA:          -5.010
REMARK INTER:                  -5.010
REMARK INTRA:                   0.000
REMARK UNBOUND:                 0.000
REMARK SMILES CC(C)=C1CC[C@@H](C)CC1=O
REMARK SMILES IDX 8 1 7 2 6 3 5 4 4 5 2 6 1 7 3 8 10 9 11 10 9 11
REMARK H PARENT
REMARK Flexibility Score: inf
ROOT
ATOM      1  C   UNL     1      12.430 -29.366  24.156  1.00  0.00     0.008 C 
ATOM      2  C   UNL     1      13.412 -30.204  23.331  1.00  0.00    -0.006 C 
ATOM      3  C   UNL     1      12.680 -30.920  22.184  1.00  0.00     0.008 C 
ATOM      4  C   UNL     1      13.664 -31.684  21.286  1.00  0.00     0.039 C 
ATOM      5  C   UNL     1      14.570 -32.618  22.075  1.00  0.00    -0.006 C 
ATOM      6  C   UNL     1      15.025 -33.787  21.536  1.00  0.00    -0.070 C 
ATOM      7  C   UNL     1      15.880 -34.750  22.328  1.00  0.00     0.039 C 
ATOM      8  C   UNL     1      14.661 -34.195  20.126  1.00  0.00     0.039 C 
ATOM      9  C   UNL     1      15.019 -32.124  23.411  1.00  0.00     0.159 C 
ATOM     10  O   UNL     1      16.146 -32.434  23.879  1.00  0.00    -0.295 OA
ATOM     11  C   UNL     1      14.123 -31.233  24.222  1.00  0.00     0.084 C 
ENDROOT
TORSDOF 0
ENDMDL
MODEL 4
REMARK VINA RESULT:    -4.939      8.768      9.825
REMARK INTER + INTRA:          -4.939
REMARK INTER:                  -4.939
REMARK INTRA:                   0.000
REMARK UNBOUND:                 0.000
REMARK SMILES CC(C)=C1CC[C@@H](C)CC1=O
REMARK SMILES IDX 8 1 7 2 6 3 5 4 4 5 2 6 1 7 3 8 10 9 11 10 9 11
REMARK H PARENT
REMARK Flexibility Score: inf
ROOT
ATOM      1  C   UNL     1      23.955 -24.425  19.844  1.00  0.00     0.008 C 
ATOM      2  C   UNL     1      23.168 -25.507  20.593  1.00  0.00    -0.006 C 
ATOM      3  C   UNL     1      23.543 -26.905  20.075  1.00  0.00     0.008 C 
ATOM      4  C   UNL     1      22.841 -28.005  20.882  1.00  0.00     0.039 C 
ATOM      5  C   UNL     1      21.335 -27.797  20.967  1.00  0.00    -0.006 C 
ATOM      6  C   UNL     1      20.476 -28.856  21.035  1.00  0.00    -0.070 C 
ATOM      7  C   UNL     1      18.977 -28.664  21.063  1.00  0.00     0.039 C 
ATOM      8  C   UNL     1      20.985 -30.279  21.047  1.00  0.00     0.039 C 
ATOM      9  C   UNL     1      20.875 -26.382  21.088  1.00  0.00     0.159 C 
ATOM     10  O   UNL     1      19.835 -26.084  21.734  1.00  0.00    -0.295 OA
ATOM     11  C   UNL     1      21.658 -25.277  20.438  1.00  0.00     0.084 C 
ENDROOT
TORSDOF 0
ENDMDL
MODEL 5
REMARK VINA RESULT:    -4.928      3.267      6.528
REMARK INTER + INTRA:          -4.928
REMARK INTER:                  -4.928
REMARK INTRA:                   0.000
REMARK UNBOUND:                 0.000
REMARK SMILES CC(C)=C1CC[C@@H](C)CC1=O
REMARK SMILES IDX 8 1 7 2 6 3 5 4 4 5 2 6 1 7 3 8 10 9 11 10 9 11
REMARK H PARENT
REMARK Flexibility Score: inf
ROOT
ATOM      1  C   UNL     1      18.122 -36.660  20.323  1.00  0.00     0.008 C 
ATOM      2  C   UNL     1      16.804 -35.992  20.728  1.00  0.00    -0.006 C 
ATOM      3  C   UNL     1      16.371 -34.962  19.671  1.00  0.00     0.008 C 
ATOM      4  C   UNL     1      15.002 -34.357  20.010  1.00  0.00     0.039 C 
ATOM      5  C   UNL     1      14.944 -33.801  21.426  1.00  0.00    -0.006 C 
ATOM      6  C   UNL     1      14.165 -32.722  21.733  1.00  0.00    -0.070 C 
ATOM      7  C   UNL     1      14.142 -32.127  23.122  1.00  0.00     0.039 C 
ATOM      8  C   UNL     1      13.314 -32.046  20.682  1.00  0.00     0.039 C 
ATOM      9  C   UNL     1      15.690 -34.572  22.465  1.00  0.00     0.159 C 
ATOM     10  O   UNL     1      15.286 -34.625  23.657  1.00  0.00    -0.295 OA
ATOM     11  C   UNL     1      16.945 -35.310  22.097  1.00  0.00     0.084 C 
ENDROOT
TORSDOF 0
ENDMDL
MODEL 6
REMARK VINA RESULT:    -4.826      1.637      4.431
REMARK INTER + INTRA:          -4.826
REMARK INTER:                  -4.826
REMARK INTRA:                   0.000
REMARK UNBOUND:                 0.000
REMARK SMILES CC(C)=C1CC[C@@H](C)CC1=O
REMARK SMILES IDX 8 1 7 2 6 3 5 4 4 5 2 6 1 7 3 8 10 9 11 10 9 11
REMARK H PARENT
REMARK Flexibility Score: inf
ROOT
ATOM      1  C   UNL     1      17.092 -34.541  22.675  1.00  0.00     0.008 C 
ATOM      2  C   UNL     1      16.245 -33.284  22.452  1.00  0.00    -0.006 C 
ATOM      3  C   UNL     1      15.932 -32.597  23.791  1.00  0.00     0.008 C 
ATOM      4  C   UNL     1      15.171 -31.282  23.579  1.00  0.00     0.039 C 
ATOM      5  C   UNL     1      13.934 -31.456  22.709  1.00  0.00    -0.006 C 
ATOM      6  C   UNL     1      12.824 -30.683  22.892  1.00  0.00    -0.070 C 
ATOM      7  C   UNL     1      11.570 -30.884  22.071  1.00  0.00     0.039 C 
ATOM      8  C   UNL     1      12.782 -29.609  23.955  1.00  0.00     0.039 C 
ATOM      9  C   UNL     1      14.057 -32.430  21.583  1.00  0.00     0.159 C 
ATOM     10  O   UNL     1      13.434 -32.262  20.501  1.00  0.00    -0.295 OA
ATOM     11  C   UNL     1      14.939 -33.637  21.726  1.00  0.00     0.084 C 
ENDROOT
TORSDOF 0
ENDMDL
MODEL 7
REMARK VINA RESULT:    -4.818      1.983      3.189
REMARK INTER + INTRA:          -4.818
REMARK INTER:                  -4.818
REMARK INTRA:                   0.000
REMARK UNBOUND:                 0.000
REMARK SMILES CC(C)=C1CC[C@@H](C)CC1=O
REMARK SMILES IDX 8 1 7 2 6 3 5 4 4 5 2 6 1 7 3 8 10 9 11 10 9 11
REMARK H PARENT
REMARK Flexibility Score: inf
ROOT
ATOM      1  C   UNL     1      10.997 -30.509  21.983  1.00  0.00     0.008 C 
ATOM      2  C   UNL     1      12.270 -31.199  22.485  1.00  0.00    -0.006 C 
ATOM      3  C   UNL     1      13.116 -30.229  23.326  1.00  0.00     0.008 C 
ATOM      4  C   UNL     1      14.344 -30.932  23.920  1.00  0.00     0.039 C 
ATOM      5  C   UNL     1      15.166 -31.663  22.867  1.00  0.00    -0.006 C 
ATOM      6  C   UNL     1      16.520 -31.790  22.987  1.00  0.00    -0.070 C 
ATOM      7  C   UNL     1      17.353 -32.464  21.921  1.00  0.00     0.039 C 
ATOM      8  C   UNL     1      17.258 -31.226  24.179  1.00  0.00     0.039 C 
ATOM      9  C   UNL     1      14.392 -32.323  21.774  1.00  0.00     0.159 C 
ATOM     10  O   UNL     1      14.801 -33.384  21.231  1.00  0.00    -0.295 OA
ATOM     11  C   UNL     1      13.097 -31.727  21.303  1.00  0.00     0.084 C 
ENDROOT
TORSDOF 0
ENDMDL
MODEL 8
REMARK VINA RESULT:    -4.755      4.221      7.468
REMARK INTER + INTRA:          -4.755
REMARK INTER:                  -4.755
REMARK INTRA:                   0.000
REMARK UNBOUND:                 0.000
REMARK SMILES CC(C)=C1CC[C@@H](C)CC1=O
REMARK SMILES IDX 8 1 7 2 6 3 5 4 4 5 2 6 1 7 3 8 10 9 11 10 9 11
REMARK H PARENT
REMARK Flexibility Score: inf
ROOT
ATOM      1  C   UNL     1      17.781 -38.008  19.432  1.00  0.00     0.008 C 
ATOM      2  C   UNL     1      17.506 -36.503  19.342  1.00  0.00    -0.006 C 
ATOM      3  C   UNL     1      18.718 -35.701  19.844  1.00  0.00     0.008 C 
ATOM      4  C   UNL     1      18.500 -34.192  19.668  1.00  0.00     0.039 C 
ATOM      5  C   UNL     1      17.190 -33.715  20.278  1.00  0.00    -0.006 C 
ATOM      6  C   UNL     1      17.068 -32.463  20.807  1.00  0.00    -0.070 C 
ATOM      7  C   UNL     1      15.790 -31.997  21.466  1.00  0.00     0.039 C 
ATOM      8  C   UNL     1      18.225 -31.489  20.792  1.00  0.00     0.039 C 
ATOM      9  C   UNL     1      16.031 -34.650  20.156  1.00  0.00     0.159 C 
ATOM     10  O   UNL     1      14.852 -34.220  20.045  1.00  0.00    -0.295 OA
ATOM     11  C   UNL     1      16.259 -36.134  20.158  1.00  0.00     0.084 C 
ENDROOT
TORSDOF 0
ENDMDL
MODEL 9
REMARK VINA RESULT:    -4.676     10.461     11.696
REMARK INTER + INTRA:          -4.676
REMARK INTER:                  -4.676
REMARK INTRA:                   0.000
REMARK UNBOUND:                 0.000
REMARK SMILES CC(C)=C1CC[C@@H](C)CC1=O
REMARK SMILES IDX 8 1 7 2 6 3 5 4 4 5 2 6 1 7 3 8 10 9 11 10 9 11
REMARK H PARENT
REMARK Flexibility Score: inf
ROOT
ATOM      1  C   UNL     1      21.360 -28.901  21.340  1.00  0.00     0.008 C 
ATOM      2  C   UNL     1      21.634 -27.425  21.033  1.00  0.00    -0.006 C 
ATOM      3  C   UNL     1      22.878 -27.280  20.141  1.00  0.00     0.008 C 
ATOM      4  C   UNL     1      23.109 -25.817  19.740  1.00  0.00     0.039 C 
ATOM      5  C   UNL     1      23.137 -24.880  20.939  1.00  0.00    -0.006 C 
ATOM      6  C   UNL     1      23.910 -23.755  20.942  1.00  0.00    -0.070 C 
ATOM      7  C   UNL     1      23.990 -22.847  22.148  1.00  0.00     0.039 C 
ATOM      8  C   UNL     1      24.759 -23.383  19.747  1.00  0.00     0.039 C 
ATOM      9  C   UNL     1      22.188 -25.203  22.046  1.00  0.00     0.159 C 
ATOM     10  O   UNL     1      21.671 -24.296  22.752  1.00  0.00    -0.295 OA
ATOM     11  C   UNL     1      21.826 -26.632  22.333  1.00  0.00     0.084 C 
ENDROOT
TORSDOF 0
ENDMDL
