MODEL 1
REMARK VINA RESULT:    -2.722      0.000      0.000
REMARK INTER + INTRA:          -3.233
REMARK INTER:                  -3.199
REMARK INTRA:                  -0.034
REMARK UNBOUND:                -0.034
REMARK SMILES CCCCC(=O)[O-]
REMARK SMILES IDX 4 1 5 2 6 3 7 4 3 5 2 6 1 7
REMARK H PARENT
REMARK Flexibility Score: inf
ROOT
ATOM      1  C   UNL     1     124.594  55.975  43.735  1.00  0.00     0.053 C 
ENDROOT
BRANCH   1   2
ATOM      2  C   UNL     1     124.683  57.209  44.579  1.00  0.00     0.041 C 
ATOM      3  O   UNL     1     124.025  57.295  45.649  1.00  0.00    -0.550 OA
ATOM      4  O   UNL     1     125.471  58.277  44.167  1.00  0.00    -0.550 OA
ENDBRANCH   1   2
BRANCH   1   5
ATOM      5  C   UNL     1     125.922  55.673  43.027  1.00  0.00     0.006 C 
BRANCH   5   6
ATOM      6  C   UNL     1     126.525  54.332  43.471  1.00  0.00    -0.003 C 
ATOM      7  C   UNL     1     125.554  53.182  43.221  1.00  0.00     0.004 C 
ENDBRANCH   5   6
ENDBRANCH   1   5
TORSDOF 3
ENDMDL
MODEL 2
REMARK VINA RESULT:    -2.669     13.333     13.983
REMARK INTER + INTRA:          -3.171
REMARK INTER:                  -3.124
REMARK INTRA:                  -0.047
REMARK UNBOUND:                -0.034
REMARK SMILES CCCCC(=O)[O-]
REMARK SMILES IDX 4 1 5 2 6 3 7 4 3 5 2 6 1 7
REMARK H PARENT
REMARK Flexibility Score: inf
ROOT
ATOM      1  C   UNL     1     116.530  51.871  54.340  1.00  0.00     0.053 C 
ENDROOT
BRANCH   1   2
ATOM      2  C   UNL     1     115.561  52.237  53.257  1.00  0.00     0.041 C 
ATOM      3  O   UNL     1     115.134  51.357  52.464  1.00  0.00    -0.550 OA
ATOM      4  O   UNL     1     115.155  53.557  53.105  1.00  0.00    -0.550 OA
ENDBRANCH   1   2
BRANCH   1   5
ATOM      5  C   UNL     1     117.053  53.111  55.077  1.00  0.00     0.006 C 
BRANCH   5   6
ATOM      6  C   UNL     1     118.503  53.443  54.700  1.00  0.00    -0.003 C 
ATOM      7  C   UNL     1     119.200  54.213  55.819  1.00  0.00     0.004 C 
ENDBRANCH   5   6
ENDBRANCH   1   5
TORSDOF 3
ENDMDL
MODEL 3
REMARK VINA RESULT:    -2.630      2.775      3.955
REMARK INTER + INTRA:          -3.126
REMARK INTER:                  -3.071
REMARK INTRA:                  -0.055
REMARK UNBOUND:                -0.034
REMARK SMILES CCCCC(=O)[O-]
REMARK SMILES IDX 4 1 5 2 6 3 7 4 3 5 2 6 1 7
REMARK H PARENT
REMARK Flexibility Score: inf
ROOT
ATOM      1  C   UNL     1     125.876  55.297  42.989  1.00  0.00     0.053 C 
ENDROOT
BRANCH   1   2
ATOM      2  C   UNL     1     126.094  53.904  43.497  1.00  0.00     0.041 C 
ATOM      3  O   UNL     1     126.895  53.694  44.446  1.00  0.00    -0.550 OA
ATOM      4  O   UNL     1     125.435  52.836  42.902  1.00  0.00    -0.550 OA
ENDBRANCH   1   2
BRANCH   1   5
ATOM      5  C   UNL     1     124.508  55.848  43.412  1.00  0.00     0.006 C 
BRANCH   5   6
ATOM      6  C   UNL     1     124.566  56.574  44.763  1.00  0.00    -0.003 C 
ATOM      7  C   UNL     1     124.839  58.064  44.575  1.00  0.00     0.004 C 
ENDBRANCH   5   6
ENDBRANCH   1   5
TORSDOF 3
ENDMDL
MODEL 4
REMARK VINA RESULT:    -2.620     12.371     13.247
REMARK INTER + INTRA:          -3.113
REMARK INTER:                  -3.025
REMARK INTRA:                  -0.088
REMARK UNBOUND:                -0.034
REMARK SMILES CCCCC(=O)[O-]
REMARK SMILES IDX 4 1 5 2 6 3 7 4 3 5 2 6 1 7
REMARK H PARENT
REMARK Flexibility Score: inf
ROOT
ATOM      1  C   UNL     1     118.044  52.409  54.206  1.00  0.00     0.053 C 
ENDROOT
BRANCH   1   2
ATOM      2  C   UNL     1     118.818  53.665  54.467  1.00  0.00     0.041 C 
ATOM      3  O   UNL     1     119.263  53.907  55.620  1.00  0.00    -0.550 OA
ATOM      4  O   UNL     1     119.021  54.581  53.443  1.00  0.00    -0.550 OA
ENDBRANCH   1   2
BRANCH   1   5
ATOM      5  C   UNL     1     116.578  52.546  54.639  1.00  0.00     0.006 C 
BRANCH   5   6
ATOM      6  C   UNL     1     115.604  52.309  53.476  1.00  0.00    -0.003 C 
ATOM      7  C   UNL     1     115.524  53.531  52.566  1.00  0.00     0.004 C 
ENDBRANCH   5   6
ENDBRANCH   1   5
TORSDOF 3
ENDMDL
MODEL 5
REMARK VINA RESULT:    -2.582      2.950      3.922
REMARK INTER + INTRA:          -3.068
REMARK INTER:                  -2.968
REMARK INTRA:                  -0.100
REMARK UNBOUND:                -0.034
REMARK SMILES CCCCC(=O)[O-]
REMARK SMILES IDX 4 1 5 2 6 3 7 4 3 5 2 6 1 7
REMARK H PARENT
REMARK Flexibility Score: inf
ROOT
ATOM      1  C   UNL     1     125.755  53.133  44.227  1.00  0.00     0.053 C 
ENDROOT
BRANCH   1   2
ATOM      2  C   UNL     1     125.983  52.919  45.692  1.00  0.00     0.041 C 
ATOM      3  O   UNL     1     125.688  53.823  46.518  1.00  0.00    -0.550 OA
ATOM      4  O   UNL     1     126.550  51.734  46.141  1.00  0.00    -0.550 OA
ENDBRANCH   1   2
BRANCH   1   5
ATOM      5  C   UNL     1     126.715  54.182  43.649  1.00  0.00     0.006 C 
BRANCH   5   6
ATOM      6  C   UNL     1     125.977  55.276  42.865  1.00  0.00    -0.003 C 
ATOM      7  C   UNL     1     124.941  55.976  43.739  1.00  0.00     0.004 C 
ENDBRANCH   5   6
ENDBRANCH   1   5
TORSDOF 3
ENDMDL
MODEL 6
REMARK VINA RESULT:    -2.561     12.577     13.306
REMARK INTER + INTRA:          -3.044
REMARK INTER:                  -2.988
REMARK INTRA:                  -0.056
REMARK UNBOUND:                -0.034
REMARK SMILES CCCCC(=O)[O-]
REMARK SMILES IDX 4 1 5 2 6 3 7 4 3 5 2 6 1 7
REMARK H PARENT
REMARK Flexibility Score: inf
ROOT
ATOM      1  C   UNL     1     115.516  53.523  52.625  1.00  0.00     0.053 C 
ENDROOT
BRANCH   1   2
ATOM      2  C   UNL     1     115.354  53.335  51.148  1.00  0.00     0.041 C 
ATOM      3  O   UNL     1     115.669  52.242  50.609  1.00  0.00    -0.550 OA
ATOM      4  O   UNL     1     114.882  54.380  50.363  1.00  0.00    -0.550 OA
ENDBRANCH   1   2
BRANCH   1   5
ATOM      5  C   UNL     1     115.574  52.179  53.365  1.00  0.00     0.006 C 
BRANCH   5   6
ATOM      6  C   UNL     1     116.451  52.246  54.623  1.00  0.00    -0.003 C 
ATOM      7  C   UNL     1     117.751  52.997  54.349  1.00  0.00     0.004 C 
ENDBRANCH   5   6
ENDBRANCH   1   5
TORSDOF 3
ENDMDL
MODEL 7
REMARK VINA RESULT:    -2.461     13.406     14.090
REMARK INTER + INTRA:          -2.927
REMARK INTER:                  -2.878
REMARK INTRA:                  -0.049
REMARK UNBOUND:                -0.034
REMARK SMILES CCCCC(=O)[O-]
REMARK SMILES IDX 4 1 5 2 6 3 7 4 3 5 2 6 1 7
REMARK H PARENT
REMARK Flexibility Score: inf
ROOT
ATOM      1  C   UNL     1     116.445  51.003  52.184  1.00  0.00     0.053 C 
ENDROOT
BRANCH   1   2
ATOM      2  C   UNL     1     115.968  49.728  51.558  1.00  0.00     0.041 C 
ATOM      3  O   UNL     1     114.771  49.616  51.182  1.00  0.00    -0.550 OA
ATOM      4  O   UNL     1     116.838  48.655  51.418  1.00  0.00    -0.550 OA
ENDBRANCH   1   2
BRANCH   1   5
ATOM      5  C   UNL     1     115.292  51.989  52.416  1.00  0.00     0.006 C 
BRANCH   5   6
ATOM      6  C   UNL     1     115.551  52.914  53.614  1.00  0.00    -0.003 C 
ATOM      7  C   UNL     1     116.532  52.281  54.596  1.00  0.00     0.004 C 
ENDBRANCH   5   6
ENDBRANCH   1   5
TORSDOF 3
ENDMDL
MODEL 8
REMARK VINA RESULT:    -2.360      3.901      4.867
REMARK INTER + INTRA:          -2.808
REMARK INTER:                  -2.772
REMARK INTRA:                  -0.037
REMARK UNBOUND:                -0.034
REMARK SMILES CCCCC(=O)[O-]
REMARK SMILES IDX 4 1 5 2 6 3 7 4 3 5 2 6 1 7
REMARK H PARENT
REMARK Flexibility Score: inf
ROOT
ATOM      1  C   UNL     1     124.249  53.088  43.398  1.00  0.00     0.053 C 
ENDROOT
BRANCH   1   2
ATOM      2  C   UNL     1     123.888  51.667  43.089  1.00  0.00     0.041 C 
ATOM      3  O   UNL     1     124.320  51.117  42.041  1.00  0.00    -0.550 OA
ATOM      4  O   UNL     1     123.051  50.961  43.943  1.00  0.00    -0.550 OA
ENDBRANCH   1   2
BRANCH   1   5
ATOM      5  C   UNL     1     125.768  53.303  43.392  1.00  0.00     0.006 C 
BRANCH   5   6
ATOM      6  C   UNL     1     126.148  54.754  43.068  1.00  0.00    -0.003 C 
ATOM      7  C   UNL     1     125.024  55.715  43.445  1.00  0.00     0.004 C 
ENDBRANCH   5   6
ENDBRANCH   1   5
TORSDOF 3
ENDMDL
MODEL 9
REMARK VINA RESULT:    -2.354     11.447     12.375
REMARK INTER + INTRA:          -2.801
REMARK INTER:                  -2.741
REMARK INTRA:                  -0.060
REMARK UNBOUND:                -0.034
REMARK SMILES CCCCC(=O)[O-]
REMARK SMILES IDX 4 1 5 2 6 3 7 4 3 5 2 6 1 7
REMARK H PARENT
REMARK Flexibility Score: inf
ROOT
ATOM      1  C   UNL     1     117.429  53.367  52.128  1.00  0.00     0.053 C 
ENDROOT
BRANCH   1   2
ATOM      2  C   UNL     1     118.245  54.603  52.355  1.00  0.00     0.041 C 
ATOM      3  O   UNL     1     118.064  55.623  51.638  1.00  0.00    -0.550 OA
ATOM      4  O   UNL     1     119.227  54.617  53.338  1.00  0.00    -0.550 OA
ENDBRANCH   1   2
BRANCH   1   5
ATOM      5  C   UNL     1     115.924  53.666  52.164  1.00  0.00     0.006 C 
BRANCH   5   6
ATOM      6  C   UNL     1     115.250  53.107  53.424  1.00  0.00    -0.003 C 
ATOM      7  C   UNL     1     116.191  52.176  54.185  1.00  0.00     0.004 C 
ENDBRANCH   5   6
ENDBRANCH   1   5
TORSDOF 3
ENDMDL
