MODEL 1
REMARK VINA RESULT:    -4.290      0.000      0.000
REMARK INTER + INTRA:          -5.962
REMARK INTER:                  -5.795
REMARK INTRA:                  -0.167
REMARK UNBOUND:                -0.167
REMARK SMILES CCCCCCCC(=O)[O-]
REMARK SMILES IDX 5 1 6 2 7 3 8 4 9 5 10 6 4 7 3 8 2 9 1 10
REMARK H PARENT
REMARK Flexibility Score: inf
ROOT
ATOM      1  C   UNL     1     -18.499  -0.979  28.807  1.00  0.00     0.000 C 
ENDROOT
BRANCH   1   2
ATOM      2  C   UNL     1     -18.521   0.418  28.168  1.00  0.00     0.006 C 
BRANCH   2   3
ATOM      3  C   UNL     1     -19.149   0.371  26.772  1.00  0.00     0.053 C 
BRANCH   3   4
ATOM      4  C   UNL     1     -20.579   0.810  26.824  1.00  0.00     0.041 C 
ATOM      5  O   UNL     1     -21.021   1.404  27.843  1.00  0.00    -0.550 OA
ATOM      6  O   UNL     1     -21.409   0.607  25.731  1.00  0.00    -0.550 OA
ENDBRANCH   3   4
ENDBRANCH   2   3
ENDBRANCH   1   2
BRANCH   1   7
ATOM      7  C   UNL     1     -18.442  -0.927  30.342  1.00  0.00     0.000 C 
BRANCH   7   8
ATOM      8  C   UNL     1     -17.066  -1.326  30.898  1.00  0.00    -0.000 C 
BRANCH   8   9
ATOM      9  C   UNL     1     -17.046  -1.232  32.429  1.00  0.00    -0.003 C 
ATOM     10  C   UNL     1     -17.603  -2.502  33.065  1.00  0.00     0.004 C 
ENDBRANCH   8   9
ENDBRANCH   7   8
ENDBRANCH   1   7
TORSDOF 6
ENDMDL
MODEL 2
REMARK VINA RESULT:    -4.263      1.449      1.895
REMARK INTER + INTRA:          -5.925
REMARK INTER:                  -5.645
REMARK INTRA:                  -0.281
REMARK UNBOUND:                -0.167
REMARK SMILES CCCCCCCC(=O)[O-]
REMARK SMILES IDX 5 1 6 2 7 3 8 4 9 5 10 6 4 7 3 8 2 9 1 10
REMARK H PARENT
REMARK Flexibility Score: inf
ROOT
ATOM      1  C   UNL     1     -18.104  -2.077  29.249  1.00  0.00     0.000 C 
ENDROOT
BRANCH   1   2
ATOM      2  C   UNL     1     -18.407  -0.572  29.307  1.00  0.00     0.006 C 
BRANCH   2   3
ATOM      3  C   UNL     1     -19.454  -0.185  28.259  1.00  0.00     0.053 C 
BRANCH   3   4
ATOM      4  C   UNL     1     -18.948   0.932  27.401  1.00  0.00     0.041 C 
ATOM      5  O   UNL     1     -19.659   1.382  26.463  1.00  0.00    -0.550 OA
ATOM      6  O   UNL     1     -17.714   1.509  27.666  1.00  0.00    -0.550 OA
ENDBRANCH   3   4
ENDBRANCH   2   3
ENDBRANCH   1   2
BRANCH   1   7
ATOM      7  C   UNL     1     -17.325  -2.572  30.478  1.00  0.00     0.000 C 
BRANCH   7   8
ATOM      8  C   UNL     1     -16.624  -1.432  31.235  1.00  0.00    -0.000 C 
BRANCH   8   9
ATOM      9  C   UNL     1     -17.139  -1.334  32.675  1.00  0.00    -0.003 C 
ATOM     10  C   UNL     1     -17.485  -2.712  33.232  1.00  0.00     0.004 C 
ENDBRANCH   8   9
ENDBRANCH   7   8
ENDBRANCH   1   7
TORSDOF 6
ENDMDL
MODEL 3
REMARK VINA RESULT:    -4.244      3.519      5.751
REMARK INTER + INTRA:          -5.900
REMARK INTER:                  -5.672
REMARK INTRA:                  -0.228
REMARK UNBOUND:                -0.167
REMARK SMILES CCCCCCCC(=O)[O-]
REMARK SMILES IDX 5 1 6 2 7 3 8 4 9 5 10 6 4 7 3 8 2 9 1 10
REMARK H PARENT
REMARK Flexibility Score: inf
ROOT
ATOM      1  C   UNL     1     -18.768  -0.584  28.460  1.00  0.00     0.000 C 
ENDROOT
BRANCH   1   2
ATOM      2  C   UNL     1     -18.598  -0.667  29.984  1.00  0.00     0.006 C 
BRANCH   2   3
ATOM      3  C   UNL     1     -17.468  -1.632  30.356  1.00  0.00     0.053 C 
BRANCH   3   4
ATOM      4  C   UNL     1     -16.697  -1.111  31.528  1.00  0.00     0.041 C 
ATOM      5  O   UNL     1     -17.197  -1.153  32.683  1.00  0.00    -0.550 OA
ATOM      6  O   UNL     1     -15.409  -0.623  31.353  1.00  0.00    -0.550 OA
ENDBRANCH   3   4
ENDBRANCH   2   3
ENDBRANCH   1   2
BRANCH   1   7
ATOM      7  C   UNL     1     -18.636   0.852  27.927  1.00  0.00     0.000 C 
BRANCH   7   8
ATOM      8  C   UNL     1     -19.980   1.598  27.896  1.00  0.00    -0.000 C 
BRANCH   8   9
ATOM      9  C   UNL     1     -21.125   0.648  27.526  1.00  0.00    -0.003 C 
ATOM     10  C   UNL     1     -21.271   0.525  26.012  1.00  0.00     0.004 C 
ENDBRANCH   8   9
ENDBRANCH   7   8
ENDBRANCH   1   7
TORSDOF 6
ENDMDL
MODEL 4
REMARK VINA RESULT:    -4.129      3.391      5.615
REMARK INTER + INTRA:          -5.745
REMARK INTER:                  -5.442
REMARK INTRA:                  -0.303
REMARK UNBOUND:                -0.167
REMARK SMILES CCCCCCCC(=O)[O-]
REMARK SMILES IDX 5 1 6 2 7 3 8 4 9 5 10 6 4 7 3 8 2 9 1 10
REMARK H PARENT
REMARK Flexibility Score: inf
ROOT
ATOM      1  C   UNL     1     -18.463   0.264  28.340  1.00  0.00     0.000 C 
ENDROOT
BRANCH   1   2
ATOM      2  C   UNL     1     -18.238  -1.124  28.957  1.00  0.00     0.006 C 
BRANCH   2   3
ATOM      3  C   UNL     1     -18.197  -1.042  30.487  1.00  0.00     0.053 C 
BRANCH   3   4
ATOM      4  C   UNL     1     -16.941  -1.664  31.011  1.00  0.00     0.041 C 
ATOM      5  O   UNL     1     -16.007  -0.938  31.442  1.00  0.00    -0.550 OA
ATOM      6  O   UNL     1     -16.822  -3.047  31.070  1.00  0.00    -0.550 OA
ENDBRANCH   3   4
ENDBRANCH   2   3
ENDBRANCH   1   2
BRANCH   1   7
ATOM      7  C   UNL     1     -18.864   0.195  26.858  1.00  0.00     0.000 C 
BRANCH   7   8
ATOM      8  C   UNL     1     -20.074   1.084  26.529  1.00  0.00    -0.000 C 
BRANCH   8   9
ATOM      9  C   UNL     1     -20.936   1.317  27.776  1.00  0.00    -0.003 C 
ATOM     10  C   UNL     1     -22.242   0.533  27.696  1.00  0.00     0.004 C 
ENDBRANCH   8   9
ENDBRANCH   7   8
ENDBRANCH   1   7
TORSDOF 6
ENDMDL
MODEL 5
REMARK VINA RESULT:    -4.124      3.418      5.425
REMARK INTER + INTRA:          -5.738
REMARK INTER:                  -5.347
REMARK INTRA:                  -0.391
REMARK UNBOUND:                -0.167
REMARK SMILES CCCCCCCC(=O)[O-]
REMARK SMILES IDX 5 1 6 2 7 3 8 4 9 5 10 6 4 7 3 8 2 9 1 10
REMARK H PARENT
REMARK Flexibility Score: inf
ROOT
ATOM      1  C   UNL     1     -19.231  -1.921  29.991  1.00  0.00     0.000 C 
ENDROOT
BRANCH   1   2
ATOM      2  C   UNL     1     -17.835  -2.457  29.638  1.00  0.00     0.006 C 
BRANCH   2   3
ATOM      3  C   UNL     1     -17.024  -2.745  30.904  1.00  0.00     0.053 C 
BRANCH   3   4
ATOM      4  C   UNL     1     -16.651  -1.468  31.590  1.00  0.00     0.041 C 
ATOM      5  O   UNL     1     -15.775  -0.714  31.091  1.00  0.00    -0.550 OA
ATOM      6  O   UNL     1     -17.306  -1.087  32.754  1.00  0.00    -0.550 OA
ENDBRANCH   3   4
ENDBRANCH   2   3
ENDBRANCH   1   2
BRANCH   1   7
ATOM      7  C   UNL     1     -19.545  -0.585  29.298  1.00  0.00     0.000 C 
BRANCH   7   8
ATOM      8  C   UNL     1     -18.449  -0.159  28.308  1.00  0.00    -0.000 C 
BRANCH   8   9
ATOM      9  C   UNL     1     -18.840   1.132  27.580  1.00  0.00    -0.003 C 
ATOM     10  C   UNL     1     -20.252   1.571  27.960  1.00  0.00     0.004 C 
ENDBRANCH   8   9
ENDBRANCH   7   8
ENDBRANCH   1   7
TORSDOF 6
ENDMDL
MODEL 6
REMARK VINA RESULT:    -4.065     15.866     17.026
REMARK INTER + INTRA:          -5.658
REMARK INTER:                  -5.147
REMARK INTRA:                  -0.511
REMARK UNBOUND:                -0.167
REMARK SMILES CCCCCCCC(=O)[O-]
REMARK SMILES IDX 5 1 6 2 7 3 8 4 9 5 10 6 4 7 3 8 2 9 1 10
REMARK H PARENT
REMARK Flexibility Score: inf
ROOT
ATOM      1  C   UNL     1      -4.676   9.088  24.877  1.00  0.00     0.000 C 
ENDROOT
BRANCH   1   2
ATOM      2  C   UNL     1      -5.846   8.121  24.639  1.00  0.00     0.006 C 
BRANCH   2   3
ATOM      3  C   UNL     1      -6.742   8.033  25.878  1.00  0.00     0.053 C 
BRANCH   3   4
ATOM      4  C   UNL     1      -8.123   8.514  25.561  1.00  0.00     0.041 C 
ATOM      5  O   UNL     1      -8.355   9.099  24.471  1.00  0.00    -0.550 OA
ATOM      6  O   UNL     1      -9.164   8.275  26.448  1.00  0.00    -0.550 OA
ENDBRANCH   3   4
ENDBRANCH   2   3
ENDBRANCH   1   2
BRANCH   1   7
ATOM      7  C   UNL     1      -4.448  10.043  23.694  1.00  0.00     0.000 C 
BRANCH   7   8
ATOM      8  C   UNL     1      -5.492   9.867  22.580  1.00  0.00    -0.000 C 
BRANCH   8   9
ATOM      9  C   UNL     1      -6.184  11.197  22.263  1.00  0.00    -0.003 C 
ATOM     10  C   UNL     1      -6.485  11.979  23.539  1.00  0.00     0.004 C 
ENDBRANCH   8   9
ENDBRANCH   7   8
ENDBRANCH   1   7
TORSDOF 6
ENDMDL
MODEL 7
REMARK VINA RESULT:    -3.934     16.439     17.599
REMARK INTER + INTRA:          -5.481
REMARK INTER:                  -5.048
REMARK INTRA:                  -0.433
REMARK UNBOUND:                -0.167
REMARK SMILES CCCCCCCC(=O)[O-]
REMARK SMILES IDX 5 1 6 2 7 3 8 4 9 5 10 6 4 7 3 8 2 9 1 10
REMARK H PARENT
REMARK Flexibility Score: inf
ROOT
ATOM      1  C   UNL     1      -4.113   8.915  23.966  1.00  0.00     0.000 C 
ENDROOT
BRANCH   1   2
ATOM      2  C   UNL     1      -4.778   8.771  25.343  1.00  0.00     0.006 C 
BRANCH   2   3
ATOM      3  C   UNL     1      -6.063   7.943  25.245  1.00  0.00     0.053 C 
BRANCH   3   4
ATOM      4  C   UNL     1      -6.132   6.948  26.362  1.00  0.00     0.041 C 
ATOM      5  O   UNL     1      -6.938   7.120  27.314  1.00  0.00    -0.550 OA
ATOM      6  O   UNL     1      -5.341   5.807  26.327  1.00  0.00    -0.550 OA
ENDBRANCH   3   4
ENDBRANCH   2   3
ENDBRANCH   1   2
BRANCH   1   7
ATOM      7  C   UNL     1      -4.313  10.312  23.355  1.00  0.00     0.000 C 
BRANCH   7   8
ATOM      8  C   UNL     1      -5.273  10.301  22.155  1.00  0.00    -0.000 C 
BRANCH   8   9
ATOM      9  C   UNL     1      -6.608  10.962  22.517  1.00  0.00    -0.003 C 
ATOM     10  C   UNL     1      -6.418  12.040  23.581  1.00  0.00     0.004 C 
ENDBRANCH   8   9
ENDBRANCH   7   8
ENDBRANCH   1   7
TORSDOF 6
ENDMDL
MODEL 8
REMARK VINA RESULT:    -3.889     15.745     16.926
REMARK INTER + INTRA:          -5.420
REMARK INTER:                  -4.960
REMARK INTRA:                  -0.460
REMARK UNBOUND:                -0.167
REMARK SMILES CCCCCCCC(=O)[O-]
REMARK SMILES IDX 5 1 6 2 7 3 8 4 9 5 10 6 4 7 3 8 2 9 1 10
REMARK H PARENT
REMARK Flexibility Score: inf
ROOT
ATOM      1  C   UNL     1      -7.844   9.019  24.871  1.00  0.00     0.000 C 
ENDROOT
BRANCH   1   2
ATOM      2  C   UNL     1      -6.564   8.692  25.655  1.00  0.00     0.006 C 
BRANCH   2   3
ATOM      3  C   UNL     1      -6.014   7.319  25.256  1.00  0.00     0.053 C 
BRANCH   3   4
ATOM      4  C   UNL     1      -5.687   6.511  26.472  1.00  0.00     0.041 C 
ATOM      5  O   UNL     1      -5.203   5.355  26.353  1.00  0.00    -0.550 OA
ATOM      6  O   UNL     1      -5.870   7.053  27.737  1.00  0.00    -0.550 OA
ENDBRANCH   3   4
ENDBRANCH   2   3
ENDBRANCH   1   2
BRANCH   1   7
ATOM      7  C   UNL     1      -7.576   9.267  23.378  1.00  0.00     0.000 C 
BRANCH   7   8
ATOM      8  C   UNL     1      -6.709  10.511  23.130  1.00  0.00    -0.000 C 
BRANCH   8   9
ATOM      9  C   UNL     1      -5.430  10.144  22.367  1.00  0.00    -0.003 C 
ATOM     10  C   UNL     1      -4.193  10.353  23.235  1.00  0.00     0.004 C 
ENDBRANCH   8   9
ENDBRANCH   7   8
ENDBRANCH   1   7
TORSDOF 6
ENDMDL
MODEL 9
REMARK VINA RESULT:    -3.845     15.001     16.190
REMARK INTER + INTRA:          -5.360
REMARK INTER:                  -4.993
REMARK INTRA:                  -0.367
REMARK UNBOUND:                -0.167
REMARK SMILES CCCCCCCC(=O)[O-]
REMARK SMILES IDX 5 1 6 2 7 3 8 4 9 5 10 6 4 7 3 8 2 9 1 10
REMARK H PARENT
REMARK Flexibility Score: inf
ROOT
ATOM      1  C   UNL     1      -5.703   5.534  31.115  1.00  0.00     0.000 C 
ENDROOT
BRANCH   1   2
ATOM      2  C   UNL     1      -5.232   4.160  31.615  1.00  0.00     0.006 C 
BRANCH   2   3
ATOM      3  C   UNL     1      -4.007   4.299  32.524  1.00  0.00     0.053 C 
BRANCH   3   4
ATOM      4  C   UNL     1      -4.418   4.283  33.963  1.00  0.00     0.041 C 
ATOM      5  O   UNL     1      -4.566   5.363  34.591  1.00  0.00    -0.550 OA
ATOM      6  O   UNL     1      -4.684   3.076  34.596  1.00  0.00    -0.550 OA
ENDBRANCH   3   4
ENDBRANCH   2   3
ENDBRANCH   1   2
BRANCH   1   7
ATOM      7  C   UNL     1      -4.536   6.448  30.708  1.00  0.00     0.000 C 
BRANCH   7   8
ATOM      8  C   UNL     1      -4.603   6.873  29.233  1.00  0.00    -0.000 C 
BRANCH   8   9
ATOM      9  C   UNL     1      -6.037   6.777  28.700  1.00  0.00    -0.003 C 
ATOM     10  C   UNL     1      -6.091   5.966  27.408  1.00  0.00     0.004 C 
ENDBRANCH   8   9
ENDBRANCH   7   8
ENDBRANCH   1   7
TORSDOF 6
ENDMDL
