MODEL 1
REMARK VINA RESULT:    -3.425      0.000      0.000
REMARK INTER + INTRA:          -4.251
REMARK INTER:                  -4.126
REMARK INTRA:                  -0.125
REMARK UNBOUND:                -0.125
REMARK SMILES CC[C@H](C)[C@@H]([NH3+])C(=O)[O-]
REMARK SMILES IDX 3 1 4 2 5 3 6 4 7 8 8 9 9 10 2 11 1 12
REMARK H PARENT 6 5 6 6 6 7
REMARK Flexibility Score: inf
ROOT
ATOM      1  C   UNL     1     164.829 177.739 167.749  1.00  0.00     0.050 C 
ATOM      2  C   UNL     1     165.256 176.453 167.012  1.00  0.00     0.014 C 
ENDROOT
BRANCH   1   3
ATOM      3  C   UNL     1     163.412 178.213 167.289  1.00  0.00     0.230 C 
BRANCH   3   4
ATOM      4  N   UNL     1     162.746 177.222 166.428  1.00  0.00    -0.350 N 
ATOM      5  H   UNL     1     162.934 177.422 165.418  1.00  0.00     0.345 HD
ATOM      6  H   UNL     1     161.715 177.225 166.603  1.00  0.00     0.345 HD
ATOM      7  H   UNL     1     163.090 176.259 166.652  1.00  0.00     0.345 HD
ENDBRANCH   3   4
BRANCH   3   8
ATOM      8  C   UNL     1     162.530 178.512 168.476  1.00  0.00     0.099 C 
ATOM      9  O   UNL     1     162.778 178.000 169.601  1.00  0.00    -0.544 OA
ATOM     10  O   UNL     1     161.434 179.352 168.333  1.00  0.00    -0.544 OA
ENDBRANCH   3   8
ENDBRANCH   1   3
BRANCH   1  11
ATOM     11  C   UNL     1     165.882 178.859 167.527  1.00  0.00     0.006 C 
ATOM     12  C   UNL     1     165.760 179.543 166.164  1.00  0.00     0.004 C 
ENDBRANCH   1  11
TORSDOF 4
ENDMDL
MODEL 2
REMARK VINA RESULT:    -3.332      2.573      3.605
REMARK INTER + INTRA:          -4.139
REMARK INTER:                  -4.181
REMARK INTRA:                   0.042
REMARK UNBOUND:                -0.125
REMARK SMILES CC[C@H](C)[C@@H]([NH3+])C(=O)[O-]
REMARK SMILES IDX 3 1 4 2 5 3 6 4 7 8 8 9 9 10 2 11 1 12
REMARK H PARENT 6 5 6 6 6 7
REMARK Flexibility Score: inf
ROOT
ATOM      1  C   UNL     1     164.117 179.184 167.855  1.00  0.00     0.050 C 
ATOM      2  C   UNL     1     162.973 179.873 167.082  1.00  0.00     0.014 C 
ENDROOT
BRANCH   1   3
ATOM      3  C   UNL     1     165.139 178.515 166.880  1.00  0.00     0.230 C 
BRANCH   3   4
ATOM      4  N   UNL     1     166.518 178.575 167.391  1.00  0.00    -0.350 N 
ATOM      5  H   UNL     1     167.069 177.745 167.069  1.00  0.00     0.345 HD
ATOM      6  H   UNL     1     166.516 178.615 168.435  1.00  0.00     0.345 HD
ATOM      7  H   UNL     1     166.990 179.447 167.054  1.00  0.00     0.345 HD
ENDBRANCH   3   4
BRANCH   3   8
ATOM      8  C   UNL     1     164.771 177.075 166.616  1.00  0.00     0.099 C 
ATOM      9  O   UNL     1     165.444 176.140 167.126  1.00  0.00    -0.544 OA
ATOM     10  O   UNL     1     163.686 176.773 165.803  1.00  0.00    -0.544 OA
ENDBRANCH   3   8
ENDBRANCH   1   3
BRANCH   1  11
ATOM     11  C   UNL     1     163.541 178.140 168.849  1.00  0.00     0.006 C 
ATOM     12  C   UNL     1     162.063 178.366 169.174  1.00  0.00     0.004 C 
ENDBRANCH   1  11
TORSDOF 4
ENDMDL
MODEL 3
REMARK VINA RESULT:    -3.261      2.524      3.430
REMARK INTER + INTRA:          -4.054
REMARK INTER:                  -4.062
REMARK INTRA:                   0.008
REMARK UNBOUND:                -0.125
REMARK SMILES CC[C@H](C)[C@@H]([NH3+])C(=O)[O-]
REMARK SMILES IDX 3 1 4 2 5 3 6 4 7 8 8 9 9 10 2 11 1 12
REMARK H PARENT 6 5 6 6 6 7
REMARK Flexibility Score: inf
ROOT
ATOM      1  C   UNL     1     165.177 178.389 167.846  1.00  0.00     0.050 C 
ATOM      2  C   UNL     1     166.079 179.618 167.608  1.00  0.00     0.014 C 
ENDROOT
BRANCH   1   3
ATOM      3  C   UNL     1     165.371 177.316 166.725  1.00  0.00     0.230 C 
BRANCH   3   4
ATOM      4  N   UNL     1     165.293 175.943 167.250  1.00  0.00    -0.350 N 
ATOM      5  H   UNL     1     165.866 175.847 168.121  1.00  0.00     0.345 HD
ATOM      6  H   UNL     1     165.626 175.261 166.531  1.00  0.00     0.345 HD
ATOM      7  H   UNL     1     164.300 175.696 167.468  1.00  0.00     0.345 HD
ENDBRANCH   3   4
BRANCH   3   8
ATOM      8  C   UNL     1     164.349 177.487 165.629  1.00  0.00     0.099 C 
ATOM      9  O   UNL     1     164.495 178.381 164.753  1.00  0.00    -0.544 OA
ATOM     10  O   UNL     1     163.234 176.660 165.583  1.00  0.00    -0.544 OA
ENDBRANCH   3   8
ENDBRANCH   1   3
BRANCH   1  11
ATOM     11  C   UNL     1     163.689 178.825 167.936  1.00  0.00     0.006 C 
ATOM     12  C   UNL     1     162.942 178.187 169.110  1.00  0.00     0.004 C 
ENDBRANCH   1  11
TORSDOF 4
ENDMDL
MODEL 4
REMARK VINA RESULT:    -3.244      2.486      3.726
REMARK INTER + INTRA:          -4.033
REMARK INTER:                  -3.972
REMARK INTRA:                  -0.061
REMARK UNBOUND:                -0.125
REMARK SMILES CC[C@H](C)[C@@H]([NH3+])C(=O)[O-]
REMARK SMILES IDX 3 1 4 2 5 3 6 4 7 8 8 9 9 10 2 11 1 12
REMARK H PARENT 6 5 6 6 6 7
REMARK Flexibility Score: inf
ROOT
ATOM      1  C   UNL     1     163.309 178.519 168.045  1.00  0.00     0.050 C 
ATOM      2  C   UNL     1     162.411 178.049 166.882  1.00  0.00     0.014 C 
ENDROOT
BRANCH   1   3
ATOM      3  C   UNL     1     164.748 177.919 167.930  1.00  0.00     0.230 C 
BRANCH   3   4
ATOM      4  N   UNL     1     164.750 176.596 167.285  1.00  0.00    -0.350 N 
ATOM      5  H   UNL     1     164.406 175.862 167.947  1.00  0.00     0.345 HD
ATOM      6  H   UNL     1     165.712 176.354 166.958  1.00  0.00     0.345 HD
ATOM      7  H   UNL     1     164.134 176.605 166.439  1.00  0.00     0.345 HD
ENDBRANCH   3   4
BRANCH   3   8
ATOM      8  C   UNL     1     165.659 178.846 167.163  1.00  0.00     0.099 C 
ATOM      9  O   UNL     1     166.417 179.647 167.774  1.00  0.00    -0.544 OA
ATOM     10  O   UNL     1     165.666 178.822 165.775  1.00  0.00    -0.544 OA
ENDBRANCH   3   8
ENDBRANCH   1   3
BRANCH   1  11
ATOM     11  C   UNL     1     162.664 178.142 169.407  1.00  0.00     0.006 C 
ATOM     12  C   UNL     1     161.147 177.957 169.327  1.00  0.00     0.004 C 
ENDBRANCH   1  11
TORSDOF 4
ENDMDL
MODEL 5
REMARK VINA RESULT:    -3.123     10.376     11.614
REMARK INTER + INTRA:          -3.888
REMARK INTER:                  -3.836
REMARK INTRA:                  -0.052
REMARK UNBOUND:                -0.125
REMARK SMILES CC[C@H](C)[C@@H]([NH3+])C(=O)[O-]
REMARK SMILES IDX 3 1 4 2 5 3 6 4 7 8 8 9 9 10 2 11 1 12
REMARK H PARENT 6 5 6 6 6 7
REMARK Flexibility Score: inf
ROOT
ATOM      1  C   UNL     1     168.991 170.415 163.872  1.00  0.00     0.050 C 
ATOM      2  C   UNL     1     169.430 171.871 164.130  1.00  0.00     0.014 C 
ENDROOT
BRANCH   1   3
ATOM      3  C   UNL     1     170.138 169.586 163.207  1.00  0.00     0.230 C 
BRANCH   3   4
ATOM      4  N   UNL     1     171.451 169.870 163.809  1.00  0.00    -0.350 N 
ATOM      5  H   UNL     1     171.846 169.010 164.257  1.00  0.00     0.345 HD
ATOM      6  H   UNL     1     171.367 170.631 164.519  1.00  0.00     0.345 HD
ATOM      7  H   UNL     1     172.119 170.208 163.077  1.00  0.00     0.345 HD
ENDBRANCH   3   4
BRANCH   3   8
ATOM      8  C   UNL     1     169.859 168.106 163.300  1.00  0.00     0.099 C 
ATOM      9  O   UNL     1     169.227 167.636 164.283  1.00  0.00    -0.544 OA
ATOM     10  O   UNL     1     170.302 167.251 162.299  1.00  0.00    -0.544 OA
ENDBRANCH   3   8
ENDBRANCH   1   3
BRANCH   1  11
ATOM     11  C   UNL     1     167.712 170.387 162.992  1.00  0.00     0.006 C 
ATOM     12  C   UNL     1     166.430 170.661 163.781  1.00  0.00     0.004 C 
ENDBRANCH   1  11
TORSDOF 4
ENDMDL
MODEL 6
REMARK VINA RESULT:    -3.122     10.975     12.304
REMARK INTER + INTRA:          -3.887
REMARK INTER:                  -3.761
REMARK INTRA:                  -0.126
REMARK UNBOUND:                -0.125
REMARK SMILES CC[C@H](C)[C@@H]([NH3+])C(=O)[O-]
REMARK SMILES IDX 3 1 4 2 5 3 6 4 7 8 8 9 9 10 2 11 1 12
REMARK H PARENT 6 5 6 6 6 7
REMARK Flexibility Score: inf
ROOT
ATOM      1  C   UNL     1     170.361 170.084 163.736  1.00  0.00     0.050 C 
ATOM      2  C   UNL     1     171.587 170.957 164.075  1.00  0.00     0.014 C 
ENDROOT
BRANCH   1   3
ATOM      3  C   UNL     1     170.729 168.963 162.710  1.00  0.00     0.230 C 
BRANCH   3   4
ATOM      4  N   UNL     1     172.182 168.753 162.613  1.00  0.00    -0.350 N 
ATOM      5  H   UNL     1     172.580 168.478 163.542  1.00  0.00     0.345 HD
ATOM      6  H   UNL     1     172.652 169.621 162.270  1.00  0.00     0.345 HD
ATOM      7  H   UNL     1     172.393 167.998 161.918  1.00  0.00     0.345 HD
ENDBRANCH   3   4
BRANCH   3   8
ATOM      8  C   UNL     1     170.062 167.658 163.074  1.00  0.00     0.099 C 
ATOM      9  O   UNL     1     169.383 167.561 164.130  1.00  0.00    -0.544 OA
ATOM     10  O   UNL     1     170.198 166.554 162.243  1.00  0.00    -0.544 OA
ENDBRANCH   3   8
ENDBRANCH   1   3
BRANCH   1  11
ATOM     11  C   UNL     1     169.206 170.968 163.192  1.00  0.00     0.006 C 
ATOM     12  C   UNL     1     167.881 170.749 163.924  1.00  0.00     0.004 C 
ENDBRANCH   1  11
TORSDOF 4
ENDMDL
MODEL 7
REMARK VINA RESULT:    -2.956     10.347     11.406
REMARK INTER + INTRA:          -3.687
REMARK INTER:                  -3.549
REMARK INTRA:                  -0.138
REMARK UNBOUND:                -0.125
REMARK SMILES CC[C@H](C)[C@@H]([NH3+])C(=O)[O-]
REMARK SMILES IDX 3 1 4 2 5 3 6 4 7 8 8 9 9 10 2 11 1 12
REMARK H PARENT 6 5 6 6 6 7
REMARK Flexibility Score: inf
ROOT
ATOM      1  C   UNL     1     169.687 169.563 163.499  1.00  0.00     0.050 C 
ATOM      2  C   UNL     1     169.610 168.056 163.816  1.00  0.00     0.014 C 
ENDROOT
BRANCH   1   3
ATOM      3  C   UNL     1     171.150 170.098 163.631  1.00  0.00     0.230 C 
BRANCH   3   4
ATOM      4  N   UNL     1     172.119 169.248 162.919  1.00  0.00    -0.350 N 
ATOM      5  H   UNL     1     172.951 169.808 162.619  1.00  0.00     0.345 HD
ATOM      6  H   UNL     1     171.670 168.808 162.085  1.00  0.00     0.345 HD
ATOM      7  H   UNL     1     172.440 168.469 163.540  1.00  0.00     0.345 HD
ENDBRANCH   3   4
BRANCH   3   8
ATOM      8  C   UNL     1     171.258 171.512 163.115  1.00  0.00     0.099 C 
ATOM      9  O   UNL     1     171.856 172.394 163.788  1.00  0.00    -0.544 OA
ATOM     10  O   UNL     1     170.693 171.850 161.893  1.00  0.00    -0.544 OA
ENDBRANCH   3   8
ENDBRANCH   1   3
BRANCH   1  11
ATOM     11  C   UNL     1     168.727 170.357 164.428  1.00  0.00     0.006 C 
ATOM     12  C   UNL     1     167.450 170.819 163.724  1.00  0.00     0.004 C 
ENDBRANCH   1  11
TORSDOF 4
ENDMDL
MODEL 8
REMARK VINA RESULT:    -2.909      9.435     10.786
REMARK INTER + INTRA:          -3.630
REMARK INTER:                  -3.548
REMARK INTRA:                  -0.082
REMARK UNBOUND:                -0.125
REMARK SMILES CC[C@H](C)[C@@H]([NH3+])C(=O)[O-]
REMARK SMILES IDX 3 1 4 2 5 3 6 4 7 8 8 9 9 10 2 11 1 12
REMARK H PARENT 6 5 6 6 6 7
REMARK Flexibility Score: inf
ROOT
ATOM      1  C   UNL     1     169.723 169.700 163.392  1.00  0.00     0.050 C 
ATOM      2  C   UNL     1     171.161 170.156 163.713  1.00  0.00     0.014 C 
ENDROOT
BRANCH   1   3
ATOM      3  C   UNL     1     168.667 170.608 164.103  1.00  0.00     0.230 C 
BRANCH   3   4
ATOM      4  N   UNL     1     169.126 172.000 164.231  1.00  0.00    -0.350 N 
ATOM      5  H   UNL     1     170.029 172.141 163.720  1.00  0.00     0.345 HD
ATOM      6  H   UNL     1     169.249 172.250 165.238  1.00  0.00     0.345 HD
ATOM      7  H   UNL     1     168.410 172.655 163.840  1.00  0.00     0.345 HD
ENDBRANCH   3   4
BRANCH   3   8
ATOM      8  C   UNL     1     167.351 170.586 163.365  1.00  0.00     0.099 C 
ATOM      9  O   UNL     1     166.264 170.508 163.999  1.00  0.00    -0.544 OA
ATOM     10  O   UNL     1     167.331 170.649 161.978  1.00  0.00    -0.544 OA
ENDBRANCH   3   8
ENDBRANCH   1   3
BRANCH   1  11
ATOM     11  C   UNL     1     169.528 168.213 163.794  1.00  0.00     0.006 C 
ATOM     12  C   UNL     1     170.188 167.232 162.823  1.00  0.00     0.004 C 
ENDBRANCH   1  11
TORSDOF 4
ENDMDL
MODEL 9
REMARK VINA RESULT:    -2.887     11.012     12.358
REMARK INTER + INTRA:          -3.603
REMARK INTER:                  -3.513
REMARK INTRA:                  -0.090
REMARK UNBOUND:                -0.125
REMARK SMILES CC[C@H](C)[C@@H]([NH3+])C(=O)[O-]
REMARK SMILES IDX 3 1 4 2 5 3 6 4 7 8 8 9 9 10 2 11 1 12
REMARK H PARENT 6 5 6 6 6 7
REMARK Flexibility Score: inf
ROOT
ATOM      1  C   UNL     1     169.435 169.402 163.233  1.00  0.00     0.050 C 
ATOM      2  C   UNL     1     169.658 167.976 163.776  1.00  0.00     0.014 C 
ENDROOT
BRANCH   1   3
ATOM      3  C   UNL     1     170.794 170.118 162.941  1.00  0.00     0.230 C 
BRANCH   3   4
ATOM      4  N   UNL     1     171.589 170.322 164.163  1.00  0.00    -0.350 N 
ATOM      5  H   UNL     1     171.792 169.407 164.630  1.00  0.00     0.345 HD
ATOM      6  H   UNL     1     171.081 170.951 164.825  1.00  0.00     0.345 HD
ATOM      7  H   UNL     1     172.495 170.792 163.931  1.00  0.00     0.345 HD
ENDBRANCH   3   4
BRANCH   3   8
ATOM      8  C   UNL     1     171.612 169.337 161.942  1.00  0.00     0.099 C 
ATOM      9  O   UNL     1     171.159 169.101 160.790  1.00  0.00    -0.544 OA
ATOM     10  O   UNL     1     172.874 168.871 162.290  1.00  0.00    -0.544 OA
ENDBRANCH   3   8
ENDBRANCH   1   3
BRANCH   1  11
ATOM     11  C   UNL     1     168.582 170.230 164.232  1.00  0.00     0.006 C 
ATOM     12  C   UNL     1     167.300 170.791 163.613  1.00  0.00     0.004 C 
ENDBRANCH   1  11
TORSDOF 4
ENDMDL
