MODEL 1
REMARK VINA RESULT:    -7.201      0.000      0.000
REMARK INTER + INTRA:          -8.761
REMARK INTER:                  -8.885
REMARK INTRA:                   0.124
REMARK UNBOUND:                 0.124
REMARK SMILES O=c1c(O)c(-c2cc(O)c(O)c(O)c2)oc2cc(O)cc(O)c12
REMARK SMILES IDX 5 1 3 2 2 3 1 4 23 5 21 6 20 7 18 8 17 9 16 10 15 11 6 12
REMARK SMILES IDX 7 13 8 14 14 15 10 16 12 17 9 18 11 20 13 22 4 24 22 26
REMARK SMILES IDX 19 28
REMARK H PARENT 9 19 11 21 13 23 4 25 22 27 19 29
REMARK Flexibility Score: inf
ROOT
ATOM      1  C   UNL     1      -2.047 -18.693  15.304  1.00  0.00     0.180 A 
ATOM      2  C   UNL     1      -2.478 -18.221  14.051  1.00  0.00     0.208 A 
ATOM      3  C   UNL     1      -3.448 -17.208  14.002  1.00  0.00     0.238 A 
ATOM      4  O   UNL     1      -3.869 -16.829  12.878  1.00  0.00    -0.285 OA
ATOM      5  C   UNL     1      -3.963 -16.667  15.205  1.00  0.00     0.111 A 
ATOM      6  C   UNL     1      -4.919 -15.610  15.274  1.00  0.00     0.134 A 
ATOM      7  C   UNL     1      -5.455 -15.243  16.515  1.00  0.00     0.093 A 
ATOM      8  C   UNL     1      -5.021 -15.851  17.695  1.00  0.00     0.123 A 
ATOM      9  C   UNL     1      -4.045 -16.843  17.643  1.00  0.00     0.094 A 
ATOM     10  C   UNL     1      -3.518 -17.256  16.417  1.00  0.00     0.146 A 
ATOM     11  O   UNL     1      -2.597 -18.212  16.412  1.00  0.00    -0.452 OA
ENDROOT
BRANCH   1  12
ATOM     12  C   UNL     1      -1.010 -19.742  15.435  1.00  0.00     0.029 A 
ATOM     13  C   UNL     1      -0.012 -19.665  16.422  1.00  0.00     0.062 A 
ATOM     14  C   UNL     1       0.945 -20.680  16.546  1.00  0.00     0.162 A 
ATOM     15  C   UNL     1      -1.055 -20.867  14.596  1.00  0.00     0.062 A 
ATOM     16  C   UNL     1       0.908 -21.789  15.690  1.00  0.00     0.200 A 
ATOM     17  C   UNL     1      -0.098 -21.885  14.715  1.00  0.00     0.162 A 
BRANCH  14  18
ATOM     18  O   UNL     1       1.937 -20.597  17.522  1.00  0.00    -0.504 OA
ATOM     19  H   UNL     1       1.709 -20.512  18.506  1.00  0.00     0.293 HD
ENDBRANCH  14  18
BRANCH  16  20
ATOM     20  O   UNL     1       1.872 -22.788  15.827  1.00  0.00    -0.502 OA
ATOM     21  H   UNL     1       2.856 -22.614  15.660  1.00  0.00     0.293 HD
ENDBRANCH  16  20
BRANCH  17  22
ATOM     22  O   UNL     1      -0.145 -22.990  13.867  1.00  0.00    -0.504 OA
ATOM     23  H   UNL     1       0.700 -23.441  13.534  1.00  0.00     0.293 HD
ENDBRANCH  17  22
ENDBRANCH   1  12
BRANCH   2  24
ATOM     24  O   UNL     1      -1.972 -18.785  12.876  1.00  0.00    -0.502 OA
ATOM     25  H   UNL     1      -1.755 -19.772  12.797  1.00  0.00     0.293 HD
ENDBRANCH   2  24
BRANCH   6  26
ATOM     26  O   UNL     1      -5.351 -14.875  14.166  1.00  0.00    -0.507 OA
ATOM     27  H   UNL     1      -5.044 -15.030  13.218  1.00  0.00     0.293 HD
ENDBRANCH   6  26
BRANCH   8  28
ATOM     28  O   UNL     1      -5.549 -15.469  18.927  1.00  0.00    -0.508 OA
ATOM     29  H   UNL     1      -5.079 -14.794  19.518  1.00  0.00     0.293 HD
ENDBRANCH   8  28
TORSDOF 7
ENDMDL
MODEL 2
REMARK VINA RESULT:    -7.135      0.144      1.754
REMARK INTER + INTRA:          -8.679
REMARK INTER:                  -8.751
REMARK INTRA:                   0.072
REMARK UNBOUND:                 0.124
REMARK SMILES O=c1c(O)c(-c2cc(O)c(O)c(O)c2)oc2cc(O)cc(O)c12
REMARK SMILES IDX 5 1 3 2 2 3 1 4 23 5 21 6 20 7 18 8 17 9 16 10 15 11 6 12
REMARK SMILES IDX 7 13 8 14 14 15 10 16 12 17 9 18 11 20 13 22 4 24 22 26
REMARK SMILES IDX 19 28
REMARK H PARENT 9 19 11 21 13 23 4 25 22 27 19 29
REMARK Flexibility Score: inf
ROOT
ATOM      1  C   UNL     1      -2.054 -18.705  15.375  1.00  0.00     0.180 A 
ATOM      2  C   UNL     1      -2.438 -18.191  14.124  1.00  0.00     0.208 A 
ATOM      3  C   UNL     1      -3.415 -17.185  14.073  1.00  0.00     0.238 A 
ATOM      4  O   UNL     1      -3.794 -16.768  12.947  1.00  0.00    -0.285 OA
ATOM      5  C   UNL     1      -3.983 -16.693  15.272  1.00  0.00     0.111 A 
ATOM      6  C   UNL     1      -4.952 -15.647  15.341  1.00  0.00     0.134 A 
ATOM      7  C   UNL     1      -5.541 -15.331  16.572  1.00  0.00     0.093 A 
ATOM      8  C   UNL     1      -5.150 -15.979  17.745  1.00  0.00     0.123 A 
ATOM      9  C   UNL     1      -4.163 -16.961  17.697  1.00  0.00     0.094 A 
ATOM     10  C   UNL     1      -3.582 -17.323  16.479  1.00  0.00     0.146 A 
ATOM     11  O   UNL     1      -2.652 -18.271  16.477  1.00  0.00    -0.452 OA
ENDROOT
BRANCH   1  12
ATOM     12  C   UNL     1      -1.012 -19.750  15.510  1.00  0.00     0.029 A 
ATOM     13  C   UNL     1      -0.984 -20.870  14.661  1.00  0.00     0.062 A 
ATOM     14  C   UNL     1       0.023 -21.834  14.790  1.00  0.00     0.162 A 
ATOM     15  C   UNL     1       0.003 -19.593  16.467  1.00  0.00     0.062 A 
ATOM     16  C   UNL     1       1.020 -21.683  15.762  1.00  0.00     0.200 A 
ATOM     17  C   UNL     1       1.013 -20.556  16.601  1.00  0.00     0.162 A 
BRANCH  14  18
ATOM     18  O   UNL     1       0.043 -22.947  13.951  1.00  0.00    -0.504 OA
ATOM     19  H   UNL     1      -0.798 -23.288  13.499  1.00  0.00     0.293 HD
ENDBRANCH  14  18
BRANCH  16  20
ATOM     20  O   UNL     1       2.013 -22.656  15.877  1.00  0.00    -0.502 OA
ATOM     21  H   UNL     1       2.985 -22.419  16.042  1.00  0.00     0.293 HD
ENDBRANCH  16  20
BRANCH  17  22
ATOM     22  O   UNL     1       2.008 -20.397  17.565  1.00  0.00    -0.504 OA
ATOM     23  H   UNL     1       1.856 -19.840  18.398  1.00  0.00     0.293 HD
ENDBRANCH  17  22
ENDBRANCH   1  12
BRANCH   2  24
ATOM     24  O   UNL     1      -1.879 -18.707  12.951  1.00  0.00    -0.502 OA
ATOM     25  H   UNL     1      -0.953 -19.116  12.924  1.00  0.00     0.293 HD
ENDBRANCH   2  24
BRANCH   6  26
ATOM     26  O   UNL     1      -5.346 -14.875  14.244  1.00  0.00    -0.507 OA
ATOM     27  H   UNL     1      -4.920 -14.002  13.973  1.00  0.00     0.293 HD
ENDBRANCH   6  26
BRANCH   8  28
ATOM     28  O   UNL     1      -5.731 -15.648  18.968  1.00  0.00    -0.508 OA
ATOM     29  H   UNL     1      -6.248 -16.329  19.511  1.00  0.00     0.293 HD
ENDBRANCH   8  28
TORSDOF 7
ENDMDL
MODEL 3
REMARK VINA RESULT:    -6.724      3.077      4.825
REMARK INTER + INTRA:          -8.172
REMARK INTER:                  -8.015
REMARK INTRA:                  -0.157
REMARK UNBOUND:                 0.124
REMARK SMILES O=c1c(O)c(-c2cc(O)c(O)c(O)c2)oc2cc(O)cc(O)c12
REMARK SMILES IDX 5 1 3 2 2 3 1 4 23 5 21 6 20 7 18 8 17 9 16 10 15 11 6 12
REMARK SMILES IDX 7 13 8 14 14 15 10 16 12 17 9 18 11 20 13 22 4 24 22 26
REMARK SMILES IDX 19 28
REMARK H PARENT 9 19 11 21 13 23 4 25 22 27 19 29
REMARK Flexibility Score: inf
ROOT
ATOM      1  C   UNL     1       0.232 -19.518  15.066  1.00  0.00     0.180 A 
ATOM      2  C   UNL     1      -1.027 -18.950  14.807  1.00  0.00     0.208 A 
ATOM      3  C   UNL     1      -1.093 -17.631  14.328  1.00  0.00     0.238 A 
ATOM      4  O   UNL     1      -2.225 -17.110  14.150  1.00  0.00    -0.285 OA
ATOM      5  C   UNL     1       0.100 -16.905  14.098  1.00  0.00     0.111 A 
ATOM      6  C   UNL     1       0.153 -15.578  13.576  1.00  0.00     0.134 A 
ATOM      7  C   UNL     1       1.382 -14.909  13.513  1.00  0.00     0.093 A 
ATOM      8  C   UNL     1       2.567 -15.543  13.892  1.00  0.00     0.123 A 
ATOM      9  C   UNL     1       2.533 -16.859  14.348  1.00  0.00     0.094 A 
ATOM     10  C   UNL     1       1.318 -17.540  14.456  1.00  0.00     0.146 A 
ATOM     11  O   UNL     1       1.330 -18.790  14.904  1.00  0.00    -0.452 OA
ENDROOT
BRANCH   1  12
ATOM     12  C   UNL     1       0.382 -20.911  15.550  1.00  0.00     0.029 A 
ATOM     13  C   UNL     1      -0.117 -21.999  14.814  1.00  0.00     0.062 A 
ATOM     14  C   UNL     1       0.056 -23.310  15.276  1.00  0.00     0.162 A 
ATOM     15  C   UNL     1       1.087 -21.157  16.738  1.00  0.00     0.062 A 
ATOM     16  C   UNL     1       0.742 -23.546  16.474  1.00  0.00     0.200 A 
ATOM     17  C   UNL     1       1.263 -22.466  17.206  1.00  0.00     0.162 A 
BRANCH  14  18
ATOM     18  O   UNL     1      -0.446 -24.385  14.546  1.00  0.00    -0.504 OA
ATOM     19  H   UNL     1      -1.441 -24.570  14.488  1.00  0.00     0.293 HD
ENDBRANCH  14  18
BRANCH  16  20
ATOM     20  O   UNL     1       0.902 -24.858  16.920  1.00  0.00    -0.502 OA
ATOM     21  H   UNL     1       0.250 -25.293  17.563  1.00  0.00     0.293 HD
ENDBRANCH  16  20
BRANCH  17  22
ATOM     22  O   UNL     1       1.953 -22.697  18.395  1.00  0.00    -0.504 OA
ATOM     23  H   UNL     1       1.922 -22.038  19.165  1.00  0.00     0.293 HD
ENDBRANCH  17  22
ENDBRANCH   1  12
BRANCH   2  24
ATOM     24  O   UNL     1      -2.193 -19.677  15.062  1.00  0.00    -0.502 OA
ATOM     25  H   UNL     1      -2.514 -20.422  14.453  1.00  0.00     0.293 HD
ENDBRANCH   2  24
BRANCH   6  26
ATOM     26  O   UNL     1      -0.959 -14.888  13.085  1.00  0.00    -0.507 OA
ATOM     27  H   UNL     1      -1.287 -14.002  13.436  1.00  0.00     0.293 HD
ENDBRANCH   6  26
BRANCH   8  28
ATOM     28  O   UNL     1       3.788 -14.875  13.811  1.00  0.00    -0.508 OA
ATOM     29  H   UNL     1       4.398 -14.981  13.010  1.00  0.00     0.293 HD
ENDBRANCH   8  28
TORSDOF 7
ENDMDL
MODEL 4
REMARK VINA RESULT:    -6.533      2.206      6.815
REMARK INTER + INTRA:          -7.936
REMARK INTER:                  -7.630
REMARK INTRA:                  -0.307
REMARK UNBOUND:                 0.124
REMARK SMILES O=c1c(O)c(-c2cc(O)c(O)c(O)c2)oc2cc(O)cc(O)c12
REMARK SMILES IDX 5 1 3 2 2 3 1 4 23 5 21 6 20 7 18 8 17 9 16 10 15 11 6 12
REMARK SMILES IDX 7 13 8 14 14 15 10 16 12 17 9 18 11 20 13 22 4 24 22 26
REMARK SMILES IDX 19 28
REMARK H PARENT 9 19 11 21 13 23 4 25 22 27 19 29
REMARK Flexibility Score: inf
ROOT
ATOM      1  C   UNL     1      -1.799 -17.131  15.112  1.00  0.00     0.180 A 
ATOM      2  C   UNL     1      -0.775 -16.172  15.029  1.00  0.00     0.208 A 
ATOM      3  C   UNL     1       0.523 -16.525  15.433  1.00  0.00     0.238 A 
ATOM      4  O   UNL     1       1.423 -15.645  15.408  1.00  0.00    -0.285 OA
ATOM      5  C   UNL     1       0.784 -17.836  15.898  1.00  0.00     0.111 A 
ATOM      6  C   UNL     1       2.068 -18.315  16.295  1.00  0.00     0.134 A 
ATOM      7  C   UNL     1       2.185 -19.590  16.862  1.00  0.00     0.093 A 
ATOM      8  C   UNL     1       1.074 -20.428  16.986  1.00  0.00     0.123 A 
ATOM      9  C   UNL     1      -0.173 -19.992  16.548  1.00  0.00     0.094 A 
ATOM     10  C   UNL     1      -0.329 -18.711  16.011  1.00  0.00     0.146 A 
ATOM     11  O   UNL     1      -1.537 -18.332  15.615  1.00  0.00    -0.452 OA
ENDROOT
BRANCH   1  12
ATOM     12  C   UNL     1      -3.186 -16.840  14.682  1.00  0.00     0.029 A 
ATOM     13  C   UNL     1      -4.052 -16.069  15.476  1.00  0.00     0.062 A 
ATOM     14  C   UNL     1      -5.353 -15.785  15.041  1.00  0.00     0.162 A 
ATOM     15  C   UNL     1      -3.630 -17.293  13.430  1.00  0.00     0.062 A 
ATOM     16  C   UNL     1      -5.797 -16.260  13.799  1.00  0.00     0.200 A 
ATOM     17  C   UNL     1      -4.931 -17.013  12.989  1.00  0.00     0.162 A 
BRANCH  14  18
ATOM     18  O   UNL     1      -6.211 -15.026  15.834  1.00  0.00    -0.504 OA
ATOM     19  H   UNL     1      -5.899 -14.178  16.295  1.00  0.00     0.293 HD
ENDBRANCH  14  18
BRANCH  16  20
ATOM     20  O   UNL     1      -7.096 -15.969  13.384  1.00  0.00    -0.502 OA
ATOM     21  H   UNL     1      -7.562 -15.104  13.633  1.00  0.00     0.293 HD
ENDBRANCH  16  20
BRANCH  17  22
ATOM     22  O   UNL     1      -5.365 -17.480  11.749  1.00  0.00    -0.504 OA
ATOM     23  H   UNL     1      -4.840 -18.174  11.229  1.00  0.00     0.293 HD
ENDBRANCH  17  22
ENDBRANCH   1  12
BRANCH   2  24
ATOM     24  O   UNL     1      -1.059 -14.876  14.588  1.00  0.00    -0.502 OA
ATOM     25  H   UNL     1      -2.006 -14.548  14.441  1.00  0.00     0.293 HD
ENDBRANCH   2  24
BRANCH   6  26
ATOM     26  O   UNL     1       3.254 -17.595  16.129  1.00  0.00    -0.507 OA
ATOM     27  H   UNL     1       4.117 -17.789  16.614  1.00  0.00     0.293 HD
ENDBRANCH   6  26
BRANCH   8  28
ATOM     28  O   UNL     1       1.203 -21.701  17.537  1.00  0.00    -0.508 OA
ATOM     29  H   UNL     1       1.866 -22.373  17.170  1.00  0.00     0.293 HD
ENDBRANCH   8  28
TORSDOF 7
ENDMDL
MODEL 5
REMARK VINA RESULT:    -6.490      3.487      6.363
REMARK INTER + INTRA:          -7.884
REMARK INTER:                  -7.531
REMARK INTRA:                  -0.352
REMARK UNBOUND:                 0.124
REMARK SMILES O=c1c(O)c(-c2cc(O)c(O)c(O)c2)oc2cc(O)cc(O)c12
REMARK SMILES IDX 5 1 3 2 2 3 1 4 23 5 21 6 20 7 18 8 17 9 16 10 15 11 6 12
REMARK SMILES IDX 7 13 8 14 14 15 10 16 12 17 9 18 11 20 13 22 4 24 22 26
REMARK SMILES IDX 19 28
REMARK H PARENT 9 19 11 21 13 23 4 25 22 27 19 29
REMARK Flexibility Score: inf
ROOT
ATOM      1  C   UNL     1      -1.692 -16.559  15.380  1.00  0.00     0.180 A 
ATOM      2  C   UNL     1      -1.961 -16.405  14.009  1.00  0.00     0.208 A 
ATOM      3  C   UNL     1      -0.906 -16.085  13.139  1.00  0.00     0.238 A 
ATOM      4  O   UNL     1      -1.163 -15.895  11.922  1.00  0.00    -0.285 OA
ATOM      5  C   UNL     1       0.407 -15.941  13.648  1.00  0.00     0.111 A 
ATOM      6  C   UNL     1       1.558 -15.659  12.853  1.00  0.00     0.134 A 
ATOM      7  C   UNL     1       2.785 -15.408  13.479  1.00  0.00     0.093 A 
ATOM      8  C   UNL     1       2.916 -15.494  14.867  1.00  0.00     0.123 A 
ATOM      9  C   UNL     1       1.812 -15.826  15.647  1.00  0.00     0.094 A 
ATOM     10  C   UNL     1       0.566 -16.046  15.055  1.00  0.00     0.146 A 
ATOM     11  O   UNL     1      -0.462 -16.352  15.836  1.00  0.00    -0.452 OA
ENDROOT
BRANCH   1  12
ATOM     12  C   UNL     1      -2.748 -16.919  16.354  1.00  0.00     0.029 A 
ATOM     13  C   UNL     1      -3.157 -18.252  16.531  1.00  0.00     0.062 A 
ATOM     14  C   UNL     1      -4.140 -18.575  17.474  1.00  0.00     0.162 A 
ATOM     15  C   UNL     1      -3.314 -15.918  17.160  1.00  0.00     0.062 A 
ATOM     16  C   UNL     1      -4.717 -17.568  18.259  1.00  0.00     0.200 A 
ATOM     17  C   UNL     1      -4.300 -16.236  18.105  1.00  0.00     0.162 A 
BRANCH  14  18
ATOM     18  O   UNL     1      -4.547 -19.897  17.642  1.00  0.00    -0.504 OA
ATOM     19  H   UNL     1      -4.448 -20.582  16.901  1.00  0.00     0.293 HD
ENDBRANCH  14  18
BRANCH  16  20
ATOM     20  O   UNL     1      -5.698 -17.908  19.191  1.00  0.00    -0.502 OA
ATOM     21  H   UNL     1      -5.557 -18.637  19.881  1.00  0.00     0.293 HD
ENDBRANCH  16  20
BRANCH  17  22
ATOM     22  O   UNL     1      -4.865 -15.231  18.889  1.00  0.00    -0.504 OA
ATOM     23  H   UNL     1      -4.435 -14.317  18.974  1.00  0.00     0.293 HD
ENDBRANCH  17  22
ENDBRANCH   1  12
BRANCH   2  24
ATOM     24  O   UNL     1      -3.269 -16.530  13.531  1.00  0.00    -0.502 OA
ATOM     25  H   UNL     1      -4.008 -16.960  14.075  1.00  0.00     0.293 HD
ENDBRANCH   2  24
BRANCH   6  26
ATOM     26  O   UNL     1       1.555 -15.640  11.456  1.00  0.00    -0.507 OA
ATOM     27  H   UNL     1       2.145 -15.052  10.887  1.00  0.00     0.293 HD
ENDBRANCH   6  26
BRANCH   8  28
ATOM     28  O   UNL     1       4.146 -15.258  15.480  1.00  0.00    -0.508 OA
ATOM     29  H   UNL     1       5.020 -15.438  15.002  1.00  0.00     0.293 HD
ENDBRANCH   8  28
TORSDOF 7
ENDMDL
MODEL 6
REMARK VINA RESULT:    -6.473      3.479      6.191
REMARK INTER + INTRA:          -7.862
REMARK INTER:                  -7.538
REMARK INTRA:                  -0.324
REMARK UNBOUND:                 0.124
REMARK SMILES O=c1c(O)c(-c2cc(O)c(O)c(O)c2)oc2cc(O)cc(O)c12
REMARK SMILES IDX 5 1 3 2 2 3 1 4 23 5 21 6 20 7 18 8 17 9 16 10 15 11 6 12
REMARK SMILES IDX 7 13 8 14 14 15 10 16 12 17 9 18 11 20 13 22 4 24 22 26
REMARK SMILES IDX 19 28
REMARK H PARENT 9 19 11 21 13 23 4 25 22 27 19 29
REMARK Flexibility Score: inf
ROOT
ATOM      1  C   UNL     1      -1.710 -16.613  15.477  1.00  0.00     0.180 A 
ATOM      2  C   UNL     1      -1.986 -16.470  14.106  1.00  0.00     0.208 A 
ATOM      3  C   UNL     1      -0.935 -16.164  13.228  1.00  0.00     0.238 A 
ATOM      4  O   UNL     1      -1.198 -15.983  12.010  1.00  0.00    -0.285 OA
ATOM      5  C   UNL     1       0.382 -16.021  13.728  1.00  0.00     0.111 A 
ATOM      6  C   UNL     1       1.529 -15.751  12.924  1.00  0.00     0.134 A 
ATOM      7  C   UNL     1       2.761 -15.500  13.541  1.00  0.00     0.093 A 
ATOM      8  C   UNL     1       2.900 -15.574  14.929  1.00  0.00     0.123 A 
ATOM      9  C   UNL     1       1.799 -15.895  15.718  1.00  0.00     0.094 A 
ATOM     10  C   UNL     1       0.548 -16.114  15.134  1.00  0.00     0.146 A 
ATOM     11  O   UNL     1      -0.477 -16.408  15.924  1.00  0.00    -0.452 OA
ENDROOT
BRANCH   1  12
ATOM     12  C   UNL     1      -2.762 -16.960  16.460  1.00  0.00     0.029 A 
ATOM     13  C   UNL     1      -3.383 -15.974  17.246  1.00  0.00     0.062 A 
ATOM     14  C   UNL     1      -4.393 -16.319  18.153  1.00  0.00     0.162 A 
ATOM     15  C   UNL     1      -3.192 -18.292  16.570  1.00  0.00     0.062 A 
ATOM     16  C   UNL     1      -4.801 -17.654  18.274  1.00  0.00     0.200 A 
ATOM     17  C   UNL     1      -4.202 -18.643  17.477  1.00  0.00     0.162 A 
BRANCH  14  18
ATOM     18  O   UNL     1      -5.001 -15.339  18.936  1.00  0.00    -0.504 OA
ATOM     19  H   UNL     1      -5.621 -14.646  18.533  1.00  0.00     0.293 HD
ENDBRANCH  14  18
BRANCH  16  20
ATOM     20  O   UNL     1      -5.807 -17.979  19.185  1.00  0.00    -0.502 OA
ATOM     21  H   UNL     1      -6.120 -18.932  19.326  1.00  0.00     0.293 HD
ENDBRANCH  16  20
BRANCH  17  22
ATOM     22  O   UNL     1      -4.611 -19.971  17.588  1.00  0.00    -0.504 OA
ATOM     23  H   UNL     1      -4.100 -20.639  18.153  1.00  0.00     0.293 HD
ENDBRANCH  17  22
ENDBRANCH   1  12
BRANCH   2  24
ATOM     24  O   UNL     1      -3.297 -16.594  13.637  1.00  0.00    -0.502 OA
ATOM     25  H   UNL     1      -3.516 -17.005  12.737  1.00  0.00     0.293 HD
ENDBRANCH   2  24
BRANCH   6  26
ATOM     26  O   UNL     1       1.519 -15.745  11.526  1.00  0.00    -0.507 OA
ATOM     27  H   UNL     1       1.819 -16.513  10.946  1.00  0.00     0.293 HD
ENDBRANCH   6  26
BRANCH   8  28
ATOM     28  O   UNL     1       4.134 -15.338  15.533  1.00  0.00    -0.508 OA
ATOM     29  H   UNL     1       4.587 -14.434  15.477  1.00  0.00     0.293 HD
ENDBRANCH   8  28
TORSDOF 7
ENDMDL
MODEL 7
REMARK VINA RESULT:    -6.400      1.323      7.312
REMARK INTER + INTRA:          -7.772
REMARK INTER:                  -7.473
REMARK INTRA:                  -0.299
REMARK UNBOUND:                 0.124
REMARK SMILES O=c1c(O)c(-c2cc(O)c(O)c(O)c2)oc2cc(O)cc(O)c12
REMARK SMILES IDX 5 1 3 2 2 3 1 4 23 5 21 6 20 7 18 8 17 9 16 10 15 11 6 12
REMARK SMILES IDX 7 13 8 14 14 15 10 16 12 17 9 18 11 20 13 22 4 24 22 26
REMARK SMILES IDX 19 28
REMARK H PARENT 9 19 11 21 13 23 4 25 22 27 19 29
REMARK Flexibility Score: inf
ROOT
ATOM      1  C   UNL     1      -2.369 -17.981  15.886  1.00  0.00     0.180 A 
ATOM      2  C   UNL     1      -1.314 -17.595  16.731  1.00  0.00     0.208 A 
ATOM      3  C   UNL     1      -0.178 -18.416  16.820  1.00  0.00     0.238 A 
ATOM      4  O   UNL     1       0.739 -18.093  17.620  1.00  0.00    -0.285 OA
ATOM      5  C   UNL     1      -0.103 -19.601  16.051  1.00  0.00     0.111 A 
ATOM      6  C   UNL     1       1.016 -20.486  16.032  1.00  0.00     0.134 A 
ATOM      7  C   UNL     1       0.927 -21.698  15.335  1.00  0.00     0.093 A 
ATOM      8  C   UNL     1      -0.216 -22.025  14.603  1.00  0.00     0.123 A 
ATOM      9  C   UNL     1      -1.291 -21.141  14.567  1.00  0.00     0.094 A 
ATOM     10  C   UNL     1      -1.247 -19.941  15.282  1.00  0.00     0.146 A 
ATOM     11  O   UNL     1      -2.298 -19.132  15.228  1.00  0.00    -0.452 OA
ENDROOT
BRANCH   1  12
ATOM     12  C   UNL     1      -3.588 -17.155  15.722  1.00  0.00     0.029 A 
ATOM     13  C   UNL     1      -3.804 -16.392  14.562  1.00  0.00     0.062 A 
ATOM     14  C   UNL     1      -4.974 -15.637  14.415  1.00  0.00     0.162 A 
ATOM     15  C   UNL     1      -4.576 -17.178  16.718  1.00  0.00     0.062 A 
ATOM     16  C   UNL     1      -5.947 -15.647  15.423  1.00  0.00     0.200 A 
ATOM     17  C   UNL     1      -5.750 -16.424  16.577  1.00  0.00     0.162 A 
BRANCH  14  18
ATOM     18  O   UNL     1      -5.181 -14.876  13.266  1.00  0.00    -0.504 OA
ATOM     19  H   UNL     1      -4.418 -14.401  12.798  1.00  0.00     0.293 HD
ENDBRANCH  14  18
BRANCH  16  20
ATOM     20  O   UNL     1      -7.104 -14.886  15.261  1.00  0.00    -0.502 OA
ATOM     21  H   UNL     1      -7.135 -13.897  15.477  1.00  0.00     0.293 HD
ENDBRANCH  16  20
BRANCH  17  22
ATOM     22  O   UNL     1      -6.718 -16.444  17.579  1.00  0.00    -0.504 OA
ATOM     23  H   UNL     1      -6.732 -15.751  18.320  1.00  0.00     0.293 HD
ENDBRANCH  17  22
ENDBRANCH   1  12
BRANCH   2  24
ATOM     24  O   UNL     1      -1.418 -16.431  17.499  1.00  0.00    -0.502 OA
ATOM     25  H   UNL     1      -2.301 -16.100  17.868  1.00  0.00     0.293 HD
ENDBRANCH   2  24
BRANCH   6  26
ATOM     26  O   UNL     1       2.237 -20.213  16.654  1.00  0.00    -0.507 OA
ATOM     27  H   UNL     1       3.103 -20.690  16.456  1.00  0.00     0.293 HD
ENDBRANCH   6  26
BRANCH   8  28
ATOM     28  O   UNL     1      -0.290 -23.226  13.899  1.00  0.00    -0.508 OA
ATOM     29  H   UNL     1       0.305 -24.012  14.129  1.00  0.00     0.293 HD
ENDBRANCH   8  28
TORSDOF 7
ENDMDL
MODEL 8
REMARK VINA RESULT:    -6.339      3.120      5.865
REMARK INTER + INTRA:          -7.697
REMARK INTER:                  -7.402
REMARK INTRA:                  -0.295
REMARK UNBOUND:                 0.124
REMARK SMILES O=c1c(O)c(-c2cc(O)c(O)c(O)c2)oc2cc(O)cc(O)c12
REMARK SMILES IDX 5 1 3 2 2 3 1 4 23 5 21 6 20 7 18 8 17 9 16 10 15 11 6 12
REMARK SMILES IDX 7 13 8 14 14 15 10 16 12 17 9 18 11 20 13 22 4 24 22 26
REMARK SMILES IDX 19 28
REMARK H PARENT 9 19 11 21 13 23 4 25 22 27 19 29
REMARK Flexibility Score: inf
ROOT
ATOM      1  C   UNL     1      -3.079 -18.062  17.234  1.00  0.00     0.180 A 
ATOM      2  C   UNL     1      -3.486 -17.111  16.282  1.00  0.00     0.208 A 
ATOM      3  C   UNL     1      -2.517 -16.516  15.458  1.00  0.00     0.238 A 
ATOM      4  O   UNL     1      -2.880 -15.625  14.645  1.00  0.00    -0.285 OA
ATOM      5  C   UNL     1      -1.158 -16.891  15.585  1.00  0.00     0.111 A 
ATOM      6  C   UNL     1      -0.098 -16.382  14.776  1.00  0.00     0.134 A 
ATOM      7  C   UNL     1       1.226 -16.725  15.076  1.00  0.00     0.093 A 
ATOM      8  C   UNL     1       1.523 -17.610  16.116  1.00  0.00     0.123 A 
ATOM      9  C   UNL     1       0.491 -18.157  16.874  1.00  0.00     0.094 A 
ATOM     10  C   UNL     1      -0.838 -17.806  16.622  1.00  0.00     0.146 A 
ATOM     11  O   UNL     1      -1.790 -18.344  17.374  1.00  0.00    -0.452 OA
ENDROOT
BRANCH   1  12
ATOM     12  C   UNL     1      -4.046 -18.750  18.122  1.00  0.00     0.029 A 
ATOM     13  C   UNL     1      -4.190 -18.383  19.470  1.00  0.00     0.062 A 
ATOM     14  C   UNL     1      -5.127 -19.030  20.286  1.00  0.00     0.162 A 
ATOM     15  C   UNL     1      -4.877 -19.750  17.593  1.00  0.00     0.062 A 
ATOM     16  C   UNL     1      -5.938 -20.043  19.758  1.00  0.00     0.200 A 
ATOM     17  C   UNL     1      -5.816 -20.402  18.405  1.00  0.00     0.162 A 
BRANCH  14  18
ATOM     18  O   UNL     1      -5.262 -18.668  21.625  1.00  0.00    -0.504 OA
ATOM     19  H   UNL     1      -5.603 -19.322  22.321  1.00  0.00     0.293 HD
ENDBRANCH  14  18
BRANCH  16  20
ATOM     20  O   UNL     1      -6.863 -20.678  20.587  1.00  0.00    -0.502 OA
ATOM     21  H   UNL     1      -7.661 -20.191  20.977  1.00  0.00     0.293 HD
ENDBRANCH  16  20
BRANCH  17  22
ATOM     22  O   UNL     1      -6.626 -21.403  17.872  1.00  0.00    -0.504 OA
ATOM     23  H   UNL     1      -6.761 -22.288  18.349  1.00  0.00     0.293 HD
ENDBRANCH  17  22
ENDBRANCH   1  12
BRANCH   2  24
ATOM     24  O   UNL     1      -4.830 -16.740  16.189  1.00  0.00    -0.502 OA
ATOM     25  H   UNL     1      -5.560 -17.203  16.718  1.00  0.00     0.293 HD
ENDBRANCH   2  24
BRANCH   6  26
ATOM     26  O   UNL     1      -0.293 -15.566  13.658  1.00  0.00    -0.507 OA
ATOM     27  H   UNL     1      -0.199 -15.870  12.701  1.00  0.00     0.293 HD
ENDBRANCH   6  26
BRANCH   8  28
ATOM     28  O   UNL     1       2.842 -17.958  16.398  1.00  0.00    -0.508 OA
ATOM     29  H   UNL     1       3.084 -18.501  17.218  1.00  0.00     0.293 HD
ENDBRANCH   8  28
TORSDOF 7
ENDMDL
MODEL 9
REMARK VINA RESULT:    -6.309      3.214      4.396
REMARK INTER + INTRA:          -7.660
REMARK INTER:                  -7.437
REMARK INTRA:                  -0.223
REMARK UNBOUND:                 0.124
REMARK SMILES O=c1c(O)c(-c2cc(O)c(O)c(O)c2)oc2cc(O)cc(O)c12
REMARK SMILES IDX 5 1 3 2 2 3 1 4 23 5 21 6 20 7 18 8 17 9 16 10 15 11 6 12
REMARK SMILES IDX 7 13 8 14 14 15 10 16 12 17 9 18 11 20 13 22 4 24 22 26
REMARK SMILES IDX 19 28
REMARK H PARENT 9 19 11 21 13 23 4 25 22 27 19 29
REMARK Flexibility Score: inf
ROOT
ATOM      1  C   UNL     1      -1.708 -17.280  16.742  1.00  0.00     0.180 A 
ATOM      2  C   UNL     1      -2.241 -16.082  17.248  1.00  0.00     0.208 A 
ATOM      3  C   UNL     1      -3.480 -16.114  17.908  1.00  0.00     0.238 A 
ATOM      4  O   UNL     1      -3.978 -15.030  18.311  1.00  0.00    -0.285 OA
ATOM      5  C   UNL     1      -4.161 -17.344  18.070  1.00  0.00     0.111 A 
ATOM      6  C   UNL     1      -5.401 -17.500  18.757  1.00  0.00     0.134 A 
ATOM      7  C   UNL     1      -6.049 -18.742  18.742  1.00  0.00     0.093 A 
ATOM      8  C   UNL     1      -5.467 -19.849  18.119  1.00  0.00     0.123 A 
ATOM      9  C   UNL     1      -4.229 -19.721  17.496  1.00  0.00     0.094 A 
ATOM     10  C   UNL     1      -3.576 -18.487  17.463  1.00  0.00     0.146 A 
ATOM     11  O   UNL     1      -2.401 -18.407  16.850  1.00  0.00    -0.452 OA
ENDROOT
BRANCH   1  12
ATOM     12  C   UNL     1      -0.396 -17.330  16.055  1.00  0.00     0.029 A 
ATOM     13  C   UNL     1      -0.200 -16.716  14.806  1.00  0.00     0.062 A 
ATOM     14  C   UNL     1       1.055 -16.753  14.185  1.00  0.00     0.162 A 
ATOM     15  C   UNL     1       0.692 -17.952  16.688  1.00  0.00     0.062 A 
ATOM     16  C   UNL     1       2.130 -17.395  14.812  1.00  0.00     0.200 A 
ATOM     17  C   UNL     1       1.949 -17.993  16.070  1.00  0.00     0.162 A 
BRANCH  14  18
ATOM     18  O   UNL     1       1.243 -16.149  12.943  1.00  0.00    -0.504 OA
ATOM     19  H   UNL     1       2.085 -15.626  12.728  1.00  0.00     0.293 HD
ENDBRANCH  14  18
BRANCH  16  20
ATOM     20  O   UNL     1       3.371 -17.425  14.176  1.00  0.00    -0.502 OA
ATOM     21  H   UNL     1       3.659 -16.708  13.521  1.00  0.00     0.293 HD
ENDBRANCH  16  20
BRANCH  17  22
ATOM     22  O   UNL     1       3.019 -18.626  16.703  1.00  0.00    -0.504 OA
ATOM     23  H   UNL     1       2.887 -19.464  17.258  1.00  0.00     0.293 HD
ENDBRANCH  17  22
ENDBRANCH   1  12
BRANCH   2  24
ATOM     24  O   UNL     1      -1.562 -14.875  17.058  1.00  0.00    -0.502 OA
ATOM     25  H   UNL     1      -1.406 -14.215  17.811  1.00  0.00     0.293 HD
ENDBRANCH   2  24
BRANCH   6  26
ATOM     26  O   UNL     1      -6.022 -16.482  19.487  1.00  0.00    -0.507 OA
ATOM     27  H   UNL     1      -6.622 -16.630  20.284  1.00  0.00     0.293 HD
ENDBRANCH   6  26
BRANCH   8  28
ATOM     28  O   UNL     1      -6.112 -21.085  18.123  1.00  0.00    -0.508 OA
ATOM     29  H   UNL     1      -5.869 -21.807  18.791  1.00  0.00     0.293 HD
ENDBRANCH   8  28
TORSDOF 7
ENDMDL
