MODEL 1
REMARK VINA RESULT:    -1.405      0.000      0.000
REMARK INTER + INTRA:          -1.405
REMARK INTER:                  -1.405
REMARK INTRA:                   0.000
REMARK UNBOUND:                 0.000
REMARK SMILES CC(=O)[O-]
REMARK SMILES IDX 1 1 2 2 3 3 4 4
REMARK H PARENT
REMARK Flexibility Score: inf
ROOT
ATOM      1  C   UNL     1     176.214 208.125 201.365  1.00  0.00     0.063 C 
ATOM      2  C   UNL     1     176.965 207.958 200.088  1.00  0.00     0.038 C 
ATOM      3  O   UNL     1     176.359 207.620 199.038  1.00  0.00    -0.550 OA
ATOM      4  O   UNL     1     178.344 208.124 200.065  1.00  0.00    -0.550 OA
ENDROOT
TORSDOF 0
ENDMDL
MODEL 2
REMARK VINA RESULT:    -1.353      2.079      2.746
REMARK INTER + INTRA:          -1.353
REMARK INTER:                  -1.353
REMARK INTRA:                   0.000
REMARK UNBOUND:                 0.000
REMARK SMILES CC(=O)[O-]
REMARK SMILES IDX 1 1 2 2 3 3 4 4
REMARK H PARENT
REMARK Flexibility Score: inf
ROOT
ATOM      1  C   UNL     1     177.813 207.883 200.119  1.00  0.00     0.063 C 
ATOM      2  C   UNL     1     179.089 207.498 199.451  1.00  0.00     0.038 C 
ATOM      3  O   UNL     1     180.155 207.430 200.116  1.00  0.00    -0.550 OA
ATOM      4  O   UNL     1     179.114 207.263 198.082  1.00  0.00    -0.550 OA
ENDROOT
TORSDOF 0
ENDMDL
MODEL 3
REMARK VINA RESULT:    -1.315      1.416      1.690
REMARK INTER + INTRA:          -1.315
REMARK INTER:                  -1.315
REMARK INTRA:                   0.000
REMARK UNBOUND:                 0.000
REMARK SMILES CC(=O)[O-]
REMARK SMILES IDX 1 1 2 2 3 3 4 4
REMARK H PARENT
REMARK Flexibility Score: inf
ROOT
ATOM      1  C   UNL     1     175.875 207.944 199.300  1.00  0.00     0.063 C 
ATOM      2  C   UNL     1     176.847 208.030 200.427  1.00  0.00     0.038 C 
ATOM      3  O   UNL     1     176.435 208.065 201.615  1.00  0.00    -0.550 OA
ATOM      4  O   UNL     1     178.208 208.125 200.166  1.00  0.00    -0.550 OA
ENDROOT
TORSDOF 0
ENDMDL
MODEL 4
REMARK VINA RESULT:    -1.310      0.568      1.631
REMARK INTER + INTRA:          -1.310
REMARK INTER:                  -1.310
REMARK INTRA:                   0.000
REMARK UNBOUND:                 0.000
REMARK SMILES CC(=O)[O-]
REMARK SMILES IDX 1 1 2 2 3 3 4 4
REMARK H PARENT
REMARK Flexibility Score: inf
ROOT
ATOM      1  C   UNL     1     176.210 208.056 201.400  1.00  0.00     0.063 C 
ATOM      2  C   UNL     1     177.085 207.610 200.278  1.00  0.00     0.038 C 
ATOM      3  O   UNL     1     178.223 208.125 200.122  1.00  0.00    -0.550 OA
ATOM      4  O   UNL     1     176.626 206.664 199.371  1.00  0.00    -0.550 OA
ENDROOT
TORSDOF 0
ENDMDL
MODEL 5
REMARK VINA RESULT:    -1.245     24.163     24.541
REMARK INTER + INTRA:          -1.245
REMARK INTER:                  -1.245
REMARK INTRA:                   0.000
REMARK UNBOUND:                 0.000
REMARK SMILES CC(=O)[O-]
REMARK SMILES IDX 1 1 2 2 3 3 4 4
REMARK H PARENT
REMARK Flexibility Score: inf
ROOT
ATOM      1  C   UNL     1     161.970 195.108 184.136  1.00  0.00     0.063 C 
ATOM      2  C   UNL     1     162.223 196.565 184.329  1.00  0.00     0.038 C 
ATOM      3  O   UNL     1     161.785 197.151 185.353  1.00  0.00    -0.550 OA
ATOM      4  O   UNL     1     162.898 197.289 183.355  1.00  0.00    -0.550 OA
ENDROOT
TORSDOF 0
ENDMDL
MODEL 6
REMARK VINA RESULT:    -1.224     24.058     24.566
REMARK INTER + INTRA:          -1.224
REMARK INTER:                  -1.224
REMARK INTRA:                   0.000
REMARK UNBOUND:                 0.000
REMARK SMILES CC(=O)[O-]
REMARK SMILES IDX 1 1 2 2 3 3 4 4
REMARK H PARENT
REMARK Flexibility Score: inf
ROOT
ATOM      1  C   UNL     1     163.359 197.325 183.280  1.00  0.00     0.063 C 
ATOM      2  C   UNL     1     162.375 196.587 184.122  1.00  0.00     0.038 C 
ATOM      3  O   UNL     1     161.900 197.124 185.157  1.00  0.00    -0.550 OA
ATOM      4  O   UNL     1     162.018 195.284 183.797  1.00  0.00    -0.550 OA
ENDROOT
TORSDOF 0
ENDMDL
MODEL 7
REMARK VINA RESULT:    -1.101      1.439      2.255
REMARK INTER + INTRA:          -1.101
REMARK INTER:                  -1.101
REMARK INTRA:                   0.000
REMARK UNBOUND:                 0.000
REMARK SMILES CC(=O)[O-]
REMARK SMILES IDX 1 1 2 2 3 3 4 4
REMARK H PARENT
REMARK Flexibility Score: inf
ROOT
ATOM      1  C   UNL     1     176.153 208.121 201.237  1.00  0.00     0.063 C 
ATOM      2  C   UNL     1     175.494 207.958 199.910  1.00  0.00     0.038 C 
ATOM      3  O   UNL     1     176.190 207.840 198.869  1.00  0.00    -0.550 OA
ATOM      4  O   UNL     1     174.108 207.989 199.813  1.00  0.00    -0.550 OA
ENDROOT
TORSDOF 0
ENDMDL
MODEL 8
REMARK VINA RESULT:     0.000     19.080     19.192
REMARK INTER + INTRA:           0.000
REMARK INTER:                   0.000
REMARK INTRA:                   0.000
REMARK UNBOUND:                 0.000
REMARK SMILES CC(=O)[O-]
REMARK SMILES IDX 1 1 2 2 3 3 4 4
REMARK H PARENT
REMARK Flexibility Score: inf
ROOT
ATOM      1  C   UNL     1     178.443 188.171 199.788  1.00  0.00     0.063 C 
ATOM      2  C   UNL     1     179.221 188.986 200.764  1.00  0.00     0.038 C 
ATOM      3  O   UNL     1     178.953 188.926 201.992  1.00  0.00    -0.550 OA
ATOM      4  O   UNL     1     180.208 189.855 200.315  1.00  0.00    -0.550 OA
ENDROOT
TORSDOF 0
ENDMDL
MODEL 9
REMARK VINA RESULT:     0.000     19.621     19.746
REMARK INTER + INTRA:           0.000
REMARK INTER:                   0.000
REMARK INTRA:                   0.000
REMARK UNBOUND:                 0.000
REMARK SMILES CC(=O)[O-]
REMARK SMILES IDX 1 1 2 2 3 3 4 4
REMARK H PARENT
REMARK Flexibility Score: inf
ROOT
ATOM      1  C   UNL     1     172.940 189.302 198.129  1.00  0.00     0.063 C 
ATOM      2  C   UNL     1     171.742 189.005 198.966  1.00  0.00     0.038 C 
ATOM      3  O   UNL     1     170.590 189.063 198.462  1.00  0.00    -0.550 OA
ATOM      4  O   UNL     1     171.890 188.715 200.316  1.00  0.00    -0.550 OA
ENDROOT
TORSDOF 0
ENDMDL
