MODEL 1
REMARK VINA RESULT:    -3.917      0.000      0.000
REMARK INTER + INTRA:          -5.317
REMARK INTER:                  -5.061
REMARK INTRA:                  -0.255
REMARK UNBOUND:                -0.255
REMARK SMILES CCCCCCC(=O)[O-]
REMARK SMILES IDX 5 1 6 2 7 3 8 4 9 5 4 6 3 7 2 8 1 9
REMARK H PARENT
REMARK Flexibility Score: inf
ROOT
ATOM      1  C   UNL     1      -4.109  10.477  -8.921  1.00  0.00     0.006 C 
ENDROOT
BRANCH   1   2
ATOM      2  C   UNL     1      -3.732  11.894  -8.476  1.00  0.00     0.053 C 
BRANCH   2   3
ATOM      3  C   UNL     1      -3.537  11.942  -6.993  1.00  0.00     0.041 C 
ATOM      4  O   UNL     1      -2.441  11.586  -6.486  1.00  0.00    -0.550 OA
ATOM      5  O   UNL     1      -4.549  12.428  -6.175  1.00  0.00    -0.550 OA
ENDBRANCH   2   3
ENDBRANCH   1   2
BRANCH   1   6
ATOM      6  C   UNL     1      -5.632  10.303  -8.970  1.00  0.00     0.000 C 
BRANCH   6   7
ATOM      7  C   UNL     1      -6.121   9.407  -7.822  1.00  0.00    -0.000 C 
BRANCH   7   8
ATOM      8  C   UNL     1      -7.102  10.131  -6.886  1.00  0.00    -0.003 C 
ATOM      9  C   UNL     1      -8.032   9.169  -6.149  1.00  0.00     0.004 C 
ENDBRANCH   7   8
ENDBRANCH   6   7
ENDBRANCH   1   6
TORSDOF 5
ENDMDL
MODEL 2
REMARK VINA RESULT:    -3.893      2.667      4.252
REMARK INTER + INTRA:          -5.287
REMARK INTER:                  -5.034
REMARK INTRA:                  -0.253
REMARK UNBOUND:                -0.255
REMARK SMILES CCCCCCC(=O)[O-]
REMARK SMILES IDX 5 1 6 2 7 3 8 4 9 5 4 6 3 7 2 8 1 9
REMARK H PARENT
REMARK Flexibility Score: inf
ROOT
ATOM      1  C   UNL     1      -6.260   9.591  -7.846  1.00  0.00     0.006 C 
ENDROOT
BRANCH   1   2
ATOM      2  C   UNL     1      -6.851  10.617  -6.874  1.00  0.00     0.053 C 
BRANCH   2   3
ATOM      3  C   UNL     1      -8.054  10.053  -6.185  1.00  0.00     0.041 C 
ATOM      4  O   UNL     1      -7.985   8.942  -5.598  1.00  0.00    -0.550 OA
ATOM      5  O   UNL     1      -9.238  10.779  -6.150  1.00  0.00    -0.550 OA
ENDBRANCH   2   3
ENDBRANCH   1   2
BRANCH   1   6
ATOM      6  C   UNL     1      -5.633  10.283  -9.063  1.00  0.00     0.000 C 
BRANCH   6   7
ATOM      7  C   UNL     1      -4.112  10.413  -8.899  1.00  0.00    -0.000 C 
BRANCH   7   8
ATOM      8  C   UNL     1      -3.681  11.835  -8.505  1.00  0.00    -0.003 C 
ATOM      9  C   UNL     1      -3.292  11.946  -7.031  1.00  0.00     0.004 C 
ENDBRANCH   7   8
ENDBRANCH   6   7
ENDBRANCH   1   6
TORSDOF 5
ENDMDL
MODEL 3
REMARK VINA RESULT:    -3.775     16.742     17.979
REMARK INTER + INTRA:          -5.133
REMARK INTER:                  -4.950
REMARK INTRA:                  -0.183
REMARK UNBOUND:                -0.255
REMARK SMILES CCCCCCC(=O)[O-]
REMARK SMILES IDX 5 1 6 2 7 3 8 4 9 5 4 6 3 7 2 8 1 9
REMARK H PARENT
REMARK Flexibility Score: inf
ROOT
ATOM      1  C   UNL     1       4.849   9.721   7.588  1.00  0.00     0.006 C 
ENDROOT
BRANCH   1   2
ATOM      2  C   UNL     1       3.490  10.423   7.662  1.00  0.00     0.053 C 
BRANCH   2   3
ATOM      3  C   UNL     1       3.186  10.828   9.070  1.00  0.00     0.041 C 
ATOM      4  O   UNL     1       4.089  10.801   9.946  1.00  0.00    -0.550 OA
ATOM      5  O   UNL     1       1.916  11.283   9.403  1.00  0.00    -0.550 OA
ENDBRANCH   2   3
ENDBRANCH   1   2
BRANCH   1   6
ATOM      6  C   UNL     1       5.852  10.546   6.772  1.00  0.00     0.000 C 
BRANCH   6   7
ATOM      7  C   UNL     1       5.174  11.190   5.555  1.00  0.00    -0.000 C 
BRANCH   7   8
ATOM      8  C   UNL     1       5.999  11.034   4.268  1.00  0.00    -0.003 C 
ATOM      9  C   UNL     1       7.301  11.834   4.301  1.00  0.00     0.004 C 
ENDBRANCH   7   8
ENDBRANCH   6   7
ENDBRANCH   1   6
TORSDOF 5
ENDMDL
MODEL 4
REMARK VINA RESULT:    -3.749      2.940      4.660
REMARK INTER + INTRA:          -5.100
REMARK INTER:                  -4.870
REMARK INTRA:                  -0.230
REMARK UNBOUND:                -0.255
REMARK SMILES CCCCCCC(=O)[O-]
REMARK SMILES IDX 5 1 6 2 7 3 8 4 9 5 4 6 3 7 2 8 1 9
REMARK H PARENT
REMARK Flexibility Score: inf
ROOT
ATOM      1  C   UNL     1      -6.281   9.968  -6.644  1.00  0.00     0.006 C 
ENDROOT
BRANCH   1   2
ATOM      2  C   UNL     1      -7.544  10.827  -6.528  1.00  0.00     0.053 C 
BRANCH   2   3
ATOM      3  C   UNL     1      -8.629  10.071  -5.828  1.00  0.00     0.041 C 
ATOM      4  O   UNL     1      -9.770  10.584  -5.686  1.00  0.00    -0.550 OA
ATOM      5  O   UNL     1      -8.394   8.778  -5.376  1.00  0.00    -0.550 OA
ENDBRANCH   2   3
ENDBRANCH   1   2
BRANCH   1   6
ATOM      6  C   UNL     1      -6.157   9.357  -8.046  1.00  0.00     0.000 C 
BRANCH   6   7
ATOM      7  C   UNL     1      -5.651  10.397  -9.056  1.00  0.00    -0.000 C 
BRANCH   7   8
ATOM      8  C   UNL     1      -4.117  10.496  -9.082  1.00  0.00    -0.003 C 
ATOM      9  C   UNL     1      -3.603  11.823  -8.526  1.00  0.00     0.004 C 
ENDBRANCH   7   8
ENDBRANCH   6   7
ENDBRANCH   1   6
TORSDOF 5
ENDMDL
MODEL 5
REMARK VINA RESULT:    -3.731     16.833     18.187
REMARK INTER + INTRA:          -5.077
REMARK INTER:                  -4.857
REMARK INTRA:                  -0.220
REMARK UNBOUND:                -0.255
REMARK SMILES CCCCCCC(=O)[O-]
REMARK SMILES IDX 5 1 6 2 7 3 8 4 9 5 4 6 3 7 2 8 1 9
REMARK H PARENT
REMARK Flexibility Score: inf
ROOT
ATOM      1  C   UNL     1       5.678  10.488   6.857  1.00  0.00     0.006 C 
ENDROOT
BRANCH   1   2
ATOM      2  C   UNL     1       5.112  11.167   8.108  1.00  0.00     0.053 C 
BRANCH   2   3
ATOM      3  C   UNL     1       4.444  10.162   8.993  1.00  0.00     0.041 C 
ATOM      4  O   UNL     1       4.225   8.995   8.573  1.00  0.00    -0.550 OA
ATOM      5  O   UNL     1       4.109  10.500  10.298  1.00  0.00    -0.550 OA
ENDBRANCH   2   3
ENDBRANCH   1   2
BRANCH   1   6
ATOM      6  C   UNL     1       4.875  10.875   5.609  1.00  0.00     0.000 C 
BRANCH   6   7
ATOM      7  C   UNL     1       5.808  11.230   4.442  1.00  0.00    -0.000 C 
BRANCH   7   8
ATOM      8  C   UNL     1       6.677  12.462   4.737  1.00  0.00    -0.003 C 
ATOM      9  C   UNL     1       8.112  12.307   4.233  1.00  0.00     0.004 C 
ENDBRANCH   7   8
ENDBRANCH   6   7
ENDBRANCH   1   6
TORSDOF 5
ENDMDL
MODEL 6
REMARK VINA RESULT:    -3.612      1.906      3.494
REMARK INTER + INTRA:          -4.923
REMARK INTER:                  -4.704
REMARK INTRA:                  -0.219
REMARK UNBOUND:                -0.255
REMARK SMILES CCCCCCC(=O)[O-]
REMARK SMILES IDX 5 1 6 2 7 3 8 4 9 5 4 6 3 7 2 8 1 9
REMARK H PARENT
REMARK Flexibility Score: inf
ROOT
ATOM      1  C   UNL     1      -7.658  10.730  -6.491  1.00  0.00     0.006 C 
ENDROOT
BRANCH   1   2
ATOM      2  C   UNL     1      -6.753   9.744  -7.234  1.00  0.00     0.053 C 
BRANCH   2   3
ATOM      3  C   UNL     1      -5.401  10.343  -7.461  1.00  0.00     0.041 C 
ATOM      4  O   UNL     1      -4.776  10.110  -8.529  1.00  0.00    -0.550 OA
ATOM      5  O   UNL     1      -4.852  11.198  -6.514  1.00  0.00    -0.550 OA
ENDBRANCH   2   3
ENDBRANCH   1   2
BRANCH   1   6
ATOM      6  C   UNL     1      -8.873  10.016  -5.885  1.00  0.00     0.000 C 
BRANCH   6   7
ATOM      7  C   UNL     1      -8.509   8.592  -5.441  1.00  0.00    -0.000 C 
BRANCH   7   8
ATOM      8  C   UNL     1      -9.710   7.635  -5.484  1.00  0.00    -0.003 C 
ATOM      9  C   UNL     1      -9.677   6.700  -6.693  1.00  0.00     0.004 C 
ENDBRANCH   7   8
ENDBRANCH   6   7
ENDBRANCH   1   6
TORSDOF 5
ENDMDL
MODEL 7
REMARK VINA RESULT:    -3.589     16.799     18.370
REMARK INTER + INTRA:          -4.893
REMARK INTER:                  -4.657
REMARK INTRA:                  -0.236
REMARK UNBOUND:                -0.255
REMARK SMILES CCCCCCC(=O)[O-]
REMARK SMILES IDX 5 1 6 2 7 3 8 4 9 5 4 6 3 7 2 8 1 9
REMARK H PARENT
REMARK Flexibility Score: inf
ROOT
ATOM      1  C   UNL     1       6.074  10.541   8.258  1.00  0.00     0.006 C 
ENDROOT
BRANCH   1   2
ATOM      2  C   UNL     1       4.667  11.108   8.466  1.00  0.00     0.053 C 
BRANCH   2   3
ATOM      3  C   UNL     1       3.762  10.065   9.042  1.00  0.00     0.041 C 
ATOM      4  O   UNL     1       3.016  10.342  10.018  1.00  0.00    -0.550 OA
ATOM      5  O   UNL     1       3.706   8.801   8.469  1.00  0.00    -0.550 OA
ENDBRANCH   2   3
ENDBRANCH   1   2
BRANCH   1   6
ATOM      6  C   UNL     1       6.534  10.725   6.807  1.00  0.00     0.000 C 
BRANCH   6   7
ATOM      7  C   UNL     1       5.338  10.986   5.880  1.00  0.00    -0.000 C 
BRANCH   7   8
ATOM      8  C   UNL     1       5.763  11.543   4.512  1.00  0.00    -0.003 C 
ATOM      9  C   UNL     1       7.280  11.620   4.351  1.00  0.00     0.004 C 
ENDBRANCH   7   8
ENDBRANCH   6   7
ENDBRANCH   1   6
TORSDOF 5
ENDMDL
MODEL 8
REMARK VINA RESULT:    -3.517     16.530     17.553
REMARK INTER + INTRA:          -4.800
REMARK INTER:                  -4.624
REMARK INTRA:                  -0.177
REMARK UNBOUND:                -0.255
REMARK SMILES CCCCCCC(=O)[O-]
REMARK SMILES IDX 5 1 6 2 7 3 8 4 9 5 4 6 3 7 2 8 1 9
REMARK H PARENT
REMARK Flexibility Score: inf
ROOT
ATOM      1  C   UNL     1       5.819  11.523   4.476  1.00  0.00     0.006 C 
ENDROOT
BRANCH   1   2
ATOM      2  C   UNL     1       6.826  12.532   5.036  1.00  0.00     0.053 C 
BRANCH   2   3
ATOM      3  C   UNL     1       8.215  12.178   4.608  1.00  0.00     0.041 C 
ATOM      4  O   UNL     1       9.008  11.631   5.419  1.00  0.00    -0.550 OA
ATOM      5  O   UNL     1       8.618  12.408   3.298  1.00  0.00    -0.550 OA
ENDBRANCH   2   3
ENDBRANCH   1   2
BRANCH   1   6
ATOM      6  C   UNL     1       5.005  10.873   5.602  1.00  0.00     0.000 C 
BRANCH   6   7
ATOM      7  C   UNL     1       5.914  10.450   6.764  1.00  0.00    -0.000 C 
BRANCH   7   8
ATOM      8  C   UNL     1       5.122  10.095   8.033  1.00  0.00    -0.003 C 
ATOM      9  C   UNL     1       3.862   9.284   7.736  1.00  0.00     0.004 C 
ENDBRANCH   7   8
ENDBRANCH   6   7
ENDBRANCH   1   6
TORSDOF 5
ENDMDL
MODEL 9
REMARK VINA RESULT:    -3.407     16.936     18.460
REMARK INTER + INTRA:          -4.659
REMARK INTER:                  -4.265
REMARK INTRA:                  -0.394
REMARK UNBOUND:                -0.255
REMARK SMILES CCCCCCC(=O)[O-]
REMARK SMILES IDX 5 1 6 2 7 3 8 4 9 5 4 6 3 7 2 8 1 9
REMARK H PARENT
REMARK Flexibility Score: inf
ROOT
ATOM      1  C   UNL     1       7.129  10.826   4.645  1.00  0.00     0.006 C 
ENDROOT
BRANCH   1   2
ATOM      2  C   UNL     1       5.720  11.241   5.076  1.00  0.00     0.053 C 
BRANCH   2   3
ATOM      3  C   UNL     1       5.531  11.009   6.542  1.00  0.00     0.041 C 
ATOM      4  O   UNL     1       5.665  11.959   7.357  1.00  0.00    -0.550 OA
ATOM      5  O   UNL     1       5.158   9.752   7.003  1.00  0.00    -0.550 OA
ENDBRANCH   2   3
ENDBRANCH   1   2
BRANCH   1   6
ATOM      6  C   UNL     1       7.878  11.999   4.000  1.00  0.00     0.000 C 
BRANCH   6   7
ATOM      7  C   UNL     1       8.639  12.813   5.056  1.00  0.00    -0.000 C 
BRANCH   7   8
ATOM      8  C   UNL     1       9.395  11.923   6.054  1.00  0.00    -0.003 C 
ATOM      9  C   UNL     1       9.173  12.345   7.506  1.00  0.00     0.004 C 
ENDBRANCH   7   8
ENDBRANCH   6   7
ENDBRANCH   1   6
TORSDOF 5
ENDMDL
