MODEL 1
REMARK VINA RESULT:    -5.240      0.000      0.000
REMARK INTER + INTRA:         -15.702
REMARK INTER:                 -13.206
REMARK INTRA:                  -2.496
REMARK UNBOUND:                -2.496
REMARK SMILES CCCCCCCCCCCCCCCCCCCCCCCCCCCC(=O)[O-]
REMARK SMILES IDX 15 1 16 2 17 3 18 4 19 5 20 6 21 7 22 8 23 9 24 10 25 11
REMARK SMILES IDX 26 12 27 13 28 14 29 15 30 16 14 17 13 18 12 19 11 20 10 21
REMARK SMILES IDX 9 22 8 23 7 24 6 25 5 26 4 27 3 28 2 29 1 30
REMARK H PARENT
REMARK Flexibility Score: inf
ROOT
ATOM      1  C   UNL     1      29.315  -1.600  29.756  1.00  0.00     0.000 C 
ENDROOT
BRANCH   1   2
ATOM      2  C   UNL     1      30.033  -2.941  29.987  1.00  0.00     0.000 C 
BRANCH   2   3
ATOM      3  C   UNL     1      29.167  -4.158  29.608  1.00  0.00     0.000 C 
BRANCH   3   4
ATOM      4  C   UNL     1      28.343  -4.764  30.763  1.00  0.00     0.000 C 
BRANCH   4   5
ATOM      5  C   UNL     1      27.182  -3.888  31.274  1.00  0.00     0.000 C 
BRANCH   5   6
ATOM      6  C   UNL     1      25.910  -3.928  30.406  1.00  0.00     0.000 C 
BRANCH   6   7
ATOM      7  C   UNL     1      24.883  -2.859  30.802  1.00  0.00     0.000 C 
BRANCH   7   8
ATOM      8  C   UNL     1      23.455  -3.344  30.518  1.00  0.00     0.000 C 
BRANCH   8   9
ATOM      9  C   UNL     1      22.377  -2.339  30.967  1.00  0.00     0.000 C 
BRANCH   9  10
ATOM     10  C   UNL     1      22.153  -1.154  30.011  1.00  0.00     0.000 C 
BRANCH  10  11
ATOM     11  C   UNL     1      20.877  -1.298  29.165  1.00  0.00     0.000 C 
BRANCH  11  12
ATOM     12  C   UNL     1      20.710  -0.151  28.155  1.00  0.00     0.006 C 
BRANCH  12  13
ATOM     13  C   UNL     1      21.180  -0.538  26.747  1.00  0.00     0.053 C 
BRANCH  13  14
ATOM     14  C   UNL     1      21.959   0.578  26.127  1.00  0.00     0.041 C 
ATOM     15  O   UNL     1      21.486   1.746  26.111  1.00  0.00    -0.550 OA
ATOM     16  O   UNL     1      23.228   0.342  25.614  1.00  0.00    -0.550 OA
ENDBRANCH  13  14
ENDBRANCH  12  13
ENDBRANCH  11  12
ENDBRANCH  10  11
ENDBRANCH   9  10
ENDBRANCH   8   9
ENDBRANCH   7   8
ENDBRANCH   6   7
ENDBRANCH   5   6
ENDBRANCH   4   5
ENDBRANCH   3   4
ENDBRANCH   2   3
ENDBRANCH   1   2
BRANCH   1  17
ATOM     17  C   UNL     1      30.039  -0.410  30.415  1.00  0.00     0.000 C 
BRANCH  17  18
ATOM     18  C   UNL     1      29.397   0.115  31.712  1.00  0.00     0.000 C 
BRANCH  18  19
ATOM     19  C   UNL     1      27.924  -0.305  31.866  1.00  0.00     0.000 C 
BRANCH  19  20
ATOM     20  C   UNL     1      26.947   0.803  31.436  1.00  0.00     0.000 C 
BRANCH  20  21
ATOM     21  C   UNL     1      26.269   0.506  30.089  1.00  0.00     0.000 C 
BRANCH  21  22
ATOM     22  C   UNL     1      26.875   1.310  28.923  1.00  0.00    -0.000 C 
BRANCH  22  23
ATOM     23  C   UNL     1      27.786   2.479  29.341  1.00  0.00    -0.000 C 
BRANCH  23  24
ATOM     24  C   UNL     1      27.246   3.886  29.017  1.00  0.00    -0.000 C 
BRANCH  24  25
ATOM     25  C   UNL     1      27.649   4.967  30.041  1.00  0.00    -0.000 C 
BRANCH  25  26
ATOM     26  C   UNL     1      26.910   6.300  29.824  1.00  0.00    -0.000 C 
BRANCH  26  27
ATOM     27  C   UNL     1      27.445   7.421  30.743  1.00  0.00    -0.000 C 
BRANCH  27  28
ATOM     28  C   UNL     1      28.013   8.627  29.973  1.00  0.00    -0.000 C 
BRANCH  28  29
ATOM     29  C   UNL     1      27.511   9.994  30.465  1.00  0.00    -0.003 C 
ATOM     30  C   UNL     1      26.058   9.954  30.937  1.00  0.00     0.004 C 
ENDBRANCH  28  29
ENDBRANCH  27  28
ENDBRANCH  26  27
ENDBRANCH  25  26
ENDBRANCH  24  25
ENDBRANCH  23  24
ENDBRANCH  22  23
ENDBRANCH  21  22
ENDBRANCH  20  21
ENDBRANCH  19  20
ENDBRANCH  18  19
ENDBRANCH  17  18
ENDBRANCH   1  17
TORSDOF 26
ENDMDL
MODEL 2
REMARK VINA RESULT:    -5.127      3.955      7.714
REMARK INTER + INTRA:         -15.416
REMARK INTER:                 -12.497
REMARK INTRA:                  -2.919
REMARK UNBOUND:                -2.496
REMARK SMILES CCCCCCCCCCCCCCCCCCCCCCCCCCCC(=O)[O-]
REMARK SMILES IDX 15 1 16 2 17 3 18 4 19 5 20 6 21 7 22 8 23 9 24 10 25 11
REMARK SMILES IDX 26 12 27 13 28 14 29 15 30 16 14 17 13 18 12 19 11 20 10 21
REMARK SMILES IDX 9 22 8 23 7 24 6 25 5 26 4 27 3 28 2 29 1 30
REMARK H PARENT
REMARK Flexibility Score: inf
ROOT
ATOM      1  C   UNL     1      28.325   2.526  31.493  1.00  0.00     0.000 C 
ENDROOT
BRANCH   1   2
ATOM      2  C   UNL     1      29.304   1.378  31.788  1.00  0.00     0.000 C 
BRANCH   2   3
ATOM      3  C   UNL     1      30.047   0.886  30.531  1.00  0.00     0.000 C 
BRANCH   3   4
ATOM      4  C   UNL     1      29.235   0.948  29.221  1.00  0.00     0.000 C 
BRANCH   4   5
ATOM      5  C   UNL     1      28.339  -0.276  28.942  1.00  0.00     0.000 C 
BRANCH   5   6
ATOM      6  C   UNL     1      26.840  -0.058  29.216  1.00  0.00     0.000 C 
BRANCH   6   7
ATOM      7  C   UNL     1      26.312  -0.921  30.370  1.00  0.00     0.000 C 
BRANCH   7   8
ATOM      8  C   UNL     1      27.343  -1.986  30.769  1.00  0.00     0.000 C 
BRANCH   8   9
ATOM      9  C   UNL     1      26.705  -3.351  31.089  1.00  0.00     0.000 C 
BRANCH   9  10
ATOM     10  C   UNL     1      26.986  -4.459  30.059  1.00  0.00     0.000 C 
BRANCH  10  11
ATOM     11  C   UNL     1      28.482  -4.789  29.925  1.00  0.00     0.000 C 
BRANCH  11  12
ATOM     12  C   UNL     1      28.757  -6.300  29.985  1.00  0.00     0.006 C 
BRANCH  12  13
ATOM     13  C   UNL     1      28.566  -6.875  31.394  1.00  0.00     0.053 C 
BRANCH  13  14
ATOM     14  C   UNL     1      28.876  -8.338  31.412  1.00  0.00     0.041 C 
ATOM     15  O   UNL     1      28.507  -9.051  32.382  1.00  0.00    -0.550 OA
ATOM     16  O   UNL     1      29.526  -8.925  30.334  1.00  0.00    -0.550 OA
ENDBRANCH  13  14
ENDBRANCH  12  13
ENDBRANCH  11  12
ENDBRANCH  10  11
ENDBRANCH   9  10
ENDBRANCH   8   9
ENDBRANCH   7   8
ENDBRANCH   6   7
ENDBRANCH   5   6
ENDBRANCH   4   5
ENDBRANCH   3   4
ENDBRANCH   2   3
ENDBRANCH   1   2
BRANCH   1  17
ATOM     17  C   UNL     1      28.761   3.864  32.122  1.00  0.00     0.000 C 
BRANCH  17  18
ATOM     18  C   UNL     1      28.661   5.090  31.196  1.00  0.00     0.000 C 
BRANCH  18  19
ATOM     19  C   UNL     1      27.208   5.477  30.866  1.00  0.00     0.000 C 
BRANCH  19  20
ATOM     20  C   UNL     1      26.966   5.622  29.355  1.00  0.00     0.000 C 
BRANCH  20  21
ATOM     21  C   UNL     1      27.504   4.428  28.549  1.00  0.00     0.000 C 
BRANCH  21  22
ATOM     22  C   UNL     1      26.398   3.441  28.130  1.00  0.00    -0.000 C 
BRANCH  22  23
ATOM     23  C   UNL     1      25.254   4.057  27.303  1.00  0.00    -0.000 C 
BRANCH  23  24
ATOM     24  C   UNL     1      24.692   3.161  26.182  1.00  0.00    -0.000 C 
BRANCH  24  25
ATOM     25  C   UNL     1      24.956   1.654  26.387  1.00  0.00    -0.000 C 
BRANCH  25  26
ATOM     26  C   UNL     1      23.929   0.764  25.664  1.00  0.00    -0.000 C 
BRANCH  26  27
ATOM     27  C   UNL     1      22.496   1.334  25.755  1.00  0.00    -0.000 C 
BRANCH  27  28
ATOM     28  C   UNL     1      21.438   0.275  26.117  1.00  0.00    -0.000 C 
BRANCH  28  29
ATOM     29  C   UNL     1      20.871   0.398  27.541  1.00  0.00    -0.003 C 
ATOM     30  C   UNL     1      20.864  -0.933  28.291  1.00  0.00     0.004 C 
ENDBRANCH  28  29
ENDBRANCH  27  28
ENDBRANCH  26  27
ENDBRANCH  25  26
ENDBRANCH  24  25
ENDBRANCH  23  24
ENDBRANCH  22  23
ENDBRANCH  21  22
ENDBRANCH  20  21
ENDBRANCH  19  20
ENDBRANCH  18  19
ENDBRANCH  17  18
ENDBRANCH   1  17
TORSDOF 26
ENDMDL
MODEL 3
REMARK VINA RESULT:    -5.044      3.431      8.663
REMARK INTER + INTRA:         -15.206
REMARK INTER:                 -13.142
REMARK INTRA:                  -2.064
REMARK UNBOUND:                -2.496
REMARK SMILES CCCCCCCCCCCCCCCCCCCCCCCCCCCC(=O)[O-]
REMARK SMILES IDX 15 1 16 2 17 3 18 4 19 5 20 6 21 7 22 8 23 9 24 10 25 11
REMARK SMILES IDX 26 12 27 13 28 14 29 15 30 16 14 17 13 18 12 19 11 20 10 21
REMARK SMILES IDX 9 22 8 23 7 24 6 25 5 26 4 27 3 28 2 29 1 30
REMARK H PARENT
REMARK Flexibility Score: inf
ROOT
ATOM      1  C   UNL     1      29.827  -1.776  30.046  1.00  0.00     0.000 C 
ENDROOT
BRANCH   1   2
ATOM      2  C   UNL     1      28.552  -0.972  29.739  1.00  0.00     0.000 C 
BRANCH   2   3
ATOM      3  C   UNL     1      27.669  -0.750  30.982  1.00  0.00     0.000 C 
BRANCH   3   4
ATOM      4  C   UNL     1      26.694   0.442  30.890  1.00  0.00     0.000 C 
BRANCH   4   5
ATOM      5  C   UNL     1      26.944   1.409  29.716  1.00  0.00     0.000 C 
BRANCH   5   6
ATOM      6  C   UNL     1      27.937   2.547  30.014  1.00  0.00     0.000 C 
BRANCH   6   7
ATOM      7  C   UNL     1      28.335   2.621  31.494  1.00  0.00     0.000 C 
BRANCH   7   8
ATOM      8  C   UNL     1      28.578   4.075  31.921  1.00  0.00     0.000 C 
BRANCH   8   9
ATOM      9  C   UNL     1      28.280   5.089  30.800  1.00  0.00     0.000 C 
BRANCH   9  10
ATOM     10  C   UNL     1      27.255   6.178  31.162  1.00  0.00     0.000 C 
BRANCH  10  11
ATOM     11  C   UNL     1      26.984   7.156  30.007  1.00  0.00     0.000 C 
BRANCH  11  12
ATOM     12  C   UNL     1      27.309   8.611  30.382  1.00  0.00     0.006 C 
BRANCH  12  13
ATOM     13  C   UNL     1      26.295   9.202  31.370  1.00  0.00     0.053 C 
BRANCH  13  14
ATOM     14  C   UNL     1      26.863  10.409  32.047  1.00  0.00     0.041 C 
ATOM     15  O   UNL     1      26.298  10.887  33.066  1.00  0.00    -0.550 OA
ATOM     16  O   UNL     1      28.044  10.975  31.585  1.00  0.00    -0.550 OA
ENDBRANCH  13  14
ENDBRANCH  12  13
ENDBRANCH  11  12
ENDBRANCH  10  11
ENDBRANCH   9  10
ENDBRANCH   8   9
ENDBRANCH   7   8
ENDBRANCH   6   7
ENDBRANCH   5   6
ENDBRANCH   4   5
ENDBRANCH   3   4
ENDBRANCH   2   3
ENDBRANCH   1   2
BRANCH   1  17
ATOM     17  C   UNL     1      29.826  -3.175  29.400  1.00  0.00     0.000 C 
BRANCH  17  18
ATOM     18  C   UNL     1      30.149  -4.341  30.353  1.00  0.00     0.000 C 
BRANCH  18  19
ATOM     19  C   UNL     1      28.966  -5.308  30.540  1.00  0.00     0.000 C 
BRANCH  19  20
ATOM     20  C   UNL     1      27.754  -4.635  31.206  1.00  0.00     0.000 C 
BRANCH  20  21
ATOM     21  C   UNL     1      26.528  -4.569  30.280  1.00  0.00     0.000 C 
BRANCH  21  22
ATOM     22  C   UNL     1      25.501  -3.509  30.720  1.00  0.00    -0.000 C 
BRANCH  22  23
ATOM     23  C   UNL     1      24.058  -3.761  30.239  1.00  0.00    -0.000 C 
BRANCH  23  24
ATOM     24  C   UNL     1      22.980  -2.875  30.893  1.00  0.00    -0.000 C 
BRANCH  24  25
ATOM     25  C   UNL     1      22.887  -1.453  30.300  1.00  0.00    -0.000 C 
BRANCH  25  26
ATOM     26  C   UNL     1      21.443  -0.925  30.239  1.00  0.00    -0.000 C 
BRANCH  26  27
ATOM     27  C   UNL     1      20.733  -1.316  28.924  1.00  0.00    -0.000 C 
BRANCH  27  28
ATOM     28  C   UNL     1      20.635  -0.158  27.913  1.00  0.00    -0.000 C 
BRANCH  28  29
ATOM     29  C   UNL     1      21.152  -0.494  26.505  1.00  0.00    -0.003 C 
ATOM     30  C   UNL     1      21.983   0.635  25.895  1.00  0.00     0.004 C 
ENDBRANCH  28  29
ENDBRANCH  27  28
ENDBRANCH  26  27
ENDBRANCH  25  26
ENDBRANCH  24  25
ENDBRANCH  23  24
ENDBRANCH  22  23
ENDBRANCH  21  22
ENDBRANCH  20  21
ENDBRANCH  19  20
ENDBRANCH  18  19
ENDBRANCH  17  18
ENDBRANCH   1  17
TORSDOF 26
ENDMDL
MODEL 4
REMARK VINA RESULT:    -5.010      3.972      8.407
REMARK INTER + INTRA:         -15.121
REMARK INTER:                 -12.453
REMARK INTRA:                  -2.668
REMARK UNBOUND:                -2.496
REMARK SMILES CCCCCCCCCCCCCCCCCCCCCCCCCCCC(=O)[O-]
REMARK SMILES IDX 15 1 16 2 17 3 18 4 19 5 20 6 21 7 22 8 23 9 24 10 25 11
REMARK SMILES IDX 26 12 27 13 28 14 29 15 30 16 14 17 13 18 12 19 11 20 10 21
REMARK SMILES IDX 9 22 8 23 7 24 6 25 5 26 4 27 3 28 2 29 1 30
REMARK H PARENT
REMARK Flexibility Score: inf
ROOT
ATOM      1  C   UNL     1      27.197  -1.661  31.026  1.00  0.00     0.000 C 
ENDROOT
BRANCH   1   2
ATOM      2  C   UNL     1      26.379  -0.545  30.354  1.00  0.00     0.000 C 
BRANCH   2   3
ATOM      3  C   UNL     1      27.083   0.057  29.123  1.00  0.00     0.000 C 
BRANCH   3   4
ATOM      4  C   UNL     1      28.518  -0.451  28.873  1.00  0.00     0.000 C 
BRANCH   4   5
ATOM      5  C   UNL     1      29.641   0.541  29.237  1.00  0.00     0.000 C 
BRANCH   5   6
ATOM      6  C   UNL     1      30.050   0.540  30.722  1.00  0.00     0.000 C 
BRANCH   6   7
ATOM      7  C   UNL     1      29.184   1.473  31.580  1.00  0.00     0.000 C 
BRANCH   7   8
ATOM      8  C   UNL     1      28.863   2.768  30.821  1.00  0.00     0.000 C 
BRANCH   8   9
ATOM      9  C   UNL     1      27.892   3.688  31.585  1.00  0.00     0.000 C 
BRANCH   9  10
ATOM     10  C   UNL     1      28.099   5.195  31.347  1.00  0.00     0.000 C 
BRANCH  10  11
ATOM     11  C   UNL     1      27.459   5.690  30.039  1.00  0.00     0.000 C 
BRANCH  11  12
ATOM     12  C   UNL     1      26.979   7.147  30.136  1.00  0.00     0.006 C 
BRANCH  12  13
ATOM     13  C   UNL     1      28.110   8.112  30.513  1.00  0.00     0.053 C 
BRANCH  13  14
ATOM     14  C   UNL     1      28.122   9.292  29.594  1.00  0.00     0.041 C 
ATOM     15  O   UNL     1      28.873   9.298  28.583  1.00  0.00    -0.550 OA
ATOM     16  O   UNL     1      27.266  10.362  29.822  1.00  0.00    -0.550 OA
ENDBRANCH  13  14
ENDBRANCH  12  13
ENDBRANCH  11  12
ENDBRANCH  10  11
ENDBRANCH   9  10
ENDBRANCH   8   9
ENDBRANCH   7   8
ENDBRANCH   6   7
ENDBRANCH   5   6
ENDBRANCH   4   5
ENDBRANCH   3   4
ENDBRANCH   2   3
ENDBRANCH   1   2
BRANCH   1  17
ATOM     17  C   UNL     1      26.701  -3.073  30.658  1.00  0.00     0.000 C 
BRANCH  17  18
ATOM     18  C   UNL     1      27.611  -4.230  31.112  1.00  0.00     0.000 C 
BRANCH  18  19
ATOM     19  C   UNL     1      28.091  -5.110  29.944  1.00  0.00     0.000 C 
BRANCH  19  20
ATOM     20  C   UNL     1      29.409  -4.609  29.331  1.00  0.00     0.000 C 
BRANCH  20  21
ATOM     21  C   UNL     1      30.322  -3.926  30.363  1.00  0.00     0.000 C 
BRANCH  21  22
ATOM     22  C   UNL     1      31.229  -2.848  29.741  1.00  0.00    -0.000 C 
BRANCH  22  23
ATOM     23  C   UNL     1      32.678  -2.834  30.262  1.00  0.00    -0.000 C 
BRANCH  23  24
ATOM     24  C   UNL     1      33.606  -1.791  29.609  1.00  0.00    -0.000 C 
BRANCH  24  25
ATOM     25  C   UNL     1      33.643  -0.433  30.343  1.00  0.00    -0.000 C 
BRANCH  25  26
ATOM     26  C   UNL     1      35.070   0.121  30.501  1.00  0.00    -0.000 C 
BRANCH  26  27
ATOM     27  C   UNL     1      35.632  -0.114  31.921  1.00  0.00    -0.000 C 
BRANCH  27  28
ATOM     28  C   UNL     1      35.412   1.078  32.872  1.00  0.00    -0.000 C 
BRANCH  28  29
ATOM     29  C   UNL     1      35.076   0.687  34.320  1.00  0.00    -0.003 C 
ATOM     30  C   UNL     1      33.940   1.521  34.909  1.00  0.00     0.004 C 
ENDBRANCH  28  29
ENDBRANCH  27  28
ENDBRANCH  26  27
ENDBRANCH  25  26
ENDBRANCH  24  25
ENDBRANCH  23  24
ENDBRANCH  22  23
ENDBRANCH  21  22
ENDBRANCH  20  21
ENDBRANCH  19  20
ENDBRANCH  18  19
ENDBRANCH  17  18
ENDBRANCH   1  17
TORSDOF 26
ENDMDL
MODEL 5
REMARK VINA RESULT:    -4.930      2.342      8.522
REMARK INTER + INTRA:         -14.920
REMARK INTER:                 -12.497
REMARK INTRA:                  -2.423
REMARK UNBOUND:                -2.496
REMARK SMILES CCCCCCCCCCCCCCCCCCCCCCCCCCCC(=O)[O-]
REMARK SMILES IDX 15 1 16 2 17 3 18 4 19 5 20 6 21 7 22 8 23 9 24 10 25 11
REMARK SMILES IDX 26 12 27 13 28 14 29 15 30 16 14 17 13 18 12 19 11 20 10 21
REMARK SMILES IDX 9 22 8 23 7 24 6 25 5 26 4 27 3 28 2 29 1 30
REMARK H PARENT
REMARK Flexibility Score: inf
ROOT
ATOM      1  C   UNL     1      28.359   2.514  31.551  1.00  0.00     0.000 C 
ENDROOT
BRANCH   1   2
ATOM      2  C   UNL     1      28.823   3.910  32.000  1.00  0.00     0.000 C 
BRANCH   2   3
ATOM      3  C   UNL     1      27.826   5.023  31.621  1.00  0.00     0.000 C 
BRANCH   3   4
ATOM      4  C   UNL     1      28.022   5.631  30.217  1.00  0.00     0.000 C 
BRANCH   4   5
ATOM      5  C   UNL     1      26.822   5.479  29.261  1.00  0.00     0.000 C 
BRANCH   5   6
ATOM      6  C   UNL     1      26.888   4.256  28.328  1.00  0.00     0.000 C 
BRANCH   6   7
ATOM      7  C   UNL     1      25.540   3.937  27.665  1.00  0.00     0.000 C 
BRANCH   7   8
ATOM      8  C   UNL     1      25.580   2.561  26.985  1.00  0.00     0.000 C 
BRANCH   8   9
ATOM      9  C   UNL     1      24.535   2.414  25.864  1.00  0.00     0.000 C 
BRANCH   9  10
ATOM     10  C   UNL     1      23.829   1.047  25.808  1.00  0.00     0.000 C 
BRANCH  10  11
ATOM     11  C   UNL     1      22.298   1.164  25.723  1.00  0.00     0.000 C 
BRANCH  11  12
ATOM     12  C   UNL     1      21.584  -0.097  26.235  1.00  0.00     0.006 C 
BRANCH  12  13
ATOM     13  C   UNL     1      20.670   0.193  27.433  1.00  0.00     0.053 C 
BRANCH  13  14
ATOM     14  C   UNL     1      20.895  -0.810  28.519  1.00  0.00     0.041 C 
ATOM     15  O   UNL     1      20.843  -0.456  29.727  1.00  0.00    -0.550 OA
ATOM     16  O   UNL     1      21.110  -2.145  28.202  1.00  0.00    -0.550 OA
ENDBRANCH  13  14
ENDBRANCH  12  13
ENDBRANCH  11  12
ENDBRANCH  10  11
ENDBRANCH   9  10
ENDBRANCH   8   9
ENDBRANCH   7   8
ENDBRANCH   6   7
ENDBRANCH   5   6
ENDBRANCH   4   5
ENDBRANCH   3   4
ENDBRANCH   2   3
ENDBRANCH   1   2
BRANCH   1  17
ATOM     17  C   UNL     1      29.394   1.412  31.853  1.00  0.00     0.000 C 
BRANCH  17  18
ATOM     18  C   UNL     1      29.863   0.597  30.634  1.00  0.00     0.000 C 
BRANCH  18  19
ATOM     19  C   UNL     1      29.154   1.005  29.330  1.00  0.00     0.000 C 
BRANCH  19  20
ATOM     20  C   UNL     1      28.253  -0.110  28.775  1.00  0.00     0.000 C 
BRANCH  20  21
ATOM     21  C   UNL     1      26.804  -0.010  29.281  1.00  0.00     0.000 C 
BRANCH  21  22
ATOM     22  C   UNL     1      26.469  -1.066  30.351  1.00  0.00    -0.000 C 
BRANCH  22  23
ATOM     23  C   UNL     1      27.566  -2.121  30.592  1.00  0.00    -0.000 C 
BRANCH  23  24
ATOM     24  C   UNL     1      27.067  -3.572  30.731  1.00  0.00    -0.000 C 
BRANCH  24  25
ATOM     25  C   UNL     1      28.013  -4.490  31.534  1.00  0.00    -0.000 C 
BRANCH  25  26
ATOM     26  C   UNL     1      28.978  -5.286  30.636  1.00  0.00    -0.000 C 
BRANCH  26  27
ATOM     27  C   UNL     1      28.229  -6.165  29.610  1.00  0.00    -0.000 C 
BRANCH  27  28
ATOM     28  C   UNL     1      28.339  -7.674  29.900  1.00  0.00    -0.000 C 
BRANCH  28  29
ATOM     29  C   UNL     1      29.211  -8.029  31.115  1.00  0.00    -0.003 C 
ATOM     30  C   UNL     1      28.426  -8.738  32.218  1.00  0.00     0.004 C 
ENDBRANCH  28  29
ENDBRANCH  27  28
ENDBRANCH  26  27
ENDBRANCH  25  26
ENDBRANCH  24  25
ENDBRANCH  23  24
ENDBRANCH  22  23
ENDBRANCH  21  22
ENDBRANCH  20  21
ENDBRANCH  19  20
ENDBRANCH  18  19
ENDBRANCH  17  18
ENDBRANCH   1  17
TORSDOF 26
ENDMDL
MODEL 6
REMARK VINA RESULT:    -4.741      1.415      2.667
REMARK INTER + INTRA:         -14.443
REMARK INTER:                 -12.688
REMARK INTRA:                  -1.755
REMARK UNBOUND:                -2.496
REMARK SMILES CCCCCCCCCCCCCCCCCCCCCCCCCCCC(=O)[O-]
REMARK SMILES IDX 15 1 16 2 17 3 18 4 19 5 20 6 21 7 22 8 23 9 24 10 25 11
REMARK SMILES IDX 26 12 27 13 28 14 29 15 30 16 14 17 13 18 12 19 11 20 10 21
REMARK SMILES IDX 9 22 8 23 7 24 6 25 5 26 4 27 3 28 2 29 1 30
REMARK H PARENT
REMARK Flexibility Score: inf
ROOT
ATOM      1  C   UNL     1      28.851  -0.394  29.119  1.00  0.00     0.000 C 
ENDROOT
BRANCH   1   2
ATOM      2  C   UNL     1      29.169  -1.646  29.954  1.00  0.00     0.000 C 
BRANCH   2   3
ATOM      3  C   UNL     1      27.946  -2.178  30.726  1.00  0.00     0.000 C 
BRANCH   3   4
ATOM      4  C   UNL     1      27.735  -3.705  30.651  1.00  0.00     0.000 C 
BRANCH   4   5
ATOM      5  C   UNL     1      26.295  -4.156  30.334  1.00  0.00     0.000 C 
BRANCH   5   6
ATOM      6  C   UNL     1      25.200  -3.142  30.713  1.00  0.00     0.000 C 
BRANCH   6   7
ATOM      7  C   UNL     1      23.790  -3.615  30.334  1.00  0.00     0.000 C 
BRANCH   7   8
ATOM      8  C   UNL     1      22.723  -2.742  31.007  1.00  0.00     0.000 C 
BRANCH   8   9
ATOM      9  C   UNL     1      22.590  -1.350  30.362  1.00  0.00     0.000 C 
BRANCH   9  10
ATOM     10  C   UNL     1      21.154  -0.941  29.987  1.00  0.00     0.000 C 
BRANCH  10  11
ATOM     11  C   UNL     1      20.803  -1.254  28.522  1.00  0.00     0.000 C 
BRANCH  11  12
ATOM     12  C   UNL     1      20.910  -0.017  27.616  1.00  0.00     0.006 C 
BRANCH  12  13
ATOM     13  C   UNL     1      21.540  -0.340  26.256  1.00  0.00     0.053 C 
BRANCH  13  14
ATOM     14  C   UNL     1      22.358   0.814  25.769  1.00  0.00     0.041 C 
ATOM     15  O   UNL     1      21.833   1.952  25.642  1.00  0.00    -0.550 OA
ATOM     16  O   UNL     1      23.711   0.647  25.504  1.00  0.00    -0.550 OA
ENDBRANCH  13  14
ENDBRANCH  12  13
ENDBRANCH  11  12
ENDBRANCH  10  11
ENDBRANCH   9  10
ENDBRANCH   8   9
ENDBRANCH   7   8
ENDBRANCH   6   7
ENDBRANCH   5   6
ENDBRANCH   4   5
ENDBRANCH   3   4
ENDBRANCH   2   3
ENDBRANCH   1   2
BRANCH   1  17
ATOM     17  C   UNL     1      27.366   0.012  29.187  1.00  0.00     0.000 C 
BRANCH  17  18
ATOM     18  C   UNL     1      27.091   1.407  29.778  1.00  0.00     0.000 C 
BRANCH  18  19
ATOM     19  C   UNL     1      27.378   1.486  31.288  1.00  0.00     0.000 C 
BRANCH  19  20
ATOM     20  C   UNL     1      27.948   2.852  31.708  1.00  0.00     0.000 C 
BRANCH  20  21
ATOM     21  C   UNL     1      27.881   3.896  30.581  1.00  0.00     0.000 C 
BRANCH  21  22
ATOM     22  C   UNL     1      28.073   5.338  31.087  1.00  0.00    -0.000 C 
BRANCH  22  23
ATOM     23  C   UNL     1      27.217   6.400  30.372  1.00  0.00    -0.000 C 
BRANCH  23  24
ATOM     24  C   UNL     1      27.851   7.801  30.270  1.00  0.00    -0.000 C 
BRANCH  24  25
ATOM     25  C   UNL     1      26.866   8.910  29.844  1.00  0.00    -0.000 C 
BRANCH  25  26
ATOM     26  C   UNL     1      26.190   9.600  31.042  1.00  0.00    -0.000 C 
BRANCH  26  27
ATOM     27  C   UNL     1      26.934  10.882  31.474  1.00  0.00    -0.000 C 
BRANCH  27  28
ATOM     28  C   UNL     1      26.907  11.125  32.995  1.00  0.00    -0.000 C 
BRANCH  28  29
ATOM     29  C   UNL     1      26.135  10.066  33.797  1.00  0.00    -0.003 C 
ATOM     30  C   UNL     1      26.062  10.391  35.288  1.00  0.00     0.004 C 
ENDBRANCH  28  29
ENDBRANCH  27  28
ENDBRANCH  26  27
ENDBRANCH  25  26
ENDBRANCH  24  25
ENDBRANCH  23  24
ENDBRANCH  22  23
ENDBRANCH  21  22
ENDBRANCH  20  21
ENDBRANCH  19  20
ENDBRANCH  18  19
ENDBRANCH  17  18
ENDBRANCH   1  17
TORSDOF 26
ENDMDL
MODEL 7
REMARK VINA RESULT:    -4.706      4.711      8.012
REMARK INTER + INTRA:         -14.354
REMARK INTER:                 -12.036
REMARK INTRA:                  -2.318
REMARK UNBOUND:                -2.496
REMARK SMILES CCCCCCCCCCCCCCCCCCCCCCCCCCCC(=O)[O-]
REMARK SMILES IDX 15 1 16 2 17 3 18 4 19 5 20 6 21 7 22 8 23 9 24 10 25 11
REMARK SMILES IDX 26 12 27 13 28 14 29 15 30 16 14 17 13 18 12 19 11 20 10 21
REMARK SMILES IDX 9 22 8 23 7 24 6 25 5 26 4 27 3 28 2 29 1 30
REMARK H PARENT
REMARK Flexibility Score: inf
ROOT
ATOM      1  C   UNL     1      26.309  -2.095  30.420  1.00  0.00     0.000 C 
ENDROOT
BRANCH   1   2
ATOM      2  C   UNL     1      27.398  -2.661  31.348  1.00  0.00     0.000 C 
BRANCH   2   3
ATOM      3  C   UNL     1      27.459  -4.201  31.331  1.00  0.00     0.000 C 
BRANCH   3   4
ATOM      4  C   UNL     1      28.138  -4.818  30.091  1.00  0.00     0.000 C 
BRANCH   4   5
ATOM      5  C   UNL     1      29.245  -3.958  29.449  1.00  0.00     0.000 C 
BRANCH   5   6
ATOM      6  C   UNL     1      30.633  -4.095  30.103  1.00  0.00     0.000 C 
BRANCH   6   7
ATOM      7  C   UNL     1      31.466  -2.809  30.010  1.00  0.00     0.000 C 
BRANCH   7   8
ATOM      8  C   UNL     1      32.912  -3.064  30.460  1.00  0.00     0.000 C 
BRANCH   8   9
ATOM      9  C   UNL     1      33.910  -2.041  29.887  1.00  0.00     0.000 C 
BRANCH   9  10
ATOM     10  C   UNL     1      33.524  -0.566  30.100  1.00  0.00     0.000 C 
BRANCH  10  11
ATOM     11  C   UNL     1      34.736   0.339  30.376  1.00  0.00     0.000 C 
BRANCH  11  12
ATOM     12  C   UNL     1      35.500  -0.076  31.644  1.00  0.00     0.006 C 
BRANCH  12  13
ATOM     13  C   UNL     1      35.651   1.080  32.641  1.00  0.00     0.053 C 
BRANCH  13  14
ATOM     14  C   UNL     1      35.075   0.706  33.970  1.00  0.00     0.041 C 
ATOM     15  O   UNL     1      35.365  -0.401  34.496  1.00  0.00    -0.550 OA
ATOM     16  O   UNL     1      34.259   1.600  34.653  1.00  0.00    -0.550 OA
ENDBRANCH  13  14
ENDBRANCH  12  13
ENDBRANCH  11  12
ENDBRANCH  10  11
ENDBRANCH   9  10
ENDBRANCH   8   9
ENDBRANCH   7   8
ENDBRANCH   6   7
ENDBRANCH   5   6
ENDBRANCH   4   5
ENDBRANCH   3   4
ENDBRANCH   2   3
ENDBRANCH   1   2
BRANCH   1  17
ATOM     17  C   UNL     1      26.354  -0.559  30.309  1.00  0.00     0.000 C 
BRANCH  17  18
ATOM     18  C   UNL     1      27.047  -0.009  29.049  1.00  0.00     0.000 C 
BRANCH  18  19
ATOM     19  C   UNL     1      28.543  -0.365  28.983  1.00  0.00     0.000 C 
BRANCH  19  20
ATOM     20  C   UNL     1      29.443   0.776  29.486  1.00  0.00     0.000 C 
BRANCH  20  21
ATOM     21  C   UNL     1      29.644   0.746  31.010  1.00  0.00     0.000 C 
BRANCH  21  22
ATOM     22  C   UNL     1      28.967   1.929  31.728  1.00  0.00    -0.000 C 
BRANCH  22  23
ATOM     23  C   UNL     1      28.281   2.949  30.799  1.00  0.00    -0.000 C 
BRANCH  23  24
ATOM     24  C   UNL     1      27.948   4.309  31.443  1.00  0.00    -0.000 C 
BRANCH  24  25
ATOM     25  C   UNL     1      27.859   5.477  30.438  1.00  0.00    -0.000 C 
BRANCH  25  26
ATOM     26  C   UNL     1      27.084   6.685  30.995  1.00  0.00    -0.000 C 
BRANCH  26  27
ATOM     27  C   UNL     1      27.602   8.024  30.425  1.00  0.00    -0.000 C 
BRANCH  27  28
ATOM     28  C   UNL     1      26.687   9.221  30.744  1.00  0.00    -0.000 C 
BRANCH  28  29
ATOM     29  C   UNL     1      26.520  10.223  29.591  1.00  0.00    -0.003 C 
ATOM     30  C   UNL     1      27.857  10.724  29.045  1.00  0.00     0.004 C 
ENDBRANCH  28  29
ENDBRANCH  27  28
ENDBRANCH  26  27
ENDBRANCH  25  26
ENDBRANCH  24  25
ENDBRANCH  23  24
ENDBRANCH  22  23
ENDBRANCH  21  22
ENDBRANCH  20  21
ENDBRANCH  19  20
ENDBRANCH  18  19
ENDBRANCH  17  18
ENDBRANCH   1  17
TORSDOF 26
ENDMDL
MODEL 8
REMARK VINA RESULT:    -4.619      4.769      7.841
REMARK INTER + INTRA:         -14.135
REMARK INTER:                 -11.784
REMARK INTRA:                  -2.351
REMARK UNBOUND:                -2.496
REMARK SMILES CCCCCCCCCCCCCCCCCCCCCCCCCCCC(=O)[O-]
REMARK SMILES IDX 15 1 16 2 17 3 18 4 19 5 20 6 21 7 22 8 23 9 24 10 25 11
REMARK SMILES IDX 26 12 27 13 28 14 29 15 30 16 14 17 13 18 12 19 11 20 10 21
REMARK SMILES IDX 9 22 8 23 7 24 6 25 5 26 4 27 3 28 2 29 1 30
REMARK H PARENT
REMARK Flexibility Score: inf
ROOT
ATOM      1  C   UNL     1      26.674   0.250  29.007  1.00  0.00     0.000 C 
ENDROOT
BRANCH   1   2
ATOM      2  C   UNL     1      26.171  -0.363  30.325  1.00  0.00     0.000 C 
BRANCH   2   3
ATOM      3  C   UNL     1      26.300  -1.898  30.359  1.00  0.00     0.000 C 
BRANCH   3   4
ATOM      4  C   UNL     1      27.633  -2.433  30.923  1.00  0.00     0.000 C 
BRANCH   4   5
ATOM      5  C   UNL     1      27.888  -3.936  30.696  1.00  0.00     0.000 C 
BRANCH   5   6
ATOM      6  C   UNL     1      29.316  -4.290  30.242  1.00  0.00     0.000 C 
BRANCH   6   7
ATOM      7  C   UNL     1      30.035  -3.116  29.564  1.00  0.00     0.000 C 
BRANCH   7   8
ATOM      8  C   UNL     1      31.501  -3.042  30.014  1.00  0.00     0.000 C 
BRANCH   8   9
ATOM      9  C   UNL     1      32.165  -1.692  29.682  1.00  0.00     0.000 C 
BRANCH   9  10
ATOM     10  C   UNL     1      33.661  -1.599  30.035  1.00  0.00     0.000 C 
BRANCH  10  11
ATOM     11  C   UNL     1      34.180  -0.152  30.071  1.00  0.00     0.000 C 
BRANCH  11  12
ATOM     12  C   UNL     1      35.420   0.004  30.965  1.00  0.00     0.006 C 
BRANCH  12  13
ATOM     13  C   UNL     1      35.185  -0.518  32.388  1.00  0.00     0.053 C 
BRANCH  13  14
ATOM     14  C   UNL     1      35.480   0.549  33.394  1.00  0.00     0.041 C 
ATOM     15  O   UNL     1      35.449   0.283  34.625  1.00  0.00    -0.550 OA
ATOM     16  O   UNL     1      35.839   1.823  32.974  1.00  0.00    -0.550 OA
ENDBRANCH  13  14
ENDBRANCH  12  13
ENDBRANCH  11  12
ENDBRANCH  10  11
ENDBRANCH   9  10
ENDBRANCH   8   9
ENDBRANCH   7   8
ENDBRANCH   6   7
ENDBRANCH   5   6
ENDBRANCH   4   5
ENDBRANCH   3   4
ENDBRANCH   2   3
ENDBRANCH   1   2
BRANCH   1  17
ATOM     17  C   UNL     1      28.167  -0.031  28.745  1.00  0.00     0.000 C 
BRANCH  17  18
ATOM     18  C   UNL     1      29.123   1.129  29.076  1.00  0.00     0.000 C 
BRANCH  18  19
ATOM     19  C   UNL     1      29.799   0.977  30.451  1.00  0.00     0.000 C 
BRANCH  19  20
ATOM     20  C   UNL     1      28.997   1.649  31.578  1.00  0.00     0.000 C 
BRANCH  20  21
ATOM     21  C   UNL     1      28.194   2.867  31.092  1.00  0.00     0.000 C 
BRANCH  21  22
ATOM     22  C   UNL     1      28.400   4.112  31.975  1.00  0.00    -0.000 C 
BRANCH  22  23
ATOM     23  C   UNL     1      28.570   5.436  31.204  1.00  0.00    -0.000 C 
BRANCH  23  24
ATOM     24  C   UNL     1      27.375   5.843  30.320  1.00  0.00    -0.000 C 
BRANCH  24  25
ATOM     25  C   UNL     1      27.030   7.346  30.381  1.00  0.00    -0.000 C 
BRANCH  25  26
ATOM     26  C   UNL     1      28.125   8.235  29.766  1.00  0.00    -0.000 C 
BRANCH  26  27
ATOM     27  C   UNL     1      27.930   9.728  30.114  1.00  0.00    -0.000 C 
BRANCH  27  28
ATOM     28  C   UNL     1      26.459  10.183  30.060  1.00  0.00    -0.000 C 
BRANCH  28  29
ATOM     29  C   UNL     1      25.979  10.942  31.307  1.00  0.00    -0.003 C 
ATOM     30  C   UNL     1      26.331  10.223  32.608  1.00  0.00     0.004 C 
ENDBRANCH  28  29
ENDBRANCH  27  28
ENDBRANCH  26  27
ENDBRANCH  25  26
ENDBRANCH  24  25
ENDBRANCH  23  24
ENDBRANCH  22  23
ENDBRANCH  21  22
ENDBRANCH  20  21
ENDBRANCH  19  20
ENDBRANCH  18  19
ENDBRANCH  17  18
ENDBRANCH   1  17
TORSDOF 26
ENDMDL
