MODEL 1
REMARK VINA RESULT:    -4.950      0.000      0.000
REMARK INTER + INTRA:          -7.528
REMARK INTER:                  -7.554
REMARK INTRA:                   0.026
REMARK UNBOUND:                 0.026
REMARK SMILES CC1=CCC[C@H](C)C(=O)C[C@H](C(C)C)C(=O)C1
REMARK SMILES IDX 8 1 9 2 6 3 7 4 5 5 4 6 3 7 2 8 1 9 10 11 11 12 15 13 16 14
REMARK SMILES IDX 17 15 12 17 13 18 14 19
REMARK H PARENT
REMARK Flexibility Score: 70.00
ROOT
ATOM      1  C   UNL     1      24.242 -20.320  18.217  1.00  0.00     0.136 C 
ATOM      2  O   UNL     1      24.173 -19.559  17.262  1.00  0.00    -0.299 OA
ENDROOT
BRANCH   1   3
ATOM      3  C   UNL     1      24.955 -19.853  19.473  1.00  0.00     0.053 C 
ATOM      4  C   UNL     1      26.408 -19.472  19.166  1.00  0.00     0.016 C 
BRANCH   3   5
ATOM      5  C   UNL     1      24.207 -18.688  20.149  1.00  0.00     0.015 C 
BRANCH   5   6
ATOM      6  C   UNL     1      23.719 -19.058  21.561  1.00  0.00     0.028 C 
BRANCH   6   7
ATOM      7  C   UNL     1      22.218 -18.958  21.652  1.00  0.00    -0.028 C 
ATOM      8  C   UNL     1      21.374 -20.013  21.581  1.00  0.00    -0.070 CG0
ATOM      9  C   UNL     1      19.891 -19.738  21.626  1.00  0.00     0.039 C 
ATOM     10  G   UNL     1      21.854 -21.453  21.473  1.00  0.00     0.000 G0
ENDBRANCH   6   7
ENDBRANCH   5   6
ENDBRANCH   3   5
ENDBRANCH   1   3
BRANCH   1  11
ATOM     11  C   UNL     1      23.586 -21.679  18.110  1.00  0.00     0.087 C 
BRANCH  11  12
ATOM     12  C   UNL     1      23.353 -22.330  19.501  1.00  0.00     0.066 C 
BRANCH  12  13
ATOM     13  C   UNL     1      21.994 -21.945  20.070  1.00  0.00     0.140 C 
ATOM     14  O   UNL     1      20.987 -22.091  19.392  1.00  0.00    -0.299 OA
BRANCH  13  15
ATOM     15  C   UNL     1      21.854 -21.459  21.492  1.00  0.00     0.106 CG0
ATOM     16  G   UNL     1      21.380 -20.015  21.562  1.00  0.00     0.000 G0
ENDBRANCH  13  15
ENDBRANCH  12  13
BRANCH  12  17
ATOM     17  C   UNL     1      23.524 -23.884  19.499  1.00  0.00    -0.006 C 
ATOM     18  C   UNL     1      24.952 -24.357  19.163  1.00  0.00     0.008 C 
ATOM     19  C   UNL     1      23.067 -24.505  20.829  1.00  0.00     0.008 C 
ENDBRANCH  12  17
ENDBRANCH  11  12
ENDBRANCH   1  11
TORSDOF 1
ENDMDL
MODEL 2
REMARK VINA RESULT:    -4.902      2.350      4.634
REMARK INTER + INTRA:          -7.455
REMARK INTER:                  -7.457
REMARK INTRA:                   0.003
REMARK UNBOUND:                 0.026
REMARK SMILES CC1=CCC[C@H](C)C(=O)C[C@H](C(C)C)C(=O)C1
REMARK SMILES IDX 8 1 9 2 6 3 7 4 5 5 4 6 3 7 2 8 1 9 10 11 11 12 15 13 16 14
REMARK SMILES IDX 17 15 12 17 13 18 14 19
REMARK H PARENT
REMARK Flexibility Score: 70.00
ROOT
ATOM      1  C   UNL     1      24.433 -20.053  17.428  1.00  0.00     0.136 C 
ATOM      2  O   UNL     1      25.553 -20.344  17.034  1.00  0.00    -0.299 OA
ENDROOT
BRANCH   1   3
ATOM      3  C   UNL     1      23.332 -19.838  16.405  1.00  0.00     0.053 C 
ATOM      4  C   UNL     1      23.655 -18.643  15.500  1.00  0.00     0.016 C 
BRANCH   3   5
ATOM      5  C   UNL     1      23.073 -21.109  15.575  1.00  0.00     0.015 C 
BRANCH   5   6
ATOM      6  C   UNL     1      22.269 -22.159  16.363  1.00  0.00     0.028 C 
BRANCH   6   7
ATOM      7  C   UNL     1      22.996 -23.479  16.390  1.00  0.00    -0.028 C 
ATOM      8  C   UNL     1      23.367 -24.126  17.519  1.00  0.00    -0.070 CG0
ATOM      9  C   UNL     1      24.145 -25.411  17.375  1.00  0.00     0.039 C 
ATOM     10  G   UNL     1      23.023 -23.624  18.914  1.00  0.00     0.000 G0
ENDBRANCH   6   7
ENDBRANCH   5   6
ENDBRANCH   3   5
ENDBRANCH   1   3
BRANCH   1  11
ATOM     11  C   UNL     1      24.192 -19.953  18.918  1.00  0.00     0.087 C 
BRANCH  11  12
ATOM     12  C   UNL     1      23.214 -21.045  19.431  1.00  0.00     0.066 C 
BRANCH  12  13
ATOM     13  C   UNL     1      23.840 -22.430  19.345  1.00  0.00     0.140 C 
ATOM     14  O   UNL     1      25.008 -22.591  19.672  1.00  0.00    -0.299 OA
BRANCH  13  15
ATOM     15  C   UNL     1      23.023 -23.632  18.940  1.00  0.00     0.106 CG0
ATOM     16  G   UNL     1      23.367 -24.117  17.540  1.00  0.00     0.000 G0
ENDBRANCH  13  15
ENDBRANCH  12  13
BRANCH  12  17
ATOM     17  C   UNL     1      22.678 -20.775  20.874  1.00  0.00    -0.006 C 
ATOM     18  C   UNL     1      22.830 -19.313  21.336  1.00  0.00     0.008 C 
ATOM     19  C   UNL     1      21.215 -21.222  21.026  1.00  0.00     0.008 C 
ENDBRANCH  12  17
ENDBRANCH  11  12
ENDBRANCH   1  11
TORSDOF 1
ENDMDL
MODEL 3
REMARK VINA RESULT:    -4.878      2.172      4.205
REMARK INTER + INTRA:          -7.418
REMARK INTER:                  -7.481
REMARK INTRA:                   0.063
REMARK UNBOUND:                 0.026
REMARK SMILES CC1=CCC[C@H](C)C(=O)C[C@H](C(C)C)C(=O)C1
REMARK SMILES IDX 8 1 9 2 6 3 7 4 5 5 4 6 3 7 2 8 1 9 10 11 11 12 15 13 16 14
REMARK SMILES IDX 17 15 12 17 13 18 14 19
REMARK H PARENT
REMARK Flexibility Score: 70.00
ROOT
ATOM      1  C   UNL     1      23.734 -24.242  20.311  1.00  0.00     0.136 C 
ATOM      2  O   UNL     1      24.723 -24.172  21.027  1.00  0.00    -0.299 OA
ENDROOT
BRANCH   1   3
ATOM      3  C   UNL     1      22.361 -24.209  20.958  1.00  0.00     0.053 C 
ATOM      4  C   UNL     1      22.174 -25.401  21.904  1.00  0.00     0.016 C 
BRANCH   3   5
ATOM      5  C   UNL     1      22.111 -22.876  21.689  1.00  0.00     0.015 C 
BRANCH   5   6
ATOM      6  C   UNL     1      21.814 -21.727  20.709  1.00  0.00     0.028 C 
BRANCH   6   7
ATOM      7  C   UNL     1      22.768 -20.581  20.924  1.00  0.00    -0.028 C 
ATOM      8  C   UNL     1      23.551 -20.043  19.959  1.00  0.00    -0.070 CG0
ATOM      9  C   UNL     1      24.500 -18.939  20.351  1.00  0.00     0.039 C 
ATOM     10  G   UNL     1      23.503 -20.494  18.507  1.00  0.00     0.000 G0
ENDBRANCH   6   7
ENDBRANCH   5   6
ENDBRANCH   3   5
ENDBRANCH   1   3
BRANCH   1  11
ATOM     11  C   UNL     1      23.927 -24.327  18.813  1.00  0.00     0.087 C 
BRANCH  11  12
ATOM     12  C   UNL     1      23.319 -23.105  18.071  1.00  0.00     0.066 C 
BRANCH  12  13
ATOM     13  C   UNL     1      24.156 -21.853  18.293  1.00  0.00     0.140 C 
ATOM     14  O   UNL     1      25.377 -21.919  18.238  1.00  0.00    -0.299 OA
BRANCH  13  15
ATOM     15  C   UNL     1      23.506 -20.508  18.501  1.00  0.00     0.106 CG0
ATOM     16  G   UNL     1      23.570 -20.056  19.953  1.00  0.00     0.000 G0
ENDBRANCH  13  15
ENDBRANCH  12  13
BRANCH  12  17
ATOM     17  C   UNL     1      23.096 -23.351  16.544  1.00  0.00    -0.006 C 
ATOM     18  C   UNL     1      23.001 -24.839  16.155  1.00  0.00     0.008 C 
ATOM     19  C   UNL     1      21.861 -22.595  16.025  1.00  0.00     0.008 C 
ENDBRANCH  12  17
ENDBRANCH  11  12
ENDBRANCH   1  11
TORSDOF 1
ENDMDL
MODEL 4
REMARK VINA RESULT:    -4.759      2.181      5.115
REMARK INTER + INTRA:          -7.237
REMARK INTER:                  -8.518
REMARK INTRA:                   1.282
REMARK UNBOUND:                 0.026
REMARK SMILES CC1=CCC[C@H](C)C(=O)C[C@H](C(C)C)C(=O)C1
REMARK SMILES IDX 8 1 9 2 6 3 7 4 5 5 4 6 3 7 2 8 1 9 10 11 11 12 15 13 16 14
REMARK SMILES IDX 17 15 12 17 13 18 14 19
REMARK H PARENT
REMARK Flexibility Score: 70.00
ROOT
ATOM      1  C   UNL     1      22.411 -22.242  20.437  1.00  0.00     0.136 C 
ATOM      2  O   UNL     1      21.192 -22.338  20.426  1.00  0.00    -0.299 OA
ENDROOT
BRANCH   1   3
ATOM      3  C   UNL     1      23.234 -23.444  20.865  1.00  0.00     0.053 C 
ATOM      4  C   UNL     1      22.660 -24.073  22.140  1.00  0.00     0.016 C 
BRANCH   3   5
ATOM      5  C   UNL     1      23.345 -24.485  19.734  1.00  0.00     0.015 C 
BRANCH   5   6
ATOM      6  C   UNL     1      24.148 -23.952  18.536  1.00  0.00     0.028 C 
BRANCH   6   7
ATOM      7  C   UNL     1      23.432 -24.239  17.241  1.00  0.00    -0.028 C 
ATOM      8  C   UNL     1      22.502 -23.431  16.683  1.00  0.00    -0.070 CG0
ATOM      9  C   UNL     1      21.831 -23.893  15.414  1.00  0.00     0.039 C 
ATOM     10  G   UNL     1      22.119 -22.080  17.271  1.00  0.00     0.000 G0
ENDBRANCH   6   7
ENDBRANCH   5   6
ENDBRANCH   3   5
ENDBRANCH   1   3
BRANCH   1  11
ATOM     11  C   UNL     1      23.041 -20.940  19.995  1.00  0.00     0.087 C 
BRANCH  11  12
ATOM     12  C   UNL     1      24.018 -21.134  18.804  1.00  0.00     0.066 C 
BRANCH  12  13
ATOM     13  C   UNL     1      23.273 -21.148  17.476  1.00  0.00     0.140 C 
ATOM     14  O   UNL     1      23.673 -20.462  16.546  1.00  0.00    -0.299 OA
BRANCH  13  15
ATOM     15  C   UNL     1      22.090 -22.059  17.256  1.00  0.00     0.106 CG0
ATOM     16  G   UNL     1      22.501 -23.411  16.693  1.00  0.00     0.000 G0
ENDBRANCH  13  15
ENDBRANCH  12  13
BRANCH  12  17
ATOM     17  C   UNL     1      25.176 -20.085  18.769  1.00  0.00    -0.006 C 
ATOM     18  C   UNL     1      25.172 -19.107  19.961  1.00  0.00     0.008 C 
ATOM     19  C   UNL     1      26.551 -20.764  18.654  1.00  0.00     0.008 C 
ENDBRANCH  12  17
ENDBRANCH  11  12
ENDBRANCH   1  11
TORSDOF 1
ENDMDL
MODEL 5
REMARK VINA RESULT:    -4.724      2.017      4.309
REMARK INTER + INTRA:          -7.183
REMARK INTER:                  -7.208
REMARK INTRA:                   0.025
REMARK UNBOUND:                 0.026
REMARK SMILES CC1=CCC[C@H](C)C(=O)C[C@H](C(C)C)C(=O)C1
REMARK SMILES IDX 8 1 9 2 6 3 7 4 5 5 4 6 3 7 2 8 1 9 10 11 11 12 15 13 16 14
REMARK SMILES IDX 17 15 12 17 13 18 14 19
REMARK H PARENT
REMARK Flexibility Score: 70.00
ROOT
ATOM      1  C   UNL     1      22.301 -22.362  20.427  1.00  0.00     0.136 C 
ATOM      2  O   UNL     1      22.203 -23.220  21.293  1.00  0.00    -0.299 OA
ENDROOT
BRANCH   1   3
ATOM      3  C   UNL     1      21.627 -21.020  20.649  1.00  0.00     0.053 C 
ATOM      4  C   UNL     1      20.157 -21.206  21.043  1.00  0.00     0.016 C 
BRANCH   3   5
ATOM      5  C   UNL     1      22.380 -20.175  21.694  1.00  0.00     0.015 C 
BRANCH   5   6
ATOM      6  C   UNL     1      22.796 -18.803  21.136  1.00  0.00     0.028 C 
BRANCH   6   7
ATOM      7  C   UNL     1      24.281 -18.593  21.287  1.00  0.00    -0.028 C 
ATOM      8  C   UNL     1      25.191 -18.823  20.312  1.00  0.00    -0.070 CG0
ATOM      9  C   UNL     1      26.649 -18.622  20.643  1.00  0.00     0.039 C 
ATOM     10  G   UNL     1      24.807 -19.257  18.906  1.00  0.00     0.000 G0
ENDBRANCH   6   7
ENDBRANCH   5   6
ENDBRANCH   3   5
ENDBRANCH   1   3
BRANCH   1  11
ATOM     11  C   UNL     1      23.114 -22.671  19.189  1.00  0.00     0.087 C 
BRANCH  11  12
ATOM     12  C   UNL     1      23.396 -21.402  18.339  1.00  0.00     0.066 C 
BRANCH  12  13
ATOM     13  C   UNL     1      24.706 -20.744  18.748  1.00  0.00     0.140 C 
ATOM     14  O   UNL     1      25.709 -21.428  18.902  1.00  0.00    -0.299 OA
BRANCH  13  15
ATOM     15  C   UNL     1      24.815 -19.245  18.890  1.00  0.00     0.106 CG0
ATOM     16  G   UNL     1      25.215 -18.828  20.298  1.00  0.00     0.000 G0
ENDBRANCH  13  15
ENDBRANCH  12  13
BRANCH  12  17
ATOM     17  C   UNL     1      23.373 -21.665  16.799  1.00  0.00    -0.006 C 
ATOM     18  C   UNL     1      22.218 -22.574  16.335  1.00  0.00     0.008 C 
ATOM     19  C   UNL     1      23.356 -20.350  16.001  1.00  0.00     0.008 C 
ENDBRANCH  12  17
ENDBRANCH  11  12
ENDBRANCH   1  11
TORSDOF 1
ENDMDL
MODEL 6
REMARK VINA RESULT:    -4.642      2.521      4.146
REMARK INTER + INTRA:          -7.059
REMARK INTER:                  -7.190
REMARK INTRA:                   0.130
REMARK UNBOUND:                 0.026
REMARK SMILES CC1=CCC[C@H](C)C(=O)C[C@H](C(C)C)C(=O)C1
REMARK SMILES IDX 8 1 9 2 6 3 7 4 5 5 4 6 3 7 2 8 1 9 10 11 11 12 15 13 16 14
REMARK SMILES IDX 17 15 12 17 13 18 14 19
REMARK H PARENT
REMARK Flexibility Score: 70.00
ROOT
ATOM      1  C   UNL     1      26.276 -24.565  18.785  1.00  0.00     0.136 C 
ATOM      2  O   UNL     1      26.874 -25.349  18.062  1.00  0.00    -0.299 OA
ENDROOT
BRANCH   1   3
ATOM      3  C   UNL     1      27.072 -23.517  19.541  1.00  0.00     0.053 C 
ATOM      4  C   UNL     1      28.307 -24.141  20.203  1.00  0.00     0.016 C 
BRANCH   3   5
ATOM      5  C   UNL     1      27.467 -22.339  18.630  1.00  0.00     0.015 C 
BRANCH   5   6
ATOM      6  C   UNL     1      26.993 -20.989  19.194  1.00  0.00     0.028 C 
BRANCH   6   7
ATOM      7  C   UNL     1      26.145 -20.256  18.186  1.00  0.00    -0.028 C 
ATOM      8  C   UNL     1      24.792 -20.260  18.174  1.00  0.00    -0.070 CG0
ATOM      9  C   UNL     1      24.091 -19.525  17.059  1.00  0.00     0.039 C 
ATOM     10  G   UNL     1      23.956 -20.957  19.238  1.00  0.00     0.000 G0
ENDBRANCH   6   7
ENDBRANCH   5   6
ENDBRANCH   3   5
ENDBRANCH   1   3
BRANCH   1  11
ATOM     11  C   UNL     1      24.768 -24.660  18.868  1.00  0.00     0.087 C 
BRANCH  11  12
ATOM     12  C   UNL     1      24.156 -23.533  19.745  1.00  0.00     0.066 C 
BRANCH  12  13
ATOM     13  C   UNL     1      23.636 -22.388  18.887  1.00  0.00     0.140 C 
ATOM     14  O   UNL     1      22.904 -22.624  17.936  1.00  0.00    -0.299 OA
BRANCH  13  15
ATOM     15  C   UNL     1      23.940 -20.952  19.236  1.00  0.00     0.106 CG0
ATOM     16  G   UNL     1      24.801 -20.273  18.181  1.00  0.00     0.000 G0
ENDBRANCH  13  15
ENDBRANCH  12  13
BRANCH  12  17
ATOM     17  C   UNL     1      23.043 -24.036  20.719  1.00  0.00    -0.006 C 
ATOM     18  C   UNL     1      23.576 -24.850  21.915  1.00  0.00     0.008 C 
ATOM     19  C   UNL     1      22.167 -22.877  21.224  1.00  0.00     0.008 C 
ENDBRANCH  12  17
ENDBRANCH  11  12
ENDBRANCH   1  11
TORSDOF 1
ENDMDL
MODEL 7
REMARK VINA RESULT:    -4.591      1.859      3.915
REMARK INTER + INTRA:          -6.981
REMARK INTER:                  -7.315
REMARK INTRA:                   0.334
REMARK UNBOUND:                 0.026
REMARK SMILES CC1=CCC[C@H](C)C(=O)C[C@H](C(C)C)C(=O)C1
REMARK SMILES IDX 8 1 9 2 6 3 7 4 5 5 4 6 3 7 2 8 1 9 10 11 11 12 15 13 16 14
REMARK SMILES IDX 17 15 12 17 13 18 14 19
REMARK H PARENT
REMARK Flexibility Score: 70.00
ROOT
ATOM      1  C   UNL     1      25.296 -23.302  19.026  1.00  0.00     0.136 C 
ATOM      2  O   UNL     1      26.387 -23.725  19.383  1.00  0.00    -0.299 OA
ENDROOT
BRANCH   1   3
ATOM      3  C   UNL     1      24.126 -24.267  18.959  1.00  0.00     0.053 C 
ATOM      4  C   UNL     1      24.403 -25.391  17.954  1.00  0.00     0.016 C 
BRANCH   3   5
ATOM      5  C   UNL     1      23.780 -24.836  20.348  1.00  0.00     0.015 C 
BRANCH   5   6
ATOM      6  C   UNL     1      23.123 -23.782  21.256  1.00  0.00     0.028 C 
BRANCH   6   7
ATOM      7  C   UNL     1      21.844 -23.271  20.643  1.00  0.00    -0.028 C 
ATOM      8  C   UNL     1      21.507 -21.964  20.551  1.00  0.00    -0.070 CG0
ATOM      9  C   UNL     1      20.161 -21.619  19.966  1.00  0.00     0.039 C 
ATOM     10  G   UNL     1      22.428 -20.838  20.997  1.00  0.00     0.000 G0
ENDBRANCH   6   7
ENDBRANCH   5   6
ENDBRANCH   3   5
ENDBRANCH   1   3
BRANCH   1  11
ATOM     11  C   UNL     1      25.159 -21.831  18.699  1.00  0.00     0.087 C 
BRANCH  11  12
ATOM     12  C   UNL     1      23.679 -21.361  18.714  1.00  0.00     0.066 C 
BRANCH  12  13
ATOM     13  C   UNL     1      23.405 -20.440  19.895  1.00  0.00     0.140 C 
ATOM     14  O   UNL     1      23.925 -19.333  19.937  1.00  0.00    -0.299 OA
BRANCH  13  15
ATOM     15  C   UNL     1      22.435 -20.833  20.982  1.00  0.00     0.106 CG0
ATOM     16  G   UNL     1      21.515 -21.966  20.550  1.00  0.00     0.000 G0
ENDBRANCH  13  15
ENDBRANCH  12  13
BRANCH  12  17
ATOM     17  C   UNL     1      23.225 -20.688  17.379  1.00  0.00    -0.006 C 
ATOM     18  C   UNL     1      24.332 -19.879  16.675  1.00  0.00     0.008 C 
ATOM     19  C   UNL     1      22.628 -21.716  16.403  1.00  0.00     0.008 C 
ENDBRANCH  12  17
ENDBRANCH  11  12
ENDBRANCH   1  11
TORSDOF 1
ENDMDL
MODEL 8
REMARK VINA RESULT:    -4.536      2.691      4.399
REMARK INTER + INTRA:          -6.896
REMARK INTER:                  -6.942
REMARK INTRA:                   0.046
REMARK UNBOUND:                 0.026
REMARK SMILES CC1=CCC[C@H](C)C(=O)C[C@H](C(C)C)C(=O)C1
REMARK SMILES IDX 8 1 9 2 6 3 7 4 5 5 4 6 3 7 2 8 1 9 10 11 11 12 15 13 16 14
REMARK SMILES IDX 17 15 12 17 13 18 14 19
REMARK H PARENT
REMARK Flexibility Score: 70.00
ROOT
ATOM      1  C   UNL     1      26.469 -20.045  19.363  1.00  0.00     0.136 C 
ATOM      2  O   UNL     1      27.008 -19.390  20.244  1.00  0.00    -0.299 OA
ENDROOT
BRANCH   1   3
ATOM      3  C   UNL     1      27.239 -21.190  18.730  1.00  0.00     0.053 C 
ATOM      4  C   UNL     1      28.671 -20.761  18.387  1.00  0.00     0.016 C 
BRANCH   3   5
ATOM      5  C   UNL     1      27.235 -22.441  19.630  1.00  0.00     0.015 C 
BRANCH   5   6
ATOM      6  C   UNL     1      26.531 -23.632  18.958  1.00  0.00     0.028 C 
BRANCH   6   7
ATOM      7  C   UNL     1      25.481 -24.216  19.869  1.00  0.00    -0.028 C 
ATOM      8  C   UNL     1      24.150 -24.012  19.735  1.00  0.00    -0.070 CG0
ATOM      9  C   UNL     1      23.234 -24.617  20.769  1.00  0.00     0.039 C 
ATOM     10  G   UNL     1      23.545 -23.216  18.588  1.00  0.00     0.000 G0
ENDBRANCH   6   7
ENDBRANCH   5   6
ENDBRANCH   3   5
ENDBRANCH   1   3
BRANCH   1  11
ATOM     11  C   UNL     1      25.050 -19.701  18.969  1.00  0.00     0.087 C 
BRANCH  11  12
ATOM     12  C   UNL     1      24.416 -20.783  18.053  1.00  0.00     0.066 C 
BRANCH  12  13
ATOM     13  C   UNL     1      23.518 -21.722  18.847  1.00  0.00     0.140 C 
ATOM     14  O   UNL     1      22.729 -21.265  19.662  1.00  0.00    -0.299 OA
BRANCH  13  15
ATOM     15  C   UNL     1      23.524 -23.209  18.590  1.00  0.00     0.106 CG0
ATOM     16  G   UNL     1      24.150 -23.989  19.737  1.00  0.00     0.000 G0
ENDBRANCH  13  15
ENDBRANCH  12  13
BRANCH  12  17
ATOM     17  C   UNL     1      23.643 -20.191  16.831  1.00  0.00    -0.006 C 
ATOM     18  C   UNL     1      24.507 -19.308  15.909  1.00  0.00     0.008 C 
ATOM     19  C   UNL     1      22.958 -21.294  16.006  1.00  0.00     0.008 C 
ENDBRANCH  12  17
ENDBRANCH  11  12
ENDBRANCH   1  11
TORSDOF 1
ENDMDL
MODEL 9
REMARK VINA RESULT:    -4.505      2.276      4.198
REMARK INTER + INTRA:          -6.849
REMARK INTER:                  -7.009
REMARK INTRA:                   0.159
REMARK UNBOUND:                 0.026
REMARK SMILES CC1=CCC[C@H](C)C(=O)C[C@H](C(C)C)C(=O)C1
REMARK SMILES IDX 8 1 9 2 6 3 7 4 5 5 4 6 3 7 2 8 1 9 10 11 11 12 15 13 16 14
REMARK SMILES IDX 17 15 12 17 13 18 14 19
REMARK H PARENT
REMARK Flexibility Score: 70.00
ROOT
ATOM      1  C   UNL     1      21.516 -22.000  17.462  1.00  0.00     0.136 C 
ATOM      2  O   UNL     1      20.423 -21.830  16.941  1.00  0.00    -0.299 OA
ENDROOT
BRANCH   1   3
ATOM      3  C   UNL     1      22.736 -22.145  16.570  1.00  0.00     0.053 C 
ATOM      4  C   UNL     1      22.605 -23.375  15.663  1.00  0.00     0.016 C 
BRANCH   3   5
ATOM      5  C   UNL     1      22.987 -20.870  15.744  1.00  0.00     0.015 C 
BRANCH   5   6
ATOM      6  C   UNL     1      23.734 -19.795  16.553  1.00  0.00     0.028 C 
BRANCH   6   7
ATOM      7  C   UNL     1      24.970 -20.372  17.195  1.00  0.00    -0.028 C 
ATOM      8  C   UNL     1      25.271 -20.268  18.510  1.00  0.00    -0.070 CG0
ATOM      9  C   UNL     1      26.580 -20.848  18.985  1.00  0.00     0.039 C 
ATOM     10  G   UNL     1      24.345 -19.610  19.522  1.00  0.00     0.000 G0
ENDBRANCH   6   7
ENDBRANCH   5   6
ENDBRANCH   3   5
ENDBRANCH   1   3
BRANCH   1  11
ATOM     11  C   UNL     1      21.603 -22.028  18.973  1.00  0.00     0.087 C 
BRANCH  11  12
ATOM     12  C   UNL     1      23.067 -21.907  19.479  1.00  0.00     0.066 C 
BRANCH  12  13
ATOM     13  C   UNL     1      23.322 -20.545  20.108  1.00  0.00     0.140 C 
ATOM     14  O   UNL     1      22.732 -20.226  21.131  1.00  0.00    -0.299 OA
BRANCH  13  15
ATOM     15  C   UNL     1      24.355 -19.604  19.538  1.00  0.00     0.106 CG0
ATOM     16  G   UNL     1      25.259 -20.288  18.523  1.00  0.00     0.000 G0
ENDBRANCH  13  15
ENDBRANCH  12  13
BRANCH  12  17
ATOM     17  C   UNL     1      23.483 -23.050  20.461  1.00  0.00    -0.006 C 
ATOM     18  C   UNL     1      22.304 -23.675  21.232  1.00  0.00     0.008 C 
ATOM     19  C   UNL     1      24.280 -24.151  19.741  1.00  0.00     0.008 C 
ENDBRANCH  12  17
ENDBRANCH  11  12
ENDBRANCH   1  11
TORSDOF 1
ENDMDL
