MODEL 1
REMARK VINA RESULT:    -6.857      0.000      0.000
REMARK INTER + INTRA:          -9.366
REMARK INTER:                  -8.661
REMARK INTRA:                  -0.705
REMARK UNBOUND:                -0.705
REMARK SMILES O=C(C=Cc1ccc(O)cc1)c1ccc(O)cc1O
REMARK SMILES IDX 4 1 3 2 5 3 6 4 7 5 8 6 11 7 10 8 9 9 2 11 1 12 12 13 18 14
REMARK SMILES IDX 13 15 17 16 14 17 15 18 19 19 16 21
REMARK H PARENT 9 10 19 20 16 22
REMARK Flexibility Score: inf
ROOT
ATOM      1  C   UNL     1      15.623 -26.033  13.690  1.00  0.00     0.012 C 
ATOM      2  C   UNL     1      15.586 -27.280  14.183  1.00  0.00     0.053 C 
ENDROOT
BRANCH   1   3
ATOM      3  C   UNL     1      15.688 -25.720  12.242  1.00  0.00    -0.025 A 
ATOM      4  C   UNL     1      15.089 -24.572  11.683  1.00  0.00     0.012 A 
ATOM      5  C   UNL     1      15.190 -24.318  10.311  1.00  0.00     0.047 A 
ATOM      6  C   UNL     1      15.894 -25.195   9.481  1.00  0.00     0.115 A 
ATOM      7  C   UNL     1      16.407 -26.587  11.400  1.00  0.00     0.012 A 
ATOM      8  C   UNL     1      16.504 -26.329  10.029  1.00  0.00     0.047 A 
BRANCH   6   9
ATOM      9  O   UNL     1      15.983 -24.928   8.117  1.00  0.00    -0.508 OA
ATOM     10  H   UNL     1      15.428 -24.198   7.684  1.00  0.00     0.293 HD
ENDBRANCH   6   9
ENDBRANCH   1   3
BRANCH   2  11
ATOM     11  C   UNL     1      15.530 -27.572  15.631  1.00  0.00     0.189 C 
ATOM     12  O   UNL     1      14.476 -28.077  16.102  1.00  0.00    -0.289 OA
BRANCH  11  13
ATOM     13  C   UNL     1      16.643 -27.267  16.555  1.00  0.00     0.064 A 
ATOM     14  C   UNL     1      16.514 -26.321  17.599  1.00  0.00     0.130 A 
ATOM     15  C   UNL     1      17.866 -27.934  16.379  1.00  0.00     0.020 A 
ATOM     16  C   UNL     1      17.588 -26.099  18.469  1.00  0.00     0.093 A 
ATOM     17  C   UNL     1      18.934 -27.695  17.247  1.00  0.00     0.047 A 
ATOM     18  C   UNL     1      18.798 -26.784  18.297  1.00  0.00     0.119 A 
BRANCH  14  19
ATOM     19  O   UNL     1      15.348 -25.575  17.784  1.00  0.00    -0.507 OA
ATOM     20  H   UNL     1      14.546 -25.647  17.171  1.00  0.00     0.293 HD
ENDBRANCH  14  19
BRANCH  18  21
ATOM     21  O   UNL     1      19.869 -26.562  19.158  1.00  0.00    -0.508 OA
ATOM     22  H   UNL     1      20.507 -27.307  19.413  1.00  0.00     0.293 HD
ENDBRANCH  18  21
ENDBRANCH  11  13
ENDBRANCH   2  11
TORSDOF 6
ENDMDL
MODEL 2
REMARK VINA RESULT:    -6.843     17.825     18.726
REMARK INTER + INTRA:          -9.348
REMARK INTER:                  -8.864
REMARK INTRA:                  -0.484
REMARK UNBOUND:                -0.705
REMARK SMILES O=C(C=Cc1ccc(O)cc1)c1ccc(O)cc1O
REMARK SMILES IDX 4 1 3 2 5 3 6 4 7 5 8 6 11 7 10 8 9 9 2 11 1 12 12 13 18 14
REMARK SMILES IDX 13 15 17 16 14 17 15 18 19 19 16 21
REMARK H PARENT 9 10 19 20 16 22
REMARK Flexibility Score: inf
ROOT
ATOM      1  C   UNL     1      28.517 -11.390  12.722  1.00  0.00     0.012 C 
ATOM      2  C   UNL     1      27.979 -11.818  13.875  1.00  0.00     0.053 C 
ENDROOT
BRANCH   1   3
ATOM      3  C   UNL     1      28.746 -12.262  11.545  1.00  0.00    -0.025 A 
ATOM      4  C   UNL     1      29.790 -13.208  11.491  1.00  0.00     0.012 A 
ATOM      5  C   UNL     1      29.956 -14.015  10.360  1.00  0.00     0.047 A 
ATOM      6  C   UNL     1      29.082 -13.898   9.276  1.00  0.00     0.115 A 
ATOM      7  C   UNL     1      27.863 -12.164  10.455  1.00  0.00     0.012 A 
ATOM      8  C   UNL     1      28.033 -12.973   9.327  1.00  0.00     0.047 A 
BRANCH   6   9
ATOM      9  O   UNL     1      29.262 -14.708   8.158  1.00  0.00    -0.508 OA
ATOM     10  H   UNL     1      30.134 -15.199   7.995  1.00  0.00     0.293 HD
ENDBRANCH   6   9
ENDBRANCH   1   3
BRANCH   2  11
ATOM     11  C   UNL     1      27.766 -10.934  15.041  1.00  0.00     0.189 C 
ATOM     12  O   UNL     1      28.766 -10.361  15.551  1.00  0.00    -0.289 OA
BRANCH  11  13
ATOM     13  C   UNL     1      26.439 -10.720  15.654  1.00  0.00     0.064 A 
ATOM     14  C   UNL     1      26.239  -9.801  16.712  1.00  0.00     0.130 A 
ATOM     15  C   UNL     1      25.347 -11.462  15.174  1.00  0.00     0.020 A 
ATOM     16  C   UNL     1      24.953  -9.610  17.230  1.00  0.00     0.093 A 
ATOM     17  C   UNL     1      24.071 -11.271  15.707  1.00  0.00     0.047 A 
ATOM     18  C   UNL     1      23.867 -10.341  16.730  1.00  0.00     0.119 A 
BRANCH  14  19
ATOM     19  O   UNL     1      27.294  -9.085  17.280  1.00  0.00    -0.507 OA
ATOM     20  H   UNL     1      27.386  -8.080  17.195  1.00  0.00     0.293 HD
ENDBRANCH  14  19
BRANCH  18  21
ATOM     21  O   UNL     1      22.587 -10.156  17.246  1.00  0.00    -0.508 OA
ATOM     22  H   UNL     1      21.826 -10.781  17.010  1.00  0.00     0.293 HD
ENDBRANCH  18  21
ENDBRANCH  11  13
ENDBRANCH   2  11
TORSDOF 6
ENDMDL
MODEL 3
REMARK VINA RESULT:    -6.804     18.111     19.637
REMARK INTER + INTRA:          -9.299
REMARK INTER:                  -8.694
REMARK INTRA:                  -0.605
REMARK UNBOUND:                -0.705
REMARK SMILES O=C(C=Cc1ccc(O)cc1)c1ccc(O)cc1O
REMARK SMILES IDX 4 1 3 2 5 3 6 4 7 5 8 6 11 7 10 8 9 9 2 11 1 12 12 13 18 14
REMARK SMILES IDX 13 15 17 16 14 17 15 18 19 19 16 21
REMARK H PARENT 9 10 19 20 16 22
REMARK Flexibility Score: inf
ROOT
ATOM      1  C   UNL     1      27.391 -11.125  13.422  1.00  0.00     0.012 C 
ATOM      2  C   UNL     1      28.682 -11.260  13.078  1.00  0.00     0.053 C 
ENDROOT
BRANCH   1   3
ATOM      3  C   UNL     1      26.934 -10.810  14.797  1.00  0.00    -0.025 A 
ATOM      4  C   UNL     1      25.593 -10.494  15.098  1.00  0.00     0.012 A 
ATOM      5  C   UNL     1      25.211 -10.215  16.415  1.00  0.00     0.047 A 
ATOM      6  C   UNL     1      26.153 -10.257  17.447  1.00  0.00     0.115 A 
ATOM      7  C   UNL     1      27.869 -10.865  15.845  1.00  0.00     0.012 A 
ATOM      8  C   UNL     1      27.483 -10.585  17.159  1.00  0.00     0.047 A 
BRANCH   6   9
ATOM      9  O   UNL     1      25.756  -9.976  18.752  1.00  0.00    -0.508 OA
ATOM     10  H   UNL     1      25.741 -10.695  19.466  1.00  0.00     0.293 HD
ENDBRANCH   6   9
ENDBRANCH   1   3
BRANCH   2  11
ATOM     11  C   UNL     1      29.118 -11.584  11.703  1.00  0.00     0.189 C 
ATOM     12  O   UNL     1      29.248 -10.642  10.876  1.00  0.00    -0.289 OA
BRANCH  11  13
ATOM     13  C   UNL     1      29.378 -12.966  11.247  1.00  0.00     0.064 A 
ATOM     14  C   UNL     1      30.310 -13.256  10.223  1.00  0.00     0.130 A 
ATOM     15  C   UNL     1      28.667 -14.017  11.847  1.00  0.00     0.020 A 
ATOM     16  C   UNL     1      30.545 -14.587   9.857  1.00  0.00     0.093 A 
ATOM     17  C   UNL     1      28.902 -15.340  11.466  1.00  0.00     0.047 A 
ATOM     18  C   UNL     1      29.844 -15.630  10.477  1.00  0.00     0.119 A 
BRANCH  14  19
ATOM     19  O   UNL     1      30.997 -12.252   9.539  1.00  0.00    -0.507 OA
ATOM     20  H   UNL     1      31.634 -11.612   9.997  1.00  0.00     0.293 HD
ENDBRANCH  14  19
BRANCH  18  21
ATOM     21  O   UNL     1      30.073 -16.955  10.111  1.00  0.00    -0.508 OA
ATOM     22  H   UNL     1      30.197 -17.223   9.142  1.00  0.00     0.293 HD
ENDBRANCH  18  21
ENDBRANCH  11  13
ENDBRANCH   2  11
TORSDOF 6
ENDMDL
MODEL 4
REMARK VINA RESULT:    -6.697      2.060      7.557
REMARK INTER + INTRA:          -9.164
REMARK INTER:                  -8.516
REMARK INTRA:                  -0.648
REMARK UNBOUND:                -0.705
REMARK SMILES O=C(C=Cc1ccc(O)cc1)c1ccc(O)cc1O
REMARK SMILES IDX 4 1 3 2 5 3 6 4 7 5 8 6 11 7 10 8 9 9 2 11 1 12 12 13 18 14
REMARK SMILES IDX 13 15 17 16 14 17 15 18 19 19 16 21
REMARK H PARENT 9 10 19 20 16 22
REMARK Flexibility Score: inf
ROOT
ATOM      1  C   UNL     1      16.531 -26.871  13.771  1.00  0.00     0.012 C 
ATOM      2  C   UNL     1      15.266 -26.676  13.366  1.00  0.00     0.053 C 
ENDROOT
BRANCH   1   3
ATOM      3  C   UNL     1      16.926 -27.038  15.190  1.00  0.00    -0.025 A 
ATOM      4  C   UNL     1      17.882 -27.987  15.607  1.00  0.00     0.012 A 
ATOM      5  C   UNL     1      18.227 -28.096  16.959  1.00  0.00     0.047 A 
ATOM      6  C   UNL     1      17.634 -27.259  17.908  1.00  0.00     0.115 A 
ATOM      7  C   UNL     1      16.348 -26.190  16.152  1.00  0.00     0.012 A 
ATOM      8  C   UNL     1      16.696 -26.304  17.501  1.00  0.00     0.047 A 
BRANCH   6   9
ATOM      9  O   UNL     1      17.988 -27.382  19.250  1.00  0.00    -0.508 OA
ATOM     10  H   UNL     1      18.746 -26.839  19.648  1.00  0.00     0.293 HD
ENDBRANCH   6   9
ENDBRANCH   1   3
BRANCH   2  11
ATOM     11  C   UNL     1      14.893 -26.503  11.946  1.00  0.00     0.189 C 
ATOM     12  O   UNL     1      14.836 -27.524  11.211  1.00  0.00    -0.289 OA
BRANCH  11  13
ATOM     13  C   UNL     1      14.618 -25.181  11.344  1.00  0.00     0.064 A 
ATOM     14  C   UNL     1      13.659 -25.008  10.318  1.00  0.00     0.130 A 
ATOM     15  C   UNL     1      15.340 -24.068  11.804  1.00  0.00     0.020 A 
ATOM     16  C   UNL     1      13.410 -23.727   9.811  1.00  0.00     0.093 A 
ATOM     17  C   UNL     1      15.091 -22.797  11.281  1.00  0.00     0.047 A 
ATOM     18  C   UNL     1      14.123 -22.620  10.290  1.00  0.00     0.119 A 
BRANCH  14  19
ATOM     19  O   UNL     1      12.958 -26.084   9.770  1.00  0.00    -0.507 OA
ATOM     20  H   UNL     1      12.294 -25.980   9.013  1.00  0.00     0.293 HD
ENDBRANCH  14  19
BRANCH  18  21
ATOM     21  O   UNL     1      13.880 -21.345   9.784  1.00  0.00    -0.508 OA
ATOM     22  H   UNL     1      14.053 -21.121   8.812  1.00  0.00     0.293 HD
ENDBRANCH  18  21
ENDBRANCH  11  13
ENDBRANCH   2  11
TORSDOF 6
ENDMDL
MODEL 5
REMARK VINA RESULT:    -6.588     12.180     15.021
REMARK INTER + INTRA:          -9.025
REMARK INTER:                  -8.550
REMARK INTRA:                  -0.476
REMARK UNBOUND:                -0.705
REMARK SMILES O=C(C=Cc1ccc(O)cc1)c1ccc(O)cc1O
REMARK SMILES IDX 4 1 3 2 5 3 6 4 7 5 8 6 11 7 10 8 9 9 2 11 1 12 12 13 18 14
REMARK SMILES IDX 13 15 17 16 14 17 15 18 19 19 16 21
REMARK H PARENT 9 10 19 20 16 22
REMARK Flexibility Score: inf
ROOT
ATOM      1  C   UNL     1      25.185 -18.353  18.923  1.00  0.00     0.012 C 
ATOM      2  C   UNL     1      26.429 -18.193  19.399  1.00  0.00     0.053 C 
ENDROOT
BRANCH   1   3
ATOM      3  C   UNL     1      24.076 -18.958  19.700  1.00  0.00    -0.025 A 
ATOM      4  C   UNL     1      23.802 -18.603  21.037  1.00  0.00     0.012 A 
ATOM      5  C   UNL     1      22.736 -19.196  21.722  1.00  0.00     0.047 A 
ATOM      6  C   UNL     1      21.926 -20.140  21.085  1.00  0.00     0.115 A 
ATOM      7  C   UNL     1      23.245 -19.897  19.064  1.00  0.00     0.012 A 
ATOM      8  C   UNL     1      22.181 -20.487  19.753  1.00  0.00     0.047 A 
BRANCH   6   9
ATOM      9  O   UNL     1      20.870 -20.722  21.782  1.00  0.00    -0.508 OA
ATOM     10  H   UNL     1      20.989 -21.073  22.725  1.00  0.00     0.293 HD
ENDBRANCH   6   9
ENDBRANCH   1   3
BRANCH   2  11
ATOM     11  C   UNL     1      27.524 -17.596  18.605  1.00  0.00     0.189 C 
ATOM     12  O   UNL     1      28.576 -18.267  18.432  1.00  0.00    -0.289 OA
BRANCH  11  13
ATOM     13  C   UNL     1      27.451 -16.234  18.036  1.00  0.00     0.064 A 
ATOM     14  C   UNL     1      28.136 -15.139  18.615  1.00  0.00     0.130 A 
ATOM     15  C   UNL     1      26.669 -16.025  16.888  1.00  0.00     0.020 A 
ATOM     16  C   UNL     1      28.063 -13.878  18.012  1.00  0.00     0.093 A 
ATOM     17  C   UNL     1      26.595 -14.759  16.302  1.00  0.00     0.047 A 
ATOM     18  C   UNL     1      27.296 -13.685  16.856  1.00  0.00     0.119 A 
BRANCH  14  19
ATOM     19  O   UNL     1      28.873 -15.267  19.794  1.00  0.00    -0.507 OA
ATOM     20  H   UNL     1      29.297 -14.478  20.266  1.00  0.00     0.293 HD
ENDBRANCH  14  19
BRANCH  18  21
ATOM     21  O   UNL     1      27.218 -12.430  16.256  1.00  0.00    -0.508 OA
ATOM     22  H   UNL     1      27.974 -11.760  16.331  1.00  0.00     0.293 HD
ENDBRANCH  18  21
ENDBRANCH  11  13
ENDBRANCH   2  11
TORSDOF 6
ENDMDL
MODEL 6
REMARK VINA RESULT:    -6.354     17.635     18.895
REMARK INTER + INTRA:          -8.731
REMARK INTER:                  -8.093
REMARK INTRA:                  -0.638
REMARK UNBOUND:                -0.705
REMARK SMILES O=C(C=Cc1ccc(O)cc1)c1ccc(O)cc1O
REMARK SMILES IDX 4 1 3 2 5 3 6 4 7 5 8 6 11 7 10 8 9 9 2 11 1 12 12 13 18 14
REMARK SMILES IDX 13 15 17 16 14 17 15 18 19 19 16 21
REMARK H PARENT 9 10 19 20 16 22
REMARK Flexibility Score: inf
ROOT
ATOM      1  C   UNL     1      28.694 -11.860  13.331  1.00  0.00     0.012 C 
ATOM      2  C   UNL     1      28.352 -12.938  12.607  1.00  0.00     0.053 C 
ENDROOT
BRANCH   1   3
ATOM      3  C   UNL     1      27.810 -11.233  14.343  1.00  0.00    -0.025 A 
ATOM      4  C   UNL     1      26.421 -11.082  14.152  1.00  0.00     0.012 A 
ATOM      5  C   UNL     1      25.630 -10.494  15.144  1.00  0.00     0.047 A 
ATOM      6  C   UNL     1      26.207 -10.058  16.340  1.00  0.00     0.115 A 
ATOM      7  C   UNL     1      28.377 -10.806  15.557  1.00  0.00     0.012 A 
ATOM      8  C   UNL     1      27.582 -10.218  16.546  1.00  0.00     0.047 A 
BRANCH   6   9
ATOM      9  O   UNL     1      25.405  -9.473  17.317  1.00  0.00    -0.508 OA
ATOM     10  H   UNL     1      25.742  -9.332  18.263  1.00  0.00     0.293 HD
ENDBRANCH   6   9
ENDBRANCH   1   3
BRANCH   2  11
ATOM     11  C   UNL     1      29.244 -13.543  11.595  1.00  0.00     0.189 C 
ATOM     12  O   UNL     1      29.461 -12.909  10.528  1.00  0.00    -0.289 OA
BRANCH  11  13
ATOM     13  C   UNL     1      29.866 -14.873  11.767  1.00  0.00     0.064 A 
ATOM     14  C   UNL     1      30.105 -15.737  10.672  1.00  0.00     0.130 A 
ATOM     15  C   UNL     1      30.221 -15.289  13.060  1.00  0.00     0.020 A 
ATOM     16  C   UNL     1      30.732 -16.970  10.886  1.00  0.00     0.093 A 
ATOM     17  C   UNL     1      30.836 -16.526  13.263  1.00  0.00     0.047 A 
ATOM     18  C   UNL     1      31.100 -17.367  12.179  1.00  0.00     0.119 A 
BRANCH  14  19
ATOM     19  O   UNL     1      29.713 -15.412   9.372  1.00  0.00    -0.507 OA
ATOM     20  H   UNL     1      28.752 -15.465   9.057  1.00  0.00     0.293 HD
ENDBRANCH  14  19
BRANCH  18  21
ATOM     21  O   UNL     1      31.720 -18.595  12.395  1.00  0.00    -0.508 OA
ATOM     22  H   UNL     1      31.720 -19.034  13.308  1.00  0.00     0.293 HD
ENDBRANCH  18  21
ENDBRANCH  11  13
ENDBRANCH   2  11
TORSDOF 6
ENDMDL
MODEL 7
REMARK VINA RESULT:    -6.211      1.625      1.952
REMARK INTER + INTRA:          -8.550
REMARK INTER:                  -7.916
REMARK INTRA:                  -0.634
REMARK UNBOUND:                -0.705
REMARK SMILES O=C(C=Cc1ccc(O)cc1)c1ccc(O)cc1O
REMARK SMILES IDX 4 1 3 2 5 3 6 4 7 5 8 6 11 7 10 8 9 9 2 11 1 12 12 13 18 14
REMARK SMILES IDX 13 15 17 16 14 17 15 18 19 19 16 21
REMARK H PARENT 9 10 19 20 16 22
REMARK Flexibility Score: inf
ROOT
ATOM      1  C   UNL     1      15.586 -26.876  12.663  1.00  0.00     0.012 C 
ATOM      2  C   UNL     1      16.368 -26.452  13.668  1.00  0.00     0.053 C 
ENDROOT
BRANCH   1   3
ATOM      3  C   UNL     1      15.311 -26.081  11.441  1.00  0.00    -0.025 A 
ATOM      4  C   UNL     1      14.127 -25.335  11.270  1.00  0.00     0.012 A 
ATOM      5  C   UNL     1      13.921 -24.592  10.103  1.00  0.00     0.047 A 
ATOM      6  C   UNL     1      14.892 -24.576   9.097  1.00  0.00     0.115 A 
ATOM      7  C   UNL     1      16.287 -26.045  10.430  1.00  0.00     0.012 A 
ATOM      8  C   UNL     1      16.077 -25.302   9.265  1.00  0.00     0.047 A 
BRANCH   6   9
ATOM      9  O   UNL     1      14.670 -23.832   7.940  1.00  0.00    -0.508 OA
ATOM     10  H   UNL     1      14.334 -22.877   7.982  1.00  0.00     0.293 HD
ENDBRANCH   6   9
ENDBRANCH   1   3
BRANCH   2  11
ATOM     11  C   UNL     1      16.623 -27.256  14.883  1.00  0.00     0.189 C 
ATOM     12  O   UNL     1      15.640 -27.759  15.488  1.00  0.00    -0.289 OA
BRANCH  11  13
ATOM     13  C   UNL     1      17.978 -27.467  15.435  1.00  0.00     0.064 A 
ATOM     14  C   UNL     1      18.229 -27.468  16.828  1.00  0.00     0.130 A 
ATOM     15  C   UNL     1      19.046 -27.662  14.544  1.00  0.00     0.020 A 
ATOM     16  C   UNL     1      19.525 -27.711  17.298  1.00  0.00     0.093 A 
ATOM     17  C   UNL     1      20.337 -27.892  15.025  1.00  0.00     0.047 A 
ATOM     18  C   UNL     1      20.580 -27.925  16.400  1.00  0.00     0.119 A 
BRANCH  14  19
ATOM     19  O   UNL     1      17.224 -27.212  17.762  1.00  0.00    -0.507 OA
ATOM     20  H   UNL     1      16.349 -26.764  17.521  1.00  0.00     0.293 HD
ENDBRANCH  14  19
BRANCH  18  21
ATOM     21  O   UNL     1      21.871 -28.162  16.865  1.00  0.00    -0.508 OA
ATOM     22  H   UNL     1      22.045 -28.452  17.820  1.00  0.00     0.293 HD
ENDBRANCH  18  21
ENDBRANCH  11  13
ENDBRANCH   2  11
TORSDOF 6
ENDMDL
MODEL 8
REMARK VINA RESULT:    -6.208      2.869      7.380
REMARK INTER + INTRA:          -8.546
REMARK INTER:                  -7.892
REMARK INTRA:                  -0.654
REMARK UNBOUND:                -0.705
REMARK SMILES O=C(C=Cc1ccc(O)cc1)c1ccc(O)cc1O
REMARK SMILES IDX 4 1 3 2 5 3 6 4 7 5 8 6 11 7 10 8 9 9 2 11 1 12 12 13 18 14
REMARK SMILES IDX 13 15 17 16 14 17 15 18 19 19 16 21
REMARK H PARENT 9 10 19 20 16 22
REMARK Flexibility Score: inf
ROOT
ATOM      1  C   UNL     1      15.377 -26.326  13.589  1.00  0.00     0.012 C 
ATOM      2  C   UNL     1      15.670 -25.345  12.720  1.00  0.00     0.053 C 
ENDROOT
BRANCH   1   3
ATOM      3  C   UNL     1      16.351 -26.891  14.554  1.00  0.00    -0.025 A 
ATOM      4  C   UNL     1      15.963 -27.449  15.789  1.00  0.00     0.012 A 
ATOM      5  C   UNL     1      16.921 -27.979  16.659  1.00  0.00     0.047 A 
ATOM      6  C   UNL     1      18.274 -27.970  16.308  1.00  0.00     0.115 A 
ATOM      7  C   UNL     1      17.713 -26.901  14.204  1.00  0.00     0.012 A 
ATOM      8  C   UNL     1      18.668 -27.432  15.077  1.00  0.00     0.047 A 
BRANCH   6   9
ATOM      9  O   UNL     1      19.216 -28.500  17.186  1.00  0.00    -0.508 OA
ATOM     10  H   UNL     1      19.880 -29.205  16.887  1.00  0.00     0.293 HD
ENDBRANCH   6   9
ENDBRANCH   1   3
BRANCH   2  11
ATOM     11  C   UNL     1      14.688 -24.801  11.759  1.00  0.00     0.189 C 
ATOM     12  O   UNL     1      14.377 -25.498  10.758  1.00  0.00    -0.289 OA
BRANCH  11  13
ATOM     13  C   UNL     1      14.080 -23.462  11.906  1.00  0.00     0.064 A 
ATOM     14  C   UNL     1      13.799 -22.638  10.790  1.00  0.00     0.130 A 
ATOM     15  C   UNL     1      13.782 -22.994  13.196  1.00  0.00     0.020 A 
ATOM     16  C   UNL     1      13.187 -21.394  10.983  1.00  0.00     0.093 A 
ATOM     17  C   UNL     1      13.181 -21.746  13.377  1.00  0.00     0.047 A 
ATOM     18  C   UNL     1      12.876 -20.946  12.273  1.00  0.00     0.119 A 
BRANCH  14  19
ATOM     19  O   UNL     1      14.134 -23.015   9.488  1.00  0.00    -0.507 OA
ATOM     20  H   UNL     1      15.053 -22.865   9.091  1.00  0.00     0.293 HD
ENDBRANCH  14  19
BRANCH  18  21
ATOM     21  O   UNL     1      12.271 -19.707  12.469  1.00  0.00    -0.508 OA
ATOM     22  H   UNL     1      12.795 -18.910  12.811  1.00  0.00     0.293 HD
ENDBRANCH  18  21
ENDBRANCH  11  13
ENDBRANCH   2  11
TORSDOF 6
ENDMDL
MODEL 9
REMARK VINA RESULT:    -6.131     16.628     18.132
REMARK INTER + INTRA:          -8.448
REMARK INTER:                  -7.925
REMARK INTRA:                  -0.523
REMARK UNBOUND:                -0.705
REMARK SMILES O=C(C=Cc1ccc(O)cc1)c1ccc(O)cc1O
REMARK SMILES IDX 4 1 3 2 5 3 6 4 7 5 8 6 11 7 10 8 9 9 2 11 1 12 12 13 18 14
REMARK SMILES IDX 13 15 17 16 14 17 15 18 19 19 16 21
REMARK H PARENT 9 10 19 20 16 22
REMARK Flexibility Score: inf
ROOT
ATOM      1  C   UNL     1      25.944 -12.243  10.481  1.00  0.00     0.012 C 
ATOM      2  C   UNL     1      26.862 -11.264  10.515  1.00  0.00     0.053 C 
ENDROOT
BRANCH   1   3
ATOM      3  C   UNL     1      24.481 -12.001  10.495  1.00  0.00    -0.025 A 
ATOM      4  C   UNL     1      23.832 -11.323  11.547  1.00  0.00     0.012 A 
ATOM      5  C   UNL     1      22.450 -11.111  11.506  1.00  0.00     0.047 A 
ATOM      6  C   UNL     1      21.699 -11.561  10.416  1.00  0.00     0.115 A 
ATOM      7  C   UNL     1      23.719 -12.436   9.396  1.00  0.00     0.012 A 
ATOM      8  C   UNL     1      22.337 -12.222   9.360  1.00  0.00     0.047 A 
BRANCH   6   9
ATOM      9  O   UNL     1      20.324 -11.343  10.392  1.00  0.00    -0.508 OA
ATOM     10  H   UNL     1      19.926 -10.527   9.942  1.00  0.00     0.293 HD
ENDBRANCH   6   9
ENDBRANCH   1   3
BRANCH   2  11
ATOM     11  C   UNL     1      28.318 -11.526  10.509  1.00  0.00     0.189 C 
ATOM     12  O   UNL     1      29.104 -10.548  10.615  1.00  0.00    -0.289 OA
BRANCH  11  13
ATOM     13  C   UNL     1      28.889 -12.880  10.353  1.00  0.00     0.064 A 
ATOM     14  C   UNL     1      28.930 -13.538   9.101  1.00  0.00     0.130 A 
ATOM     15  C   UNL     1      29.397 -13.532  11.488  1.00  0.00     0.020 A 
ATOM     16  C   UNL     1      29.518 -14.805   9.002  1.00  0.00     0.093 A 
ATOM     17  C   UNL     1      29.970 -14.801  11.379  1.00  0.00     0.047 A 
ATOM     18  C   UNL     1      30.039 -15.438  10.138  1.00  0.00     0.119 A 
BRANCH  14  19
ATOM     19  O   UNL     1      28.380 -12.973   7.948  1.00  0.00    -0.507 OA
ATOM     20  H   UNL     1      28.639 -13.265   7.015  1.00  0.00     0.293 HD
ENDBRANCH  14  19
BRANCH  18  21
ATOM     21  O   UNL     1      30.621 -16.700  10.044  1.00  0.00    -0.508 OA
ATOM     22  H   UNL     1      31.370 -16.985  10.663  1.00  0.00     0.293 HD
ENDBRANCH  18  21
ENDBRANCH  11  13
ENDBRANCH   2  11
TORSDOF 6
ENDMDL
