MODEL 1
REMARK VINA RESULT:    -5.411      0.000      0.000
REMARK INTER + INTRA:         -17.895
REMARK INTER:                 -13.635
REMARK INTRA:                  -4.260
REMARK UNBOUND:                -4.260
REMARK SMILES CCCCCCCCCCCCCCCCCCCCCCCCCCCC(=O)[O-]
REMARK SMILES IDX 15 1 16 2 17 3 18 4 19 5 20 6 21 7 22 8 23 9 24 10 25 11
REMARK SMILES IDX 26 12 27 13 28 14 29 15 30 16 14 17 13 18 12 19 11 20 10 21
REMARK SMILES IDX 9 22 8 23 7 24 6 25 5 26 4 27 3 28 2 29 1 30
REMARK H PARENT
REMARK Flexibility Score: inf
ROOT
ATOM      1  C   UNL     1      15.554  -0.346  21.793  1.00  0.00     0.000 C 
ENDROOT
BRANCH   1   2
ATOM      2  C   UNL     1      16.725   0.637  21.934  1.00  0.00     0.000 C 
BRANCH   2   3
ATOM      3  C   UNL     1      18.103  -0.049  21.862  1.00  0.00     0.000 C 
BRANCH   3   4
ATOM      4  C   UNL     1      19.226   0.791  21.223  1.00  0.00     0.000 C 
BRANCH   4   5
ATOM      5  C   UNL     1      20.618   0.479  21.802  1.00  0.00     0.000 C 
BRANCH   5   6
ATOM      6  C   UNL     1      21.319  -0.677  21.069  1.00  0.00     0.000 C 
BRANCH   6   7
ATOM      7  C   UNL     1      21.676  -1.845  22.003  1.00  0.00     0.000 C 
BRANCH   7   8
ATOM      8  C   UNL     1      20.456  -2.716  22.342  1.00  0.00     0.000 C 
BRANCH   8   9
ATOM      9  C   UNL     1      20.195  -3.809  21.292  1.00  0.00     0.000 C 
BRANCH   9  10
ATOM     10  C   UNL     1      18.742  -3.751  20.797  1.00  0.00     0.000 C 
BRANCH  10  11
ATOM     11  C   UNL     1      18.331  -4.996  19.994  1.00  0.00     0.000 C 
BRANCH  11  12
ATOM     12  C   UNL     1      17.549  -4.669  18.703  1.00  0.00     0.006 C 
BRANCH  12  13
ATOM     13  C   UNL     1      16.068  -4.375  18.980  1.00  0.00     0.053 C 
BRANCH  13  14
ATOM     14  C   UNL     1      15.221  -4.811  17.825  1.00  0.00     0.041 C 
ATOM     15  O   UNL     1      15.541  -4.492  16.648  1.00  0.00    -0.550 OA
ATOM     16  O   UNL     1      14.085  -5.585  18.046  1.00  0.00    -0.550 OA
ENDBRANCH  13  14
ENDBRANCH  12  13
ENDBRANCH  11  12
ENDBRANCH  10  11
ENDBRANCH   9  10
ENDBRANCH   8   9
ENDBRANCH   7   8
ENDBRANCH   6   7
ENDBRANCH   5   6
ENDBRANCH   4   5
ENDBRANCH   3   4
ENDBRANCH   2   3
ENDBRANCH   1   2
BRANCH   1  17
ATOM     17  C   UNL     1      15.772  -1.298  20.607  1.00  0.00     0.000 C 
BRANCH  17  18
ATOM     18  C   UNL     1      14.961  -0.891  19.366  1.00  0.00     0.000 C 
BRANCH  18  19
ATOM     19  C   UNL     1      15.841  -0.704  18.119  1.00  0.00     0.000 C 
BRANCH  19  20
ATOM     20  C   UNL     1      17.311  -0.489  18.499  1.00  0.00     0.000 C 
BRANCH  20  21
ATOM     21  C   UNL     1      18.242  -1.054  17.415  1.00  0.00     0.000 C 
BRANCH  21  22
ATOM     22  C   UNL     1      19.535  -1.653  17.989  1.00  0.00    -0.000 C 
BRANCH  22  23
ATOM     23  C   UNL     1      19.910  -2.989  17.333  1.00  0.00    -0.000 C 
BRANCH  23  24
ATOM     24  C   UNL     1      21.343  -3.402  17.703  1.00  0.00    -0.000 C 
BRANCH  24  25
ATOM     25  C   UNL     1      21.463  -4.908  17.998  1.00  0.00    -0.000 C 
BRANCH  25  26
ATOM     26  C   UNL     1      21.587  -5.781  16.729  1.00  0.00    -0.000 C 
BRANCH  26  27
ATOM     27  C   UNL     1      20.656  -7.009  16.728  1.00  0.00    -0.000 C 
BRANCH  27  28
ATOM     28  C   UNL     1      20.694  -7.848  15.437  1.00  0.00    -0.000 C 
BRANCH  28  29
ATOM     29  C   UNL     1      19.313  -8.219  14.867  1.00  0.00    -0.003 C 
ATOM     30  C   UNL     1      19.330  -9.509  14.046  1.00  0.00     0.004 C 
ENDBRANCH  28  29
ENDBRANCH  27  28
ENDBRANCH  26  27
ENDBRANCH  25  26
ENDBRANCH  24  25
ENDBRANCH  23  24
ENDBRANCH  22  23
ENDBRANCH  21  22
ENDBRANCH  20  21
ENDBRANCH  19  20
ENDBRANCH  18  19
ENDBRANCH  17  18
ENDBRANCH   1  17
TORSDOF 26
ENDMDL
MODEL 2
REMARK VINA RESULT:    -5.306      2.798      7.667
REMARK INTER + INTRA:         -17.631
REMARK INTER:                 -13.430
REMARK INTRA:                  -4.201
REMARK UNBOUND:                -4.260
REMARK SMILES CCCCCCCCCCCCCCCCCCCCCCCCCCCC(=O)[O-]
REMARK SMILES IDX 15 1 16 2 17 3 18 4 19 5 20 6 21 7 22 8 23 9 24 10 25 11
REMARK SMILES IDX 26 12 27 13 28 14 29 15 30 16 14 17 13 18 12 19 11 20 10 21
REMARK SMILES IDX 9 22 8 23 7 24 6 25 5 26 4 27 3 28 2 29 1 30
REMARK H PARENT
REMARK Flexibility Score: inf
ROOT
ATOM      1  C   UNL     1      17.277  -8.348  14.398  1.00  0.00     0.000 C 
ENDROOT
BRANCH   1   2
ATOM      2  C   UNL     1      16.050  -7.507  14.778  1.00  0.00     0.000 C 
BRANCH   2   3
ATOM      3  C   UNL     1      16.414  -6.204  15.515  1.00  0.00     0.000 C 
BRANCH   3   4
ATOM      4  C   UNL     1      15.405  -5.749  16.589  1.00  0.00     0.000 C 
BRANCH   4   5
ATOM      5  C   UNL     1      15.601  -4.284  17.018  1.00  0.00     0.000 C 
BRANCH   5   6
ATOM      6  C   UNL     1      15.683  -4.120  18.545  1.00  0.00     0.000 C 
BRANCH   6   7
ATOM      7  C   UNL     1      17.065  -4.490  19.110  1.00  0.00     0.000 C 
BRANCH   7   8
ATOM      8  C   UNL     1      17.332  -3.834  20.474  1.00  0.00     0.000 C 
BRANCH   8   9
ATOM      9  C   UNL     1      18.716  -4.189  21.043  1.00  0.00     0.000 C 
BRANCH   9  10
ATOM     10  C   UNL     1      19.444  -2.926  21.527  1.00  0.00     0.000 C 
BRANCH  10  11
ATOM     11  C   UNL     1      20.745  -3.236  22.286  1.00  0.00     0.000 C 
BRANCH  11  12
ATOM     12  C   UNL     1      21.044  -2.242  23.431  1.00  0.00     0.006 C 
BRANCH  12  13
ATOM     13  C   UNL     1      20.191  -0.970  23.332  1.00  0.00     0.053 C 
BRANCH  13  14
ATOM     14  C   UNL     1      20.951   0.120  22.641  1.00  0.00     0.041 C 
ATOM     15  O   UNL     1      20.392   0.818  21.752  1.00  0.00    -0.550 OA
ATOM     16  O   UNL     1      22.274   0.377  22.991  1.00  0.00    -0.550 OA
ENDBRANCH  13  14
ENDBRANCH  12  13
ENDBRANCH  11  12
ENDBRANCH  10  11
ENDBRANCH   9  10
ENDBRANCH   8   9
ENDBRANCH   7   8
ENDBRANCH   6   7
ENDBRANCH   5   6
ENDBRANCH   4   5
ENDBRANCH   3   4
ENDBRANCH   2   3
ENDBRANCH   1   2
BRANCH   1  17
ATOM     17  C   UNL     1      18.580  -7.620  14.765  1.00  0.00     0.000 C 
BRANCH  17  18
ATOM     18  C   UNL     1      19.795  -8.561  14.792  1.00  0.00     0.000 C 
BRANCH  18  19
ATOM     19  C   UNL     1      21.000  -7.950  15.526  1.00  0.00     0.000 C 
BRANCH  19  20
ATOM     20  C   UNL     1      20.552  -7.029  16.667  1.00  0.00     0.000 C 
BRANCH  20  21
ATOM     21  C   UNL     1      21.377  -5.732  16.676  1.00  0.00     0.000 C 
BRANCH  21  22
ATOM     22  C   UNL     1      21.864  -5.343  18.079  1.00  0.00    -0.000 C 
BRANCH  22  23
ATOM     23  C   UNL     1      21.309  -3.989  18.545  1.00  0.00    -0.000 C 
BRANCH  23  24
ATOM     24  C   UNL     1      20.360  -3.392  17.495  1.00  0.00    -0.000 C 
BRANCH  24  25
ATOM     25  C   UNL     1      19.710  -2.080  17.969  1.00  0.00    -0.000 C 
BRANCH  25  26
ATOM     26  C   UNL     1      18.405  -1.729  17.219  1.00  0.00    -0.000 C 
BRANCH  26  27
ATOM     27  C   UNL     1      17.657  -0.518  17.811  1.00  0.00    -0.000 C 
BRANCH  27  28
ATOM     28  C   UNL     1      17.876  -0.299  19.320  1.00  0.00    -0.000 C 
BRANCH  28  29
ATOM     29  C   UNL     1      16.598  -0.375  20.176  1.00  0.00    -0.003 C 
ATOM     30  C   UNL     1      16.876  -0.304  21.678  1.00  0.00     0.004 C 
ENDBRANCH  28  29
ENDBRANCH  27  28
ENDBRANCH  26  27
ENDBRANCH  25  26
ENDBRANCH  24  25
ENDBRANCH  23  24
ENDBRANCH  22  23
ENDBRANCH  21  22
ENDBRANCH  20  21
ENDBRANCH  19  20
ENDBRANCH  18  19
ENDBRANCH  17  18
ENDBRANCH   1  17
TORSDOF 26
ENDMDL
MODEL 3
REMARK VINA RESULT:    -5.292      3.475      7.731
REMARK INTER + INTRA:         -17.597
REMARK INTER:                 -14.236
REMARK INTRA:                  -3.361
REMARK UNBOUND:                -4.260
REMARK SMILES CCCCCCCCCCCCCCCCCCCCCCCCCCCC(=O)[O-]
REMARK SMILES IDX 15 1 16 2 17 3 18 4 19 5 20 6 21 7 22 8 23 9 24 10 25 11
REMARK SMILES IDX 26 12 27 13 28 14 29 15 30 16 14 17 13 18 12 19 11 20 10 21
REMARK SMILES IDX 9 22 8 23 7 24 6 25 5 26 4 27 3 28 2 29 1 30
REMARK H PARENT
REMARK Flexibility Score: inf
ROOT
ATOM      1  C   UNL     1      19.213  -4.858  19.241  1.00  0.00     0.000 C 
ENDROOT
BRANCH   1   2
ATOM      2  C   UNL     1      20.723  -4.659  19.049  1.00  0.00     0.000 C 
BRANCH   2   3
ATOM      3  C   UNL     1      21.120  -4.420  17.580  1.00  0.00     0.000 C 
BRANCH   3   4
ATOM      4  C   UNL     1      21.837  -5.597  16.889  1.00  0.00     0.000 C 
BRANCH   4   5
ATOM      5  C   UNL     1      20.906  -6.791  16.608  1.00  0.00     0.000 C 
BRANCH   5   6
ATOM      6  C   UNL     1      21.554  -7.845  15.695  1.00  0.00     0.000 C 
BRANCH   6   7
ATOM      7  C   UNL     1      20.548  -8.502  14.736  1.00  0.00     0.000 C 
BRANCH   7   8
ATOM      8  C   UNL     1      19.091  -8.188  15.114  1.00  0.00     0.000 C 
BRANCH   8   9
ATOM      9  C   UNL     1      18.095  -8.568  14.006  1.00  0.00     0.000 C 
BRANCH   9  10
ATOM     10  C   UNL     1      18.074 -10.089  13.793  1.00  0.00     0.000 C 
BRANCH  10  11
ATOM     11  C   UNL     1      17.034 -10.535  12.752  1.00  0.00     0.000 C 
BRANCH  11  12
ATOM     12  C   UNL     1      17.658 -11.051  11.436  1.00  0.00     0.006 C 
BRANCH  12  13
ATOM     13  C   UNL     1      18.788 -12.061  11.687  1.00  0.00     0.053 C 
BRANCH  13  14
ATOM     14  C   UNL     1      18.678 -13.217  10.741  1.00  0.00     0.041 C 
ATOM     15  O   UNL     1      19.406 -13.265   9.713  1.00  0.00    -0.550 OA
ATOM     16  O   UNL     1      17.784 -14.251  11.004  1.00  0.00    -0.550 OA
ENDBRANCH  13  14
ENDBRANCH  12  13
ENDBRANCH  11  12
ENDBRANCH  10  11
ENDBRANCH   9  10
ENDBRANCH   8   9
ENDBRANCH   7   8
ENDBRANCH   6   7
ENDBRANCH   5   6
ENDBRANCH   4   5
ENDBRANCH   3   4
ENDBRANCH   2   3
ENDBRANCH   1   2
BRANCH   1  17
ATOM     17  C   UNL     1      18.756  -4.334  20.611  1.00  0.00     0.000 C 
BRANCH  17  18
ATOM     18  C   UNL     1      19.734  -3.310  21.209  1.00  0.00     0.000 C 
BRANCH  18  19
ATOM     19  C   UNL     1      19.055  -1.972  21.549  1.00  0.00     0.000 C 
BRANCH  19  20
ATOM     20  C   UNL     1      19.728  -0.802  20.822  1.00  0.00     0.000 C 
BRANCH  20  21
ATOM     21  C   UNL     1      20.640  -1.313  19.696  1.00  0.00     0.000 C 
BRANCH  21  22
ATOM     22  C   UNL     1      20.163  -0.885  18.300  1.00  0.00    -0.000 C 
BRANCH  22  23
ATOM     23  C   UNL     1      18.794  -1.475  17.935  1.00  0.00    -0.000 C 
BRANCH  23  24
ATOM     24  C   UNL     1      17.741  -0.368  17.775  1.00  0.00    -0.000 C 
BRANCH  24  25
ATOM     25  C   UNL     1      16.332  -0.834  18.182  1.00  0.00    -0.000 C 
BRANCH  25  26
ATOM     26  C   UNL     1      16.326  -2.128  19.027  1.00  0.00    -0.000 C 
BRANCH  26  27
ATOM     27  C   UNL     1      15.594  -3.304  18.352  1.00  0.00    -0.000 C 
BRANCH  27  28
ATOM     28  C   UNL     1      16.347  -3.939  17.167  1.00  0.00    -0.000 C 
BRANCH  28  29
ATOM     29  C   UNL     1      15.751  -5.265  16.659  1.00  0.00    -0.003 C 
ATOM     30  C   UNL     1      14.456  -5.654  17.374  1.00  0.00     0.004 C 
ENDBRANCH  28  29
ENDBRANCH  27  28
ENDBRANCH  26  27
ENDBRANCH  25  26
ENDBRANCH  24  25
ENDBRANCH  23  24
ENDBRANCH  22  23
ENDBRANCH  21  22
ENDBRANCH  20  21
ENDBRANCH  19  20
ENDBRANCH  18  19
ENDBRANCH  17  18
ENDBRANCH   1  17
TORSDOF 26
ENDMDL
MODEL 4
REMARK VINA RESULT:    -5.249      3.661      8.046
REMARK INTER + INTRA:         -17.487
REMARK INTER:                 -14.158
REMARK INTRA:                  -3.329
REMARK UNBOUND:                -4.260
REMARK SMILES CCCCCCCCCCCCCCCCCCCCCCCCCCCC(=O)[O-]
REMARK SMILES IDX 15 1 16 2 17 3 18 4 19 5 20 6 21 7 22 8 23 9 24 10 25 11
REMARK SMILES IDX 26 12 27 13 28 14 29 15 30 16 14 17 13 18 12 19 11 20 10 21
REMARK SMILES IDX 9 22 8 23 7 24 6 25 5 26 4 27 3 28 2 29 1 30
REMARK H PARENT
REMARK Flexibility Score: inf
ROOT
ATOM      1  C   UNL     1      16.684  -3.722  19.663  1.00  0.00     0.000 C 
ENDROOT
BRANCH   1   2
ATOM      2  C   UNL     1      17.086  -3.157  18.293  1.00  0.00     0.000 C 
BRANCH   2   3
ATOM      3  C   UNL     1      16.523  -3.972  17.114  1.00  0.00     0.000 C 
BRANCH   3   4
ATOM      4  C   UNL     1      15.211  -4.730  17.401  1.00  0.00     0.000 C 
BRANCH   4   5
ATOM      5  C   UNL     1      15.098  -6.056  16.628  1.00  0.00     0.000 C 
BRANCH   5   6
ATOM      6  C   UNL     1      16.171  -6.199  15.536  1.00  0.00     0.000 C 
BRANCH   6   7
ATOM      7  C   UNL     1      16.093  -7.544  14.796  1.00  0.00     0.000 C 
BRANCH   7   8
ATOM      8  C   UNL     1      17.482  -8.147  14.531  1.00  0.00     0.000 C 
BRANCH   8   9
ATOM      9  C   UNL     1      17.417  -9.470  13.751  1.00  0.00     0.000 C 
BRANCH   9  10
ATOM     10  C   UNL     1      18.677 -10.312  14.003  1.00  0.00     0.000 C 
BRANCH  10  11
ATOM     11  C   UNL     1      19.167 -11.050  12.747  1.00  0.00     0.000 C 
BRANCH  11  12
ATOM     12  C   UNL     1      18.046 -11.345  11.726  1.00  0.00     0.006 C 
BRANCH  12  13
ATOM     13  C   UNL     1      18.059 -12.807  11.257  1.00  0.00     0.053 C 
BRANCH  13  14
ATOM     14  C   UNL     1      18.449 -12.893   9.814  1.00  0.00     0.041 C 
ATOM     15  O   UNL     1      19.561 -13.389   9.485  1.00  0.00    -0.550 OA
ATOM     16  O   UNL     1      17.577 -12.439   8.828  1.00  0.00    -0.550 OA
ENDBRANCH  13  14
ENDBRANCH  12  13
ENDBRANCH  11  12
ENDBRANCH  10  11
ENDBRANCH   9  10
ENDBRANCH   8   9
ENDBRANCH   7   8
ENDBRANCH   6   7
ENDBRANCH   5   6
ENDBRANCH   4   5
ENDBRANCH   3   4
ENDBRANCH   2   3
ENDBRANCH   1   2
BRANCH   1  17
ATOM     17  C   UNL     1      16.665  -2.618  20.731  1.00  0.00     0.000 C 
BRANCH  17  18
ATOM     18  C   UNL     1      16.135  -1.280  20.190  1.00  0.00     0.000 C 
BRANCH  18  19
ATOM     19  C   UNL     1      17.067  -0.100  20.515  1.00  0.00     0.000 C 
BRANCH  19  20
ATOM     20  C   UNL     1      17.917  -0.385  21.759  1.00  0.00     0.000 C 
BRANCH  20  21
ATOM     21  C   UNL     1      18.950   0.732  21.980  1.00  0.00     0.000 C 
BRANCH  21  22
ATOM     22  C   UNL     1      20.049   0.340  22.978  1.00  0.00    -0.000 C 
BRANCH  22  23
ATOM     23  C   UNL     1      19.889  -1.094  23.503  1.00  0.00    -0.000 C 
BRANCH  23  24
ATOM     24  C   UNL     1      21.233  -1.839  23.491  1.00  0.00    -0.000 C 
BRANCH  24  25
ATOM     25  C   UNL     1      21.115  -3.254  22.899  1.00  0.00    -0.000 C 
BRANCH  25  26
ATOM     26  C   UNL     1      19.938  -3.417  21.911  1.00  0.00    -0.000 C 
BRANCH  26  27
ATOM     27  C   UNL     1      20.375  -3.516  20.437  1.00  0.00    -0.000 C 
BRANCH  27  28
ATOM     28  C   UNL     1      21.490  -2.536  20.027  1.00  0.00    -0.000 C 
BRANCH  28  29
ATOM     29  C   UNL     1      21.000  -1.133  19.622  1.00  0.00    -0.003 C 
ATOM     30  C   UNL     1      19.960  -1.161  18.501  1.00  0.00     0.004 C 
ENDBRANCH  28  29
ENDBRANCH  27  28
ENDBRANCH  26  27
ENDBRANCH  25  26
ENDBRANCH  24  25
ENDBRANCH  23  24
ENDBRANCH  22  23
ENDBRANCH  21  22
ENDBRANCH  20  21
ENDBRANCH  19  20
ENDBRANCH  18  19
ENDBRANCH  17  18
ENDBRANCH   1  17
TORSDOF 26
ENDMDL
MODEL 5
REMARK VINA RESULT:    -5.168      2.083      3.948
REMARK INTER + INTRA:         -17.284
REMARK INTER:                 -14.126
REMARK INTRA:                  -3.158
REMARK UNBOUND:                -4.260
REMARK SMILES CCCCCCCCCCCCCCCCCCCCCCCCCCCC(=O)[O-]
REMARK SMILES IDX 15 1 16 2 17 3 18 4 19 5 20 6 21 7 22 8 23 9 24 10 25 11
REMARK SMILES IDX 26 12 27 13 28 14 29 15 30 16 14 17 13 18 12 19 11 20 10 21
REMARK SMILES IDX 9 22 8 23 7 24 6 25 5 26 4 27 3 28 2 29 1 30
REMARK H PARENT
REMARK Flexibility Score: inf
ROOT
ATOM      1  C   UNL     1      16.002  -0.533  21.471  1.00  0.00     0.000 C 
ENDROOT
BRANCH   1   2
ATOM      2  C   UNL     1      16.933   0.646  21.160  1.00  0.00     0.000 C 
BRANCH   2   3
ATOM      3  C   UNL     1      18.335   0.490  21.780  1.00  0.00     0.000 C 
BRANCH   3   4
ATOM      4  C   UNL     1      19.498   0.404  20.771  1.00  0.00     0.000 C 
BRANCH   4   5
ATOM      5  C   UNL     1      20.865   0.733  21.396  1.00  0.00     0.000 C 
BRANCH   5   6
ATOM      6  C   UNL     1      22.019  -0.045  20.742  1.00  0.00     0.000 C 
BRANCH   6   7
ATOM      7  C   UNL     1      22.593  -1.140  21.656  1.00  0.00     0.000 C 
BRANCH   7   8
ATOM      8  C   UNL     1      22.045  -1.049  23.090  1.00  0.00     0.000 C 
BRANCH   8   9
ATOM      9  C   UNL     1      21.078  -2.195  23.430  1.00  0.00     0.000 C 
BRANCH   9  10
ATOM     10  C   UNL     1      21.079  -3.255  22.319  1.00  0.00     0.000 C 
BRANCH  10  11
ATOM     11  C   UNL     1      19.721  -3.384  21.610  1.00  0.00     0.000 C 
BRANCH  11  12
ATOM     12  C   UNL     1      19.835  -3.501  20.073  1.00  0.00     0.006 C 
BRANCH  12  13
ATOM     13  C   UNL     1      21.193  -4.068  19.634  1.00  0.00     0.053 C 
BRANCH  13  14
ATOM     14  C   UNL     1      21.113  -4.595  18.234  1.00  0.00     0.041 C 
ATOM     15  O   UNL     1      20.052  -5.137  17.820  1.00  0.00    -0.550 OA
ATOM     16  O   UNL     1      22.205  -4.474  17.380  1.00  0.00    -0.550 OA
ENDBRANCH  13  14
ENDBRANCH  12  13
ENDBRANCH  11  12
ENDBRANCH  10  11
ENDBRANCH   9  10
ENDBRANCH   8   9
ENDBRANCH   7   8
ENDBRANCH   6   7
ENDBRANCH   5   6
ENDBRANCH   4   5
ENDBRANCH   3   4
ENDBRANCH   2   3
ENDBRANCH   1   2
BRANCH   1  17
ATOM     17  C   UNL     1      16.450  -1.802  20.729  1.00  0.00     0.000 C 
BRANCH  17  18
ATOM     18  C   UNL     1      15.826  -1.920  19.329  1.00  0.00     0.000 C 
BRANCH  18  19
ATOM     19  C   UNL     1      16.829  -2.415  18.274  1.00  0.00     0.000 C 
BRANCH  19  20
ATOM     20  C   UNL     1      16.724  -3.931  18.070  1.00  0.00     0.000 C 
BRANCH  20  21
ATOM     21  C   UNL     1      15.671  -4.266  17.003  1.00  0.00     0.000 C 
BRANCH  21  22
ATOM     22  C   UNL     1      14.872  -5.537  17.328  1.00  0.00    -0.000 C 
BRANCH  22  23
ATOM     23  C   UNL     1      14.848  -6.536  16.162  1.00  0.00    -0.000 C 
BRANCH  23  24
ATOM     24  C   UNL     1      16.169  -6.502  15.380  1.00  0.00    -0.000 C 
BRANCH  24  25
ATOM     25  C   UNL     1      16.438  -7.816  14.624  1.00  0.00    -0.000 C 
BRANCH  25  26
ATOM     26  C   UNL     1      17.940  -8.146  14.470  1.00  0.00    -0.000 C 
BRANCH  26  27
ATOM     27  C   UNL     1      18.229  -9.650  14.302  1.00  0.00    -0.000 C 
BRANCH  27  28
ATOM     28  C   UNL     1      18.729 -10.059  12.904  1.00  0.00    -0.000 C 
BRANCH  28  29
ATOM     29  C   UNL     1      20.001 -10.928  12.901  1.00  0.00    -0.003 C 
ATOM     30  C   UNL     1      21.279 -10.121  13.138  1.00  0.00     0.004 C 
ENDBRANCH  28  29
ENDBRANCH  27  28
ENDBRANCH  26  27
ENDBRANCH  25  26
ENDBRANCH  24  25
ENDBRANCH  23  24
ENDBRANCH  22  23
ENDBRANCH  21  22
ENDBRANCH  20  21
ENDBRANCH  19  20
ENDBRANCH  18  19
ENDBRANCH  17  18
ENDBRANCH   1  17
TORSDOF 26
ENDMDL
MODEL 6
REMARK VINA RESULT:    -5.017      3.427      6.674
REMARK INTER + INTRA:         -16.902
REMARK INTER:                 -14.507
REMARK INTRA:                  -2.396
REMARK UNBOUND:                -4.260
REMARK SMILES CCCCCCCCCCCCCCCCCCCCCCCCCCCC(=O)[O-]
REMARK SMILES IDX 15 1 16 2 17 3 18 4 19 5 20 6 21 7 22 8 23 9 24 10 25 11
REMARK SMILES IDX 26 12 27 13 28 14 29 15 30 16 14 17 13 18 12 19 11 20 10 21
REMARK SMILES IDX 9 22 8 23 7 24 6 25 5 26 4 27 3 28 2 29 1 30
REMARK H PARENT
REMARK Flexibility Score: inf
ROOT
ATOM      1  C   UNL     1      15.334  -4.770  18.048  1.00  0.00     0.000 C 
ENDROOT
BRANCH   1   2
ATOM      2  C   UNL     1      15.632  -3.372  17.489  1.00  0.00     0.000 C 
BRANCH   2   3
ATOM      3  C   UNL     1      15.378  -2.246  18.509  1.00  0.00     0.000 C 
BRANCH   3   4
ATOM      4  C   UNL     1      15.966  -0.870  18.135  1.00  0.00     0.000 C 
BRANCH   4   5
ATOM      5  C   UNL     1      17.443  -0.714  18.538  1.00  0.00     0.000 C 
BRANCH   5   6
ATOM      6  C   UNL     1      17.656   0.382  19.595  1.00  0.00     0.000 C 
BRANCH   6   7
ATOM      7  C   UNL     1      17.480  -0.133  21.033  1.00  0.00     0.000 C 
BRANCH   7   8
ATOM      8  C   UNL     1      17.806  -1.630  21.160  1.00  0.00     0.000 C 
BRANCH   8   9
ATOM      9  C   UNL     1      19.271  -1.889  21.547  1.00  0.00     0.000 C 
BRANCH   9  10
ATOM     10  C   UNL     1      19.686  -3.321  21.179  1.00  0.00     0.000 C 
BRANCH  10  11
ATOM     11  C   UNL     1      18.487  -4.236  20.879  1.00  0.00     0.000 C 
BRANCH  11  12
ATOM     12  C   UNL     1      18.695  -5.144  19.647  1.00  0.00     0.006 C 
BRANCH  12  13
ATOM     13  C   UNL     1      18.997  -4.337  18.376  1.00  0.00     0.053 C 
BRANCH  13  14
ATOM     14  C   UNL     1      20.460  -4.380  18.062  1.00  0.00     0.041 C 
ATOM     15  O   UNL     1      21.135  -5.413  18.325  1.00  0.00    -0.550 OA
ATOM     16  O   UNL     1      21.078  -3.286  17.463  1.00  0.00    -0.550 OA
ENDBRANCH  13  14
ENDBRANCH  12  13
ENDBRANCH  11  12
ENDBRANCH  10  11
ENDBRANCH   9  10
ENDBRANCH   8   9
ENDBRANCH   7   8
ENDBRANCH   6   7
ENDBRANCH   5   6
ENDBRANCH   4   5
ENDBRANCH   3   4
ENDBRANCH   2   3
ENDBRANCH   1   2
BRANCH   1  17
ATOM     17  C   UNL     1      15.001  -5.757  16.918  1.00  0.00     0.000 C 
BRANCH  17  18
ATOM     18  C   UNL     1      16.128  -5.867  15.878  1.00  0.00     0.000 C 
BRANCH  18  19
ATOM     19  C   UNL     1      16.042  -7.159  15.048  1.00  0.00     0.000 C 
BRANCH  19  20
ATOM     20  C   UNL     1      17.437  -7.704  14.717  1.00  0.00     0.000 C 
BRANCH  20  21
ATOM     21  C   UNL     1      17.344  -9.133  14.160  1.00  0.00     0.000 C 
BRANCH  21  22
ATOM     22  C   UNL     1      18.305  -9.381  12.988  1.00  0.00    -0.000 C 
BRANCH  22  23
ATOM     23  C   UNL     1      19.548 -10.183  13.401  1.00  0.00    -0.000 C 
BRANCH  23  24
ATOM     24  C   UNL     1      19.527 -11.590  12.785  1.00  0.00    -0.000 C 
BRANCH  24  25
ATOM     25  C   UNL     1      18.343 -11.792  11.822  1.00  0.00    -0.000 C 
BRANCH  25  26
ATOM     26  C   UNL     1      18.446 -13.082  10.976  1.00  0.00    -0.000 C 
BRANCH  26  27
ATOM     27  C   UNL     1      19.245 -14.208  11.659  1.00  0.00    -0.000 C 
BRANCH  27  28
ATOM     28  C   UNL     1      19.537 -15.427  10.764  1.00  0.00    -0.000 C 
BRANCH  28  29
ATOM     29  C   UNL     1      19.120 -16.783  11.363  1.00  0.00    -0.003 C 
ATOM     30  C   UNL     1      17.647 -16.830  11.774  1.00  0.00     0.004 C 
ENDBRANCH  28  29
ENDBRANCH  27  28
ENDBRANCH  26  27
ENDBRANCH  25  26
ENDBRANCH  24  25
ENDBRANCH  23  24
ENDBRANCH  22  23
ENDBRANCH  21  22
ENDBRANCH  20  21
ENDBRANCH  19  20
ENDBRANCH  18  19
ENDBRANCH  17  18
ENDBRANCH   1  17
TORSDOF 26
ENDMDL
MODEL 7
REMARK VINA RESULT:    -5.012      2.741      6.638
REMARK INTER + INTRA:         -16.891
REMARK INTER:                 -13.797
REMARK INTRA:                  -3.094
REMARK UNBOUND:                -4.260
REMARK SMILES CCCCCCCCCCCCCCCCCCCCCCCCCCCC(=O)[O-]
REMARK SMILES IDX 15 1 16 2 17 3 18 4 19 5 20 6 21 7 22 8 23 9 24 10 25 11
REMARK SMILES IDX 26 12 27 13 28 14 29 15 30 16 14 17 13 18 12 19 11 20 10 21
REMARK SMILES IDX 9 22 8 23 7 24 6 25 5 26 4 27 3 28 2 29 1 30
REMARK H PARENT
REMARK Flexibility Score: inf
ROOT
ATOM      1  C   UNL     1      16.993  -0.588  19.957  1.00  0.00     0.000 C 
ENDROOT
BRANCH   1   2
ATOM      2  C   UNL     1      16.613  -1.063  18.548  1.00  0.00     0.000 C 
BRANCH   2   3
ATOM      3  C   UNL     1      15.663  -2.275  18.554  1.00  0.00     0.000 C 
BRANCH   3   4
ATOM      4  C   UNL     1      15.940  -3.338  17.471  1.00  0.00     0.000 C 
BRANCH   4   5
ATOM      5  C   UNL     1      15.627  -4.771  17.937  1.00  0.00     0.000 C 
BRANCH   5   6
ATOM      6  C   UNL     1      15.064  -5.651  16.810  1.00  0.00     0.000 C 
BRANCH   6   7
ATOM      7  C   UNL     1      16.160  -6.218  15.893  1.00  0.00     0.000 C 
BRANCH   7   8
ATOM      8  C   UNL     1      15.592  -7.154  14.813  1.00  0.00     0.000 C 
BRANCH   8   9
ATOM      9  C   UNL     1      16.573  -8.271  14.419  1.00  0.00     0.000 C 
BRANCH   9  10
ATOM     10  C   UNL     1      18.016  -7.873  14.762  1.00  0.00     0.000 C 
BRANCH  10  11
ATOM     11  C   UNL     1      19.065  -8.734  14.039  1.00  0.00     0.000 C 
BRANCH  11  12
ATOM     12  C   UNL     1      18.721 -10.240  14.020  1.00  0.00     0.006 C 
BRANCH  12  13
ATOM     13  C   UNL     1      19.070 -10.898  12.678  1.00  0.00     0.053 C 
BRANCH  13  14
ATOM     14  C   UNL     1      17.825 -11.204  11.903  1.00  0.00     0.041 C 
ATOM     15  O   UNL     1      16.694 -10.924  12.385  1.00  0.00    -0.550 OA
ATOM     16  O   UNL     1      17.914 -11.782  10.641  1.00  0.00    -0.550 OA
ENDBRANCH  13  14
ENDBRANCH  12  13
ENDBRANCH  11  12
ENDBRANCH  10  11
ENDBRANCH   9  10
ENDBRANCH   8   9
ENDBRANCH   7   8
ENDBRANCH   6   7
ENDBRANCH   5   6
ENDBRANCH   4   5
ENDBRANCH   3   4
ENDBRANCH   2   3
ENDBRANCH   1   2
BRANCH   1  17
ATOM     17  C   UNL     1      18.264   0.274  19.927  1.00  0.00     0.000 C 
BRANCH  17  18
ATOM     18  C   UNL     1      18.794   0.597  21.333  1.00  0.00     0.000 C 
BRANCH  18  19
ATOM     19  C   UNL     1      20.318   0.424  21.446  1.00  0.00     0.000 C 
BRANCH  19  20
ATOM     20  C   UNL     1      20.876  -0.395  20.275  1.00  0.00     0.000 C 
BRANCH  20  21
ATOM     21  C   UNL     1      21.702  -1.584  20.788  1.00  0.00     0.000 C 
BRANCH  21  22
ATOM     22  C   UNL     1      21.758  -1.658  22.321  1.00  0.00    -0.000 C 
BRANCH  22  23
ATOM     23  C   UNL     1      21.075  -2.915  22.878  1.00  0.00    -0.000 C 
BRANCH  23  24
ATOM     24  C   UNL     1      20.403  -3.721  21.756  1.00  0.00    -0.000 C 
BRANCH  24  25
ATOM     25  C   UNL     1      18.904  -3.400  21.618  1.00  0.00    -0.000 C 
BRANCH  25  26
ATOM     26  C   UNL     1      18.286  -3.887  20.288  1.00  0.00    -0.000 C 
BRANCH  26  27
ATOM     27  C   UNL     1      19.124  -4.965  19.574  1.00  0.00    -0.000 C 
BRANCH  27  28
ATOM     28  C   UNL     1      19.863  -4.480  18.313  1.00  0.00    -0.000 C 
BRANCH  28  29
ATOM     29  C   UNL     1      21.070  -5.342  17.900  1.00  0.00    -0.003 C 
ATOM     30  C   UNL     1      22.087  -4.580  17.049  1.00  0.00     0.004 C 
ENDBRANCH  28  29
ENDBRANCH  27  28
ENDBRANCH  26  27
ENDBRANCH  25  26
ENDBRANCH  24  25
ENDBRANCH  23  24
ENDBRANCH  22  23
ENDBRANCH  21  22
ENDBRANCH  20  21
ENDBRANCH  19  20
ENDBRANCH  18  19
ENDBRANCH  17  18
ENDBRANCH   1  17
TORSDOF 26
ENDMDL
MODEL 8
REMARK VINA RESULT:    -4.944      4.383      9.480
REMARK INTER + INTRA:         -16.720
REMARK INTER:                 -13.537
REMARK INTRA:                  -3.183
REMARK UNBOUND:                -4.260
REMARK SMILES CCCCCCCCCCCCCCCCCCCCCCCCCCCC(=O)[O-]
REMARK SMILES IDX 15 1 16 2 17 3 18 4 19 5 20 6 21 7 22 8 23 9 24 10 25 11
REMARK SMILES IDX 26 12 27 13 28 14 29 15 30 16 14 17 13 18 12 19 11 20 10 21
REMARK SMILES IDX 9 22 8 23 7 24 6 25 5 26 4 27 3 28 2 29 1 30
REMARK H PARENT
REMARK Flexibility Score: inf
ROOT
ATOM      1  C   UNL     1      20.490  -5.299  18.027  1.00  0.00     0.000 C 
ENDROOT
BRANCH   1   2
ATOM      2  C   UNL     1      21.339  -6.021  16.971  1.00  0.00     0.000 C 
BRANCH   2   3
ATOM      3  C   UNL     1      20.623  -7.230  16.341  1.00  0.00     0.000 C 
BRANCH   3   4
ATOM      4  C   UNL     1      21.507  -8.139  15.465  1.00  0.00     0.000 C 
BRANCH   4   5
ATOM      5  C   UNL     1      20.712  -8.894  14.383  1.00  0.00     0.000 C 
BRANCH   5   6
ATOM      6  C   UNL     1      19.204  -8.601  14.445  1.00  0.00     0.000 C 
BRANCH   6   7
ATOM      7  C   UNL     1      18.345  -9.829  14.099  1.00  0.00     0.000 C 
BRANCH   7   8
ATOM      8  C   UNL     1      19.041 -10.767  13.100  1.00  0.00     0.000 C 
BRANCH   8   9
ATOM      9  C   UNL     1      18.060 -11.420  12.114  1.00  0.00     0.000 C 
BRANCH   9  10
ATOM     10  C   UNL     1      18.807 -12.320  11.119  1.00  0.00     0.000 C 
BRANCH  10  11
ATOM     11  C   UNL     1      18.058 -12.498   9.789  1.00  0.00     0.000 C 
BRANCH  11  12
ATOM     12  C   UNL     1      17.725 -13.970   9.458  1.00  0.00     0.006 C 
BRANCH  12  13
ATOM     13  C   UNL     1      18.855 -14.926   9.867  1.00  0.00     0.053 C 
BRANCH  13  14
ATOM     14  C   UNL     1      18.378 -15.882  10.917  1.00  0.00     0.041 C 
ATOM     15  O   UNL     1      17.143 -16.033  11.123  1.00  0.00    -0.550 OA
ATOM     16  O   UNL     1      19.297 -16.620  11.657  1.00  0.00    -0.550 OA
ENDBRANCH  13  14
ENDBRANCH  12  13
ENDBRANCH  11  12
ENDBRANCH  10  11
ENDBRANCH   9  10
ENDBRANCH   8   9
ENDBRANCH   7   8
ENDBRANCH   6   7
ENDBRANCH   5   6
ENDBRANCH   4   5
ENDBRANCH   3   4
ENDBRANCH   2   3
ENDBRANCH   1   2
BRANCH   1  17
ATOM     17  C   UNL     1      21.378  -4.560  19.039  1.00  0.00     0.000 C 
BRANCH  17  18
ATOM     18  C   UNL     1      21.177  -3.036  19.001  1.00  0.00     0.000 C 
BRANCH  18  19
ATOM     19  C   UNL     1      20.155  -2.601  17.938  1.00  0.00     0.000 C 
BRANCH  19  20
ATOM     20  C   UNL     1      19.768  -1.127  18.104  1.00  0.00     0.000 C 
BRANCH  20  21
ATOM     21  C   UNL     1      18.378  -0.857  17.508  1.00  0.00     0.000 C 
BRANCH  21  22
ATOM     22  C   UNL     1      17.385  -0.295  18.535  1.00  0.00    -0.000 C 
BRANCH  22  23
ATOM     23  C   UNL     1      18.016  -0.093  19.920  1.00  0.00    -0.000 C 
BRANCH  23  24
ATOM     24  C   UNL     1      17.458  -1.102  20.934  1.00  0.00    -0.000 C 
BRANCH  24  25
ATOM     25  C   UNL     1      18.495  -2.166  21.336  1.00  0.00    -0.000 C 
BRANCH  25  26
ATOM     26  C   UNL     1      18.047  -3.614  21.033  1.00  0.00    -0.000 C 
BRANCH  26  27
ATOM     27  C   UNL     1      16.895  -3.705  20.013  1.00  0.00    -0.000 C 
BRANCH  27  28
ATOM     28  C   UNL     1      17.195  -4.572  18.776  1.00  0.00    -0.000 C 
BRANCH  28  29
ATOM     29  C   UNL     1      16.220  -4.377  17.600  1.00  0.00    -0.003 C 
ATOM     30  C   UNL     1      15.416  -3.080  17.696  1.00  0.00     0.004 C 
ENDBRANCH  28  29
ENDBRANCH  27  28
ENDBRANCH  26  27
ENDBRANCH  25  26
ENDBRANCH  24  25
ENDBRANCH  23  24
ENDBRANCH  22  23
ENDBRANCH  21  22
ENDBRANCH  20  21
ENDBRANCH  19  20
ENDBRANCH  18  19
ENDBRANCH  17  18
ENDBRANCH   1  17
TORSDOF 26
ENDMDL
MODEL 9
REMARK VINA RESULT:    -4.885      3.275      6.046
REMARK INTER + INTRA:         -16.571
REMARK INTER:                 -13.978
REMARK INTRA:                  -2.593
REMARK UNBOUND:                -4.260
REMARK SMILES CCCCCCCCCCCCCCCCCCCCCCCCCCCC(=O)[O-]
REMARK SMILES IDX 15 1 16 2 17 3 18 4 19 5 20 6 21 7 22 8 23 9 24 10 25 11
REMARK SMILES IDX 26 12 27 13 28 14 29 15 30 16 14 17 13 18 12 19 11 20 10 21
REMARK SMILES IDX 9 22 8 23 7 24 6 25 5 26 4 27 3 28 2 29 1 30
REMARK H PARENT
REMARK Flexibility Score: inf
ROOT
ATOM      1  C   UNL     1      16.470  -3.615  17.622  1.00  0.00     0.000 C 
ENDROOT
BRANCH   1   2
ATOM      2  C   UNL     1      16.152  -2.250  18.247  1.00  0.00     0.000 C 
BRANCH   2   3
ATOM      3  C   UNL     1      17.075  -1.896  19.429  1.00  0.00     0.000 C 
BRANCH   3   4
ATOM      4  C   UNL     1      17.953  -0.644  19.230  1.00  0.00     0.000 C 
BRANCH   4   5
ATOM      5  C   UNL     1      18.115   0.190  20.514  1.00  0.00     0.000 C 
BRANCH   5   6
ATOM      6  C   UNL     1      19.571   0.243  21.005  1.00  0.00     0.000 C 
BRANCH   6   7
ATOM      7  C   UNL     1      19.808  -0.616  22.258  1.00  0.00     0.000 C 
BRANCH   7   8
ATOM      8  C   UNL     1      20.803  -1.760  22.002  1.00  0.00     0.000 C 
BRANCH   8   9
ATOM      9  C   UNL     1      20.149  -3.148  22.087  1.00  0.00     0.000 C 
BRANCH   9  10
ATOM     10  C   UNL     1      19.986  -3.759  20.687  1.00  0.00     0.000 C 
BRANCH  10  11
ATOM     11  C   UNL     1      20.830  -3.046  19.618  1.00  0.00     0.000 C 
BRANCH  11  12
ATOM     12  C   UNL     1      20.413  -3.390  18.171  1.00  0.00     0.006 C 
BRANCH  12  13
ATOM     13  C   UNL     1      20.116  -4.885  17.992  1.00  0.00     0.053 C 
BRANCH  13  14
ATOM     14  C   UNL     1      21.186  -5.539  17.174  1.00  0.00     0.041 C 
ATOM     15  O   UNL     1      22.293  -4.961  16.999  1.00  0.00    -0.550 OA
ATOM     16  O   UNL     1      20.969  -6.797  16.618  1.00  0.00    -0.550 OA
ENDBRANCH  13  14
ENDBRANCH  12  13
ENDBRANCH  11  12
ENDBRANCH  10  11
ENDBRANCH   9  10
ENDBRANCH   8   9
ENDBRANCH   7   8
ENDBRANCH   6   7
ENDBRANCH   5   6
ENDBRANCH   4   5
ENDBRANCH   3   4
ENDBRANCH   2   3
ENDBRANCH   1   2
BRANCH   1  17
ATOM     17  C   UNL     1      15.481  -4.687  18.103  1.00  0.00     0.000 C 
BRANCH  17  18
ATOM     18  C   UNL     1      15.039  -5.634  16.975  1.00  0.00     0.000 C 
BRANCH  18  19
ATOM     19  C   UNL     1      16.118  -5.808  15.892  1.00  0.00     0.000 C 
BRANCH  19  20
ATOM     20  C   UNL     1      15.914  -7.106  15.103  1.00  0.00     0.000 C 
BRANCH  20  21
ATOM     21  C   UNL     1      17.265  -7.733  14.726  1.00  0.00     0.000 C 
BRANCH  21  22
ATOM     22  C   UNL     1      17.119  -8.999  13.869  1.00  0.00    -0.000 C 
BRANCH  22  23
ATOM     23  C   UNL     1      18.431  -9.403  13.181  1.00  0.00    -0.000 C 
BRANCH  23  24
ATOM     24  C   UNL     1      18.823 -10.843  13.543  1.00  0.00    -0.000 C 
BRANCH  24  25
ATOM     25  C   UNL     1      19.470 -11.591  12.364  1.00  0.00    -0.000 C 
BRANCH  25  26
ATOM     26  C   UNL     1      18.479 -11.935  11.229  1.00  0.00    -0.000 C 
BRANCH  26  27
ATOM     27  C   UNL     1      18.262 -13.448  11.034  1.00  0.00    -0.000 C 
BRANCH  27  28
ATOM     28  C   UNL     1      18.875 -14.027   9.745  1.00  0.00    -0.000 C 
BRANCH  28  29
ATOM     29  C   UNL     1      18.626 -13.188   8.478  1.00  0.00    -0.003 C 
ATOM     30  C   UNL     1      17.156 -13.161   8.057  1.00  0.00     0.004 C 
ENDBRANCH  28  29
ENDBRANCH  27  28
ENDBRANCH  26  27
ENDBRANCH  25  26
ENDBRANCH  24  25
ENDBRANCH  23  24
ENDBRANCH  22  23
ENDBRANCH  21  22
ENDBRANCH  20  21
ENDBRANCH  19  20
ENDBRANCH  18  19
ENDBRANCH  17  18
ENDBRANCH   1  17
TORSDOF 26
ENDMDL
