MODEL 1
REMARK VINA RESULT:    -3.614      0.000      0.000
REMARK INTER + INTRA:          -5.848
REMARK INTER:                  -5.515
REMARK INTRA:                  -0.333
REMARK UNBOUND:                -0.333
REMARK SMILES O=C([O-])CCCCCCCCC(=O)[O-]
REMARK SMILES IDX 7 1 6 2 5 3 4 4 2 5 1 6 3 7 8 8 9 9 10 10 11 11 12 12 13 13
REMARK SMILES IDX 14 14
REMARK H PARENT
REMARK Flexibility Score: inf
ROOT
ATOM      1  C   UNL     1      41.715  21.102  78.425  1.00  0.00     0.000 C 
ENDROOT
BRANCH   1   2
ATOM      2  C   UNL     1      40.349  20.403  78.494  1.00  0.00     0.000 C 
BRANCH   2   3
ATOM      3  C   UNL     1      39.965  19.991  79.924  1.00  0.00     0.006 C 
BRANCH   3   4
ATOM      4  C   UNL     1      38.594  20.534  80.347  1.00  0.00     0.053 C 
BRANCH   4   5
ATOM      5  C   UNL     1      37.694  19.413  80.763  1.00  0.00     0.041 C 
ATOM      6  O   UNL     1      37.560  18.401  80.026  1.00  0.00    -0.550 OA
ATOM      7  O   UNL     1      37.041  19.464  81.988  1.00  0.00    -0.550 OA
ENDBRANCH   4   5
ENDBRANCH   3   4
ENDBRANCH   2   3
ENDBRANCH   1   2
BRANCH   1   8
ATOM      8  C   UNL     1      42.832  20.170  78.920  1.00  0.00     0.000 C 
BRANCH   8   9
ATOM      9  C   UNL     1      44.224  20.814  78.827  1.00  0.00     0.000 C 
BRANCH   9  10
ATOM     10  C   UNL     1      45.293  19.841  78.301  1.00  0.00     0.006 C 
BRANCH  10  11
ATOM     11  C   UNL     1      45.226  19.676  76.778  1.00  0.00     0.053 C 
BRANCH  11  12
ATOM     12  C   UNL     1      45.562  18.277  76.357  1.00  0.00     0.041 C 
ATOM     13  O   UNL     1      45.562  17.343  77.201  1.00  0.00    -0.550 OA
ATOM     14  O   UNL     1      45.909  18.013  75.038  1.00  0.00    -0.550 OA
ENDBRANCH  11  12
ENDBRANCH  10  11
ENDBRANCH   9  10
ENDBRANCH   8   9
ENDBRANCH   1   8
TORSDOF 9
ENDMDL
MODEL 2
REMARK VINA RESULT:    -3.614      0.895      7.229
REMARK INTER + INTRA:          -5.848
REMARK INTER:                  -5.451
REMARK INTRA:                  -0.397
REMARK UNBOUND:                -0.333
REMARK SMILES O=C([O-])CCCCCCCCC(=O)[O-]
REMARK SMILES IDX 7 1 6 2 5 3 4 4 2 5 1 6 3 7 8 8 9 9 10 10 11 11 12 12 13 13
REMARK SMILES IDX 14 14
REMARK H PARENT
REMARK Flexibility Score: inf
ROOT
ATOM      1  C   UNL     1      42.340  21.546  78.392  1.00  0.00     0.000 C 
ENDROOT
BRANCH   1   2
ATOM      2  C   UNL     1      43.235  20.331  78.683  1.00  0.00     0.000 C 
BRANCH   2   3
ATOM      3  C   UNL     1      44.388  20.189  77.675  1.00  0.00     0.006 C 
BRANCH   3   4
ATOM      4  C   UNL     1      45.274  18.969  77.960  1.00  0.00     0.053 C 
BRANCH   4   5
ATOM      5  C   UNL     1      45.573  18.234  76.691  1.00  0.00     0.041 C 
ATOM      6  O   UNL     1      45.823  18.871  75.634  1.00  0.00    -0.550 OA
ATOM      7  O   UNL     1      45.622  16.846  76.688  1.00  0.00    -0.550 OA
ENDBRANCH   4   5
ENDBRANCH   3   4
ENDBRANCH   2   3
ENDBRANCH   1   2
BRANCH   1   8
ATOM      8  C   UNL     1      40.978  21.102  77.837  1.00  0.00     0.000 C 
BRANCH   8   9
ATOM      9  C   UNL     1      39.804  21.571  78.709  1.00  0.00     0.000 C 
BRANCH   9  10
ATOM     10  C   UNL     1      39.682  20.773  80.019  1.00  0.00     0.006 C 
BRANCH  10  11
ATOM     11  C   UNL     1      39.260  19.319  79.774  1.00  0.00     0.053 C 
BRANCH  11  12
ATOM     12  C   UNL     1      37.947  19.006  80.424  1.00  0.00     0.041 C 
ATOM     13  O   UNL     1      37.515  19.728  81.361  1.00  0.00    -0.550 OA
ATOM     14  O   UNL     1      37.218  17.896  80.018  1.00  0.00    -0.550 OA
ENDBRANCH  11  12
ENDBRANCH  10  11
ENDBRANCH   9  10
ENDBRANCH   8   9
ENDBRANCH   1   8
TORSDOF 9
ENDMDL
MODEL 3
REMARK VINA RESULT:    -3.552      3.448      6.188
REMARK INTER + INTRA:          -5.754
REMARK INTER:                  -4.921
REMARK INTRA:                  -0.833
REMARK UNBOUND:                -0.333
REMARK SMILES O=C([O-])CCCCCCCCC(=O)[O-]
REMARK SMILES IDX 7 1 6 2 5 3 4 4 2 5 1 6 3 7 8 8 9 9 10 10 11 11 12 12 13 13
REMARK SMILES IDX 14 14
REMARK H PARENT
REMARK Flexibility Score: inf
ROOT
ATOM      1  C   UNL     1      43.107  21.173  79.547  1.00  0.00     0.000 C 
ENDROOT
BRANCH   1   2
ATOM      2  C   UNL     1      44.483  20.866  78.937  1.00  0.00     0.000 C 
BRANCH   2   3
ATOM      3  C   UNL     1      44.419  19.786  77.845  1.00  0.00     0.006 C 
BRANCH   3   4
ATOM      4  C   UNL     1      45.592  18.799  77.920  1.00  0.00     0.053 C 
BRANCH   4   5
ATOM      5  C   UNL     1      45.661  17.974  76.674  1.00  0.00     0.041 C 
ATOM      6  O   UNL     1      45.543  16.722  76.735  1.00  0.00    -0.550 OA
ATOM      7  O   UNL     1      45.806  18.593  75.439  1.00  0.00    -0.550 OA
ENDBRANCH   4   5
ENDBRANCH   3   4
ENDBRANCH   2   3
ENDBRANCH   1   2
BRANCH   1   8
ATOM      8  C   UNL     1      42.090  20.080  79.183  1.00  0.00     0.000 C 
BRANCH   8   9
ATOM      9  C   UNL     1      40.698  20.649  78.869  1.00  0.00     0.000 C 
BRANCH   9  10
ATOM     10  C   UNL     1      40.752  21.856  77.917  1.00  0.00     0.006 C 
BRANCH  10  11
ATOM     11  C   UNL     1      40.757  21.431  76.443  1.00  0.00     0.053 C 
BRANCH  11  12
ATOM     12  C   UNL     1      42.021  21.844  75.752  1.00  0.00     0.041 C 
ATOM     13  O   UNL     1      42.312  21.366  74.624  1.00  0.00    -0.550 OA
ATOM     14  O   UNL     1      42.894  22.729  76.370  1.00  0.00    -0.550 OA
ENDBRANCH  11  12
ENDBRANCH  10  11
ENDBRANCH   9  10
ENDBRANCH   8   9
ENDBRANCH   1   8
TORSDOF 9
ENDMDL
MODEL 4
REMARK VINA RESULT:    -3.438     17.003     17.909
REMARK INTER + INTRA:          -5.579
REMARK INTER:                  -5.109
REMARK INTRA:                  -0.470
REMARK UNBOUND:                -0.333
REMARK SMILES O=C([O-])CCCCCCCCC(=O)[O-]
REMARK SMILES IDX 7 1 6 2 5 3 4 4 2 5 1 6 3 7 8 8 9 9 10 10 11 11 12 12 13 13
REMARK SMILES IDX 14 14
REMARK H PARENT
REMARK Flexibility Score: inf
ROOT
ATOM      1  C   UNL     1      47.984  31.051  89.135  1.00  0.00     0.000 C 
ENDROOT
BRANCH   1   2
ATOM      2  C   UNL     1      47.394  31.252  90.539  1.00  0.00     0.000 C 
BRANCH   2   3
ATOM      3  C   UNL     1      45.884  31.543  90.511  1.00  0.00     0.006 C 
BRANCH   3   4
ATOM      4  C   UNL     1      45.057  30.437  91.180  1.00  0.00     0.053 C 
BRANCH   4   5
ATOM      5  C   UNL     1      44.013  31.033  92.070  1.00  0.00     0.041 C 
ATOM      6  O   UNL     1      42.990  30.367  92.381  1.00  0.00    -0.550 OA
ATOM      7  O   UNL     1      44.192  32.306  92.596  1.00  0.00    -0.550 OA
ENDBRANCH   4   5
ENDBRANCH   3   4
ENDBRANCH   2   3
ENDBRANCH   1   2
BRANCH   1   8
ATOM      8  C   UNL     1      47.189  31.846  88.088  1.00  0.00     0.000 C 
BRANCH   8   9
ATOM      9  C   UNL     1      47.881  33.158  87.690  1.00  0.00     0.000 C 
BRANCH   9  10
ATOM     10  C   UNL     1      49.275  32.931  87.079  1.00  0.00     0.006 C 
BRANCH  10  11
ATOM     11  C   UNL     1      50.359  33.751  87.790  1.00  0.00     0.053 C 
BRANCH  11  12
ATOM     12  C   UNL     1      50.666  35.020  87.055  1.00  0.00     0.041 C 
ATOM     13  O   UNL     1      50.254  36.125  87.497  1.00  0.00    -0.550 OA
ATOM     14  O   UNL     1      51.377  34.978  85.863  1.00  0.00    -0.550 OA
ENDBRANCH  11  12
ENDBRANCH  10  11
ENDBRANCH   9  10
ENDBRANCH   8   9
ENDBRANCH   1   8
TORSDOF 9
ENDMDL
MODEL 5
REMARK VINA RESULT:    -3.380      1.638      2.562
REMARK INTER + INTRA:          -5.491
REMARK INTER:                  -5.103
REMARK INTRA:                  -0.387
REMARK UNBOUND:                -0.333
REMARK SMILES O=C([O-])CCCCCCCCC(=O)[O-]
REMARK SMILES IDX 7 1 6 2 5 3 4 4 2 5 1 6 3 7 8 8 9 9 10 10 11 11 12 12 13 13
REMARK SMILES IDX 14 14
REMARK H PARENT
REMARK Flexibility Score: inf
ROOT
ATOM      1  C   UNL     1      44.245  20.698  79.008  1.00  0.00     0.000 C 
ENDROOT
BRANCH   1   2
ATOM      2  C   UNL     1      42.840  20.652  78.389  1.00  0.00     0.000 C 
BRANCH   2   3
ATOM      3  C   UNL     1      41.784  20.093  79.356  1.00  0.00     0.006 C 
BRANCH   3   4
ATOM      4  C   UNL     1      40.358  20.202  78.801  1.00  0.00     0.053 C 
BRANCH   4   5
ATOM      5  C   UNL     1      39.357  20.081  79.907  1.00  0.00     0.041 C 
ATOM      6  O   UNL     1      38.911  18.951  80.239  1.00  0.00    -0.550 OA
ATOM      7  O   UNL     1      38.953  21.213  80.605  1.00  0.00    -0.550 OA
ENDBRANCH   4   5
ENDBRANCH   3   4
ENDBRANCH   2   3
ENDBRANCH   1   2
BRANCH   1   8
ATOM      8  C   UNL     1      45.306  20.252  77.990  1.00  0.00     0.000 C 
BRANCH   8   9
ATOM      9  C   UNL     1      45.199  18.760  77.639  1.00  0.00     0.000 C 
BRANCH   9  10
ATOM     10  C   UNL     1      45.714  18.445  76.224  1.00  0.00     0.006 C 
BRANCH  10  11
ATOM     11  C   UNL     1      46.068  19.716  75.441  1.00  0.00     0.053 C 
BRANCH  11  12
ATOM     12  C   UNL     1      46.218  19.440  73.976  1.00  0.00     0.041 C 
ATOM     13  O   UNL     1      46.029  18.279  73.526  1.00  0.00    -0.550 OA
ATOM     14  O   UNL     1      46.602  20.458  73.112  1.00  0.00    -0.550 OA
ENDBRANCH  11  12
ENDBRANCH  10  11
ENDBRANCH   9  10
ENDBRANCH   8   9
ENDBRANCH   1   8
TORSDOF 9
ENDMDL
MODEL 6
REMARK VINA RESULT:    -3.379     16.998     17.999
REMARK INTER + INTRA:          -5.490
REMARK INTER:                  -5.074
REMARK INTRA:                  -0.416
REMARK UNBOUND:                -0.333
REMARK SMILES O=C([O-])CCCCCCCCC(=O)[O-]
REMARK SMILES IDX 7 1 6 2 5 3 4 4 2 5 1 6 3 7 8 8 9 9 10 10 11 11 12 12 13 13
REMARK SMILES IDX 14 14
REMARK H PARENT
REMARK Flexibility Score: inf
ROOT
ATOM      1  C   UNL     1      47.879  32.791  88.116  1.00  0.00     0.000 C 
ENDROOT
BRANCH   1   2
ATOM      2  C   UNL     1      47.043  31.546  88.451  1.00  0.00     0.000 C 
BRANCH   2   3
ATOM      3  C   UNL     1      46.947  31.285  89.963  1.00  0.00     0.006 C 
BRANCH   3   4
ATOM      4  C   UNL     1      45.588  31.693  90.547  1.00  0.00     0.053 C 
BRANCH   4   5
ATOM      5  C   UNL     1      44.988  30.557  91.313  1.00  0.00     0.041 C 
ATOM      6  O   UNL     1      43.900  30.712  91.929  1.00  0.00    -0.550 OA
ATOM      7  O   UNL     1      45.604  29.312  91.306  1.00  0.00    -0.550 OA
ENDBRANCH   4   5
ENDBRANCH   3   4
ENDBRANCH   2   3
ENDBRANCH   1   2
BRANCH   1   8
ATOM      8  C   UNL     1      48.255  32.813  86.627  1.00  0.00     0.000 C 
BRANCH   8   9
ATOM      9  C   UNL     1      48.703  34.204  86.151  1.00  0.00     0.000 C 
BRANCH   9  10
ATOM     10  C   UNL     1      48.681  35.251  87.277  1.00  0.00     0.006 C 
BRANCH  10  11
ATOM     11  C   UNL     1      50.029  35.968  87.427  1.00  0.00     0.053 C 
BRANCH  11  12
ATOM     12  C   UNL     1      51.179  35.015  87.315  1.00  0.00     0.041 C 
ATOM     13  O   UNL     1      52.004  35.124  86.369  1.00  0.00    -0.550 OA
ATOM     14  O   UNL     1      51.321  33.985  88.236  1.00  0.00    -0.550 OA
ENDBRANCH  11  12
ENDBRANCH  10  11
ENDBRANCH   9  10
ENDBRANCH   8   9
ENDBRANCH   1   8
TORSDOF 9
ENDMDL
MODEL 7
REMARK VINA RESULT:    -3.257     17.019     17.899
REMARK INTER + INTRA:          -5.304
REMARK INTER:                  -4.782
REMARK INTRA:                  -0.523
REMARK UNBOUND:                -0.333
REMARK SMILES O=C([O-])CCCCCCCCC(=O)[O-]
REMARK SMILES IDX 7 1 6 2 5 3 4 4 2 5 1 6 3 7 8 8 9 9 10 10 11 11 12 12 13 13
REMARK SMILES IDX 14 14
REMARK H PARENT
REMARK Flexibility Score: inf
ROOT
ATOM      1  C   UNL     1      47.341  29.953  90.217  1.00  0.00     0.000 C 
ENDROOT
BRANCH   1   2
ATOM      2  C   UNL     1      46.879  31.415  90.111  1.00  0.00     0.000 C 
BRANCH   2   3
ATOM      3  C   UNL     1      45.566  31.677  90.867  1.00  0.00     0.006 C 
BRANCH   3   4
ATOM      4  C   UNL     1      44.922  30.389  91.396  1.00  0.00     0.053 C 
BRANCH   4   5
ATOM      5  C   UNL     1      43.703  30.710  92.203  1.00  0.00     0.041 C 
ATOM      6  O   UNL     1      42.662  30.012  92.084  1.00  0.00    -0.550 OA
ATOM      7  O   UNL     1      43.733  31.750  93.124  1.00  0.00    -0.550 OA
ENDBRANCH   4   5
ENDBRANCH   3   4
ENDBRANCH   2   3
ENDBRANCH   1   2
BRANCH   1   8
ATOM      8  C   UNL     1      48.874  29.861  90.188  1.00  0.00     0.000 C 
BRANCH   8   9
ATOM      9  C   UNL     1      49.545  30.866  91.137  1.00  0.00     0.000 C 
BRANCH   9  10
ATOM     10  C   UNL     1      50.720  31.610  90.479  1.00  0.00     0.006 C 
BRANCH  10  11
ATOM     11  C   UNL     1      50.403  32.032  89.039  1.00  0.00     0.053 C 
BRANCH  11  12
ATOM     12  C   UNL     1      51.310  33.130  88.571  1.00  0.00     0.041 C 
ATOM     13  O   UNL     1      52.535  33.109  88.864  1.00  0.00    -0.550 OA
ATOM     14  O   UNL     1      50.795  34.194  87.841  1.00  0.00    -0.550 OA
ENDBRANCH  11  12
ENDBRANCH  10  11
ENDBRANCH   9  10
ENDBRANCH   8   9
ENDBRANCH   1   8
TORSDOF 9
ENDMDL
MODEL 8
REMARK VINA RESULT:    -3.235      6.313     11.340
REMARK INTER + INTRA:          -5.271
REMARK INTER:                  -4.931
REMARK INTRA:                  -0.340
REMARK UNBOUND:                -0.333
REMARK SMILES O=C([O-])CCCCCCCCC(=O)[O-]
REMARK SMILES IDX 7 1 6 2 5 3 4 4 2 5 1 6 3 7 8 8 9 9 10 10 11 11 12 12 13 13
REMARK SMILES IDX 14 14
REMARK H PARENT
REMARK Flexibility Score: inf
ROOT
ATOM      1  C   UNL     1      50.757  22.884  75.522  1.00  0.00     0.000 C 
ENDROOT
BRANCH   1   2
ATOM      2  C   UNL     1      51.217  21.637  74.751  1.00  0.00     0.000 C 
BRANCH   2   3
ATOM      3  C   UNL     1      52.747  21.513  74.682  1.00  0.00     0.006 C 
BRANCH   3   4
ATOM      4  C   UNL     1      53.211  20.494  73.633  1.00  0.00     0.053 C 
BRANCH   4   5
ATOM      5  C   UNL     1      54.237  19.575  74.217  1.00  0.00     0.041 C 
ATOM      6  O   UNL     1      54.236  18.352  73.919  1.00  0.00    -0.550 OA
ATOM      7  O   UNL     1      55.226  20.079  75.053  1.00  0.00    -0.550 OA
ENDBRANCH   4   5
ENDBRANCH   3   4
ENDBRANCH   2   3
ENDBRANCH   1   2
BRANCH   1   8
ATOM      8  C   UNL     1      49.290  22.748  75.958  1.00  0.00     0.000 C 
BRANCH   8   9
ATOM      9  C   UNL     1      48.580  21.564  75.284  1.00  0.00     0.000 C 
BRANCH   9  10
ATOM     10  C   UNL     1      47.732  20.742  76.269  1.00  0.00     0.006 C 
BRANCH  10  11
ATOM     11  C   UNL     1      46.284  20.577  75.788  1.00  0.00     0.053 C 
BRANCH  11  12
ATOM     12  C   UNL     1      46.041  19.211  75.222  1.00  0.00     0.041 C 
ATOM     13  O   UNL     1      45.790  18.243  75.988  1.00  0.00    -0.550 OA
ATOM     14  O   UNL     1      46.126  19.001  73.852  1.00  0.00    -0.550 OA
ENDBRANCH  11  12
ENDBRANCH  10  11
ENDBRANCH   9  10
ENDBRANCH   8   9
ENDBRANCH   1   8
TORSDOF 9
ENDMDL
MODEL 9
REMARK VINA RESULT:    -2.539     16.893     18.941
REMARK INTER + INTRA:          -4.207
REMARK INTER:                  -3.801
REMARK INTRA:                  -0.407
REMARK UNBOUND:                -0.333
REMARK SMILES O=C([O-])CCCCCCCCC(=O)[O-]
REMARK SMILES IDX 7 1 6 2 5 3 4 4 2 5 1 6 3 7 8 8 9 9 10 10 11 11 12 12 13 13
REMARK SMILES IDX 14 14
REMARK H PARENT
REMARK Flexibility Score: inf
ROOT
ATOM      1  C   UNL     1      47.027  31.484  87.989  1.00  0.00     0.000 C 
ENDROOT
BRANCH   1   2
ATOM      2  C   UNL     1      47.879  32.151  86.898  1.00  0.00     0.000 C 
BRANCH   2   3
ATOM      3  C   UNL     1      48.334  33.568  87.284  1.00  0.00     0.006 C 
BRANCH   3   4
ATOM      4  C   UNL     1      49.576  34.022  86.505  1.00  0.00     0.053 C 
BRANCH   4   5
ATOM      5  C   UNL     1      50.399  34.955  87.336  1.00  0.00     0.041 C 
ATOM      6  O   UNL     1      49.995  36.125  87.565  1.00  0.00    -0.550 OA
ATOM      7  O   UNL     1      51.592  34.516  87.898  1.00  0.00    -0.550 OA
ENDBRANCH   4   5
ENDBRANCH   3   4
ENDBRANCH   2   3
ENDBRANCH   1   2
BRANCH   1   8
ATOM      8  C   UNL     1      47.918  30.841  89.063  1.00  0.00     0.000 C 
BRANCH   8   9
ATOM      9  C   UNL     1      47.478  31.200  90.490  1.00  0.00     0.000 C 
BRANCH   9  10
ATOM     10  C   UNL     1      45.987  31.569  90.575  1.00  0.00     0.006 C 
BRANCH  10  11
ATOM     11  C   UNL     1      45.153  30.462  91.230  1.00  0.00     0.053 C 
BRANCH  11  12
ATOM     12  C   UNL     1      44.008  31.022  92.018  1.00  0.00     0.041 C 
ATOM     13  O   UNL     1      42.939  30.367  92.136  1.00  0.00    -0.550 OA
ATOM     14  O   UNL     1      44.110  32.283  92.591  1.00  0.00    -0.550 OA
ENDBRANCH  11  12
ENDBRANCH  10  11
ENDBRANCH   9  10
ENDBRANCH   8   9
ENDBRANCH   1   8
TORSDOF 9
ENDMDL
