MODEL 1
REMARK VINA RESULT:    -3.834      0.000      0.000
REMARK INTER + INTRA:          -5.801
REMARK INTER:                  -5.851
REMARK INTRA:                   0.050
REMARK UNBOUND:                 0.050
REMARK SMILES CC1=CCC[C@@H](C)C(=O)C[C@@H](C(C)C)C(=O)C1
REMARK SMILES IDX 8 1 9 2 6 3 7 4 5 5 4 6 3 7 2 8 1 9 10 11 11 12 15 13 16 14
REMARK SMILES IDX 17 15 12 17 13 18 14 19
REMARK H PARENT
REMARK Flexibility Score: 70.00
ROOT
ATOM      1  C   UNL     1      17.268  -0.724  58.444  1.00  0.00     0.136 C 
ATOM      2  O   UNL     1      18.320  -0.119  58.602  1.00  0.00    -0.299 OA
ENDROOT
BRANCH   1   3
ATOM      3  C   UNL     1      16.394  -0.420  57.247  1.00  0.00     0.053 C 
ATOM      4  C   UNL     1      17.113  -0.864  55.968  1.00  0.00     0.016 C 
BRANCH   3   5
ATOM      5  C   UNL     1      16.008   1.075  57.154  1.00  0.00     0.015 C 
BRANCH   5   6
ATOM      6  C   UNL     1      14.903   1.494  58.142  1.00  0.00     0.028 C 
BRANCH   6   7
ATOM      7  C   UNL     1      15.449   2.360  59.255  1.00  0.00    -0.028 C 
ATOM      8  C   UNL     1      15.361   2.112  60.584  1.00  0.00    -0.070 CG0
ATOM      9  C   UNL     1      15.945   3.131  61.531  1.00  0.00     0.039 C 
ATOM     10  G   UNL     1      14.776   0.843  61.168  1.00  0.00     0.000 G0
ENDBRANCH   6   7
ENDBRANCH   5   6
ENDBRANCH   3   5
ENDBRANCH   1   3
BRANCH   1  11
ATOM     11  C   UNL     1      16.871  -1.791  59.437  1.00  0.00     0.087 C 
BRANCH  11  12
ATOM     12  C   UNL     1      15.542  -1.454  60.149  1.00  0.00     0.066 C 
BRANCH  12  13
ATOM     13  C   UNL     1      15.729  -0.307  61.126  1.00  0.00     0.140 C 
ATOM     14  O   UNL     1      16.702  -0.290  61.866  1.00  0.00    -0.299 OA
BRANCH  13  15
ATOM     15  C   UNL     1      14.759   0.842  61.172  1.00  0.00     0.106 CG0
ATOM     16  G   UNL     1      15.397   2.082  60.580  1.00  0.00     0.000 G0
ENDBRANCH  13  15
ENDBRANCH  12  13
BRANCH  12  17
ATOM     17  C   UNL     1      14.884  -2.708  60.802  1.00  0.00    -0.006 C 
ATOM     18  C   UNL     1      14.422  -2.406  62.235  1.00  0.00     0.008 C 
ATOM     19  C   UNL     1      15.769  -3.967  60.789  1.00  0.00     0.008 C 
ENDBRANCH  12  17
ENDBRANCH  11  12
ENDBRANCH   1  11
TORSDOF 1
ENDMDL
MODEL 2
REMARK VINA RESULT:    -3.808      2.328      3.610
REMARK INTER + INTRA:          -5.762
REMARK INTER:                  -5.455
REMARK INTRA:                  -0.307
REMARK UNBOUND:                 0.050
REMARK SMILES CC1=CCC[C@@H](C)C(=O)C[C@@H](C(C)C)C(=O)C1
REMARK SMILES IDX 8 1 9 2 6 3 7 4 5 5 4 6 3 7 2 8 1 9 10 11 11 12 15 13 16 14
REMARK SMILES IDX 17 15 12 17 13 18 14 19
REMARK H PARENT
REMARK Flexibility Score: 70.00
ROOT
ATOM      1  C   UNL     1      17.614  -2.400  62.811  1.00  0.00     0.136 C 
ATOM      2  O   UNL     1      17.992  -2.079  63.929  1.00  0.00    -0.299 OA
ENDROOT
BRANCH   1   3
ATOM      3  C   UNL     1      18.567  -2.318  61.638  1.00  0.00     0.053 C 
ATOM      4  C   UNL     1      19.821  -3.144  61.946  1.00  0.00     0.016 C 
BRANCH   3   5
ATOM      5  C   UNL     1      18.957  -0.863  61.287  1.00  0.00     0.015 C 
BRANCH   5   6
ATOM      6  C   UNL     1      18.325  -0.351  59.979  1.00  0.00     0.028 C 
BRANCH   6   7
ATOM      7  C   UNL     1      17.206   0.631  60.247  1.00  0.00    -0.028 C 
ATOM      8  C   UNL     1      15.884   0.422  60.038  1.00  0.00    -0.070 CG0
ATOM      9  C   UNL     1      14.935   1.553  60.341  1.00  0.00     0.039 C 
ATOM     10  G   UNL     1      15.302  -0.902  59.588  1.00  0.00     0.000 G0
ENDBRANCH   6   7
ENDBRANCH   5   6
ENDBRANCH   3   5
ENDBRANCH   1   3
BRANCH   1  11
ATOM     11  C   UNL     1      16.202  -2.904  62.622  1.00  0.00     0.087 C 
BRANCH  11  12
ATOM     12  C   UNL     1      15.804  -2.965  61.130  1.00  0.00     0.066 C 
BRANCH  12  13
ATOM     13  C   UNL     1      14.944  -1.772  60.753  1.00  0.00     0.140 C 
ATOM     14  O   UNL     1      13.973  -1.480  61.436  1.00  0.00    -0.299 OA
BRANCH  13  15
ATOM     15  C   UNL     1      15.292  -0.904  59.574  1.00  0.00     0.106 CG0
ATOM     16  G   UNL     1      15.871   0.411  60.051  1.00  0.00     0.000 G0
ENDBRANCH  13  15
ENDBRANCH  12  13
BRANCH  12  17
ATOM     17  C   UNL     1      15.153  -4.329  60.746  1.00  0.00    -0.006 C 
ATOM     18  C   UNL     1      14.460  -4.971  61.956  1.00  0.00     0.008 C 
ATOM     19  C   UNL     1      16.123  -5.334  60.100  1.00  0.00     0.008 C 
ENDBRANCH  12  17
ENDBRANCH  11  12
ENDBRANCH   1  11
TORSDOF 1
ENDMDL
MODEL 3
REMARK VINA RESULT:    -3.697     11.475     13.660
REMARK INTER + INTRA:          -5.592
REMARK INTER:                  -5.141
REMARK INTRA:                  -0.451
REMARK UNBOUND:                 0.050
REMARK SMILES CC1=CCC[C@@H](C)C(=O)C[C@@H](C(C)C)C(=O)C1
REMARK SMILES IDX 8 1 9 2 6 3 7 4 5 5 4 6 3 7 2 8 1 9 10 11 11 12 15 13 16 14
REMARK SMILES IDX 17 15 12 17 13 18 14 19
REMARK H PARENT
REMARK Flexibility Score: 70.00
ROOT
ATOM      1  C   UNL     1      27.034  -2.770  52.505  1.00  0.00     0.136 C 
ATOM      2  O   UNL     1      26.922  -2.009  51.554  1.00  0.00    -0.299 OA
ENDROOT
BRANCH   1   3
ATOM      3  C   UNL     1      26.057  -3.914  52.676  1.00  0.00     0.053 C 
ATOM      4  C   UNL     1      25.789  -4.560  51.312  1.00  0.00     0.016 C 
BRANCH   3   5
ATOM      5  C   UNL     1      24.727  -3.471  53.329  1.00  0.00     0.015 C 
BRANCH   5   6
ATOM      6  C   UNL     1      24.899  -2.855  54.731  1.00  0.00     0.028 C 
BRANCH   6   7
ATOM      7  C   UNL     1      25.163  -3.915  55.777  1.00  0.00    -0.028 C 
ATOM      8  C   UNL     1      26.314  -4.092  56.470  1.00  0.00    -0.070 CG0
ATOM      9  C   UNL     1      26.378  -5.239  57.447  1.00  0.00     0.039 C 
ATOM     10  G   UNL     1      27.507  -3.164  56.374  1.00  0.00     0.000 G0
ENDBRANCH   6   7
ENDBRANCH   5   6
ENDBRANCH   3   5
ENDBRANCH   1   3
BRANCH   1  11
ATOM     11  C   UNL     1      28.167  -2.573  53.483  1.00  0.00     0.087 C 
BRANCH  11  12
ATOM     12  C   UNL     1      28.637  -3.908  54.103  1.00  0.00     0.066 C 
BRANCH  12  13
ATOM     13  C   UNL     1      28.645  -3.824  55.619  1.00  0.00     0.140 C 
ATOM     14  O   UNL     1      29.598  -4.261  56.249  1.00  0.00    -0.299 OA
BRANCH  13  15
ATOM     15  C   UNL     1      27.518  -3.167  56.369  1.00  0.00     0.106 CG0
ATOM     16  G   UNL     1      26.342  -4.116  56.470  1.00  0.00     0.000 G0
ENDBRANCH  13  15
ENDBRANCH  12  13
BRANCH  12  17
ATOM     17  C   UNL     1      29.997  -4.389  53.514  1.00  0.00    -0.006 C 
ATOM     18  C   UNL     1      30.657  -3.286  52.673  1.00  0.00     0.008 C 
ATOM     19  C   UNL     1      29.908  -5.690  52.696  1.00  0.00     0.008 C 
ENDBRANCH  12  17
ENDBRANCH  11  12
ENDBRANCH   1  11
TORSDOF 1
ENDMDL
MODEL 4
REMARK VINA RESULT:    -3.571      2.230      2.686
REMARK INTER + INTRA:          -5.401
REMARK INTER:                  -5.048
REMARK INTRA:                  -0.353
REMARK UNBOUND:                 0.050
REMARK SMILES CC1=CCC[C@@H](C)C(=O)C[C@@H](C(C)C)C(=O)C1
REMARK SMILES IDX 8 1 9 2 6 3 7 4 5 5 4 6 3 7 2 8 1 9 10 11 11 12 15 13 16 14
REMARK SMILES IDX 17 15 12 17 13 18 14 19
REMARK H PARENT
REMARK Flexibility Score: 70.00
ROOT
ATOM      1  C   UNL     1      16.051  -0.112  57.816  1.00  0.00     0.136 C 
ATOM      2  O   UNL     1      14.882   0.249  57.817  1.00  0.00    -0.299 OA
ENDROOT
BRANCH   1   3
ATOM      3  C   UNL     1      16.984   0.352  56.717  1.00  0.00     0.053 C 
ATOM      4  C   UNL     1      18.235  -0.532  56.707  1.00  0.00     0.016 C 
BRANCH   3   5
ATOM      5  C   UNL     1      17.380   1.841  56.860  1.00  0.00     0.015 C 
BRANCH   5   6
ATOM      6  C   UNL     1      18.714   2.058  57.600  1.00  0.00     0.028 C 
BRANCH   6   7
ATOM      7  C   UNL     1      18.501   2.665  58.969  1.00  0.00    -0.028 C 
ATOM      8  C   UNL     1      18.519   2.006  60.153  1.00  0.00    -0.070 CG0
ATOM      9  C   UNL     1      18.245   2.800  61.405  1.00  0.00     0.039 C 
ATOM     10  G   UNL     1      18.871   0.539  60.295  1.00  0.00     0.000 G0
ENDBRANCH   6   7
ENDBRANCH   5   6
ENDBRANCH   3   5
ENDBRANCH   1   3
BRANCH   1  11
ATOM     11  C   UNL     1      16.556  -0.995  58.932  1.00  0.00     0.087 C 
BRANCH  11  12
ATOM     12  C   UNL     1      16.370  -0.340  60.319  1.00  0.00     0.066 C 
BRANCH  12  13
ATOM     13  C   UNL     1      17.709  -0.153  61.010  1.00  0.00     0.140 C 
ATOM     14  O   UNL     1      17.882  -0.599  62.136  1.00  0.00    -0.299 OA
BRANCH  13  15
ATOM     15  C   UNL     1      18.854   0.534  60.316  1.00  0.00     0.106 CG0
ATOM     16  G   UNL     1      18.543   2.006  60.139  1.00  0.00     0.000 G0
ENDBRANCH  13  15
ENDBRANCH  12  13
BRANCH  12  17
ATOM     17  C   UNL     1      15.332  -1.100  61.199  1.00  0.00    -0.006 C 
ATOM     18  C   UNL     1      15.042  -2.497  60.631  1.00  0.00     0.008 C 
ATOM     19  C   UNL     1      14.013  -0.339  61.423  1.00  0.00     0.008 C 
ENDBRANCH  12  17
ENDBRANCH  11  12
ENDBRANCH   1  11
TORSDOF 1
ENDMDL
MODEL 5
REMARK VINA RESULT:    -3.492      2.265      4.370
REMARK INTER + INTRA:          -5.280
REMARK INTER:                  -4.915
REMARK INTRA:                  -0.364
REMARK UNBOUND:                 0.050
REMARK SMILES CC1=CCC[C@@H](C)C(=O)C[C@@H](C(C)C)C(=O)C1
REMARK SMILES IDX 8 1 9 2 6 3 7 4 5 5 4 6 3 7 2 8 1 9 10 11 11 12 15 13 16 14
REMARK SMILES IDX 17 15 12 17 13 18 14 19
REMARK H PARENT
REMARK Flexibility Score: 70.00
ROOT
ATOM      1  C   UNL     1      15.644  -0.068  59.533  1.00  0.00     0.136 C 
ATOM      2  O   UNL     1      14.576  -0.440  59.999  1.00  0.00    -0.299 OA
ENDROOT
BRANCH   1   3
ATOM      3  C   UNL     1      16.840   0.122  60.441  1.00  0.00     0.053 C 
ATOM      4  C   UNL     1      17.399  -1.249  60.837  1.00  0.00     0.016 C 
BRANCH   3   5
ATOM      5  C   UNL     1      16.505   0.949  61.704  1.00  0.00     0.015 C 
BRANCH   5   6
ATOM      6  C   UNL     1      15.864   2.316  61.398  1.00  0.00     0.028 C 
BRANCH   6   7
ATOM      7  C   UNL     1      16.865   3.282  60.804  1.00  0.00    -0.028 C 
ATOM      8  C   UNL     1      16.906   3.708  59.519  1.00  0.00    -0.070 CG0
ATOM      9  C   UNL     1      18.017   4.649  59.124  1.00  0.00     0.039 C 
ATOM     10  G   UNL     1      15.864   3.354  58.479  1.00  0.00     0.000 G0
ENDBRANCH   6   7
ENDBRANCH   5   6
ENDBRANCH   3   5
ENDBRANCH   1   3
BRANCH   1  11
ATOM     11  C   UNL     1      15.761   0.168  58.046  1.00  0.00     0.087 C 
BRANCH  11  12
ATOM     12  C   UNL     1      16.958   1.080  57.696  1.00  0.00     0.066 C 
BRANCH  12  13
ATOM     13  C   UNL     1      16.488   2.492  57.392  1.00  0.00     0.140 C 
ATOM     14  O   UNL     1      16.573   2.932  56.255  1.00  0.00    -0.299 OA
BRANCH  13  15
ATOM     15  C   UNL     1      15.872   3.353  58.461  1.00  0.00     0.106 CG0
ATOM     16  G   UNL     1      16.905   3.685  59.518  1.00  0.00     0.000 G0
ENDBRANCH  13  15
ENDBRANCH  12  13
BRANCH  12  17
ATOM     17  C   UNL     1      17.851   0.481  56.567  1.00  0.00    -0.006 C 
ATOM     18  C   UNL     1      17.050  -0.487  55.683  1.00  0.00     0.008 C 
ATOM     19  C   UNL     1      19.133  -0.205  57.071  1.00  0.00     0.008 C 
ENDBRANCH  12  17
ENDBRANCH  11  12
ENDBRANCH   1  11
TORSDOF 1
ENDMDL
MODEL 6
REMARK VINA RESULT:    -3.377     11.660     13.689
REMARK INTER + INTRA:          -5.104
REMARK INTER:                  -4.836
REMARK INTRA:                  -0.268
REMARK UNBOUND:                 0.050
REMARK SMILES CC1=CCC[C@@H](C)C(=O)C[C@@H](C(C)C)C(=O)C1
REMARK SMILES IDX 8 1 9 2 6 3 7 4 5 5 4 6 3 7 2 8 1 9 10 11 11 12 15 13 16 14
REMARK SMILES IDX 17 15 12 17 13 18 14 19
REMARK H PARENT
REMARK Flexibility Score: 70.00
ROOT
ATOM      1  C   UNL     1      25.670  -3.925  53.512  1.00  0.00     0.136 C 
ATOM      2  O   UNL     1      24.708  -3.211  53.762  1.00  0.00    -0.299 OA
ENDROOT
BRANCH   1   3
ATOM      3  C   UNL     1      26.081  -4.164  52.075  1.00  0.00     0.053 C 
ATOM      4  C   UNL     1      26.967  -5.412  52.002  1.00  0.00     0.016 C 
BRANCH   3   5
ATOM      5  C   UNL     1      26.812  -2.950  51.454  1.00  0.00     0.015 C 
BRANCH   5   6
ATOM      6  C   UNL     1      28.341  -3.123  51.372  1.00  0.00     0.028 C 
BRANCH   6   7
ATOM      7  C   UNL     1      29.063  -2.132  52.258  1.00  0.00    -0.028 C 
ATOM      8  C   UNL     1      29.420  -2.320  53.552  1.00  0.00    -0.070 CG0
ATOM      9  C   UNL     1      30.104  -1.182  54.266  1.00  0.00     0.039 C 
ATOM     10  G   UNL     1      29.237  -3.628  54.294  1.00  0.00     0.000 G0
ENDBRANCH   6   7
ENDBRANCH   5   6
ENDBRANCH   3   5
ENDBRANCH   1   3
BRANCH   1  11
ATOM     11  C   UNL     1      26.454  -4.536  54.649  1.00  0.00     0.087 C 
BRANCH  11  12
ATOM     12  C   UNL     1      26.985  -3.466  55.629  1.00  0.00     0.066 C 
BRANCH  12  13
ATOM     13  C   UNL     1      28.501  -3.405  55.588  1.00  0.00     0.140 C 
ATOM     14  O   UNL     1      29.131  -3.205  56.617  1.00  0.00    -0.299 OA
BRANCH  13  15
ATOM     15  C   UNL     1      29.256  -3.632  54.306  1.00  0.00     0.106 CG0
ATOM     16  G   UNL     1      29.408  -2.324  53.557  1.00  0.00     0.000 G0
ENDBRANCH  13  15
ENDBRANCH  12  13
BRANCH  12  17
ATOM     17  C   UNL     1      26.422  -3.650  57.071  1.00  0.00    -0.006 C 
ATOM     18  C   UNL     1      26.046  -5.116  57.335  1.00  0.00     0.008 C 
ATOM     19  C   UNL     1      25.232  -2.734  57.408  1.00  0.00     0.008 C 
ENDBRANCH  12  17
ENDBRANCH  11  12
ENDBRANCH   1  11
TORSDOF 1
ENDMDL
MODEL 7
REMARK VINA RESULT:    -3.375     12.969     15.342
REMARK INTER + INTRA:          -5.101
REMARK INTER:                  -4.902
REMARK INTRA:                  -0.199
REMARK UNBOUND:                 0.050
REMARK SMILES CC1=CCC[C@@H](C)C(=O)C[C@@H](C(C)C)C(=O)C1
REMARK SMILES IDX 8 1 9 2 6 3 7 4 5 5 4 6 3 7 2 8 1 9 10 11 11 12 15 13 16 14
REMARK SMILES IDX 17 15 12 17 13 18 14 19
REMARK H PARENT
REMARK Flexibility Score: 70.00
ROOT
ATOM      1  C   UNL     1      27.780  -1.118  52.903  1.00  0.00     0.136 C 
ATOM      2  O   UNL     1      27.131  -0.081  52.916  1.00  0.00    -0.299 OA
ENDROOT
BRANCH   1   3
ATOM      3  C   UNL     1      29.111  -1.186  53.620  1.00  0.00     0.053 C 
ATOM      4  C   UNL     1      29.007  -0.437  54.953  1.00  0.00     0.016 C 
BRANCH   3   5
ATOM      5  C   UNL     1      30.275  -0.616  52.775  1.00  0.00     0.015 C 
BRANCH   5   6
ATOM      6  C   UNL     1      30.937  -1.655  51.850  1.00  0.00     0.028 C 
BRANCH   6   7
ATOM      7  C   UNL     1      31.240  -2.942  52.584  1.00  0.00    -0.028 C 
ATOM      8  C   UNL     1      30.545  -4.102  52.494  1.00  0.00    -0.070 CG0
ATOM      9  C   UNL     1      30.999  -5.262  53.345  1.00  0.00     0.039 C 
ATOM     10  G   UNL     1      29.391  -4.322  51.539  1.00  0.00     0.000 G0
ENDBRANCH   6   7
ENDBRANCH   5   6
ENDBRANCH   3   5
ENDBRANCH   1   3
BRANCH   1  11
ATOM     11  C   UNL     1      27.226  -2.330  52.192  1.00  0.00     0.087 C 
BRANCH  11  12
ATOM     12  C   UNL     1      27.335  -3.608  53.054  1.00  0.00     0.066 C 
BRANCH  12  13
ATOM     13  C   UNL     1      28.138  -4.676  52.334  1.00  0.00     0.140 C 
ATOM     14  O   UNL     1      27.762  -5.839  52.353  1.00  0.00    -0.299 OA
BRANCH  13  15
ATOM     15  C   UNL     1      29.375  -4.325  51.551  1.00  0.00     0.106 CG0
ATOM     16  G   UNL     1      30.536  -4.090  52.495  1.00  0.00     0.000 G0
ENDBRANCH  13  15
ENDBRANCH  12  13
BRANCH  12  17
ATOM     17  C   UNL     1      25.943  -4.117  53.538  1.00  0.00    -0.006 C 
ATOM     18  C   UNL     1      24.846  -3.081  53.254  1.00  0.00     0.008 C 
ATOM     19  C   UNL     1      25.901  -4.534  55.019  1.00  0.00     0.008 C 
ENDBRANCH  12  17
ENDBRANCH  11  12
ENDBRANCH   1  11
TORSDOF 1
ENDMDL
MODEL 8
REMARK VINA RESULT:    -3.366      2.541      4.833
REMARK INTER + INTRA:          -5.087
REMARK INTER:                  -4.845
REMARK INTRA:                  -0.242
REMARK UNBOUND:                 0.050
REMARK SMILES CC1=CCC[C@@H](C)C(=O)C[C@@H](C(C)C)C(=O)C1
REMARK SMILES IDX 8 1 9 2 6 3 7 4 5 5 4 6 3 7 2 8 1 9 10 11 11 12 15 13 16 14
REMARK SMILES IDX 17 15 12 17 13 18 14 19
REMARK H PARENT
REMARK Flexibility Score: 70.00
ROOT
ATOM      1  C   UNL     1      15.035   0.420  58.846  1.00  0.00     0.136 C 
ATOM      2  O   UNL     1      14.595   0.211  57.723  1.00  0.00    -0.299 OA
ENDROOT
BRANCH   1   3
ATOM      3  C   UNL     1      15.230  -0.732  59.808  1.00  0.00     0.053 C 
ATOM      4  C   UNL     1      15.151  -0.210  61.246  1.00  0.00     0.016 C 
BRANCH   3   5
ATOM      5  C   UNL     1      16.567  -1.478  59.582  1.00  0.00     0.015 C 
BRANCH   5   6
ATOM      6  C   UNL     1      17.512  -1.440  60.798  1.00  0.00     0.028 C 
BRANCH   6   7
ATOM      7  C   UNL     1      18.810  -0.734  60.475  1.00  0.00    -0.028 C 
ATOM      8  C   UNL     1      19.044   0.598  60.562  1.00  0.00    -0.070 CG0
ATOM      9  C   UNL     1      20.406   1.101  60.154  1.00  0.00     0.039 C 
ATOM     10  G   UNL     1      18.046   1.595  61.111  1.00  0.00     0.000 G0
ENDBRANCH   6   7
ENDBRANCH   5   6
ENDBRANCH   3   5
ENDBRANCH   1   3
BRANCH   1  11
ATOM     11  C   UNL     1      15.406   1.829  59.246  1.00  0.00     0.087 C 
BRANCH  11  12
ATOM     12  C   UNL     1      16.858   2.180  58.852  1.00  0.00     0.066 C 
BRANCH  12  13
ATOM     13  C   UNL     1      17.660   2.597  60.072  1.00  0.00     0.140 C 
ATOM     14  O   UNL     1      17.961   3.771  60.233  1.00  0.00    -0.299 OA
BRANCH  13  15
ATOM     15  C   UNL     1      18.058   1.594  61.122  1.00  0.00     0.106 CG0
ATOM     16  G   UNL     1      19.046   0.602  60.542  1.00  0.00     0.000 G0
ENDBRANCH  13  15
ENDBRANCH  12  13
BRANCH  12  17
ATOM     17  C   UNL     1      16.924   3.223  57.696  1.00  0.00    -0.006 C 
ATOM     18  C   UNL     1      15.655   4.088  57.658  1.00  0.00     0.008 C 
ATOM     19  C   UNL     1      17.186   2.614  56.307  1.00  0.00     0.008 C 
ENDBRANCH  12  17
ENDBRANCH  11  12
ENDBRANCH   1  11
TORSDOF 1
ENDMDL
MODEL 9
REMARK VINA RESULT:    -3.350     11.797     13.866
REMARK INTER + INTRA:          -5.063
REMARK INTER:                  -4.656
REMARK INTRA:                  -0.407
REMARK UNBOUND:                 0.050
REMARK SMILES CC1=CCC[C@@H](C)C(=O)C[C@@H](C(C)C)C(=O)C1
REMARK SMILES IDX 8 1 9 2 6 3 7 4 5 5 4 6 3 7 2 8 1 9 10 11 11 12 15 13 16 14
REMARK SMILES IDX 17 15 12 17 13 18 14 19
REMARK H PARENT
REMARK Flexibility Score: 70.00
ROOT
ATOM      1  C   UNL     1      27.136  -4.796  52.574  1.00  0.00     0.136 C 
ATOM      2  O   UNL     1      26.601  -5.514  51.741  1.00  0.00    -0.299 OA
ENDROOT
BRANCH   1   3
ATOM      3  C   UNL     1      28.568  -5.059  52.991  1.00  0.00     0.053 C 
ATOM      4  C   UNL     1      29.414  -5.342  51.745  1.00  0.00     0.016 C 
BRANCH   3   5
ATOM      5  C   UNL     1      28.690  -6.227  53.999  1.00  0.00     0.015 C 
BRANCH   5   6
ATOM      6  C   UNL     1      29.026  -5.775  55.433  1.00  0.00     0.028 C 
BRANCH   6   7
ATOM      7  C   UNL     1      27.800  -5.771  56.318  1.00  0.00    -0.028 C 
ATOM      8  C   UNL     1      27.196  -4.682  56.851  1.00  0.00    -0.070 CG0
ATOM      9  C   UNL     1      25.999  -4.905  57.741  1.00  0.00     0.039 C 
ATOM     10  G   UNL     1      27.609  -3.256  56.547  1.00  0.00     0.000 G0
ENDBRANCH   6   7
ENDBRANCH   5   6
ENDBRANCH   3   5
ENDBRANCH   1   3
BRANCH   1  11
ATOM     11  C   UNL     1      26.367  -3.633  53.155  1.00  0.00     0.087 C 
BRANCH  11  12
ATOM     12  C   UNL     1      27.267  -2.709  54.005  1.00  0.00     0.066 C 
BRANCH  12  13
ATOM     13  C   UNL     1      26.789  -2.670  55.446  1.00  0.00     0.140 C 
ATOM     14  O   UNL     1      25.694  -2.196  55.713  1.00  0.00    -0.299 OA
BRANCH  13  15
ATOM     15  C   UNL     1      27.622  -3.249  56.558  1.00  0.00     0.106 CG0
ATOM     16  G   UNL     1      27.193  -4.675  56.837  1.00  0.00     0.000 G0
ENDBRANCH  13  15
ENDBRANCH  12  13
BRANCH  12  17
ATOM     17  C   UNL     1      27.422  -1.291  53.378  1.00  0.00    -0.006 C 
ATOM     18  C   UNL     1      26.220  -0.945  52.486  1.00  0.00     0.008 C 
ATOM     19  C   UNL     1      28.732  -1.084  52.596  1.00  0.00     0.008 C 
ENDBRANCH  12  17
ENDBRANCH  11  12
ENDBRANCH   1  11
TORSDOF 1
ENDMDL
