MODEL 1
REMARK VINA RESULT:    -7.645      0.000      0.000
REMARK INTER + INTRA:         -13.446
REMARK INTER:                 -12.115
REMARK INTRA:                  -1.331
REMARK UNBOUND:                -1.331
REMARK SMILES C[C@H]1O[C@H](O[C@@H]2[C@@H](Oc3cc(O)c4c(c3)O[C@@H](c3ccc(O)cc3)CC4=O)O[C@H](CO)[C@H](O)[C@@H]2O)[C@H](O)[C@@H](O)[C@H]1O
REMARK SMILES IDX 6 1 34 2 32 3 29 4 28 5 7 6 5 7 4 8 1 9 2 10 40 11 3 12
REMARK SMILES IDX 38 13 36 14 41 15 39 17 37 19 35 21 8 23 9 24 10 25 15 26
REMARK SMILES IDX 11 27 14 28 13 29 16 30 26 31 17 32 27 33 25 34 12 35 18 37
REMARK SMILES IDX 19 38 24 39 20 40 23 41 21 42 22 43 33 45 30 47 31 48
REMARK H PARENT 41 16 39 18 37 20 35 22 12 36 22 44 33 46 31 49
REMARK Flexibility Score: inf
ROOT
ATOM      1  C   UNL     1     -13.566  -0.050 -23.874  1.00  0.00     0.221 C 
ATOM      2  C   UNL     1     -14.440  -1.307 -24.046  1.00  0.00     0.181 C 
ATOM      3  C   UNL     1     -14.957  -1.802 -22.682  1.00  0.00     0.177 C 
ATOM      4  C   UNL     1     -15.627  -0.626 -21.936  1.00  0.00     0.179 C 
ATOM      5  O   UNL     1     -14.720   0.454 -21.778  1.00  0.00    -0.332 OA
ATOM      6  C   UNL     1     -14.331   1.000 -23.031  1.00  0.00     0.339 C 
ENDROOT
BRANCH   1   7
ATOM      7  O   UNL     1     -12.365  -0.417 -23.213  1.00  0.00    -0.337 OA
BRANCH   7   8
ATOM      8  C   UNL     1     -11.215   0.210 -23.768  1.00  0.00     0.282 C 
ATOM      9  C   UNL     1      -9.127   0.193 -20.733  1.00  0.00     0.041 C 
ATOM     10  C   UNL     1      -9.905  -0.392 -21.913  1.00  0.00     0.150 C 
ATOM     11  C   UNL     1      -9.033  -1.376 -22.727  1.00  0.00     0.174 C 
ATOM     12  O   UNL     1     -10.362   0.674 -22.731  1.00  0.00    -0.344 OA
ATOM     13  C   UNL     1      -9.859  -1.923 -23.904  1.00  0.00     0.179 C 
ATOM     14  C   UNL     1     -10.466  -0.763 -24.707  1.00  0.00     0.202 C 
BRANCH  11  15
ATOM     15  O   UNL     1      -7.886  -0.726 -23.220  1.00  0.00    -0.388 OA
ATOM     16  H   UNL     1      -7.244  -0.653 -22.467  1.00  0.00     0.211 HD
ENDBRANCH  11  15
BRANCH  13  17
ATOM     17  O   UNL     1      -9.048  -2.700 -24.747  1.00  0.00    -0.387 OA
ATOM     18  H   UNL     1      -8.236  -2.165 -24.939  1.00  0.00     0.211 HD
ENDBRANCH  13  17
BRANCH  14  19
ATOM     19  O   UNL     1     -11.339  -1.275 -25.680  1.00  0.00    -0.385 OA
ATOM     20  H   UNL     1     -11.993  -1.850 -25.204  1.00  0.00     0.211 HD
ENDBRANCH  14  19
ENDBRANCH   7   8
ENDBRANCH   1   7
BRANCH   2  21
ATOM     21  O   UNL     1     -13.714  -2.328 -24.682  1.00  0.00    -0.387 OA
ATOM     22  H   UNL     1     -13.409  -2.949 -23.969  1.00  0.00     0.211 HD
ENDBRANCH   2  21
BRANCH   6  23
ATOM     23  O   UNL     1     -15.477   1.506 -23.729  1.00  0.00    -0.462 OA
BRANCH  23  24
ATOM     24  C   UNL     1     -15.676   2.829 -24.154  1.00  0.00     0.130 A 
ATOM     25  C   UNL     1     -14.651   3.789 -24.178  1.00  0.00     0.093 A 
ATOM     26  C   UNL     1     -16.957   3.195 -24.567  1.00  0.00     0.094 A 
ATOM     27  C   UNL     1     -14.893   5.091 -24.635  1.00  0.00     0.133 A 
ATOM     28  C   UNL     1     -17.233   4.502 -24.974  1.00  0.00     0.138 A 
ATOM     29  C   UNL     1     -16.210   5.472 -25.005  1.00  0.00     0.102 A 
ATOM     30  O   UNL     1     -18.540   4.826 -25.357  1.00  0.00    -0.484 OA
ATOM     31  C   UNL     1     -16.598   6.845 -25.417  1.00  0.00     0.174 C 
ATOM     32  C   UNL     1     -19.010   6.171 -25.466  1.00  0.00     0.211 C 
ATOM     33  O   UNL     1     -15.860   7.839 -25.186  1.00  0.00    -0.294 OA
ATOM     34  C   UNL     1     -17.922   7.066 -26.091  1.00  0.00     0.131 C 
BRANCH  27  35
ATOM     35  O   UNL     1     -13.792   5.946 -24.731  1.00  0.00    -0.507 OA
ATOM     36  H   UNL     1     -13.610   6.550 -25.518  1.00  0.00     0.293 HD
ENDBRANCH  27  35
BRANCH  32  37
ATOM     37  C   UNL     1     -19.552   6.621 -24.116  1.00  0.00    -0.007 A 
ATOM     38  C   UNL     1     -18.759   7.224 -23.115  1.00  0.00     0.011 A 
ATOM     39  C   UNL     1     -20.914   6.391 -23.846  1.00  0.00     0.011 A 
ATOM     40  C   UNL     1     -19.323   7.588 -21.888  1.00  0.00     0.046 A 
ATOM     41  C   UNL     1     -21.472   6.757 -22.618  1.00  0.00     0.046 A 
ATOM     42  C   UNL     1     -20.680   7.355 -21.637  1.00  0.00     0.115 A 
BRANCH  42  43
ATOM     43  O   UNL     1     -21.249   7.714 -20.417  1.00  0.00    -0.508 OA
ATOM     44  H   UNL     1     -21.324   8.684 -20.134  1.00  0.00     0.293 HD
ENDBRANCH  42  43
ENDBRANCH  32  37
ENDBRANCH  23  24
ENDBRANCH   6  23
BRANCH   3  45
ATOM     45  O   UNL     1     -13.901  -2.321 -21.909  1.00  0.00    -0.387 OA
ATOM     46  H   UNL     1     -13.406  -1.546 -21.538  1.00  0.00     0.211 HD
ENDBRANCH   3  45
BRANCH   4  47
ATOM     47  C   UNL     1     -16.127  -1.051 -20.544  1.00  0.00     0.191 C 
BRANCH  47  48
ATOM     48  O   UNL     1     -16.360   0.065 -19.728  1.00  0.00    -0.394 OA
ATOM     49  H   UNL     1     -16.700   0.785 -20.320  1.00  0.00     0.210 HD
ENDBRANCH  47  48
ENDBRANCH   4  47
TORSDOF 14
ENDMDL
MODEL 2
REMARK VINA RESULT:    -7.447      1.475      2.147
REMARK INTER + INTRA:         -13.131
REMARK INTER:                 -12.603
REMARK INTRA:                  -0.527
REMARK UNBOUND:                -1.331
REMARK SMILES C[C@H]1O[C@H](O[C@@H]2[C@@H](Oc3cc(O)c4c(c3)O[C@@H](c3ccc(O)cc3)CC4=O)O[C@H](CO)[C@H](O)[C@@H]2O)[C@H](O)[C@@H](O)[C@H]1O
REMARK SMILES IDX 6 1 34 2 32 3 29 4 28 5 7 6 5 7 4 8 1 9 2 10 40 11 3 12
REMARK SMILES IDX 38 13 36 14 41 15 39 17 37 19 35 21 8 23 9 24 10 25 15 26
REMARK SMILES IDX 11 27 14 28 13 29 16 30 26 31 17 32 27 33 25 34 12 35 18 37
REMARK SMILES IDX 19 38 24 39 20 40 23 41 21 42 22 43 33 45 30 47 31 48
REMARK H PARENT 41 16 39 18 37 20 35 22 12 36 22 44 33 46 31 49
REMARK Flexibility Score: inf
ROOT
ATOM      1  C   UNL     1     -13.044   0.432 -23.695  1.00  0.00     0.221 C 
ATOM      2  C   UNL     1     -14.179   0.270 -24.723  1.00  0.00     0.181 C 
ATOM      3  C   UNL     1     -15.011  -0.991 -24.421  1.00  0.00     0.177 C 
ATOM      4  C   UNL     1     -15.455  -0.965 -22.941  1.00  0.00     0.179 C 
ATOM      5  O   UNL     1     -14.331  -0.874 -22.079  1.00  0.00    -0.332 OA
ATOM      6  C   UNL     1     -13.626   0.345 -22.262  1.00  0.00     0.339 C 
ENDROOT
BRANCH   1   7
ATOM      7  O   UNL     1     -12.097  -0.606 -23.894  1.00  0.00    -0.337 OA
BRANCH   7   8
ATOM      8  C   UNL     1     -11.406  -0.959 -22.701  1.00  0.00     0.282 C 
ATOM      9  C   UNL     1     -11.623  -4.619 -23.071  1.00  0.00     0.041 C 
ATOM     10  C   UNL     1     -11.189  -3.190 -23.406  1.00  0.00     0.150 C 
ATOM     11  C   UNL     1      -9.654  -3.092 -23.562  1.00  0.00     0.174 C 
ATOM     12  O   UNL     1     -11.649  -2.322 -22.382  1.00  0.00    -0.344 OA
ATOM     13  C   UNL     1      -9.274  -1.637 -23.886  1.00  0.00     0.179 C 
ATOM     14  C   UNL     1      -9.892  -0.688 -22.849  1.00  0.00     0.202 C 
BRANCH  11  15
ATOM     15  O   UNL     1      -9.011  -3.492 -22.376  1.00  0.00    -0.388 OA
ATOM     16  H   UNL     1      -9.550  -4.228 -21.985  1.00  0.00     0.211 HD
ENDBRANCH  11  15
BRANCH  13  17
ATOM     17  O   UNL     1      -7.879  -1.486 -23.884  1.00  0.00    -0.387 OA
ATOM     18  H   UNL     1      -7.560  -1.774 -22.990  1.00  0.00     0.211 HD
ENDBRANCH  13  17
BRANCH  14  19
ATOM     19  O   UNL     1      -9.668   0.642 -23.242  1.00  0.00    -0.385 OA
ATOM     20  H   UNL     1      -9.760   0.668 -24.229  1.00  0.00     0.211 HD
ENDBRANCH  14  19
ENDBRANCH   7   8
ENDBRANCH   1   7
BRANCH   2  21
ATOM     21  O   UNL     1     -13.659   0.200 -26.025  1.00  0.00    -0.387 OA
ATOM     22  H   UNL     1     -14.367   0.535 -26.635  1.00  0.00     0.211 HD
ENDBRANCH   2  21
BRANCH   6  23
ATOM     23  O   UNL     1     -14.478   1.461 -21.969  1.00  0.00    -0.462 OA
BRANCH  23  24
ATOM     24  C   UNL     1     -14.650   2.607 -22.761  1.00  0.00     0.130 A 
ATOM     25  C   UNL     1     -13.681   3.620 -22.864  1.00  0.00     0.093 A 
ATOM     26  C   UNL     1     -15.844   2.737 -23.471  1.00  0.00     0.094 A 
ATOM     27  C   UNL     1     -13.888   4.734 -23.687  1.00  0.00     0.133 A 
ATOM     28  C   UNL     1     -16.093   3.866 -24.253  1.00  0.00     0.138 A 
ATOM     29  C   UNL     1     -15.126   4.886 -24.366  1.00  0.00     0.102 A 
ATOM     30  O   UNL     1     -17.317   3.961 -24.928  1.00  0.00    -0.484 OA
ATOM     31  C   UNL     1     -15.487   6.067 -25.190  1.00  0.00     0.174 C 
ATOM     32  C   UNL     1     -17.815   5.185 -25.471  1.00  0.00     0.211 C 
ATOM     33  O   UNL     1     -14.851   7.150 -25.110  1.00  0.00    -0.294 OA
ATOM     34  C   UNL     1     -16.668   5.987 -26.116  1.00  0.00     0.131 C 
BRANCH  27  35
ATOM     35  O   UNL     1     -12.827   5.634 -23.817  1.00  0.00    -0.507 OA
ATOM     36  H   UNL     1     -12.834   6.576 -23.455  1.00  0.00     0.293 HD
ENDBRANCH  27  35
BRANCH  32  37
ATOM     37  C   UNL     1     -18.623   5.912 -24.405  1.00  0.00    -0.007 A 
ATOM     38  C   UNL     1     -18.057   6.802 -23.465  1.00  0.00     0.011 A 
ATOM     39  C   UNL     1     -20.004   5.654 -24.338  1.00  0.00     0.011 A 
ATOM     40  C   UNL     1     -18.860   7.414 -22.497  1.00  0.00     0.046 A 
ATOM     41  C   UNL     1     -20.802   6.269 -23.368  1.00  0.00     0.046 A 
ATOM     42  C   UNL     1     -20.233   7.149 -22.446  1.00  0.00     0.115 A 
BRANCH  42  43
ATOM     43  O   UNL     1     -21.039   7.754 -21.485  1.00  0.00    -0.508 OA
ATOM     44  H   UNL     1     -22.031   7.893 -21.638  1.00  0.00     0.293 HD
ENDBRANCH  42  43
ENDBRANCH  32  37
ENDBRANCH  23  24
ENDBRANCH   6  23
BRANCH   3  45
ATOM     45  O   UNL     1     -14.260  -2.154 -24.676  1.00  0.00    -0.387 OA
ATOM     46  H   UNL     1     -14.475  -2.802 -23.956  1.00  0.00     0.211 HD
ENDBRANCH   3  45
BRANCH   4  47
ATOM     47  C   UNL     1     -16.256  -2.224 -22.569  1.00  0.00     0.191 C 
BRANCH  47  48
ATOM     48  O   UNL     1     -17.225  -2.514 -23.540  1.00  0.00    -0.394 OA
ATOM     49  H   UNL     1     -17.217  -3.499 -23.665  1.00  0.00     0.210 HD
ENDBRANCH  47  48
ENDBRANCH   4  47
TORSDOF 14
ENDMDL
MODEL 3
REMARK VINA RESULT:    -7.211      4.529     12.622
REMARK INTER + INTRA:         -12.758
REMARK INTER:                 -11.394
REMARK INTRA:                  -1.364
REMARK UNBOUND:                -1.331
REMARK SMILES C[C@H]1O[C@H](O[C@@H]2[C@@H](Oc3cc(O)c4c(c3)O[C@@H](c3ccc(O)cc3)CC4=O)O[C@H](CO)[C@H](O)[C@@H]2O)[C@H](O)[C@@H](O)[C@H]1O
REMARK SMILES IDX 6 1 34 2 32 3 29 4 28 5 7 6 5 7 4 8 1 9 2 10 40 11 3 12
REMARK SMILES IDX 38 13 36 14 41 15 39 17 37 19 35 21 8 23 9 24 10 25 15 26
REMARK SMILES IDX 11 27 14 28 13 29 16 30 26 31 17 32 27 33 25 34 12 35 18 37
REMARK SMILES IDX 19 38 24 39 20 40 23 41 21 42 22 43 33 45 30 47 31 48
REMARK H PARENT 41 16 39 18 37 20 35 22 12 36 22 44 33 46 31 49
REMARK Flexibility Score: inf
ROOT
ATOM      1  C   UNL     1     -11.310  -0.369 -23.835  1.00  0.00     0.221 C 
ATOM      2  C   UNL     1     -10.322   0.804 -23.694  1.00  0.00     0.181 C 
ATOM      3  C   UNL     1      -9.671   0.804 -22.297  1.00  0.00     0.177 C 
ATOM      4  C   UNL     1      -9.082  -0.596 -22.012  1.00  0.00     0.179 C 
ATOM      5  O   UNL     1     -10.086  -1.596 -22.110  1.00  0.00    -0.332 OA
ATOM      6  C   UNL     1     -10.607  -1.689 -23.428  1.00  0.00     0.339 C 
ENDROOT
BRANCH   1   7
ATOM      7  O   UNL     1     -12.422  -0.134 -22.986  1.00  0.00    -0.337 OA
BRANCH   7   8
ATOM      8  C   UNL     1     -13.513   0.479 -23.661  1.00  0.00     0.282 C 
ATOM      9  C   UNL     1     -15.971  -2.225 -23.187  1.00  0.00     0.041 C 
ATOM     10  C   UNL     1     -15.028  -1.090 -22.785  1.00  0.00     0.150 C 
ATOM     11  C   UNL     1     -15.752  -0.043 -21.907  1.00  0.00     0.174 C 
ATOM     12  O   UNL     1     -14.508  -0.490 -23.961  1.00  0.00    -0.344 OA
ATOM     13  C   UNL     1     -14.763   1.077 -21.543  1.00  0.00     0.179 C 
ATOM     14  C   UNL     1     -14.100   1.630 -22.813  1.00  0.00     0.202 C 
BRANCH  11  15
ATOM     15  O   UNL     1     -16.849   0.505 -22.596  1.00  0.00    -0.388 OA
ATOM     16  H   UNL     1     -17.671   0.178 -22.146  1.00  0.00     0.211 HD
ENDBRANCH  11  15
BRANCH  13  17
ATOM     17  O   UNL     1     -15.429   2.116 -20.874  1.00  0.00    -0.387 OA
ATOM     18  H   UNL     1     -14.814   2.446 -20.170  1.00  0.00     0.211 HD
ENDBRANCH  13  17
BRANCH  14  19
ATOM     19  O   UNL     1     -13.092   2.539 -22.456  1.00  0.00    -0.385 OA
ATOM     20  H   UNL     1     -13.451   3.447 -22.633  1.00  0.00     0.211 HD
ENDBRANCH  14  19
ENDBRANCH   7   8
ENDBRANCH   1   7
BRANCH   2  21
ATOM     21  O   UNL     1     -10.976   2.027 -23.916  1.00  0.00    -0.387 OA
ATOM     22  H   UNL     1     -10.526   2.701 -23.341  1.00  0.00     0.211 HD
ENDBRANCH   2  21
BRANCH   6  23
ATOM     23  O   UNL     1      -9.567  -2.039 -24.350  1.00  0.00    -0.462 OA
BRANCH  23  24
ATOM     24  C   UNL     1      -9.124  -3.337 -24.653  1.00  0.00     0.130 A 
ATOM     25  C   UNL     1      -9.971  -4.458 -24.639  1.00  0.00     0.093 A 
ATOM     26  C   UNL     1      -7.779  -3.508 -24.978  1.00  0.00     0.094 A 
ATOM     27  C   UNL     1      -9.489  -5.730 -24.973  1.00  0.00     0.133 A 
ATOM     28  C   UNL     1      -7.265  -4.775 -25.261  1.00  0.00     0.138 A 
ATOM     29  C   UNL     1      -8.108  -5.906 -25.253  1.00  0.00     0.102 A 
ATOM     30  O   UNL     1      -5.902  -4.898 -25.558  1.00  0.00    -0.484 OA
ATOM     31  C   UNL     1      -7.472  -7.219 -25.530  1.00  0.00     0.174 C 
ATOM     32  C   UNL     1      -5.208  -6.147 -25.532  1.00  0.00     0.211 C 
ATOM     33  O   UNL     1      -8.044  -8.304 -25.247  1.00  0.00    -0.294 OA
ATOM     34  C   UNL     1      -6.093  -7.261 -26.125  1.00  0.00     0.131 C 
BRANCH  27  35
ATOM     35  O   UNL     1     -10.423  -6.766 -25.043  1.00  0.00    -0.507 OA
ATOM     36  H   UNL     1     -10.254  -7.653 -25.493  1.00  0.00     0.293 HD
ENDBRANCH  27  35
BRANCH  32  37
ATOM     37  C   UNL     1      -4.676  -6.393 -24.127  1.00  0.00    -0.007 A 
ATOM     38  C   UNL     1      -5.450  -6.940 -23.080  1.00  0.00     0.011 A 
ATOM     39  C   UNL     1      -3.346  -6.022 -23.855  1.00  0.00     0.011 A 
ATOM     40  C   UNL     1      -4.899  -7.113 -21.807  1.00  0.00     0.046 A 
ATOM     41  C   UNL     1      -2.800  -6.197 -22.580  1.00  0.00     0.046 A 
ATOM     42  C   UNL     1      -3.573  -6.742 -21.554  1.00  0.00     0.115 A 
BRANCH  42  43
ATOM     43  O   UNL     1      -3.017  -6.910 -20.288  1.00  0.00    -0.508 OA
ATOM     44  H   UNL     1      -3.573  -6.799 -19.448  1.00  0.00     0.293 HD
ENDBRANCH  42  43
ENDBRANCH  32  37
ENDBRANCH  23  24
ENDBRANCH   6  23
BRANCH   3  45
ATOM     45  O   UNL     1     -10.617   1.136 -21.309  1.00  0.00    -0.387 OA
ATOM     46  H   UNL     1     -10.188   1.800 -20.709  1.00  0.00     0.211 HD
ENDBRANCH   3  45
BRANCH   4  47
ATOM     47  C   UNL     1      -8.454  -0.671 -20.610  1.00  0.00     0.191 C 
BRANCH  47  48
ATOM     48  O   UNL     1      -8.930  -1.782 -19.900  1.00  0.00    -0.394 OA
ATOM     49  H   UNL     1      -9.868  -1.577 -19.647  1.00  0.00     0.210 HD
ENDBRANCH  47  48
ENDBRANCH   4  47
TORSDOF 14
ENDMDL
MODEL 4
REMARK VINA RESULT:    -6.800      4.372     11.838
REMARK INTER + INTRA:         -12.105
REMARK INTER:                 -11.463
REMARK INTRA:                  -0.643
REMARK UNBOUND:                -1.331
REMARK SMILES C[C@H]1O[C@H](O[C@@H]2[C@@H](Oc3cc(O)c4c(c3)O[C@@H](c3ccc(O)cc3)CC4=O)O[C@H](CO)[C@H](O)[C@@H]2O)[C@H](O)[C@@H](O)[C@H]1O
REMARK SMILES IDX 6 1 34 2 32 3 29 4 28 5 7 6 5 7 4 8 1 9 2 10 40 11 3 12
REMARK SMILES IDX 38 13 36 14 41 15 39 17 37 19 35 21 8 23 9 24 10 25 15 26
REMARK SMILES IDX 11 27 14 28 13 29 16 30 26 31 17 32 27 33 25 34 12 35 18 37
REMARK SMILES IDX 19 38 24 39 20 40 23 41 21 42 22 43 33 45 30 47 31 48
REMARK H PARENT 41 16 39 18 37 20 35 22 12 36 22 44 33 46 31 49
REMARK Flexibility Score: inf
ROOT
ATOM      1  C   UNL     1     -12.354  -0.814 -23.212  1.00  0.00     0.221 C 
ATOM      2  C   UNL     1     -11.947  -0.448 -24.652  1.00  0.00     0.181 C 
ATOM      3  C   UNL     1     -11.567   1.042 -24.749  1.00  0.00     0.177 C 
ATOM      4  C   UNL     1     -10.520   1.371 -23.661  1.00  0.00     0.179 C 
ATOM      5  O   UNL     1     -11.017   1.052 -22.370  1.00  0.00    -0.332 OA
ATOM      6  C   UNL     1     -11.255  -0.342 -22.228  1.00  0.00     0.339 C 
ENDROOT
BRANCH   1   7
ATOM      7  O   UNL     1     -13.582  -0.170 -22.907  1.00  0.00    -0.337 OA
BRANCH   7   8
ATOM      8  C   UNL     1     -14.178  -0.656 -21.711  1.00  0.00     0.282 C 
ATOM      9  C   UNL     1     -15.725   2.502 -20.612  1.00  0.00     0.041 C 
ATOM     10  C   UNL     1     -15.496   1.278 -21.500  1.00  0.00     0.150 C 
ATOM     11  C   UNL     1     -16.818   0.521 -21.765  1.00  0.00     0.174 C 
ATOM     12  O   UNL     1     -14.546   0.430 -20.873  1.00  0.00    -0.344 OA
ATOM     13  C   UNL     1     -16.528  -0.702 -22.650  1.00  0.00     0.179 C 
ATOM     14  C   UNL     1     -15.401  -1.544 -22.034  1.00  0.00     0.202 C 
BRANCH  11  15
ATOM     15  O   UNL     1     -17.395   0.098 -20.553  1.00  0.00    -0.388 OA
ATOM     16  H   UNL     1     -17.948   0.849 -20.214  1.00  0.00     0.211 HD
ENDBRANCH  11  15
BRANCH  13  17
ATOM     17  O   UNL     1     -17.681  -1.492 -22.782  1.00  0.00    -0.387 OA
ATOM     18  H   UNL     1     -18.444  -0.942 -22.470  1.00  0.00     0.211 HD
ENDBRANCH  13  17
BRANCH  14  19
ATOM     19  O   UNL     1     -15.041  -2.568 -22.926  1.00  0.00    -0.385 OA
ATOM     20  H   UNL     1     -15.489  -3.394 -22.607  1.00  0.00     0.211 HD
ENDBRANCH  14  19
ENDBRANCH   7   8
ENDBRANCH   1   7
BRANCH   2  21
ATOM     21  O   UNL     1     -12.991  -0.734 -25.547  1.00  0.00    -0.387 OA
ATOM     22  H   UNL     1     -12.859  -1.671 -25.850  1.00  0.00     0.211 HD
ENDBRANCH   2  21
BRANCH   6  23
ATOM     23  O   UNL     1     -10.035  -1.074 -22.407  1.00  0.00    -0.462 OA
BRANCH  23  24
ATOM     24  C   UNL     1      -9.898  -2.323 -23.033  1.00  0.00     0.130 A 
ATOM     25  C   UNL     1     -10.791  -3.388 -22.823  1.00  0.00     0.093 A 
ATOM     26  C   UNL     1      -8.820  -2.503 -23.900  1.00  0.00     0.094 A 
ATOM     27  C   UNL     1     -10.627  -4.608 -23.490  1.00  0.00     0.133 A 
ATOM     28  C   UNL     1      -8.607  -3.729 -24.533  1.00  0.00     0.138 A 
ATOM     29  C   UNL     1      -9.499  -4.803 -24.331  1.00  0.00     0.102 A 
ATOM     30  O   UNL     1      -7.497  -3.868 -25.375  1.00  0.00    -0.484 OA
ATOM     31  C   UNL     1      -9.178  -6.081 -25.015  1.00  0.00     0.174 C 
ATOM     32  C   UNL     1      -6.994  -5.136 -25.801  1.00  0.00     0.211 C 
ATOM     33  O   UNL     1      -9.709  -7.169 -24.670  1.00  0.00    -0.294 OA
ATOM     34  C   UNL     1      -8.161  -6.091 -26.122  1.00  0.00     0.131 C 
BRANCH  27  35
ATOM     35  O   UNL     1     -11.623  -5.571 -23.309  1.00  0.00    -0.507 OA
ATOM     36  H   UNL     1     -12.384  -5.728 -23.953  1.00  0.00     0.293 HD
ENDBRANCH  27  35
BRANCH  32  37
ATOM     37  C   UNL     1      -5.980  -5.639 -24.782  1.00  0.00    -0.007 A 
ATOM     38  C   UNL     1      -6.322  -6.419 -23.656  1.00  0.00     0.011 A 
ATOM     39  C   UNL     1      -4.633  -5.275 -24.963  1.00  0.00     0.011 A 
ATOM     40  C   UNL     1      -5.337  -6.823 -22.748  1.00  0.00     0.046 A 
ATOM     41  C   UNL     1      -3.653  -5.681 -24.053  1.00  0.00     0.046 A 
ATOM     42  C   UNL     1      -4.002  -6.455 -22.945  1.00  0.00     0.115 A 
BRANCH  42  43
ATOM     43  O   UNL     1      -3.015  -6.853 -22.045  1.00  0.00    -0.508 OA
ATOM     44  H   UNL     1      -2.030  -6.732 -22.254  1.00  0.00     0.293 HD
ENDBRANCH  42  43
ENDBRANCH  32  37
ENDBRANCH  23  24
ENDBRANCH   6  23
BRANCH   3  45
ATOM     45  O   UNL     1     -12.703   1.856 -24.583  1.00  0.00    -0.387 OA
ATOM     46  H   UNL     1     -12.613   2.613 -25.218  1.00  0.00     0.211 HD
ENDBRANCH   3  45
BRANCH   4  47
ATOM     47  C   UNL     1     -10.132   2.859 -23.681  1.00  0.00     0.191 C 
BRANCH  47  48
ATOM     48  O   UNL     1      -8.850   3.041 -24.219  1.00  0.00    -0.394 OA
ATOM     49  H   UNL     1      -8.971   3.206 -25.191  1.00  0.00     0.210 HD
ENDBRANCH  47  48
ENDBRANCH   4  47
TORSDOF 14
ENDMDL
MODEL 5
REMARK VINA RESULT:    -6.678      3.868      6.338
REMARK INTER + INTRA:         -11.913
REMARK INTER:                 -11.616
REMARK INTRA:                  -0.297
REMARK UNBOUND:                -1.331
REMARK SMILES C[C@H]1O[C@H](O[C@@H]2[C@@H](Oc3cc(O)c4c(c3)O[C@@H](c3ccc(O)cc3)CC4=O)O[C@H](CO)[C@H](O)[C@@H]2O)[C@H](O)[C@@H](O)[C@H]1O
REMARK SMILES IDX 6 1 34 2 32 3 29 4 28 5 7 6 5 7 4 8 1 9 2 10 40 11 3 12
REMARK SMILES IDX 38 13 36 14 41 15 39 17 37 19 35 21 8 23 9 24 10 25 15 26
REMARK SMILES IDX 11 27 14 28 13 29 16 30 26 31 17 32 27 33 25 34 12 35 18 37
REMARK SMILES IDX 19 38 24 39 20 40 23 41 21 42 22 43 33 45 30 47 31 48
REMARK H PARENT 41 16 39 18 37 20 35 22 12 36 22 44 33 46 31 49
REMARK Flexibility Score: inf
ROOT
ATOM      1  C   UNL     1      -9.891  -3.674 -25.334  1.00  0.00     0.221 C 
ATOM      2  C   UNL     1     -10.912  -3.820 -24.191  1.00  0.00     0.181 C 
ATOM      3  C   UNL     1     -10.438  -3.062 -22.936  1.00  0.00     0.177 C 
ATOM      4  C   UNL     1     -10.081  -1.609 -23.325  1.00  0.00     0.179 C 
ATOM      5  O   UNL     1      -9.091  -1.588 -24.342  1.00  0.00    -0.332 OA
ATOM      6  C   UNL     1      -9.562  -2.176 -25.547  1.00  0.00     0.339 C 
ENDROOT
BRANCH   1   7
ATOM      7  O   UNL     1      -8.711  -4.381 -24.985  1.00  0.00    -0.337 OA
BRANCH   7   8
ATOM      8  C   UNL     1      -8.127  -5.062 -26.090  1.00  0.00     0.282 C 
ATOM      9  C   UNL     1      -4.617  -4.878 -24.984  1.00  0.00     0.041 C 
ATOM     10  C   UNL     1      -6.086  -5.304 -24.951  1.00  0.00     0.150 C 
ATOM     11  C   UNL     1      -6.223  -6.840 -24.836  1.00  0.00     0.174 C 
ATOM     12  O   UNL     1      -6.727  -4.826 -26.124  1.00  0.00    -0.344 OA
ATOM     13  C   UNL     1      -7.715  -7.211 -24.818  1.00  0.00     0.179 C 
ATOM     14  C   UNL     1      -8.432  -6.576 -26.018  1.00  0.00     0.202 C 
BRANCH  11  15
ATOM     15  O   UNL     1      -5.594  -7.474 -25.924  1.00  0.00    -0.388 OA
ATOM     16  H   UNL     1      -4.888  -8.064 -25.551  1.00  0.00     0.211 HD
ENDBRANCH  11  15
BRANCH  13  17
ATOM     17  O   UNL     1      -7.870  -8.606 -24.867  1.00  0.00    -0.387 OA
ATOM     18  H   UNL     1      -8.622  -8.833 -24.263  1.00  0.00     0.211 HD
ENDBRANCH  13  17
BRANCH  14  19
ATOM     19  O   UNL     1      -9.815  -6.793 -25.905  1.00  0.00    -0.385 OA
ATOM     20  H   UNL     1     -10.086  -6.451 -25.014  1.00  0.00     0.211 HD
ENDBRANCH  14  19
ENDBRANCH   7   8
ENDBRANCH   1   7
BRANCH   2  21
ATOM     21  O   UNL     1     -11.117  -5.175 -23.883  1.00  0.00    -0.387 OA
ATOM     22  H   UNL     1     -10.217  -5.581 -23.768  1.00  0.00     0.211 HD
ENDBRANCH   2  21
BRANCH   6  23
ATOM     23  O   UNL     1     -10.695  -1.451 -26.042  1.00  0.00    -0.462 OA
BRANCH  23  24
ATOM     24  C   UNL     1     -11.197  -0.242 -25.535  1.00  0.00     0.130 A 
ATOM     25  C   UNL     1     -10.372   0.793 -25.063  1.00  0.00     0.093 A 
ATOM     26  C   UNL     1     -12.581  -0.073 -25.500  1.00  0.00     0.094 A 
ATOM     27  C   UNL     1     -10.918   1.992 -24.589  1.00  0.00     0.133 A 
ATOM     28  C   UNL     1     -13.148   1.092 -24.980  1.00  0.00     0.138 A 
ATOM     29  C   UNL     1     -12.329   2.137 -24.508  1.00  0.00     0.102 A 
ATOM     30  O   UNL     1     -14.544   1.203 -24.945  1.00  0.00    -0.484 OA
ATOM     31  C   UNL     1     -13.015   3.325 -23.940  1.00  0.00     0.174 C 
ATOM     32  C   UNL     1     -15.230   2.173 -24.150  1.00  0.00     0.211 C 
ATOM     33  O   UNL     1     -12.407   4.160 -23.220  1.00  0.00    -0.294 OA
ATOM     34  C   UNL     1     -14.483   3.520 -24.193  1.00  0.00     0.131 C 
BRANCH  27  35
ATOM     35  O   UNL     1     -10.022   3.008 -24.246  1.00  0.00    -0.507 OA
ATOM     36  H   UNL     1     -10.160   3.651 -23.481  1.00  0.00     0.293 HD
ENDBRANCH  27  35
BRANCH  32  37
ATOM     37  C   UNL     1     -15.483   1.593 -22.765  1.00  0.00    -0.007 A 
ATOM     38  C   UNL     1     -15.523   2.369 -21.586  1.00  0.00     0.011 A 
ATOM     39  C   UNL     1     -15.656   0.200 -22.658  1.00  0.00     0.011 A 
ATOM     40  C   UNL     1     -15.735   1.762 -20.344  1.00  0.00     0.046 A 
ATOM     41  C   UNL     1     -15.868  -0.401 -21.415  1.00  0.00     0.046 A 
ATOM     42  C   UNL     1     -15.908   0.376 -20.256  1.00  0.00     0.115 A 
BRANCH  42  43
ATOM     43  O   UNL     1     -16.120  -0.237 -19.023  1.00  0.00    -0.508 OA
ATOM     44  H   UNL     1     -17.052  -0.344 -18.639  1.00  0.00     0.293 HD
ENDBRANCH  42  43
ENDBRANCH  32  37
ENDBRANCH  23  24
ENDBRANCH   6  23
BRANCH   3  45
ATOM     45  O   UNL     1      -9.317  -3.695 -22.368  1.00  0.00    -0.387 OA
ATOM     46  H   UNL     1      -8.806  -2.998 -21.881  1.00  0.00     0.211 HD
ENDBRANCH   3  45
BRANCH   4  47
ATOM     47  C   UNL     1      -9.559  -0.813 -22.118  1.00  0.00     0.191 C 
BRANCH  47  48
ATOM     48  O   UNL     1      -8.265  -1.220 -21.764  1.00  0.00    -0.394 OA
ATOM     49  H   UNL     1      -8.289  -1.438 -20.796  1.00  0.00     0.210 HD
ENDBRANCH  47  48
ENDBRANCH   4  47
TORSDOF 14
ENDMDL
MODEL 6
REMARK VINA RESULT:    -6.379      1.317      2.144
REMARK INTER + INTRA:         -11.439
REMARK INTER:                 -10.346
REMARK INTRA:                  -1.093
REMARK UNBOUND:                -1.331
REMARK SMILES C[C@H]1O[C@H](O[C@@H]2[C@@H](Oc3cc(O)c4c(c3)O[C@@H](c3ccc(O)cc3)CC4=O)O[C@H](CO)[C@H](O)[C@@H]2O)[C@H](O)[C@@H](O)[C@H]1O
REMARK SMILES IDX 6 1 34 2 32 3 29 4 28 5 7 6 5 7 4 8 1 9 2 10 40 11 3 12
REMARK SMILES IDX 38 13 36 14 41 15 39 17 37 19 35 21 8 23 9 24 10 25 15 26
REMARK SMILES IDX 11 27 14 28 13 29 16 30 26 31 17 32 27 33 25 34 12 35 18 37
REMARK SMILES IDX 19 38 24 39 20 40 23 41 21 42 22 43 33 45 30 47 31 48
REMARK H PARENT 41 16 39 18 37 20 35 22 12 36 22 44 33 46 31 49
REMARK Flexibility Score: inf
ROOT
ATOM      1  C   UNL     1     -14.551  -0.366 -23.768  1.00  0.00     0.221 C 
ATOM      2  C   UNL     1     -15.646  -0.881 -22.814  1.00  0.00     0.181 C 
ATOM      3  C   UNL     1     -15.531  -0.202 -21.435  1.00  0.00     0.177 C 
ATOM      4  C   UNL     1     -15.486   1.331 -21.627  1.00  0.00     0.179 C 
ATOM      5  O   UNL     1     -14.408   1.702 -22.472  1.00  0.00    -0.332 OA
ATOM      6  C   UNL     1     -14.566   1.183 -23.785  1.00  0.00     0.339 C 
ENDROOT
BRANCH   1   7
ATOM      7  O   UNL     1     -13.291  -0.830 -23.309  1.00  0.00    -0.337 OA
BRANCH   7   8
ATOM      8  C   UNL     1     -12.764  -1.880 -24.111  1.00  0.00     0.282 C 
ATOM      9  C   UNL     1     -10.442   0.153 -26.124  1.00  0.00     0.041 C 
ATOM     10  C   UNL     1     -11.009  -0.514 -24.869  1.00  0.00     0.150 C 
ATOM     11  C   UNL     1      -9.925  -1.332 -24.130  1.00  0.00     0.174 C 
ATOM     12  O   UNL     1     -12.098  -1.342 -25.244  1.00  0.00    -0.344 OA
ATOM     13  C   UNL     1     -10.551  -1.988 -22.887  1.00  0.00     0.179 C 
ATOM     14  C   UNL     1     -11.811  -2.771 -23.281  1.00  0.00     0.202 C 
BRANCH  11  15
ATOM     15  O   UNL     1      -9.400  -2.330 -24.972  1.00  0.00    -0.388 OA
ATOM     16  H   UNL     1     -10.141  -2.956 -25.181  1.00  0.00     0.211 HD
ENDBRANCH  11  15
BRANCH  13  17
ATOM     17  O   UNL     1      -9.631  -2.858 -22.281  1.00  0.00    -0.387 OA
ATOM     18  H   UNL     1     -10.042  -3.760 -22.286  1.00  0.00     0.211 HD
ENDBRANCH  13  17
BRANCH  14  19
ATOM     19  O   UNL     1     -12.456  -3.233 -22.123  1.00  0.00    -0.385 OA
ATOM     20  H   UNL     1     -11.868  -3.002 -21.358  1.00  0.00     0.211 HD
ENDBRANCH  14  19
ENDBRANCH   7   8
ENDBRANCH   1   7
BRANCH   2  21
ATOM     21  O   UNL     1     -15.557  -2.275 -22.670  1.00  0.00    -0.387 OA
ATOM     22  H   UNL     1     -14.604  -2.517 -22.810  1.00  0.00     0.211 HD
ENDBRANCH   2  21
BRANCH   6  23
ATOM     23  O   UNL     1     -15.768   1.693 -24.378  1.00  0.00    -0.462 OA
BRANCH  23  24
ATOM     24  C   UNL     1     -16.043   3.037 -24.679  1.00  0.00     0.130 A 
ATOM     25  C   UNL     1     -15.043   4.018 -24.790  1.00  0.00     0.093 A 
ATOM     26  C   UNL     1     -17.375   3.403 -24.871  1.00  0.00     0.094 A 
ATOM     27  C   UNL     1     -15.364   5.341 -25.115  1.00  0.00     0.133 A 
ATOM     28  C   UNL     1     -17.722   4.727 -25.142  1.00  0.00     0.138 A 
ATOM     29  C   UNL     1     -16.726   5.718 -25.259  1.00  0.00     0.102 A 
ATOM     30  O   UNL     1     -19.076   5.049 -25.303  1.00  0.00    -0.484 OA
ATOM     31  C   UNL     1     -17.186   7.107 -25.514  1.00  0.00     0.174 C 
ATOM     32  C   UNL     1     -19.571   6.388 -25.249  1.00  0.00     0.211 C 
ATOM     33  O   UNL     1     -16.433   8.099 -25.328  1.00  0.00    -0.294 OA
ATOM     34  C   UNL     1     -18.599   7.345 -25.967  1.00  0.00     0.131 C 
BRANCH  27  35
ATOM     35  O   UNL     1     -14.300   6.223 -25.316  1.00  0.00    -0.507 OA
ATOM     36  H   UNL     1     -13.991   6.903 -24.637  1.00  0.00     0.293 HD
ENDBRANCH  27  35
BRANCH  32  37
ATOM     37  C   UNL     1     -19.910   6.737 -23.806  1.00  0.00    -0.007 A 
ATOM     38  C   UNL     1     -21.184   6.538 -23.230  1.00  0.00     0.011 A 
ATOM     39  C   UNL     1     -18.900   7.319 -23.018  1.00  0.00     0.011 A 
ATOM     40  C   UNL     1     -21.427   6.907 -21.903  1.00  0.00     0.046 A 
ATOM     41  C   UNL     1     -19.149   7.687 -21.693  1.00  0.00     0.046 A 
ATOM     42  C   UNL     1     -20.411   7.482 -21.132  1.00  0.00     0.115 A 
BRANCH  42  43
ATOM     43  O   UNL     1     -20.645   7.854 -19.810  1.00  0.00    -0.508 OA
ATOM     44  H   UNL     1     -19.884   7.975 -19.152  1.00  0.00     0.293 HD
ENDBRANCH  42  43
ENDBRANCH  32  37
ENDBRANCH  23  24
ENDBRANCH   6  23
BRANCH   3  45
ATOM     45  O   UNL     1     -14.373  -0.636 -20.764  1.00  0.00    -0.387 OA
ATOM     46  H   UNL     1     -14.552  -1.558 -20.444  1.00  0.00     0.211 HD
ENDBRANCH   3  45
BRANCH   4  47
ATOM     47  C   UNL     1     -15.328   2.064 -20.283  1.00  0.00     0.191 C 
BRANCH  47  48
ATOM     48  O   UNL     1     -15.271   3.452 -20.468  1.00  0.00    -0.394 OA
ATOM     49  H   UNL     1     -15.775   3.860 -19.716  1.00  0.00     0.210 HD
ENDBRANCH  47  48
ENDBRANCH   4  47
TORSDOF 14
ENDMDL
MODEL 7
REMARK VINA RESULT:    -6.316      2.738      9.189
REMARK INTER + INTRA:         -11.339
REMARK INTER:                  -9.656
REMARK INTRA:                  -1.682
REMARK UNBOUND:                -1.331
REMARK SMILES C[C@H]1O[C@H](O[C@@H]2[C@@H](Oc3cc(O)c4c(c3)O[C@@H](c3ccc(O)cc3)CC4=O)O[C@H](CO)[C@H](O)[C@@H]2O)[C@H](O)[C@@H](O)[C@H]1O
REMARK SMILES IDX 6 1 34 2 32 3 29 4 28 5 7 6 5 7 4 8 1 9 2 10 40 11 3 12
REMARK SMILES IDX 38 13 36 14 41 15 39 17 37 19 35 21 8 23 9 24 10 25 15 26
REMARK SMILES IDX 11 27 14 28 13 29 16 30 26 31 17 32 27 33 25 34 12 35 18 37
REMARK SMILES IDX 19 38 24 39 20 40 23 41 21 42 22 43 33 45 30 47 31 48
REMARK H PARENT 41 16 39 18 37 20 35 22 12 36 22 44 33 46 31 49
REMARK Flexibility Score: inf
ROOT
ATOM      1  C   UNL     1     -14.634   1.608 -23.797  1.00  0.00     0.221 C 
ATOM      2  C   UNL     1     -14.780   2.119 -25.242  1.00  0.00     0.181 C 
ATOM      3  C   UNL     1     -15.664   3.381 -25.287  1.00  0.00     0.177 C 
ATOM      4  C   UNL     1     -15.126   4.413 -24.271  1.00  0.00     0.179 C 
ATOM      5  O   UNL     1     -15.087   3.861 -22.963  1.00  0.00    -0.332 OA
ATOM      6  C   UNL     1     -14.180   2.771 -22.880  1.00  0.00     0.339 C 
ENDROOT
BRANCH   1   7
ATOM      7  O   UNL     1     -15.889   1.111 -23.359  1.00  0.00    -0.337 OA
BRANCH   7   8
ATOM      8  C   UNL     1     -15.796   0.359 -22.155  1.00  0.00     0.282 C 
ATOM      9  C   UNL     1     -19.363   0.456 -21.235  1.00  0.00     0.041 C 
ATOM     10  C   UNL     1     -18.128   0.089 -22.062  1.00  0.00     0.150 C 
ATOM     11  C   UNL     1     -18.059  -1.433 -22.321  1.00  0.00     0.174 C 
ATOM     12  O   UNL     1     -16.970   0.539 -21.375  1.00  0.00    -0.344 OA
ATOM     13  C   UNL     1     -16.797  -1.745 -23.143  1.00  0.00     0.179 C 
ATOM     14  C   UNL     1     -15.561  -1.136 -22.465  1.00  0.00     0.202 C 
BRANCH  11  15
ATOM     15  O   UNL     1     -18.012  -2.139 -21.104  1.00  0.00    -0.388 OA
ATOM     16  H   UNL     1     -17.675  -3.050 -21.308  1.00  0.00     0.211 HD
ENDBRANCH  11  15
BRANCH  13  17
ATOM     17  O   UNL     1     -16.626  -3.133 -23.265  1.00  0.00    -0.387 OA
ATOM     18  H   UNL     1     -17.114  -3.551 -22.509  1.00  0.00     0.211 HD
ENDBRANCH  13  17
BRANCH  14  19
ATOM     19  O   UNL     1     -14.443  -1.294 -23.301  1.00  0.00    -0.385 OA
ATOM     20  H   UNL     1     -14.563  -2.156 -23.777  1.00  0.00     0.211 HD
ENDBRANCH  14  19
ENDBRANCH   7   8
ENDBRANCH   1   7
BRANCH   2  21
ATOM     21  O   UNL     1     -15.329   1.121 -26.064  1.00  0.00    -0.387 OA
ATOM     22  H   UNL     1     -16.165   1.496 -26.450  1.00  0.00     0.211 HD
ENDBRANCH   2  21
BRANCH   6  23
ATOM     23  O   UNL     1     -12.851   3.206 -23.197  1.00  0.00    -0.462 OA
BRANCH  23  24
ATOM     24  C   UNL     1     -11.670   2.469 -23.024  1.00  0.00     0.130 A 
ATOM     25  C   UNL     1     -10.420   2.899 -23.500  1.00  0.00     0.093 A 
ATOM     26  C   UNL     1     -11.754   1.252 -22.347  1.00  0.00     0.094 A 
ATOM     27  C   UNL     1      -9.264   2.140 -23.281  1.00  0.00     0.133 A 
ATOM     28  C   UNL     1     -10.623   0.453 -22.166  1.00  0.00     0.138 A 
ATOM     29  C   UNL     1      -9.364   0.878 -22.637  1.00  0.00     0.102 A 
ATOM     30  O   UNL     1     -10.764  -0.772 -21.501  1.00  0.00    -0.484 OA
ATOM     31  C   UNL     1      -8.222  -0.049 -22.432  1.00  0.00     0.174 C 
ATOM     32  C   UNL     1      -9.777  -1.804 -21.550  1.00  0.00     0.211 C 
ATOM     33  O   UNL     1      -7.145   0.077 -23.071  1.00  0.00    -0.294 OA
ATOM     34  C   UNL     1      -8.364  -1.193 -21.469  1.00  0.00     0.131 C 
BRANCH  27  35
ATOM     35  O   UNL     1      -8.050   2.698 -23.689  1.00  0.00    -0.507 OA
ATOM     36  H   UNL     1      -7.715   2.693 -24.642  1.00  0.00     0.293 HD
ENDBRANCH  27  35
BRANCH  32  37
ATOM     37  C   UNL     1     -10.051  -2.700 -22.750  1.00  0.00    -0.007 A 
ATOM     38  C   UNL     1      -9.144  -2.877 -23.818  1.00  0.00     0.011 A 
ATOM     39  C   UNL     1     -11.292  -3.360 -22.806  1.00  0.00     0.011 A 
ATOM     40  C   UNL     1      -9.476  -3.697 -24.902  1.00  0.00     0.046 A 
ATOM     41  C   UNL     1     -11.619  -4.178 -23.891  1.00  0.00     0.046 A 
ATOM     42  C   UNL     1     -10.714  -4.349 -24.940  1.00  0.00     0.115 A 
BRANCH  42  43
ATOM     43  O   UNL     1     -11.053  -5.167 -26.015  1.00  0.00    -0.508 OA
ATOM     44  H   UNL     1     -11.639  -4.831 -26.771  1.00  0.00     0.293 HD
ENDBRANCH  42  43
ENDBRANCH  32  37
ENDBRANCH  23  24
ENDBRANCH   6  23
BRANCH   3  45
ATOM     45  O   UNL     1     -17.001   3.062 -24.985  1.00  0.00    -0.387 OA
ATOM     46  H   UNL     1     -17.037   2.082 -24.834  1.00  0.00     0.211 HD
ENDBRANCH   3  45
BRANCH   4  47
ATOM     47  C   UNL     1     -15.995   5.682 -24.240  1.00  0.00     0.191 C 
BRANCH  47  48
ATOM     48  O   UNL     1     -17.165   5.475 -23.495  1.00  0.00    -0.394 OA
ATOM     49  H   UNL     1     -17.563   4.625 -23.819  1.00  0.00     0.210 HD
ENDBRANCH  47  48
ENDBRANCH   4  47
TORSDOF 14
ENDMDL
MODEL 8
REMARK VINA RESULT:    -6.236      2.757      6.219
REMARK INTER + INTRA:         -11.213
REMARK INTER:                 -12.048
REMARK INTRA:                   0.835
REMARK UNBOUND:                -1.331
REMARK SMILES C[C@H]1O[C@H](O[C@@H]2[C@@H](Oc3cc(O)c4c(c3)O[C@@H](c3ccc(O)cc3)CC4=O)O[C@H](CO)[C@H](O)[C@@H]2O)[C@H](O)[C@@H](O)[C@H]1O
REMARK SMILES IDX 6 1 34 2 32 3 29 4 28 5 7 6 5 7 4 8 1 9 2 10 40 11 3 12
REMARK SMILES IDX 38 13 36 14 41 15 39 17 37 19 35 21 8 23 9 24 10 25 15 26
REMARK SMILES IDX 11 27 14 28 13 29 16 30 26 31 17 32 27 33 25 34 12 35 18 37
REMARK SMILES IDX 19 38 24 39 20 40 23 41 21 42 22 43 33 45 30 47 31 48
REMARK H PARENT 41 16 39 18 37 20 35 22 12 36 22 44 33 46 31 49
REMARK Flexibility Score: inf
ROOT
ATOM      1  C   UNL     1     -10.282  -3.203 -24.973  1.00  0.00     0.221 C 
ATOM      2  C   UNL     1     -11.116  -3.054 -23.686  1.00  0.00     0.181 C 
ATOM      3  C   UNL     1     -10.303  -2.339 -22.590  1.00  0.00     0.177 C 
ATOM      4  C   UNL     1      -9.725  -1.024 -23.162  1.00  0.00     0.179 C 
ATOM      5  O   UNL     1      -8.927  -1.280 -24.307  1.00  0.00    -0.332 OA
ATOM      6  C   UNL     1      -9.694  -1.827 -25.371  1.00  0.00     0.339 C 
ENDROOT
BRANCH   1   7
ATOM      7  O   UNL     1      -9.230  -4.124 -24.731  1.00  0.00    -0.337 OA
BRANCH   7   8
ATOM      8  C   UNL     1      -8.760  -4.751 -25.918  1.00  0.00     0.282 C 
ATOM      9  C   UNL     1      -5.154  -4.542 -25.193  1.00  0.00     0.041 C 
ATOM     10  C   UNL     1      -6.604  -4.997 -25.017  1.00  0.00     0.150 C 
ATOM     11  C   UNL     1      -6.704  -6.539 -24.950  1.00  0.00     0.174 C 
ATOM     12  O   UNL     1      -7.376  -4.487 -26.094  1.00  0.00    -0.344 OA
ATOM     13  C   UNL     1      -8.180  -6.939 -24.786  1.00  0.00     0.179 C 
ATOM     14  C   UNL     1      -9.032  -6.272 -25.875  1.00  0.00     0.202 C 
BRANCH  11  15
ATOM     15  O   UNL     1      -6.188  -7.118 -26.125  1.00  0.00    -0.388 OA
ATOM     16  H   UNL     1      -6.868  -7.761 -26.456  1.00  0.00     0.211 HD
ENDBRANCH  11  15
BRANCH  13  17
ATOM     17  O   UNL     1      -8.318  -8.333 -24.874  1.00  0.00    -0.387 OA
ATOM     18  H   UNL     1      -8.312  -8.563 -25.839  1.00  0.00     0.211 HD
ENDBRANCH  13  17
BRANCH  14  19
ATOM     19  O   UNL     1     -10.391  -6.520 -25.622  1.00  0.00    -0.385 OA
ATOM     20  H   UNL     1     -10.904  -6.040 -26.323  1.00  0.00     0.211 HD
ENDBRANCH  14  19
ENDBRANCH   7   8
ENDBRANCH   1   7
BRANCH   2  21
ATOM     21  O   UNL     1     -11.539  -4.311 -23.225  1.00  0.00    -0.387 OA
ATOM     22  H   UNL     1     -10.725  -4.796 -22.927  1.00  0.00     0.211 HD
ENDBRANCH   2  21
BRANCH   6  23
ATOM     23  O   UNL     1     -10.721  -0.907 -25.765  1.00  0.00    -0.462 OA
BRANCH  23  24
ATOM     24  C   UNL     1     -11.856  -0.556 -25.017  1.00  0.00     0.130 A 
ATOM     25  C   UNL     1     -13.033  -1.323 -25.005  1.00  0.00     0.093 A 
ATOM     26  C   UNL     1     -11.800   0.612 -24.257  1.00  0.00     0.094 A 
ATOM     27  C   UNL     1     -14.132  -0.945 -24.224  1.00  0.00     0.133 A 
ATOM     28  C   UNL     1     -12.903   1.036 -23.513  1.00  0.00     0.138 A 
ATOM     29  C   UNL     1     -14.088   0.272 -23.492  1.00  0.00     0.102 A 
ATOM     30  O   UNL     1     -12.806   2.228 -22.785  1.00  0.00    -0.484 OA
ATOM     31  C   UNL     1     -15.224   0.814 -22.704  1.00  0.00     0.174 C 
ATOM     32  C   UNL     1     -13.944   2.924 -22.272  1.00  0.00     0.211 C 
ATOM     33  O   UNL     1     -16.400   0.394 -22.862  1.00  0.00    -0.294 OA
ATOM     34  C   UNL     1     -14.976   1.922 -21.719  1.00  0.00     0.131 C 
BRANCH  27  35
ATOM     35  O   UNL     1     -15.217  -1.824 -24.184  1.00  0.00    -0.507 OA
ATOM     36  H   UNL     1     -15.513  -2.323 -23.358  1.00  0.00     0.293 HD
ENDBRANCH  27  35
BRANCH  32  37
ATOM     37  C   UNL     1     -14.454   3.894 -23.329  1.00  0.00    -0.007 A 
ATOM     38  C   UNL     1     -13.673   4.353 -24.413  1.00  0.00     0.011 A 
ATOM     39  C   UNL     1     -15.767   4.381 -23.194  1.00  0.00     0.011 A 
ATOM     40  C   UNL     1     -14.202   5.266 -25.331  1.00  0.00     0.046 A 
ATOM     41  C   UNL     1     -16.291   5.293 -24.114  1.00  0.00     0.046 A 
ATOM     42  C   UNL     1     -15.512   5.738 -25.184  1.00  0.00     0.115 A 
BRANCH  42  43
ATOM     43  O   UNL     1     -16.046   6.647 -26.093  1.00  0.00    -0.508 OA
ATOM     44  H   UNL     1     -16.491   7.504 -25.785  1.00  0.00     0.293 HD
ENDBRANCH  42  43
ENDBRANCH  32  37
ENDBRANCH  23  24
ENDBRANCH   6  23
BRANCH   3  45
ATOM     45  O   UNL     1      -9.258  -3.162 -22.131  1.00  0.00    -0.387 OA
ATOM     46  H   UNL     1      -9.530  -3.507 -21.242  1.00  0.00     0.211 HD
ENDBRANCH   3  45
BRANCH   4  47
ATOM     47  C   UNL     1      -8.865  -0.285 -22.122  1.00  0.00     0.191 C 
BRANCH  47  48
ATOM     48  O   UNL     1      -7.552  -0.775 -22.112  1.00  0.00    -0.394 OA
ATOM     49  H   UNL     1      -7.272  -0.820 -21.160  1.00  0.00     0.210 HD
ENDBRANCH  47  48
ENDBRANCH   4  47
TORSDOF 14
ENDMDL
MODEL 9
REMARK VINA RESULT:    -6.227      2.109      9.890
REMARK INTER + INTRA:         -11.198
REMARK INTER:                 -11.788
REMARK INTRA:                   0.590
REMARK UNBOUND:                -1.331
REMARK SMILES C[C@H]1O[C@H](O[C@@H]2[C@@H](Oc3cc(O)c4c(c3)O[C@@H](c3ccc(O)cc3)CC4=O)O[C@H](CO)[C@H](O)[C@@H]2O)[C@H](O)[C@@H](O)[C@H]1O
REMARK SMILES IDX 6 1 34 2 32 3 29 4 28 5 7 6 5 7 4 8 1 9 2 10 40 11 3 12
REMARK SMILES IDX 38 13 36 14 41 15 39 17 37 19 35 21 8 23 9 24 10 25 15 26
REMARK SMILES IDX 11 27 14 28 13 29 16 30 26 31 17 32 27 33 25 34 12 35 18 37
REMARK SMILES IDX 19 38 24 39 20 40 23 41 21 42 22 43 33 45 30 47 31 48
REMARK H PARENT 41 16 39 18 37 20 35 22 12 36 22 44 33 46 31 49
REMARK Flexibility Score: inf
ROOT
ATOM      1  C   UNL     1     -14.592   2.961 -23.981  1.00  0.00     0.221 C 
ATOM      2  C   UNL     1     -13.929   2.538 -22.657  1.00  0.00     0.181 C 
ATOM      3  C   UNL     1     -14.960   1.890 -21.713  1.00  0.00     0.177 C 
ATOM      4  C   UNL     1     -15.706   0.767 -22.470  1.00  0.00     0.179 C 
ATOM      5  O   UNL     1     -16.330   1.276 -23.639  1.00  0.00    -0.332 OA
ATOM      6  C   UNL     1     -15.377   1.764 -24.573  1.00  0.00     0.339 C 
ENDROOT
BRANCH   1   7
ATOM      7  O   UNL     1     -15.480   4.038 -23.723  1.00  0.00    -0.337 OA
BRANCH   7   8
ATOM      8  C   UNL     1     -16.226   4.427 -24.870  1.00  0.00     0.282 C 
ATOM      9  C   UNL     1     -18.424   6.882 -23.222  1.00  0.00     0.041 C 
ATOM     10  C   UNL     1     -17.114   6.290 -23.747  1.00  0.00     0.150 C 
ATOM     11  C   UNL     1     -16.352   7.305 -24.629  1.00  0.00     0.174 C 
ATOM     12  O   UNL     1     -17.408   5.108 -24.476  1.00  0.00    -0.344 OA
ATOM     13  C   UNL     1     -15.055   6.655 -25.137  1.00  0.00     0.179 C 
ATOM     14  C   UNL     1     -15.365   5.308 -25.805  1.00  0.00     0.202 C 
BRANCH  11  15
ATOM     15  O   UNL     1     -17.143   7.695 -25.727  1.00  0.00    -0.388 OA
ATOM     16  H   UNL     1     -16.663   8.434 -26.184  1.00  0.00     0.211 HD
ENDBRANCH  11  15
BRANCH  13  17
ATOM     17  O   UNL     1     -14.417   7.497 -26.062  1.00  0.00    -0.387 OA
ATOM     18  H   UNL     1     -14.351   6.993 -26.913  1.00  0.00     0.211 HD
ENDBRANCH  13  17
BRANCH  14  19
ATOM     19  O   UNL     1     -14.163   4.655 -26.124  1.00  0.00    -0.385 OA
ATOM     20  H   UNL     1     -13.541   5.352 -26.457  1.00  0.00     0.211 HD
ENDBRANCH  14  19
ENDBRANCH   7   8
ENDBRANCH   1   7
BRANCH   2  21
ATOM     21  O   UNL     1     -13.333   3.643 -22.029  1.00  0.00    -0.387 OA
ATOM     22  H   UNL     1     -13.007   4.242 -22.752  1.00  0.00     0.211 HD
ENDBRANCH   2  21
BRANCH   6  23
ATOM     23  O   UNL     1     -14.499   0.708 -24.984  1.00  0.00    -0.462 OA
BRANCH  23  24
ATOM     24  C   UNL     1     -13.215   0.448 -24.478  1.00  0.00     0.130 A 
ATOM     25  C   UNL     1     -12.105   1.265 -24.749  1.00  0.00     0.093 A 
ATOM     26  C   UNL     1     -13.047  -0.678 -23.672  1.00  0.00     0.094 A 
ATOM     27  C   UNL     1     -10.848   0.979 -24.201  1.00  0.00     0.133 A 
ATOM     28  C   UNL     1     -11.792  -1.012 -23.161  1.00  0.00     0.138 A 
ATOM     29  C   UNL     1     -10.672  -0.197 -23.424  1.00  0.00     0.102 A 
ATOM     30  O   UNL     1     -11.670  -2.166 -22.376  1.00  0.00    -0.484 OA
ATOM     31  C   UNL     1      -9.369  -0.645 -22.871  1.00  0.00     0.174 C 
ATOM     32  C   UNL     1     -10.414  -2.782 -22.086  1.00  0.00     0.211 C 
ATOM     33  O   UNL     1      -8.276  -0.183 -23.292  1.00  0.00    -0.294 OA
ATOM     34  C   UNL     1      -9.345  -1.707 -21.808  1.00  0.00     0.131 C 
BRANCH  27  35
ATOM     35  O   UNL     1      -9.828   1.906 -24.431  1.00  0.00    -0.507 OA
ATOM     36  H   UNL     1      -9.985   2.869 -24.689  1.00  0.00     0.293 HD
ENDBRANCH  27  35
BRANCH  32  37
ATOM     37  C   UNL     1     -10.084  -3.785 -23.182  1.00  0.00    -0.007 A 
ATOM     38  C   UNL     1     -11.061  -4.495 -23.915  1.00  0.00     0.011 A 
ATOM     39  C   UNL     1      -8.727  -4.038 -23.454  1.00  0.00     0.011 A 
ATOM     40  C   UNL     1     -10.681  -5.421 -24.891  1.00  0.00     0.046 A 
ATOM     41  C   UNL     1      -8.353  -4.965 -24.431  1.00  0.00     0.046 A 
ATOM     42  C   UNL     1      -9.327  -5.658 -25.151  1.00  0.00     0.115 A 
BRANCH  42  43
ATOM     43  O   UNL     1      -8.940  -6.579 -26.122  1.00  0.00    -0.508 OA
ATOM     44  H   UNL     1      -9.599  -6.936 -26.805  1.00  0.00     0.293 HD
ENDBRANCH  42  43
ENDBRANCH  32  37
ENDBRANCH  23  24
ENDBRANCH   6  23
BRANCH   3  45
ATOM     45  O   UNL     1     -15.880   2.850 -21.250  1.00  0.00    -0.387 OA
ATOM     46  H   UNL     1     -16.593   2.921 -21.935  1.00  0.00     0.211 HD
ENDBRANCH   3  45
BRANCH   4  47
ATOM     47  C   UNL     1     -16.782   0.111 -21.588  1.00  0.00     0.191 C 
BRANCH  47  48
ATOM     48  O   UNL     1     -17.941   0.898 -21.533  1.00  0.00    -0.394 OA
ATOM     49  H   UNL     1     -18.707   0.290 -21.706  1.00  0.00     0.210 HD
ENDBRANCH  47  48
ENDBRANCH   4  47
TORSDOF 14
ENDMDL
