MODEL 1
REMARK VINA RESULT:    -2.546      0.000      0.000
REMARK INTER + INTRA:          -4.461
REMARK INTER:                  -3.662
REMARK INTRA:                  -0.799
REMARK UNBOUND:                -0.799
REMARK SMILES CCCCCCCCCO
REMARK SMILES IDX 6 1 5 2 4 3 3 4 2 5 1 6 7 7 8 8 9 9 10 10
REMARK H PARENT 10 11
REMARK Flexibility Score: inf
ROOT
ATOM      1  C   UNL     1     141.777 134.221 140.434  1.00  0.00     0.000 C 
ENDROOT
BRANCH   1   2
ATOM      2  C   UNL     1     141.081 135.558 140.133  1.00  0.00     0.000 C 
BRANCH   2   3
ATOM      3  C   UNL     1     141.118 136.528 141.324  1.00  0.00    -0.000 C 
BRANCH   3   4
ATOM      4  C   UNL     1     139.750 137.171 141.605  1.00  0.00    -0.000 C 
BRANCH   4   5
ATOM      5  C   UNL     1     139.359 137.100 143.090  1.00  0.00    -0.003 C 
ATOM      6  C   UNL     1     139.960 135.888 143.803  1.00  0.00     0.004 C 
ENDBRANCH   4   5
ENDBRANCH   3   4
ENDBRANCH   2   3
ENDBRANCH   1   2
BRANCH   1   7
ATOM      7  C   UNL     1     140.841 133.276 141.197  1.00  0.00     0.002 C 
BRANCH   7   8
ATOM      8  C   UNL     1     139.461 133.211 140.529  1.00  0.00     0.028 C 
BRANCH   8   9
ATOM      9  C   UNL     1     138.333 133.477 141.531  1.00  0.00     0.156 C 
BRANCH   9  10
ATOM     10  O   UNL     1     137.546 134.564 141.124  1.00  0.00    -0.396 OA
ATOM     11  H   UNL     1     138.172 135.257 140.786  1.00  0.00     0.210 HD
ENDBRANCH   9  10
ENDBRANCH   8   9
ENDBRANCH   7   8
ENDBRANCH   1   7
TORSDOF 8
ENDMDL
MODEL 2
REMARK VINA RESULT:    -2.543     11.200     13.136
REMARK INTER + INTRA:          -4.457
REMARK INTER:                  -3.950
REMARK INTRA:                  -0.507
REMARK UNBOUND:                -0.799
REMARK SMILES CCCCCCCCCO
REMARK SMILES IDX 6 1 5 2 4 3 3 4 2 5 1 6 7 7 8 8 9 9 10 10
REMARK H PARENT 10 11
REMARK Flexibility Score: inf
ROOT
ATOM      1  C   UNL     1     141.003 148.623 140.066  1.00  0.00     0.000 C 
ENDROOT
BRANCH   1   2
ATOM      2  C   UNL     1     140.137 147.947 141.141  1.00  0.00     0.000 C 
BRANCH   2   3
ATOM      3  C   UNL     1     140.720 146.607 141.618  1.00  0.00    -0.000 C 
BRANCH   3   4
ATOM      4  C   UNL     1     141.547 146.748 142.906  1.00  0.00    -0.000 C 
BRANCH   4   5
ATOM      5  C   UNL     1     142.189 145.422 143.342  1.00  0.00    -0.003 C 
ATOM      6  C   UNL     1     141.927 145.090 144.811  1.00  0.00     0.004 C 
ENDBRANCH   4   5
ENDBRANCH   3   4
ENDBRANCH   2   3
ENDBRANCH   1   2
BRANCH   1   7
ATOM      7  C   UNL     1     141.827 149.768 140.666  1.00  0.00     0.002 C 
BRANCH   7   8
ATOM      8  C   UNL     1     143.266 149.317 140.954  1.00  0.00     0.028 C 
BRANCH   8   9
ATOM      9  C   UNL     1     143.683 148.147 140.057  1.00  0.00     0.156 C 
BRANCH   9  10
ATOM     10  O   UNL     1     144.280 147.126 140.811  1.00  0.00    -0.396 OA
ATOM     11  H   UNL     1     144.751 146.535 140.167  1.00  0.00     0.210 HD
ENDBRANCH   9  10
ENDBRANCH   8   9
ENDBRANCH   7   8
ENDBRANCH   1   7
TORSDOF 8
ENDMDL
MODEL 3
REMARK VINA RESULT:    -2.492      7.197      7.948
REMARK INTER + INTRA:          -4.384
REMARK INTER:                  -3.703
REMARK INTRA:                  -0.681
REMARK UNBOUND:                -0.799
REMARK SMILES CCCCCCCCCO
REMARK SMILES IDX 6 1 5 2 4 3 3 4 2 5 1 6 7 7 8 8 9 9 10 10
REMARK H PARENT 10 11
REMARK Flexibility Score: inf
ROOT
ATOM      1  C   UNL     1     145.931 140.027 144.426  1.00  0.00     0.000 C 
ENDROOT
BRANCH   1   2
ATOM      2  C   UNL     1     144.658 139.167 144.388  1.00  0.00     0.000 C 
BRANCH   2   3
ATOM      3  C   UNL     1     143.413 139.926 144.872  1.00  0.00    -0.000 C 
BRANCH   3   4
ATOM      4  C   UNL     1     143.596 141.452 144.826  1.00  0.00    -0.000 C 
BRANCH   4   5
ATOM      5  C   UNL     1     142.635 142.132 143.839  1.00  0.00    -0.003 C 
ATOM      6  C   UNL     1     143.156 142.122 142.401  1.00  0.00     0.004 C 
ENDBRANCH   4   5
ENDBRANCH   3   4
ENDBRANCH   2   3
ENDBRANCH   1   2
BRANCH   1   7
ATOM      7  C   UNL     1     146.577 140.112 143.039  1.00  0.00     0.002 C 
BRANCH   7   8
ATOM      8  C   UNL     1     145.704 139.421 141.982  1.00  0.00     0.028 C 
BRANCH   8   9
ATOM      9  C   UNL     1     146.551 138.789 140.872  1.00  0.00     0.156 C 
BRANCH   9  10
ATOM     10  O   UNL     1     147.152 137.602 141.315  1.00  0.00    -0.396 OA
ATOM     11  H   UNL     1     147.299 137.039 140.510  1.00  0.00     0.210 HD
ENDBRANCH   9  10
ENDBRANCH   8   9
ENDBRANCH   7   8
ENDBRANCH   1   7
TORSDOF 8
ENDMDL
MODEL 4
REMARK VINA RESULT:    -2.478     10.096     11.926
REMARK INTER + INTRA:          -4.364
REMARK INTER:                  -3.969
REMARK INTRA:                  -0.395
REMARK UNBOUND:                -0.799
REMARK SMILES CCCCCCCCCO
REMARK SMILES IDX 6 1 5 2 4 3 3 4 2 5 1 6 7 7 8 8 9 9 10 10
REMARK H PARENT 10 11
REMARK Flexibility Score: inf
ROOT
ATOM      1  C   UNL     1     142.506 146.342 141.067  1.00  0.00     0.000 C 
ENDROOT
BRANCH   1   2
ATOM      2  C   UNL     1     142.192 145.351 142.198  1.00  0.00     0.000 C 
BRANCH   2   3
ATOM      3  C   UNL     1     142.027 146.039 143.562  1.00  0.00    -0.000 C 
BRANCH   3   4
ATOM      4  C   UNL     1     142.262 145.079 144.741  1.00  0.00    -0.000 C 
BRANCH   4   5
ATOM      5  C   UNL     1     142.085 143.605 144.345  1.00  0.00    -0.003 C 
ATOM      6  C   UNL     1     143.007 142.667 145.124  1.00  0.00     0.004 C 
ENDBRANCH   4   5
ENDBRANCH   3   4
ENDBRANCH   2   3
ENDBRANCH   1   2
BRANCH   1   7
ATOM      7  C   UNL     1     142.373 147.790 141.554  1.00  0.00     0.002 C 
BRANCH   7   8
ATOM      8  C   UNL     1     141.324 148.551 140.733  1.00  0.00     0.028 C 
BRANCH   8   9
ATOM      9  C   UNL     1     139.902 148.274 141.233  1.00  0.00     0.156 C 
BRANCH   9  10
ATOM     10  O   UNL     1     139.592 149.081 142.337  1.00  0.00    -0.396 OA
ATOM     11  H   UNL     1     139.083 148.513 142.971  1.00  0.00     0.210 HD
ENDBRANCH   9  10
ENDBRANCH   8   9
ENDBRANCH   7   8
ENDBRANCH   1   7
TORSDOF 8
ENDMDL
MODEL 5
REMARK VINA RESULT:    -2.465      9.902     11.657
REMARK INTER + INTRA:          -4.344
REMARK INTER:                  -3.637
REMARK INTRA:                  -0.707
REMARK UNBOUND:                -0.799
REMARK SMILES CCCCCCCCCO
REMARK SMILES IDX 6 1 5 2 4 3 3 4 2 5 1 6 7 7 8 8 9 9 10 10
REMARK H PARENT 10 11
REMARK Flexibility Score: inf
ROOT
ATOM      1  C   UNL     1     140.979 146.127 140.755  1.00  0.00     0.000 C 
ENDROOT
BRANCH   1   2
ATOM      2  C   UNL     1     140.888 144.748 141.427  1.00  0.00     0.000 C 
BRANCH   2   3
ATOM      3  C   UNL     1     142.219 144.301 142.050  1.00  0.00    -0.000 C 
BRANCH   3   4
ATOM      4  C   UNL     1     142.056 143.795 143.493  1.00  0.00    -0.000 C 
BRANCH   4   5
ATOM      5  C   UNL     1     142.507 144.831 144.536  1.00  0.00    -0.003 C 
ATOM      6  C   UNL     1     141.340 145.624 145.125  1.00  0.00     0.004 C 
ENDBRANCH   4   5
ENDBRANCH   3   4
ENDBRANCH   2   3
ENDBRANCH   1   2
BRANCH   1   7
ATOM      7  C   UNL     1     141.138 147.237 141.801  1.00  0.00     0.002 C 
BRANCH   7   8
ATOM      8  C   UNL     1     142.524 147.890 141.703  1.00  0.00     0.028 C 
BRANCH   8   9
ATOM      9  C   UNL     1     143.209 147.568 140.370  1.00  0.00     0.156 C 
BRANCH   9  10
ATOM     10  O   UNL     1     144.425 146.902 140.580  1.00  0.00    -0.396 OA
ATOM     11  H   UNL     1     144.387 146.066 140.045  1.00  0.00     0.210 HD
ENDBRANCH   9  10
ENDBRANCH   8   9
ENDBRANCH   7   8
ENDBRANCH   1   7
TORSDOF 8
ENDMDL
MODEL 6
REMARK VINA RESULT:    -2.439      7.332      8.737
REMARK INTER + INTRA:          -4.307
REMARK INTER:                  -3.516
REMARK INTRA:                  -0.790
REMARK UNBOUND:                -0.799
REMARK SMILES CCCCCCCCCO
REMARK SMILES IDX 6 1 5 2 4 3 3 4 2 5 1 6 7 7 8 8 9 9 10 10
REMARK H PARENT 10 11
REMARK Flexibility Score: inf
ROOT
ATOM      1  C   UNL     1     147.349 141.722 140.507  1.00  0.00     0.000 C 
ENDROOT
BRANCH   1   2
ATOM      2  C   UNL     1     146.514 140.864 139.544  1.00  0.00     0.000 C 
BRANCH   2   3
ATOM      3  C   UNL     1     145.056 140.702 140.004  1.00  0.00    -0.000 C 
BRANCH   3   4
ATOM      4  C   UNL     1     144.876 140.980 141.506  1.00  0.00    -0.000 C 
BRANCH   4   5
ATOM      5  C   UNL     1     144.659 139.695 142.320  1.00  0.00    -0.003 C 
ATOM      6  C   UNL     1     145.470 139.670 143.616  1.00  0.00     0.004 C 
ENDBRANCH   4   5
ENDBRANCH   3   4
ENDBRANCH   2   3
ENDBRANCH   1   2
BRANCH   1   7
ATOM      7  C   UNL     1     148.441 140.883 141.181  1.00  0.00     0.002 C 
BRANCH   7   8
ATOM      8  C   UNL     1     148.536 139.490 140.544  1.00  0.00     0.028 C 
BRANCH   8   9
ATOM      9  C   UNL     1     148.278 138.379 141.569  1.00  0.00     0.156 C 
BRANCH   9  10
ATOM     10  O   UNL     1     147.183 137.590 141.187  1.00  0.00    -0.396 OA
ATOM     11  H   UNL     1     147.496 137.008 140.446  1.00  0.00     0.210 HD
ENDBRANCH   9  10
ENDBRANCH   8   9
ENDBRANCH   7   8
ENDBRANCH   1   7
TORSDOF 8
ENDMDL
MODEL 7
REMARK VINA RESULT:    -2.435      2.203      3.556
REMARK INTER + INTRA:          -4.301
REMARK INTER:                  -3.893
REMARK INTRA:                  -0.407
REMARK UNBOUND:                -0.799
REMARK SMILES CCCCCCCCCO
REMARK SMILES IDX 6 1 5 2 4 3 3 4 2 5 1 6 7 7 8 8 9 9 10 10
REMARK H PARENT 10 11
REMARK Flexibility Score: inf
ROOT
ATOM      1  C   UNL     1     139.462 135.912 144.276  1.00  0.00     0.000 C 
ENDROOT
BRANCH   1   2
ATOM      2  C   UNL     1     139.012 137.239 144.905  1.00  0.00     0.000 C 
BRANCH   2   3
ATOM      3  C   UNL     1     139.371 138.458 144.041  1.00  0.00    -0.000 C 
BRANCH   3   4
ATOM      4  C   UNL     1     140.679 139.133 144.486  1.00  0.00    -0.000 C 
BRANCH   4   5
ATOM      5  C   UNL     1     141.888 138.682 143.650  1.00  0.00    -0.003 C 
ATOM      6  C   UNL     1     143.224 139.000 144.322  1.00  0.00     0.004 C 
ENDBRANCH   4   5
ENDBRANCH   3   4
ENDBRANCH   2   3
ENDBRANCH   1   2
BRANCH   1   7
ATOM      7  C   UNL     1     139.457 136.001 142.745  1.00  0.00     0.002 C 
BRANCH   7   8
ATOM      8  C   UNL     1     139.760 134.634 142.115  1.00  0.00     0.028 C 
BRANCH   8   9
ATOM      9  C   UNL     1     138.477 133.849 141.821  1.00  0.00     0.156 C 
BRANCH   9  10
ATOM     10  O   UNL     1     137.553 134.641 141.123  1.00  0.00    -0.396 OA
ATOM     11  H   UNL     1     137.228 135.328 141.761  1.00  0.00     0.210 HD
ENDBRANCH   9  10
ENDBRANCH   8   9
ENDBRANCH   7   8
ENDBRANCH   1   7
TORSDOF 8
ENDMDL
MODEL 8
REMARK VINA RESULT:    -2.432      2.120      3.233
REMARK INTER + INTRA:          -4.298
REMARK INTER:                  -3.613
REMARK INTRA:                  -0.684
REMARK UNBOUND:                -0.799
REMARK SMILES CCCCCCCCCO
REMARK SMILES IDX 6 1 5 2 4 3 3 4 2 5 1 6 7 7 8 8 9 9 10 10
REMARK H PARENT 10 11
REMARK Flexibility Score: inf
ROOT
ATOM      1  C   UNL     1     139.319 134.905 142.533  1.00  0.00     0.000 C 
ENDROOT
BRANCH   1   2
ATOM      2  C   UNL     1     140.026 135.594 143.710  1.00  0.00     0.000 C 
BRANCH   2   3
ATOM      3  C   UNL     1     139.263 136.826 144.223  1.00  0.00    -0.000 C 
BRANCH   3   4
ATOM      4  C   UNL     1     139.880 138.148 143.737  1.00  0.00    -0.000 C 
BRANCH   4   5
ATOM      5  C   UNL     1     141.413 138.085 143.647  1.00  0.00    -0.003 C 
ATOM      6  C   UNL     1     141.939 138.401 142.247  1.00  0.00     0.004 C 
ENDBRANCH   4   5
ENDBRANCH   3   4
ENDBRANCH   2   3
ENDBRANCH   1   2
BRANCH   1   7
ATOM      7  C   UNL     1     139.981 135.279 141.201  1.00  0.00     0.002 C 
BRANCH   7   8
ATOM      8  C   UNL     1     141.351 134.601 141.060  1.00  0.00     0.028 C 
BRANCH   8   9
ATOM      9  C   UNL     1     141.240 133.075 141.143  1.00  0.00     0.156 C 
BRANCH   9  10
ATOM     10  O   UNL     1     141.977 132.577 142.226  1.00  0.00    -0.396 OA
ATOM     11  H   UNL     1     141.949 131.587 142.159  1.00  0.00     0.210 HD
ENDBRANCH   9  10
ENDBRANCH   8   9
ENDBRANCH   7   8
ENDBRANCH   1   7
TORSDOF 8
ENDMDL
MODEL 9
REMARK VINA RESULT:    -2.431      8.098      9.920
REMARK INTER + INTRA:          -4.296
REMARK INTER:                  -3.495
REMARK INTRA:                  -0.802
REMARK UNBOUND:                -0.799
REMARK SMILES CCCCCCCCCO
REMARK SMILES IDX 6 1 5 2 4 3 3 4 2 5 1 6 7 7 8 8 9 9 10 10
REMARK H PARENT 10 11
REMARK Flexibility Score: inf
ROOT
ATOM      1  C   UNL     1     131.959 141.622 140.661  1.00  0.00     0.000 C 
ENDROOT
BRANCH   1   2
ATOM      2  C   UNL     1     132.877 140.724 139.817  1.00  0.00     0.000 C 
BRANCH   2   3
ATOM      3  C   UNL     1     133.962 140.029 140.655  1.00  0.00    -0.000 C 
BRANCH   3   4
ATOM      4  C   UNL     1     135.345 140.681 140.491  1.00  0.00    -0.000 C 
BRANCH   4   5
ATOM      5  C   UNL     1     135.996 141.029 141.838  1.00  0.00    -0.003 C 
ATOM      6  C   UNL     1     135.028 141.711 142.806  1.00  0.00     0.004 C 
ENDBRANCH   4   5
ENDBRANCH   3   4
ENDBRANCH   2   3
ENDBRANCH   1   2
BRANCH   1   7
ATOM      7  C   UNL     1     132.409 143.086 140.591  1.00  0.00     0.002 C 
BRANCH   7   8
ATOM      8  C   UNL     1     132.999 143.415 139.212  1.00  0.00     0.028 C 
BRANCH   8   9
ATOM      9  C   UNL     1     134.353 144.123 139.329  1.00  0.00     0.156 C 
BRANCH   9  10
ATOM     10  O   UNL     1     134.668 144.384 140.670  1.00  0.00    -0.396 OA
ATOM     11  H   UNL     1     133.809 144.556 141.136  1.00  0.00     0.210 HD
ENDBRANCH   9  10
ENDBRANCH   8   9
ENDBRANCH   7   8
ENDBRANCH   1   7
TORSDOF 8
ENDMDL
