MODEL 1
REMARK VINA RESULT:    -5.654      0.000      0.000
REMARK INTER + INTRA:          -7.841
REMARK INTER:                  -7.472
REMARK INTRA:                  -0.368
REMARK UNBOUND:                -0.368
REMARK SMILES CCCCC=CC=CCO
REMARK SMILES IDX 5 1 6 2 4 3 3 4 2 5 1 6 7 7 8 8 9 9 10 10
REMARK H PARENT 10 11
REMARK Flexibility Score: inf
ROOT
ATOM      1  C   UNL     1      12.003 -16.193  40.728  1.00  0.00    -0.027 C 
ATOM      2  C   UNL     1      11.514 -17.414  40.963  1.00  0.00    -0.005 C 
ENDROOT
BRANCH   1   3
ATOM      3  C   UNL     1      11.111 -14.988  40.661  1.00  0.00     0.027 C 
BRANCH   3   4
ATOM      4  C   UNL     1      11.113 -14.375  39.253  1.00  0.00     0.004 C 
BRANCH   4   5
ATOM      5  C   UNL     1      11.933 -15.203  38.251  1.00  0.00    -0.003 C 
ATOM      6  C   UNL     1      11.062 -16.100  37.371  1.00  0.00     0.004 C 
ENDBRANCH   4   5
ENDBRANCH   3   4
ENDBRANCH   1   3
BRANCH   2   7
ATOM      7  C   UNL     1      12.410 -18.587  41.040  1.00  0.00    -0.002 C 
ATOM      8  C   UNL     1      12.403 -19.587  40.150  1.00  0.00     0.001 C 
BRANCH   8   9
ATOM      9  C   UNL     1      11.492 -19.651  38.959  1.00  0.00     0.183 C 
BRANCH   9  10
ATOM     10  O   UNL     1      12.226 -19.434  37.787  1.00  0.00    -0.392 OA
ATOM     11  H   UNL     1      12.502 -18.481  37.809  1.00  0.00     0.210 HD
ENDBRANCH   9  10
ENDBRANCH   8   9
ENDBRANCH   2   7
TORSDOF 6
ENDMDL
MODEL 2
REMARK VINA RESULT:    -5.588      2.341      2.651
REMARK INTER + INTRA:          -7.752
REMARK INTER:                  -7.529
REMARK INTRA:                  -0.224
REMARK UNBOUND:                -0.368
REMARK SMILES CCCCC=CC=CCO
REMARK SMILES IDX 5 1 6 2 4 3 3 4 2 5 1 6 7 7 8 8 9 9 10 10
REMARK H PARENT 10 11
REMARK Flexibility Score: inf
ROOT
ATOM      1  C   UNL     1      11.965 -16.898  40.707  1.00  0.00    -0.027 C 
ATOM      2  C   UNL     1      11.901 -17.980  41.488  1.00  0.00    -0.005 C 
ENDROOT
BRANCH   1   3
ATOM      3  C   UNL     1      11.663 -15.526  41.236  1.00  0.00     0.027 C 
BRANCH   3   4
ATOM      4  C   UNL     1      10.814 -14.722  40.240  1.00  0.00     0.004 C 
BRANCH   4   5
ATOM      5  C   UNL     1      10.683 -15.423  38.878  1.00  0.00    -0.003 C 
ATOM      6  C   UNL     1      11.644 -14.864  37.829  1.00  0.00     0.004 C 
ENDBRANCH   4   5
ENDBRANCH   3   4
ENDBRANCH   1   3
BRANCH   2   7
ATOM      7  C   UNL     1      12.216 -19.320  40.953  1.00  0.00    -0.002 C 
ATOM      8  C   UNL     1      12.586 -20.358  41.714  1.00  0.00     0.001 C 
BRANCH   8   9
ATOM      9  C   UNL     1      12.727 -20.300  43.207  1.00  0.00     0.183 C 
BRANCH   9  10
ATOM     10  O   UNL     1      13.801 -21.101  43.613  1.00  0.00    -0.392 OA
ATOM     11  H   UNL     1      13.899 -20.953  44.590  1.00  0.00     0.210 HD
ENDBRANCH   9  10
ENDBRANCH   8   9
ENDBRANCH   2   7
TORSDOF 6
ENDMDL
MODEL 3
REMARK VINA RESULT:    -5.323      1.764      2.817
REMARK INTER + INTRA:          -7.403
REMARK INTER:                  -7.062
REMARK INTRA:                  -0.341
REMARK UNBOUND:                -0.368
REMARK SMILES CCCCC=CC=CCO
REMARK SMILES IDX 5 1 6 2 4 3 3 4 2 5 1 6 7 7 8 8 9 9 10 10
REMARK H PARENT 10 11
REMARK Flexibility Score: inf
ROOT
ATOM      1  C   UNL     1      11.489 -17.397  38.235  1.00  0.00    -0.027 C 
ATOM      2  C   UNL     1      11.061 -18.434  38.960  1.00  0.00    -0.005 C 
ENDROOT
BRANCH   1   3
ATOM      3  C   UNL     1      10.721 -16.109  38.174  1.00  0.00     0.027 C 
BRANCH   3   4
ATOM      4  C   UNL     1      11.470 -14.981  38.900  1.00  0.00     0.004 C 
BRANCH   4   5
ATOM      5  C   UNL     1      11.012 -14.813  40.358  1.00  0.00    -0.003 C 
ATOM      6  C   UNL     1      11.771 -15.722  41.325  1.00  0.00     0.004 C 
ENDBRANCH   4   5
ENDBRANCH   3   4
ENDBRANCH   1   3
BRANCH   2   7
ATOM      7  C   UNL     1      11.839 -19.688  39.019  1.00  0.00    -0.002 C 
ATOM      8  C   UNL     1      12.399 -20.164  40.138  1.00  0.00     0.001 C 
BRANCH   8   9
ATOM      9  C   UNL     1      12.311 -19.492  41.477  1.00  0.00     0.183 C 
BRANCH   9  10
ATOM     10  O   UNL     1      12.594 -20.416  42.491  1.00  0.00    -0.392 OA
ATOM     11  H   UNL     1      12.265 -20.007  43.333  1.00  0.00     0.210 HD
ENDBRANCH   9  10
ENDBRANCH   8   9
ENDBRANCH   2   7
TORSDOF 6
ENDMDL
MODEL 4
REMARK VINA RESULT:    -5.266      1.970      4.891
REMARK INTER + INTRA:          -7.328
REMARK INTER:                  -7.061
REMARK INTRA:                  -0.267
REMARK UNBOUND:                -0.368
REMARK SMILES CCCCC=CC=CCO
REMARK SMILES IDX 5 1 6 2 4 3 3 4 2 5 1 6 7 7 8 8 9 9 10 10
REMARK H PARENT 10 11
REMARK Flexibility Score: inf
ROOT
ATOM      1  C   UNL     1      11.829 -17.981  38.746  1.00  0.00    -0.027 C 
ATOM      2  C   UNL     1      10.915 -17.056  38.440  1.00  0.00    -0.005 C 
ENDROOT
BRANCH   1   3
ATOM      3  C   UNL     1      11.444 -19.406  39.022  1.00  0.00     0.027 C 
BRANCH   3   4
ATOM      4  C   UNL     1      12.307 -20.005  40.143  1.00  0.00     0.004 C 
BRANCH   4   5
ATOM      5  C   UNL     1      12.305 -19.140  41.414  1.00  0.00    -0.003 C 
ATOM      6  C   UNL     1      12.595 -19.947  42.680  1.00  0.00     0.004 C 
ENDBRANCH   4   5
ENDBRANCH   3   4
ENDBRANCH   1   3
BRANCH   2   7
ATOM      7  C   UNL     1      11.314 -15.662  38.157  1.00  0.00    -0.002 C 
ATOM      8  C   UNL     1      11.268 -14.676  39.062  1.00  0.00     0.001 C 
BRANCH   8   9
ATOM      9  C   UNL     1      10.808 -14.854  40.480  1.00  0.00     0.183 C 
BRANCH   9  10
ATOM     10  O   UNL     1      11.811 -15.485  41.227  1.00  0.00    -0.392 OA
ATOM     11  H   UNL     1      12.048 -14.853  41.955  1.00  0.00     0.210 HD
ENDBRANCH   9  10
ENDBRANCH   8   9
ENDBRANCH   2   7
TORSDOF 6
ENDMDL
MODEL 5
REMARK VINA RESULT:    -5.109      1.854      4.926
REMARK INTER + INTRA:          -7.120
REMARK INTER:                  -6.931
REMARK INTRA:                  -0.189
REMARK UNBOUND:                -0.368
REMARK SMILES CCCCC=CC=CCO
REMARK SMILES IDX 5 1 6 2 4 3 3 4 2 5 1 6 7 7 8 8 9 9 10 10
REMARK H PARENT 10 11
REMARK Flexibility Score: inf
ROOT
ATOM      1  C   UNL     1      11.494 -17.465  40.518  1.00  0.00    -0.027 C 
ATOM      2  C   UNL     1      11.914 -16.232  40.815  1.00  0.00    -0.005 C 
ENDROOT
BRANCH   1   3
ATOM      3  C   UNL     1      12.295 -18.680  40.886  1.00  0.00     0.027 C 
BRANCH   3   4
ATOM      4  C   UNL     1      12.316 -18.889  42.408  1.00  0.00     0.004 C 
BRANCH   4   5
ATOM      5  C   UNL     1      12.427 -20.371  42.798  1.00  0.00    -0.003 C 
ATOM      6  C   UNL     1      13.820 -20.748  43.304  1.00  0.00     0.004 C 
ENDBRANCH   4   5
ENDBRANCH   3   4
ENDBRANCH   1   3
BRANCH   2   7
ATOM      7  C   UNL     1      11.105 -15.050  40.456  1.00  0.00    -0.002 C 
ATOM      8  C   UNL     1      11.128 -14.470  39.250  1.00  0.00     0.001 C 
BRANCH   8   9
ATOM      9  C   UNL     1      11.973 -14.943  38.103  1.00  0.00     0.183 C 
BRANCH   9  10
ATOM     10  O   UNL     1      11.252 -15.863  37.331  1.00  0.00    -0.392 OA
ATOM     11  H   UNL     1      11.391 -16.748  37.759  1.00  0.00     0.210 HD
ENDBRANCH   9  10
ENDBRANCH   8   9
ENDBRANCH   2   7
TORSDOF 6
ENDMDL
MODEL 6
REMARK VINA RESULT:    -5.073      2.661      3.324
REMARK INTER + INTRA:          -7.072
REMARK INTER:                  -6.852
REMARK INTRA:                  -0.220
REMARK UNBOUND:                -0.368
REMARK SMILES CCCCC=CC=CCO
REMARK SMILES IDX 5 1 6 2 4 3 3 4 2 5 1 6 7 7 8 8 9 9 10 10
REMARK H PARENT 10 11
REMARK Flexibility Score: inf
ROOT
ATOM      1  C   UNL     1      11.535 -17.917  40.487  1.00  0.00    -0.027 C 
ATOM      2  C   UNL     1      12.378 -18.370  41.419  1.00  0.00    -0.005 C 
ENDROOT
BRANCH   1   3
ATOM      3  C   UNL     1      12.026 -17.392  39.170  1.00  0.00     0.027 C 
BRANCH   3   4
ATOM      4  C   UNL     1      12.517 -15.942  39.299  1.00  0.00     0.004 C 
BRANCH   4   5
ATOM      5  C   UNL     1      11.375 -14.920  39.177  1.00  0.00    -0.003 C 
ATOM      6  C   UNL     1      10.817 -14.492  40.535  1.00  0.00     0.004 C 
ENDBRANCH   4   5
ENDBRANCH   3   4
ENDBRANCH   1   3
BRANCH   2   7
ATOM      7  C   UNL     1      11.875 -18.897  42.704  1.00  0.00    -0.002 C 
ATOM      8  C   UNL     1      12.392 -19.964  43.325  1.00  0.00     0.001 C 
BRANCH   8   9
ATOM      9  C   UNL     1      13.551 -20.763  42.804  1.00  0.00     0.183 C 
BRANCH   9  10
ATOM     10  O   UNL     1      14.110 -21.519  43.841  1.00  0.00    -0.392 OA
ATOM     11  H   UNL     1      13.633 -22.390  43.834  1.00  0.00     0.210 HD
ENDBRANCH   9  10
ENDBRANCH   8   9
ENDBRANCH   2   7
TORSDOF 6
ENDMDL
MODEL 7
REMARK VINA RESULT:    -5.017      1.208      3.950
REMARK INTER + INTRA:          -6.999
REMARK INTER:                  -6.660
REMARK INTRA:                  -0.339
REMARK UNBOUND:                -0.368
REMARK SMILES CCCCC=CC=CCO
REMARK SMILES IDX 5 1 6 2 4 3 3 4 2 5 1 6 7 7 8 8 9 9 10 10
REMARK H PARENT 10 11
REMARK Flexibility Score: inf
ROOT
ATOM      1  C   UNL     1      11.309 -17.030  41.373  1.00  0.00    -0.027 C 
ATOM      2  C   UNL     1      11.823 -15.813  41.171  1.00  0.00    -0.005 C 
ENDROOT
BRANCH   1   3
ATOM      3  C   UNL     1      12.084 -18.104  42.081  1.00  0.00     0.027 C 
BRANCH   3   4
ATOM      4  C   UNL     1      12.290 -19.327  41.174  1.00  0.00     0.004 C 
BRANCH   4   5
ATOM      5  C   UNL     1      12.210 -18.973  39.681  1.00  0.00    -0.003 C 
ATOM      6  C   UNL     1      11.762 -20.152  38.816  1.00  0.00     0.004 C 
ENDBRANCH   4   5
ENDBRANCH   3   4
ENDBRANCH   1   3
BRANCH   2   7
ATOM      7  C   UNL     1      11.040 -14.765  40.485  1.00  0.00    -0.002 C 
ATOM      8  C   UNL     1      11.066 -14.563  39.162  1.00  0.00     0.001 C 
BRANCH   8   9
ATOM      9  C   UNL     1      11.888 -15.371  38.201  1.00  0.00     0.183 C 
BRANCH   9  10
ATOM     10  O   UNL     1      11.124 -16.431  37.698  1.00  0.00    -0.392 OA
ATOM     11  H   UNL     1      10.344 -16.016  37.246  1.00  0.00     0.210 HD
ENDBRANCH   9  10
ENDBRANCH   8   9
ENDBRANCH   2   7
TORSDOF 6
ENDMDL
MODEL 8
REMARK VINA RESULT:    -4.789      1.423      2.036
REMARK INTER + INTRA:          -6.697
REMARK INTER:                  -6.407
REMARK INTRA:                  -0.290
REMARK UNBOUND:                -0.368
REMARK SMILES CCCCC=CC=CCO
REMARK SMILES IDX 5 1 6 2 4 3 3 4 2 5 1 6 7 7 8 8 9 9 10 10
REMARK H PARENT 10 11
REMARK Flexibility Score: inf
ROOT
ATOM      1  C   UNL     1      10.921 -15.173  40.458  1.00  0.00    -0.027 C 
ATOM      2  C   UNL     1      11.921 -15.862  41.015  1.00  0.00    -0.005 C 
ENDROOT
BRANCH   1   3
ATOM      3  C   UNL     1      11.150 -14.258  39.290  1.00  0.00     0.027 C 
BRANCH   3   4
ATOM      4  C   UNL     1      11.969 -14.956  38.193  1.00  0.00     0.004 C 
BRANCH   4   5
ATOM      5  C   UNL     1      11.117 -15.907  37.337  1.00  0.00    -0.003 C 
ATOM      6  C   UNL     1      11.193 -17.358  37.811  1.00  0.00     0.004 C 
ENDBRANCH   4   5
ENDBRANCH   3   4
ENDBRANCH   1   3
BRANCH   2   7
ATOM      7  C   UNL     1      11.674 -16.768  42.155  1.00  0.00    -0.002 C 
ATOM      8  C   UNL     1      11.838 -18.095  42.100  1.00  0.00     0.001 C 
BRANCH   8   9
ATOM      9  C   UNL     1      12.297 -18.838  40.879  1.00  0.00     0.183 C 
BRANCH   9  10
ATOM     10  O   UNL     1      12.271 -20.216  41.125  1.00  0.00    -0.392 OA
ATOM     11  H   UNL     1      12.558 -20.651  40.280  1.00  0.00     0.210 HD
ENDBRANCH   9  10
ENDBRANCH   8   9
ENDBRANCH   2   7
TORSDOF 6
ENDMDL
MODEL 9
REMARK VINA RESULT:    -4.017      2.113      4.592
REMARK INTER + INTRA:          -5.676
REMARK INTER:                  -5.283
REMARK INTRA:                  -0.394
REMARK UNBOUND:                -0.368
REMARK SMILES CCCCC=CC=CCO
REMARK SMILES IDX 5 1 6 2 4 3 3 4 2 5 1 6 7 7 8 8 9 9 10 10
REMARK H PARENT 10 11
REMARK Flexibility Score: inf
ROOT
ATOM      1  C   UNL     1      11.998 -18.601  39.231  1.00  0.00    -0.027 C 
ATOM      2  C   UNL     1      10.941 -17.818  38.998  1.00  0.00    -0.005 C 
ENDROOT
BRANCH   1   3
ATOM      3  C   UNL     1      12.004 -19.603  40.349  1.00  0.00     0.027 C 
BRANCH   3   4
ATOM      4  C   UNL     1      12.680 -19.030  41.604  1.00  0.00     0.004 C 
BRANCH   4   5
ATOM      5  C   UNL     1      11.678 -18.365  42.560  1.00  0.00    -0.003 C 
ATOM      6  C   UNL     1      11.746 -16.838  42.521  1.00  0.00     0.004 C 
ENDBRANCH   4   5
ENDBRANCH   3   4
ENDBRANCH   1   3
BRANCH   2   7
ATOM      7  C   UNL     1      10.948 -16.847  37.885  1.00  0.00    -0.002 C 
ATOM      8  C   UNL     1      11.287 -15.559  38.023  1.00  0.00     0.001 C 
BRANCH   8   9
ATOM      9  C   UNL     1      11.705 -14.931  39.321  1.00  0.00     0.183 C 
BRANCH   9  10
ATOM     10  O   UNL     1      10.575 -14.652  40.098  1.00  0.00    -0.392 OA
ATOM     11  H   UNL     1       9.793 -14.943  39.559  1.00  0.00     0.210 HD
ENDBRANCH   9  10
ENDBRANCH   8   9
ENDBRANCH   2   7
TORSDOF 6
ENDMDL
