MODEL 1
REMARK VINA RESULT:    -4.278      0.000      0.000
REMARK INTER + INTRA:          -9.595
REMARK INTER:                  -7.779
REMARK INTRA:                  -1.816
REMARK UNBOUND:                -1.816
REMARK SMILES CCCCCCCCCCCCCCCC(=O)[O-]
REMARK SMILES IDX 9 1 10 2 11 3 12 4 13 5 14 6 15 7 16 8 17 9 18 10 8 11 7 12
REMARK SMILES IDX 6 13 5 14 4 15 3 16 2 17 1 18
REMARK H PARENT
REMARK Flexibility Score: inf
ROOT
ATOM      1  C   UNL     1     -12.503   2.926  19.661  1.00  0.00     0.000 C 
ENDROOT
BRANCH   1   2
ATOM      2  C   UNL     1     -12.423   4.013  18.577  1.00  0.00     0.000 C 
BRANCH   2   3
ATOM      3  C   UNL     1     -12.401   3.431  17.151  1.00  0.00     0.000 C 
BRANCH   3   4
ATOM      4  C   UNL     1     -11.323   4.094  16.268  1.00  0.00     0.000 C 
BRANCH   4   5
ATOM      5  C   UNL     1     -10.138   3.167  15.934  1.00  0.00     0.000 C 
BRANCH   5   6
ATOM      6  C   UNL     1     -10.435   1.663  16.060  1.00  0.00     0.006 C 
BRANCH   6   7
ATOM      7  C   UNL     1     -10.538   0.963  14.698  1.00  0.00     0.053 C 
BRANCH   7   8
ATOM      8  C   UNL     1     -11.922   0.436  14.490  1.00  0.00     0.041 C 
ATOM      9  O   UNL     1     -12.797   0.578  15.384  1.00  0.00    -0.550 OA
ATOM     10  O   UNL     1     -12.260  -0.170  13.287  1.00  0.00    -0.550 OA
ENDBRANCH   7   8
ENDBRANCH   6   7
ENDBRANCH   5   6
ENDBRANCH   4   5
ENDBRANCH   3   4
ENDBRANCH   2   3
ENDBRANCH   1   2
BRANCH   1  11
ATOM     11  C   UNL     1     -11.318   1.945  19.596  1.00  0.00     0.000 C 
BRANCH  11  12
ATOM     12  C   UNL     1     -10.068   2.467  20.329  1.00  0.00    -0.000 C 
BRANCH  12  13
ATOM     13  C   UNL     1      -8.850   2.738  19.426  1.00  0.00    -0.000 C 
BRANCH  13  14
ATOM     14  C   UNL     1      -8.612   4.239  19.181  1.00  0.00    -0.000 C 
BRANCH  14  15
ATOM     15  C   UNL     1      -7.185   4.543  18.689  1.00  0.00    -0.000 C 
BRANCH  15  16
ATOM     16  C   UNL     1      -6.236   5.102  19.764  1.00  0.00    -0.000 C 
BRANCH  16  17
ATOM     17  C   UNL     1      -4.754   4.841  19.451  1.00  0.00    -0.003 C 
ATOM     18  C   UNL     1      -4.602   3.928  18.238  1.00  0.00     0.004 C 
ENDBRANCH  16  17
ENDBRANCH  15  16
ENDBRANCH  14  15
ENDBRANCH  13  14
ENDBRANCH  12  13
ENDBRANCH  11  12
ENDBRANCH   1  11
TORSDOF 14
ENDMDL
MODEL 2
REMARK VINA RESULT:    -4.175      3.264      5.919
REMARK INTER + INTRA:          -9.408
REMARK INTER:                  -7.412
REMARK INTRA:                  -1.995
REMARK UNBOUND:                -1.816
REMARK SMILES CCCCCCCCCCCCCCCC(=O)[O-]
REMARK SMILES IDX 9 1 10 2 11 3 12 4 13 5 14 6 15 7 16 8 17 9 18 10 8 11 7 12
REMARK SMILES IDX 6 13 5 14 4 15 3 16 2 17 1 18
REMARK H PARENT
REMARK Flexibility Score: inf
ROOT
ATOM      1  C   UNL     1     -10.384   5.319  18.955  1.00  0.00     0.000 C 
ENDROOT
BRANCH   1   2
ATOM      2  C   UNL     1     -10.184   4.112  19.886  1.00  0.00     0.000 C 
BRANCH   2   3
ATOM      3  C   UNL     1      -9.192   3.080  19.317  1.00  0.00     0.000 C 
BRANCH   3   4
ATOM      4  C   UNL     1      -9.793   1.659  19.268  1.00  0.00     0.000 C 
BRANCH   4   5
ATOM      5  C   UNL     1     -11.144   1.532  19.999  1.00  0.00     0.000 C 
BRANCH   5   6
ATOM      6  C   UNL     1     -11.190   0.450  21.092  1.00  0.00     0.006 C 
BRANCH   6   7
ATOM      7  C   UNL     1      -9.934   0.443  21.973  1.00  0.00     0.053 C 
BRANCH   7   8
ATOM      8  C   UNL     1      -9.141  -0.802  21.735  1.00  0.00     0.041 C 
ATOM      9  O   UNL     1      -8.217  -1.127  22.525  1.00  0.00    -0.550 OA
ATOM     10  O   UNL     1      -9.454  -1.631  20.665  1.00  0.00    -0.550 OA
ENDBRANCH   7   8
ENDBRANCH   6   7
ENDBRANCH   5   6
ENDBRANCH   4   5
ENDBRANCH   3   4
ENDBRANCH   2   3
ENDBRANCH   1   2
BRANCH   1  11
ATOM     11  C   UNL     1     -11.847   5.475  18.503  1.00  0.00     0.000 C 
BRANCH  11  12
ATOM     12  C   UNL     1     -12.123   4.828  17.133  1.00  0.00    -0.000 C 
BRANCH  12  13
ATOM     13  C   UNL     1     -12.866   3.480  17.189  1.00  0.00    -0.000 C 
BRANCH  13  14
ATOM     14  C   UNL     1     -12.156   2.374  16.387  1.00  0.00    -0.000 C 
BRANCH  14  15
ATOM     15  C   UNL     1     -10.773   2.808  15.869  1.00  0.00    -0.000 C 
BRANCH  15  16
ATOM     16  C   UNL     1      -9.832   1.649  15.491  1.00  0.00    -0.000 C 
BRANCH  16  17
ATOM     17  C   UNL     1     -10.145   1.048  14.112  1.00  0.00    -0.003 C 
ATOM     18  C   UNL     1      -9.475  -0.313  13.942  1.00  0.00     0.004 C 
ENDBRANCH  16  17
ENDBRANCH  15  16
ENDBRANCH  14  15
ENDBRANCH  13  14
ENDBRANCH  12  13
ENDBRANCH  11  12
ENDBRANCH   1  11
TORSDOF 14
ENDMDL
MODEL 3
REMARK VINA RESULT:    -4.134      1.569      2.368
REMARK INTER + INTRA:          -9.334
REMARK INTER:                  -6.948
REMARK INTRA:                  -2.386
REMARK UNBOUND:                -1.816
REMARK SMILES CCCCCCCCCCCCCCCC(=O)[O-]
REMARK SMILES IDX 9 1 10 2 11 3 12 4 13 5 14 6 15 7 16 8 17 9 18 10 8 11 7 12
REMARK SMILES IDX 6 13 5 14 4 15 3 16 2 17 1 18
REMARK H PARENT
REMARK Flexibility Score: inf
ROOT
ATOM      1  C   UNL     1     -12.054   5.133  20.139  1.00  0.00     0.000 C 
ENDROOT
BRANCH   1   2
ATOM      2  C   UNL     1     -12.561   4.744  18.741  1.00  0.00     0.000 C 
BRANCH   2   3
ATOM      3  C   UNL     1     -11.713   5.356  17.610  1.00  0.00     0.000 C 
BRANCH   3   4
ATOM      4  C   UNL     1     -11.423   4.340  16.485  1.00  0.00     0.000 C 
BRANCH   4   5
ATOM      5  C   UNL     1     -12.296   3.072  16.553  1.00  0.00     0.000 C 
BRANCH   5   6
ATOM      6  C   UNL     1     -11.630   1.796  16.012  1.00  0.00     0.006 C 
BRANCH   6   7
ATOM      7  C   UNL     1     -12.623   0.858  15.314  1.00  0.00     0.053 C 
BRANCH   7   8
ATOM      8  C   UNL     1     -11.964   0.169  14.162  1.00  0.00     0.041 C 
ATOM      9  O   UNL     1     -10.758   0.405  13.887  1.00  0.00    -0.550 OA
ATOM     10  O   UNL     1     -12.668  -0.771  13.420  1.00  0.00    -0.550 OA
ENDBRANCH   7   8
ENDBRANCH   6   7
ENDBRANCH   5   6
ENDBRANCH   4   5
ENDBRANCH   3   4
ENDBRANCH   2   3
ENDBRANCH   1   2
BRANCH   1  11
ATOM     11  C   UNL     1     -11.504   3.926  20.921  1.00  0.00     0.000 C 
BRANCH  11  12
ATOM     12  C   UNL     1     -12.206   2.605  20.554  1.00  0.00    -0.000 C 
BRANCH  12  13
ATOM     13  C   UNL     1     -11.334   1.599  19.780  1.00  0.00    -0.000 C 
BRANCH  13  14
ATOM     14  C   UNL     1      -9.828   1.882  19.922  1.00  0.00    -0.000 C 
BRANCH  14  15
ATOM     15  C   UNL     1      -9.139   2.138  18.570  1.00  0.00    -0.000 C 
BRANCH  15  16
ATOM     16  C   UNL     1      -7.991   3.164  18.614  1.00  0.00    -0.000 C 
BRANCH  16  17
ATOM     17  C   UNL     1      -8.428   4.530  19.165  1.00  0.00    -0.003 C 
ATOM     18  C   UNL     1      -7.666   4.876  20.440  1.00  0.00     0.004 C 
ENDBRANCH  16  17
ENDBRANCH  15  16
ENDBRANCH  14  15
ENDBRANCH  13  14
ENDBRANCH  12  13
ENDBRANCH  11  12
ENDBRANCH   1  11
TORSDOF 14
ENDMDL
MODEL 4
REMARK VINA RESULT:    -4.124      2.013      4.323
REMARK INTER + INTRA:          -9.316
REMARK INTER:                  -7.158
REMARK INTRA:                  -2.158
REMARK UNBOUND:                -1.816
REMARK SMILES CCCCCCCCCCCCCCCC(=O)[O-]
REMARK SMILES IDX 9 1 10 2 11 3 12 4 13 5 14 6 15 7 16 8 17 9 18 10 8 11 7 12
REMARK SMILES IDX 6 13 5 14 4 15 3 16 2 17 1 18
REMARK H PARENT
REMARK Flexibility Score: inf
ROOT
ATOM      1  C   UNL     1      -9.104   4.315  17.687  1.00  0.00     0.000 C 
ENDROOT
BRANCH   1   2
ATOM      2  C   UNL     1     -10.081   5.474  17.936  1.00  0.00     0.000 C 
BRANCH   2   3
ATOM      3  C   UNL     1     -11.490   5.195  17.380  1.00  0.00     0.000 C 
BRANCH   3   4
ATOM      4  C   UNL     1     -11.490   4.054  16.340  1.00  0.00     0.000 C 
BRANCH   4   5
ATOM      5  C   UNL     1     -12.427   2.885  16.701  1.00  0.00     0.000 C 
BRANCH   5   6
ATOM      6  C   UNL     1     -12.178   1.588  15.913  1.00  0.00     0.006 C 
BRANCH   6   7
ATOM      7  C   UNL     1     -10.704   1.396  15.536  1.00  0.00     0.053 C 
BRANCH   7   8
ATOM      8  C   UNL     1     -10.590   0.593  14.279  1.00  0.00     0.041 C 
ATOM      9  O   UNL     1     -11.625   0.191  13.687  1.00  0.00    -0.550 OA
ATOM     10  O   UNL     1      -9.339   0.328  13.736  1.00  0.00    -0.550 OA
ENDBRANCH   7   8
ENDBRANCH   6   7
ENDBRANCH   5   6
ENDBRANCH   4   5
ENDBRANCH   3   4
ENDBRANCH   2   3
ENDBRANCH   1   2
BRANCH   1  11
ATOM     11  C   UNL     1      -8.904   3.437  18.936  1.00  0.00     0.000 C 
BRANCH  11  12
ATOM     12  C   UNL     1      -9.100   1.936  18.651  1.00  0.00    -0.000 C 
BRANCH  12  13
ATOM     13  C   UNL     1      -9.741   1.135  19.799  1.00  0.00    -0.000 C 
BRANCH  13  14
ATOM     14  C   UNL     1     -10.498   2.027  20.799  1.00  0.00    -0.000 C 
BRANCH  14  15
ATOM     15  C   UNL     1     -11.998   2.150  20.474  1.00  0.00    -0.000 C 
BRANCH  15  16
ATOM     16  C   UNL     1     -12.673   3.424  21.013  1.00  0.00    -0.000 C 
BRANCH  16  17
ATOM     17  C   UNL     1     -13.652   4.054  20.010  1.00  0.00    -0.003 C 
ATOM     18  C   UNL     1     -14.064   5.456  20.451  1.00  0.00     0.004 C 
ENDBRANCH  16  17
ENDBRANCH  15  16
ENDBRANCH  14  15
ENDBRANCH  13  14
ENDBRANCH  12  13
ENDBRANCH  11  12
ENDBRANCH   1  11
TORSDOF 14
ENDMDL
MODEL 5
REMARK VINA RESULT:    -4.124      2.428      3.808
REMARK INTER + INTRA:          -9.315
REMARK INTER:                  -7.542
REMARK INTRA:                  -1.773
REMARK UNBOUND:                -1.816
REMARK SMILES CCCCCCCCCCCCCCCC(=O)[O-]
REMARK SMILES IDX 9 1 10 2 11 3 12 4 13 5 14 6 15 7 16 8 17 9 18 10 8 11 7 12
REMARK SMILES IDX 6 13 5 14 4 15 3 16 2 17 1 18
REMARK H PARENT
REMARK Flexibility Score: inf
ROOT
ATOM      1  C   UNL     1     -10.813   4.491  20.044  1.00  0.00     0.000 C 
ENDROOT
BRANCH   1   2
ATOM      2  C   UNL     1     -11.837   4.122  18.959  1.00  0.00     0.000 C 
BRANCH   2   3
ATOM      3  C   UNL     1     -11.654   4.941  17.667  1.00  0.00     0.000 C 
BRANCH   3   4
ATOM      4  C   UNL     1     -11.532   4.041  16.419  1.00  0.00     0.000 C 
BRANCH   4   5
ATOM      5  C   UNL     1     -12.517   2.855  16.410  1.00  0.00     0.000 C 
BRANCH   5   6
ATOM      6  C   UNL     1     -11.869   1.475  16.216  1.00  0.00     0.006 C 
BRANCH   6   7
ATOM      7  C   UNL     1     -10.486   1.556  15.557  1.00  0.00     0.053 C 
BRANCH   7   8
ATOM      8  C   UNL     1     -10.446   0.703  14.329  1.00  0.00     0.041 C 
ATOM      9  O   UNL     1      -9.343   0.360  13.830  1.00  0.00    -0.550 OA
ATOM     10  O   UNL     1     -11.630   0.247  13.762  1.00  0.00    -0.550 OA
ENDBRANCH   7   8
ENDBRANCH   6   7
ENDBRANCH   5   6
ENDBRANCH   4   5
ENDBRANCH   3   4
ENDBRANCH   2   3
ENDBRANCH   1   2
BRANCH   1  11
ATOM     11  C   UNL     1      -9.826   3.345  20.333  1.00  0.00     0.000 C 
BRANCH  11  12
ATOM     12  C   UNL     1     -10.248   2.013  19.686  1.00  0.00    -0.000 C 
BRANCH  12  13
ATOM     13  C   UNL     1      -9.121   1.260  18.953  1.00  0.00    -0.000 C 
BRANCH  13  14
ATOM     14  C   UNL     1      -8.898  -0.160  19.502  1.00  0.00    -0.000 C 
BRANCH  14  15
ATOM     15  C   UNL     1      -9.585  -0.389  20.861  1.00  0.00    -0.000 C 
BRANCH  15  16
ATOM     16  C   UNL     1      -8.651  -0.883  21.981  1.00  0.00    -0.000 C 
BRANCH  16  17
ATOM     17  C   UNL     1      -9.062  -0.376  23.372  1.00  0.00    -0.003 C 
ATOM     18  C   UNL     1      -9.203   1.144  23.382  1.00  0.00     0.004 C 
ENDBRANCH  16  17
ENDBRANCH  15  16
ENDBRANCH  14  15
ENDBRANCH  13  14
ENDBRANCH  12  13
ENDBRANCH  11  12
ENDBRANCH   1  11
TORSDOF 14
ENDMDL
MODEL 6
REMARK VINA RESULT:    -4.115      2.313      4.230
REMARK INTER + INTRA:          -9.299
REMARK INTER:                  -7.646
REMARK INTRA:                  -1.654
REMARK UNBOUND:                -1.816
REMARK SMILES CCCCCCCCCCCCCCCC(=O)[O-]
REMARK SMILES IDX 9 1 10 2 11 3 12 4 13 5 14 6 15 7 16 8 17 9 18 10 8 11 7 12
REMARK SMILES IDX 6 13 5 14 4 15 3 16 2 17 1 18
REMARK H PARENT
REMARK Flexibility Score: inf
ROOT
ATOM      1  C   UNL     1      -9.004   2.206  19.128  1.00  0.00     0.000 C 
ENDROOT
BRANCH   1   2
ATOM      2  C   UNL     1      -9.971   3.356  18.804  1.00  0.00     0.000 C 
BRANCH   2   3
ATOM      3  C   UNL     1     -11.159   2.905  17.933  1.00  0.00     0.000 C 
BRANCH   3   4
ATOM      4  C   UNL     1     -10.994   3.327  16.458  1.00  0.00     0.000 C 
BRANCH   4   5
ATOM      5  C   UNL     1      -9.836   2.612  15.734  1.00  0.00     0.000 C 
BRANCH   5   6
ATOM      6  C   UNL     1     -10.017   1.095  15.562  1.00  0.00     0.006 C 
BRANCH   6   7
ATOM      7  C   UNL     1     -10.602   0.718  14.195  1.00  0.00     0.053 C 
BRANCH   7   8
ATOM      8  C   UNL     1     -11.997   0.203  14.352  1.00  0.00     0.041 C 
ATOM      9  O   UNL     1     -12.721   0.611  15.296  1.00  0.00    -0.550 OA
ATOM     10  O   UNL     1     -12.514  -0.692  13.424  1.00  0.00    -0.550 OA
ENDBRANCH   7   8
ENDBRANCH   6   7
ENDBRANCH   5   6
ENDBRANCH   4   5
ENDBRANCH   3   4
ENDBRANCH   2   3
ENDBRANCH   1   2
BRANCH   1  11
ATOM     11  C   UNL     1      -9.727   0.855  19.279  1.00  0.00     0.000 C 
BRANCH  11  12
ATOM     12  C   UNL     1      -8.775  -0.295  19.655  1.00  0.00    -0.000 C 
BRANCH  12  13
ATOM     13  C   UNL     1      -9.272  -1.203  20.797  1.00  0.00    -0.000 C 
BRANCH  13  14
ATOM     14  C   UNL     1      -8.539  -0.945  22.125  1.00  0.00    -0.000 C 
BRANCH  14  15
ATOM     15  C   UNL     1      -9.424  -0.237  23.167  1.00  0.00    -0.000 C 
BRANCH  15  16
ATOM     16  C   UNL     1      -9.705   1.248  22.874  1.00  0.00    -0.000 C 
BRANCH  16  17
ATOM     17  C   UNL     1     -11.192   1.614  22.998  1.00  0.00    -0.003 C 
ATOM     18  C   UNL     1     -12.061   0.666  22.178  1.00  0.00     0.004 C 
ENDBRANCH  16  17
ENDBRANCH  15  16
ENDBRANCH  14  15
ENDBRANCH  13  14
ENDBRANCH  12  13
ENDBRANCH  11  12
ENDBRANCH   1  11
TORSDOF 14
ENDMDL
MODEL 7
REMARK VINA RESULT:    -4.083      2.082      3.870
REMARK INTER + INTRA:          -9.242
REMARK INTER:                  -7.114
REMARK INTRA:                  -2.127
REMARK UNBOUND:                -1.816
REMARK SMILES CCCCCCCCCCCCCCCC(=O)[O-]
REMARK SMILES IDX 9 1 10 2 11 3 12 4 13 5 14 6 15 7 16 8 17 9 18 10 8 11 7 12
REMARK SMILES IDX 6 13 5 14 4 15 3 16 2 17 1 18
REMARK H PARENT
REMARK Flexibility Score: inf
ROOT
ATOM      1  C   UNL     1      -9.149   4.143  18.062  1.00  0.00     0.000 C 
ENDROOT
BRANCH   1   2
ATOM      2  C   UNL     1     -10.343   5.095  18.236  1.00  0.00     0.000 C 
BRANCH   2   3
ATOM      3  C   UNL     1     -11.386   4.952  17.112  1.00  0.00     0.000 C 
BRANCH   3   4
ATOM      4  C   UNL     1     -12.437   3.866  17.426  1.00  0.00     0.000 C 
BRANCH   4   5
ATOM      5  C   UNL     1     -12.490   2.733  16.384  1.00  0.00     0.000 C 
BRANCH   5   6
ATOM      6  C   UNL     1     -11.350   1.706  16.485  1.00  0.00     0.006 C 
BRANCH   6   7
ATOM      7  C   UNL     1     -10.330   1.837  15.346  1.00  0.00     0.053 C 
BRANCH   7   8
ATOM      8  C   UNL     1     -10.461   0.687  14.398  1.00  0.00     0.041 C 
ATOM      9  O   UNL     1      -9.436   0.089  13.981  1.00  0.00    -0.550 OA
ATOM     10  O   UNL     1     -11.721   0.245  14.013  1.00  0.00    -0.550 OA
ENDBRANCH   7   8
ENDBRANCH   6   7
ENDBRANCH   5   6
ENDBRANCH   4   5
ENDBRANCH   3   4
ENDBRANCH   2   3
ENDBRANCH   1   2
BRANCH   1  11
ATOM     11  C   UNL     1      -9.091   3.068  19.162  1.00  0.00     0.000 C 
BRANCH  11  12
ATOM     12  C   UNL     1      -9.454   3.616  20.555  1.00  0.00    -0.000 C 
BRANCH  12  13
ATOM     13  C   UNL     1     -10.616   2.887  21.257  1.00  0.00    -0.000 C 
BRANCH  13  14
ATOM     14  C   UNL     1     -11.346   1.898  20.332  1.00  0.00    -0.000 C 
BRANCH  14  15
ATOM     15  C   UNL     1     -11.284   0.447  20.842  1.00  0.00    -0.000 C 
BRANCH  15  16
ATOM     16  C   UNL     1     -10.511   0.257  22.160  1.00  0.00    -0.000 C 
BRANCH  16  17
ATOM     17  C   UNL     1      -9.197  -0.518  21.978  1.00  0.00    -0.003 C 
ATOM     18  C   UNL     1      -9.009  -0.947  20.526  1.00  0.00     0.004 C 
ENDBRANCH  16  17
ENDBRANCH  15  16
ENDBRANCH  14  15
ENDBRANCH  13  14
ENDBRANCH  12  13
ENDBRANCH  11  12
ENDBRANCH   1  11
TORSDOF 14
ENDMDL
MODEL 8
REMARK VINA RESULT:    -4.074      3.189      5.956
REMARK INTER + INTRA:          -9.225
REMARK INTER:                  -6.673
REMARK INTRA:                  -2.552
REMARK UNBOUND:                -1.816
REMARK SMILES CCCCCCCCCCCCCCCC(=O)[O-]
REMARK SMILES IDX 9 1 10 2 11 3 12 4 13 5 14 6 15 7 16 8 17 9 18 10 8 11 7 12
REMARK SMILES IDX 6 13 5 14 4 15 3 16 2 17 1 18
REMARK H PARENT
REMARK Flexibility Score: inf
ROOT
ATOM      1  C   UNL     1      -9.002   4.553  17.918  1.00  0.00     0.000 C 
ENDROOT
BRANCH   1   2
ATOM      2  C   UNL     1      -8.553   3.139  18.320  1.00  0.00     0.000 C 
BRANCH   2   3
ATOM      3  C   UNL     1      -9.231   2.645  19.612  1.00  0.00     0.000 C 
BRANCH   3   4
ATOM      4  C   UNL     1     -10.063   1.366  19.381  1.00  0.00     0.000 C 
BRANCH   4   5
ATOM      5  C   UNL     1     -11.382   1.331  20.177  1.00  0.00     0.000 C 
BRANCH   5   6
ATOM      6  C   UNL     1     -11.682   2.601  20.990  1.00  0.00     0.006 C 
BRANCH   6   7
ATOM      7  C   UNL     1     -13.185   2.856  21.159  1.00  0.00     0.053 C 
BRANCH   7   8
ATOM      8  C   UNL     1     -13.468   4.324  21.133  1.00  0.00     0.041 C 
ATOM      9  O   UNL     1     -13.266   5.028  22.157  1.00  0.00    -0.550 OA
ATOM     10  O   UNL     1     -13.912   4.924  19.962  1.00  0.00    -0.550 OA
ENDBRANCH   7   8
ENDBRANCH   6   7
ENDBRANCH   5   6
ENDBRANCH   4   5
ENDBRANCH   3   4
ENDBRANCH   2   3
ENDBRANCH   1   2
BRANCH   1  11
ATOM     11  C   UNL     1     -10.414   4.889  18.431  1.00  0.00     0.000 C 
BRANCH  11  12
ATOM     12  C   UNL     1     -11.290   5.576  17.368  1.00  0.00    -0.000 C 
BRANCH  12  13
ATOM     13  C   UNL     1     -12.162   4.622  16.529  1.00  0.00    -0.000 C 
BRANCH  13  14
ATOM     14  C   UNL     1     -12.513   3.323  17.276  1.00  0.00    -0.000 C 
BRANCH  14  15
ATOM     15  C   UNL     1     -12.162   2.059  16.471  1.00  0.00    -0.000 C 
BRANCH  15  16
ATOM     16  C   UNL     1     -10.965   2.213  15.515  1.00  0.00    -0.000 C 
BRANCH  16  17
ATOM     17  C   UNL     1      -9.961   1.054  15.618  1.00  0.00    -0.003 C 
ATOM     18  C   UNL     1      -9.593   0.522  14.236  1.00  0.00     0.004 C 
ENDBRANCH  16  17
ENDBRANCH  15  16
ENDBRANCH  14  15
ENDBRANCH  13  14
ENDBRANCH  12  13
ENDBRANCH  11  12
ENDBRANCH   1  11
TORSDOF 14
ENDMDL
MODEL 9
REMARK VINA RESULT:    -3.991      3.703      6.539
REMARK INTER + INTRA:          -9.074
REMARK INTER:                  -7.447
REMARK INTRA:                  -1.627
REMARK UNBOUND:                -1.816
REMARK SMILES CCCCCCCCCCCCCCCC(=O)[O-]
REMARK SMILES IDX 9 1 10 2 11 3 12 4 13 5 14 6 15 7 16 8 17 9 18 10 8 11 7 12
REMARK SMILES IDX 6 13 5 14 4 15 3 16 2 17 1 18
REMARK H PARENT
REMARK Flexibility Score: inf
ROOT
ATOM      1  C   UNL     1     -10.128   2.781  20.116  1.00  0.00     0.000 C 
ENDROOT
BRANCH   1   2
ATOM      2  C   UNL     1      -9.160   2.090  19.142  1.00  0.00     0.000 C 
BRANCH   2   3
ATOM      3  C   UNL     1      -8.401   3.090  18.249  1.00  0.00     0.000 C 
BRANCH   3   4
ATOM      4  C   UNL     1      -8.330   4.497  18.880  1.00  0.00     0.000 C 
BRANCH   4   5
ATOM      5  C   UNL     1      -7.054   4.743  19.709  1.00  0.00     0.000 C 
BRANCH   5   6
ATOM      6  C   UNL     1      -5.740   4.375  19.001  1.00  0.00     0.006 C 
BRANCH   6   7
ATOM      7  C   UNL     1      -4.655   5.446  19.171  1.00  0.00     0.053 C 
BRANCH   7   8
ATOM      8  C   UNL     1      -4.481   6.215  17.901  1.00  0.00     0.041 C 
ATOM      9  O   UNL     1      -3.591   5.885  17.075  1.00  0.00    -0.550 OA
ATOM     10  O   UNL     1      -5.335   7.271  17.606  1.00  0.00    -0.550 OA
ENDBRANCH   7   8
ENDBRANCH   6   7
ENDBRANCH   5   6
ENDBRANCH   4   5
ENDBRANCH   3   4
ENDBRANCH   2   3
ENDBRANCH   1   2
BRANCH   1  11
ATOM     11  C   UNL     1     -11.601   2.466  19.800  1.00  0.00     0.000 C 
BRANCH  11  12
ATOM     12  C   UNL     1     -12.377   3.691  19.282  1.00  0.00    -0.000 C 
BRANCH  12  13
ATOM     13  C   UNL     1     -12.071   4.086  17.825  1.00  0.00    -0.000 C 
BRANCH  13  14
ATOM     14  C   UNL     1     -12.863   3.252  16.802  1.00  0.00    -0.000 C 
BRANCH  14  15
ATOM     15  C   UNL     1     -12.114   1.983  16.358  1.00  0.00    -0.000 C 
BRANCH  15  16
ATOM     16  C   UNL     1     -10.800   2.242  15.598  1.00  0.00    -0.000 C 
BRANCH  16  17
ATOM     17  C   UNL     1      -9.876   1.014  15.561  1.00  0.00    -0.003 C 
ATOM     18  C   UNL     1      -9.550   0.615  14.125  1.00  0.00     0.004 C 
ENDBRANCH  16  17
ENDBRANCH  15  16
ENDBRANCH  14  15
ENDBRANCH  13  14
ENDBRANCH  12  13
ENDBRANCH  11  12
ENDBRANCH   1  11
TORSDOF 14
ENDMDL
