MODEL 1
REMARK VINA RESULT:    -4.678      0.000      0.000
REMARK INTER + INTRA:         -13.455
REMARK INTER:                 -10.147
REMARK INTRA:                  -3.308
REMARK UNBOUND:                -3.308
REMARK SMILES CCCCCCCCCCCCCCCCCCCCCC(=O)[O-]
REMARK SMILES IDX 12 1 11 2 10 3 9 4 8 5 7 6 6 7 5 8 4 9 3 10 2 11 1 12 13 13
REMARK SMILES IDX 14 14 15 15 16 16 17 17 18 18 19 19 20 20 21 21 22 22 23 23
REMARK SMILES IDX 24 24
REMARK H PARENT
REMARK Flexibility Score: inf
ROOT
ATOM      1  C   UNL     1      61.072  28.293   9.260  1.00  0.00     0.000 C 
ENDROOT
BRANCH   1   2
ATOM      2  C   UNL     1      62.096  29.389   8.922  1.00  0.00     0.000 C 
BRANCH   2   3
ATOM      3  C   UNL     1      63.548  28.957   9.197  1.00  0.00     0.000 C 
BRANCH   3   4
ATOM      4  C   UNL     1      64.571  30.106   9.312  1.00  0.00    -0.000 C 
BRANCH   4   5
ATOM      5  C   UNL     1      64.393  31.028  10.532  1.00  0.00    -0.000 C 
BRANCH   5   6
ATOM      6  C   UNL     1      65.256  32.299  10.449  1.00  0.00    -0.000 C 
BRANCH   6   7
ATOM      7  C   UNL     1      64.939  33.312  11.565  1.00  0.00    -0.000 C 
BRANCH   7   8
ATOM      8  C   UNL     1      66.007  34.402  11.784  1.00  0.00    -0.000 C 
BRANCH   8   9
ATOM      9  C   UNL     1      66.566  34.496  13.217  1.00  0.00    -0.000 C 
BRANCH   9  10
ATOM     10  C   UNL     1      65.500  34.511  14.327  1.00  0.00    -0.000 C 
BRANCH  10  11
ATOM     11  C   UNL     1      65.823  33.544  15.475  1.00  0.00    -0.003 C 
ATOM     12  C   UNL     1      66.236  32.176  14.941  1.00  0.00     0.004 C 
ENDBRANCH  10  11
ENDBRANCH   9  10
ENDBRANCH   8   9
ENDBRANCH   7   8
ENDBRANCH   6   7
ENDBRANCH   5   6
ENDBRANCH   4   5
ENDBRANCH   3   4
ENDBRANCH   2   3
ENDBRANCH   1   2
BRANCH   1  13
ATOM     13  C   UNL     1      59.754  28.854   9.827  1.00  0.00     0.000 C 
BRANCH  13  14
ATOM     14  C   UNL     1      59.871  29.559  11.191  1.00  0.00     0.000 C 
BRANCH  14  15
ATOM     15  C   UNL     1      59.633  28.611  12.380  1.00  0.00     0.000 C 
BRANCH  15  16
ATOM     16  C   UNL     1      60.764  28.673  13.419  1.00  0.00     0.000 C 
BRANCH  16  17
ATOM     17  C   UNL     1      62.152  28.447  12.800  1.00  0.00     0.000 C 
BRANCH  17  18
ATOM     18  C   UNL     1      63.179  29.426  13.388  1.00  0.00     0.000 C 
BRANCH  18  19
ATOM     19  C   UNL     1      62.570  30.366  14.440  1.00  0.00     0.000 C 
BRANCH  19  20
ATOM     20  C   UNL     1      62.734  31.850  14.077  1.00  0.00     0.006 C 
BRANCH  20  21
ATOM     21  C   UNL     1      61.677  32.286  13.058  1.00  0.00     0.053 C 
BRANCH  21  22
ATOM     22  C   UNL     1      60.430  32.731  13.754  1.00  0.00     0.041 C 
ATOM     23  O   UNL     1      60.389  33.852  14.327  1.00  0.00    -0.550 OA
ATOM     24  O   UNL     1      59.325  31.888  13.810  1.00  0.00    -0.550 OA
ENDBRANCH  21  22
ENDBRANCH  20  21
ENDBRANCH  19  20
ENDBRANCH  18  19
ENDBRANCH  17  18
ENDBRANCH  16  17
ENDBRANCH  15  16
ENDBRANCH  14  15
ENDBRANCH  13  14
ENDBRANCH   1  13
TORSDOF 20
ENDMDL
MODEL 2
REMARK VINA RESULT:    -4.566      2.110      5.202
REMARK INTER + INTRA:         -13.213
REMARK INTER:                 -10.197
REMARK INTRA:                  -3.015
REMARK UNBOUND:                -3.308
REMARK SMILES CCCCCCCCCCCCCCCCCCCCCC(=O)[O-]
REMARK SMILES IDX 12 1 11 2 10 3 9 4 8 5 7 6 6 7 5 8 4 9 3 10 2 11 1 12 13 13
REMARK SMILES IDX 14 14 15 15 16 16 17 17 18 18 19 19 20 20 21 21 22 22 23 23
REMARK SMILES IDX 24 24
REMARK H PARENT
REMARK Flexibility Score: inf
ROOT
ATOM      1  C   UNL     1      62.103  28.446   9.319  1.00  0.00     0.000 C 
ENDROOT
BRANCH   1   2
ATOM      2  C   UNL     1      60.977  29.411   8.912  1.00  0.00     0.000 C 
BRANCH   2   3
ATOM      3  C   UNL     1      59.662  29.151   9.669  1.00  0.00     0.000 C 
BRANCH   3   4
ATOM      4  C   UNL     1      59.665  29.551  11.159  1.00  0.00    -0.000 C 
BRANCH   4   5
ATOM      5  C   UNL     1      59.602  28.380  12.157  1.00  0.00    -0.000 C 
BRANCH   5   6
ATOM      6  C   UNL     1      60.855  28.285  13.044  1.00  0.00    -0.000 C 
BRANCH   6   7
ATOM      7  C   UNL     1      61.648  29.604  13.105  1.00  0.00    -0.000 C 
BRANCH   7   8
ATOM      8  C   UNL     1      61.839  30.190  14.518  1.00  0.00    -0.000 C 
BRANCH   8   9
ATOM      9  C   UNL     1      60.808  31.257  14.931  1.00  0.00    -0.000 C 
BRANCH   9  10
ATOM     10  C   UNL     1      60.347  32.187  13.795  1.00  0.00    -0.000 C 
BRANCH  10  11
ATOM     11  C   UNL     1      60.662  33.665  14.069  1.00  0.00    -0.003 C 
ATOM     12  C   UNL     1      60.885  33.911  15.559  1.00  0.00     0.004 C 
ENDBRANCH  10  11
ENDBRANCH   9  10
ENDBRANCH   8   9
ENDBRANCH   7   8
ENDBRANCH   6   7
ENDBRANCH   5   6
ENDBRANCH   4   5
ENDBRANCH   3   4
ENDBRANCH   2   3
ENDBRANCH   1   2
BRANCH   1  13
ATOM     13  C   UNL     1      63.464  29.147   9.489  1.00  0.00     0.000 C 
BRANCH  13  14
ATOM     14  C   UNL     1      63.438  30.452  10.304  1.00  0.00     0.000 C 
BRANCH  14  15
ATOM     15  C   UNL     1      64.517  31.458   9.863  1.00  0.00     0.000 C 
BRANCH  15  16
ATOM     16  C   UNL     1      64.960  32.385  11.007  1.00  0.00     0.000 C 
BRANCH  16  17
ATOM     17  C   UNL     1      63.953  32.422  12.167  1.00  0.00     0.000 C 
BRANCH  17  18
ATOM     18  C   UNL     1      64.678  32.491  13.518  1.00  0.00     0.000 C 
BRANCH  18  19
ATOM     19  C   UNL     1      64.279  33.725  14.344  1.00  0.00     0.000 C 
BRANCH  19  20
ATOM     20  C   UNL     1      65.211  33.963  15.542  1.00  0.00     0.006 C 
BRANCH  20  21
ATOM     21  C   UNL     1      65.160  35.426  15.994  1.00  0.00     0.053 C 
BRANCH  21  22
ATOM     22  C   UNL     1      64.660  35.523  17.401  1.00  0.00     0.041 C 
ATOM     23  O   UNL     1      65.473  35.603  18.359  1.00  0.00    -0.550 OA
ATOM     24  O   UNL     1      63.294  35.479  17.658  1.00  0.00    -0.550 OA
ENDBRANCH  21  22
ENDBRANCH  20  21
ENDBRANCH  19  20
ENDBRANCH  18  19
ENDBRANCH  17  18
ENDBRANCH  16  17
ENDBRANCH  15  16
ENDBRANCH  14  15
ENDBRANCH  13  14
ENDBRANCH   1  13
TORSDOF 20
ENDMDL
MODEL 3
REMARK VINA RESULT:    -4.503      1.323      4.780
REMARK INTER + INTRA:         -13.076
REMARK INTER:                  -9.656
REMARK INTRA:                  -3.420
REMARK UNBOUND:                -3.308
REMARK SMILES CCCCCCCCCCCCCCCCCCCCCC(=O)[O-]
REMARK SMILES IDX 12 1 11 2 10 3 9 4 8 5 7 6 6 7 5 8 4 9 3 10 2 11 1 12 13 13
REMARK SMILES IDX 14 14 15 15 16 16 17 17 18 18 19 19 20 20 21 21 22 22 23 23
REMARK SMILES IDX 24 24
REMARK H PARENT
REMARK Flexibility Score: inf
ROOT
ATOM      1  C   UNL     1      64.078  29.555  10.013  1.00  0.00     0.000 C 
ENDROOT
BRANCH   1   2
ATOM      2  C   UNL     1      63.513  28.574   8.972  1.00  0.00     0.000 C 
BRANCH   2   3
ATOM      3  C   UNL     1      61.977  28.624   8.875  1.00  0.00     0.000 C 
BRANCH   3   4
ATOM      4  C   UNL     1      61.315  29.877   9.484  1.00  0.00    -0.000 C 
BRANCH   4   5
ATOM      5  C   UNL     1      59.831  29.722   9.862  1.00  0.00    -0.000 C 
BRANCH   5   6
ATOM      6  C   UNL     1      59.606  29.665  11.383  1.00  0.00    -0.000 C 
BRANCH   6   7
ATOM      7  C   UNL     1      60.008  28.313  11.998  1.00  0.00    -0.000 C 
BRANCH   7   8
ATOM      8  C   UNL     1      60.784  28.400  13.328  1.00  0.00    -0.000 C 
BRANCH   8   9
ATOM      9  C   UNL     1      62.312  28.539  13.190  1.00  0.00    -0.000 C 
BRANCH   9  10
ATOM     10  C   UNL     1      62.851  29.969  13.368  1.00  0.00    -0.000 C 
BRANCH  10  11
ATOM     11  C   UNL     1      63.791  30.105  14.575  1.00  0.00    -0.003 C 
ATOM     12  C   UNL     1      65.203  29.645  14.226  1.00  0.00     0.004 C 
ENDBRANCH  10  11
ENDBRANCH   9  10
ENDBRANCH   8   9
ENDBRANCH   7   8
ENDBRANCH   6   7
ENDBRANCH   5   6
ENDBRANCH   4   5
ENDBRANCH   3   4
ENDBRANCH   2   3
ENDBRANCH   1   2
BRANCH   1  13
ATOM     13  C   UNL     1      65.103  30.540   9.419  1.00  0.00     0.000 C 
BRANCH  13  14
ATOM     14  C   UNL     1      64.853  32.025   9.740  1.00  0.00     0.000 C 
BRANCH  14  15
ATOM     15  C   UNL     1      64.517  32.271  11.222  1.00  0.00     0.000 C 
BRANCH  15  16
ATOM     16  C   UNL     1      65.627  33.039  11.957  1.00  0.00     0.000 C 
BRANCH  16  17
ATOM     17  C   UNL     1      65.089  33.906  13.106  1.00  0.00     0.000 C 
BRANCH  17  18
ATOM     18  C   UNL     1      63.676  33.462  13.511  1.00  0.00     0.000 C 
BRANCH  18  19
ATOM     19  C   UNL     1      63.327  33.838  14.960  1.00  0.00     0.000 C 
BRANCH  19  20
ATOM     20  C   UNL     1      61.821  33.745  15.250  1.00  0.00     0.006 C 
BRANCH  20  21
ATOM     21  C   UNL     1      61.077  33.083  14.087  1.00  0.00     0.053 C 
BRANCH  21  22
ATOM     22  C   UNL     1      60.134  32.038  14.594  1.00  0.00     0.041 C 
ATOM     23  O   UNL     1      59.000  31.897  14.067  1.00  0.00    -0.550 OA
ATOM     24  O   UNL     1      60.491  31.248  15.682  1.00  0.00    -0.550 OA
ENDBRANCH  21  22
ENDBRANCH  20  21
ENDBRANCH  19  20
ENDBRANCH  18  19
ENDBRANCH  17  18
ENDBRANCH  16  17
ENDBRANCH  15  16
ENDBRANCH  14  15
ENDBRANCH  13  14
ENDBRANCH   1  13
TORSDOF 20
ENDMDL
MODEL 4
REMARK VINA RESULT:    -4.489      2.163      3.405
REMARK INTER + INTRA:         -13.045
REMARK INTER:                  -9.572
REMARK INTRA:                  -3.473
REMARK UNBOUND:                -3.308
REMARK SMILES CCCCCCCCCCCCCCCCCCCCCC(=O)[O-]
REMARK SMILES IDX 12 1 11 2 10 3 9 4 8 5 7 6 6 7 5 8 4 9 3 10 2 11 1 12 13 13
REMARK SMILES IDX 14 14 15 15 16 16 17 17 18 18 19 19 20 20 21 21 22 22 23 23
REMARK SMILES IDX 24 24
REMARK H PARENT
REMARK Flexibility Score: inf
ROOT
ATOM      1  C   UNL     1      61.251  28.283   9.796  1.00  0.00     0.000 C 
ENDROOT
BRANCH   1   2
ATOM      2  C   UNL     1      61.934  29.471   9.098  1.00  0.00     0.000 C 
BRANCH   2   3
ATOM      3  C   UNL     1      63.390  29.675   9.553  1.00  0.00     0.000 C 
BRANCH   3   4
ATOM      4  C   UNL     1      63.567  30.415  10.896  1.00  0.00    -0.000 C 
BRANCH   4   5
ATOM      5  C   UNL     1      64.170  29.576  12.037  1.00  0.00    -0.000 C 
BRANCH   5   6
ATOM      6  C   UNL     1      63.165  29.297  13.167  1.00  0.00    -0.000 C 
BRANCH   6   7
ATOM      7  C   UNL     1      63.416  30.159  14.418  1.00  0.00    -0.000 C 
BRANCH   7   8
ATOM      8  C   UNL     1      64.880  30.587  14.638  1.00  0.00    -0.000 C 
BRANCH   8   9
ATOM      9  C   UNL     1      65.116  32.108  14.714  1.00  0.00    -0.000 C 
BRANCH   9  10
ATOM     10  C   UNL     1      64.186  32.952  13.825  1.00  0.00    -0.000 C 
BRANCH  10  11
ATOM     11  C   UNL     1      64.868  33.432  12.536  1.00  0.00    -0.003 C 
ATOM     12  C   UNL     1      66.371  33.603  12.741  1.00  0.00     0.004 C 
ENDBRANCH  10  11
ENDBRANCH   9  10
ENDBRANCH   8   9
ENDBRANCH   7   8
ENDBRANCH   6   7
ENDBRANCH   5   6
ENDBRANCH   4   5
ENDBRANCH   3   4
ENDBRANCH   2   3
ENDBRANCH   1   2
BRANCH   1  13
ATOM     13  C   UNL     1      59.895  28.652  10.427  1.00  0.00     0.000 C 
BRANCH  13  14
ATOM     14  C   UNL     1      59.793  28.431  11.947  1.00  0.00     0.000 C 
BRANCH  14  15
ATOM     15  C   UNL     1      59.751  29.747  12.745  1.00  0.00     0.000 C 
BRANCH  15  16
ATOM     16  C   UNL     1      59.984  30.980  11.858  1.00  0.00     0.000 C 
BRANCH  16  17
ATOM     17  C   UNL     1      60.768  32.089  12.576  1.00  0.00     0.000 C 
BRANCH  17  18
ATOM     18  C   UNL     1      60.236  32.300  14.001  1.00  0.00     0.000 C 
BRANCH  18  19
ATOM     19  C   UNL     1      60.386  33.752  14.483  1.00  0.00     0.000 C 
BRANCH  19  20
ATOM     20  C   UNL     1      61.313  33.880  15.701  1.00  0.00     0.006 C 
BRANCH  20  21
ATOM     21  C   UNL     1      60.657  34.713  16.806  1.00  0.00     0.053 C 
BRANCH  21  22
ATOM     22  C   UNL     1      61.569  34.829  17.987  1.00  0.00     0.041 C 
ATOM     23  O   UNL     1      62.726  35.305  17.850  1.00  0.00    -0.550 OA
ATOM     24  O   UNL     1      61.156  34.368  19.232  1.00  0.00    -0.550 OA
ENDBRANCH  21  22
ENDBRANCH  20  21
ENDBRANCH  19  20
ENDBRANCH  18  19
ENDBRANCH  17  18
ENDBRANCH  16  17
ENDBRANCH  15  16
ENDBRANCH  14  15
ENDBRANCH  13  14
ENDBRANCH   1  13
TORSDOF 20
ENDMDL
MODEL 5
REMARK VINA RESULT:    -4.442     11.463     14.468
REMARK INTER + INTRA:         -12.944
REMARK INTER:                  -9.481
REMARK INTRA:                  -3.463
REMARK UNBOUND:                -3.308
REMARK SMILES CCCCCCCCCCCCCCCCCCCCCC(=O)[O-]
REMARK SMILES IDX 12 1 11 2 10 3 9 4 8 5 7 6 6 7 5 8 4 9 3 10 2 11 1 12 13 13
REMARK SMILES IDX 14 14 15 15 16 16 17 17 18 18 19 19 20 20 21 21 22 22 23 23
REMARK SMILES IDX 24 24
REMARK H PARENT
REMARK Flexibility Score: inf
ROOT
ATOM      1  C   UNL     1      61.616  29.337  29.021  1.00  0.00     0.000 C 
ENDROOT
BRANCH   1   2
ATOM      2  C   UNL     1      63.107  29.520  28.694  1.00  0.00     0.000 C 
BRANCH   2   3
ATOM      3  C   UNL     1      63.447  30.949  28.232  1.00  0.00     0.000 C 
BRANCH   3   4
ATOM      4  C   UNL     1      64.848  31.458  28.630  1.00  0.00    -0.000 C 
BRANCH   4   5
ATOM      5  C   UNL     1      66.001  30.464  28.402  1.00  0.00    -0.000 C 
BRANCH   5   6
ATOM      6  C   UNL     1      66.938  30.890  27.259  1.00  0.00    -0.000 C 
BRANCH   6   7
ATOM      7  C   UNL     1      66.834  29.974  26.026  1.00  0.00    -0.000 C 
BRANCH   7   8
ATOM      8  C   UNL     1      65.755  28.877  26.111  1.00  0.00    -0.000 C 
BRANCH   8   9
ATOM      9  C   UNL     1      65.741  27.876  24.940  1.00  0.00    -0.000 C 
BRANCH   9  10
ATOM     10  C   UNL     1      64.732  26.723  25.085  1.00  0.00    -0.000 C 
BRANCH  10  11
ATOM     11  C   UNL     1      64.372  26.073  23.741  1.00  0.00    -0.003 C 
ATOM     12  C   UNL     1      65.617  25.850  22.889  1.00  0.00     0.004 C 
ENDBRANCH  10  11
ENDBRANCH   9  10
ENDBRANCH   8   9
ENDBRANCH   7   8
ENDBRANCH   6   7
ENDBRANCH   5   6
ENDBRANCH   4   5
ENDBRANCH   3   4
ENDBRANCH   2   3
ENDBRANCH   1   2
BRANCH   1  13
ATOM     13  C   UNL     1      61.058  27.981  28.549  1.00  0.00     0.000 C 
BRANCH  13  14
ATOM     14  C   UNL     1      62.035  27.113  27.734  1.00  0.00     0.000 C 
BRANCH  14  15
ATOM     15  C   UNL     1      61.492  26.743  26.342  1.00  0.00     0.000 C 
BRANCH  15  16
ATOM     16  C   UNL     1      60.696  27.889  25.696  1.00  0.00     0.000 C 
BRANCH  16  17
ATOM     17  C   UNL     1      61.376  28.448  24.437  1.00  0.00     0.000 C 
BRANCH  17  18
ATOM     18  C   UNL     1      62.116  29.757  24.751  1.00  0.00     0.000 C 
BRANCH  18  19
ATOM     19  C   UNL     1      63.271  30.036  23.776  1.00  0.00     0.000 C 
BRANCH  19  20
ATOM     20  C   UNL     1      63.951  31.389  24.034  1.00  0.00     0.006 C 
BRANCH  20  21
ATOM     21  C   UNL     1      65.150  31.587  23.102  1.00  0.00     0.053 C 
BRANCH  21  22
ATOM     22  C   UNL     1      65.047  32.897  22.385  1.00  0.00     0.041 C 
ATOM     23  O   UNL     1      66.051  33.379  21.797  1.00  0.00    -0.550 OA
ATOM     24  O   UNL     1      63.853  33.608  22.405  1.00  0.00    -0.550 OA
ENDBRANCH  21  22
ENDBRANCH  20  21
ENDBRANCH  19  20
ENDBRANCH  18  19
ENDBRANCH  17  18
ENDBRANCH  16  17
ENDBRANCH  15  16
ENDBRANCH  14  15
ENDBRANCH  13  14
ENDBRANCH   1  13
TORSDOF 20
ENDMDL
MODEL 6
REMARK VINA RESULT:    -4.402      0.796      1.800
REMARK INTER + INTRA:         -12.856
REMARK INTER:                  -9.526
REMARK INTRA:                  -3.330
REMARK UNBOUND:                -3.308
REMARK SMILES CCCCCCCCCCCCCCCCCCCCCC(=O)[O-]
REMARK SMILES IDX 12 1 11 2 10 3 9 4 8 5 7 6 6 7 5 8 4 9 3 10 2 11 1 12 13 13
REMARK SMILES IDX 14 14 15 15 16 16 17 17 18 18 19 19 20 20 21 21 22 22 23 23
REMARK SMILES IDX 24 24
REMARK H PARENT
REMARK Flexibility Score: inf
ROOT
ATOM      1  C   UNL     1      63.244  28.779   9.702  1.00  0.00     0.000 C 
ENDROOT
BRANCH   1   2
ATOM      2  C   UNL     1      64.337  29.520   8.915  1.00  0.00     0.000 C 
BRANCH   2   3
ATOM      3  C   UNL     1      64.868  30.762   9.654  1.00  0.00     0.000 C 
BRANCH   3   4
ATOM      4  C   UNL     1      63.891  31.400  10.664  1.00  0.00    -0.000 C 
BRANCH   4   5
ATOM      5  C   UNL     1      64.535  32.337  11.702  1.00  0.00    -0.000 C 
BRANCH   5   6
ATOM      6  C   UNL     1      65.730  33.122  11.137  1.00  0.00    -0.000 C 
BRANCH   6   7
ATOM      7  C   UNL     1      65.872  34.525  11.755  1.00  0.00    -0.000 C 
BRANCH   7   8
ATOM      8  C   UNL     1      66.476  34.560  13.172  1.00  0.00    -0.000 C 
BRANCH   8   9
ATOM      9  C   UNL     1      65.468  34.810  14.311  1.00  0.00    -0.000 C 
BRANCH   9  10
ATOM     10  C   UNL     1      65.205  33.596  15.219  1.00  0.00    -0.000 C 
BRANCH  10  11
ATOM     11  C   UNL     1      66.244  32.480  15.038  1.00  0.00    -0.003 C 
ATOM     12  C   UNL     1      65.573  31.112  14.961  1.00  0.00     0.004 C 
ENDBRANCH  10  11
ENDBRANCH   9  10
ENDBRANCH   8   9
ENDBRANCH   7   8
ENDBRANCH   6   7
ENDBRANCH   5   6
ENDBRANCH   4   5
ENDBRANCH   3   4
ENDBRANCH   2   3
ENDBRANCH   1   2
BRANCH   1  13
ATOM     13  C   UNL     1      61.940  28.601   8.900  1.00  0.00     0.000 C 
BRANCH  13  14
ATOM     14  C   UNL     1      60.895  29.717   9.085  1.00  0.00     0.000 C 
BRANCH  14  15
ATOM     15  C   UNL     1      59.811  29.361  10.118  1.00  0.00     0.000 C 
BRANCH  15  16
ATOM     16  C   UNL     1      60.018  30.079  11.461  1.00  0.00     0.000 C 
BRANCH  16  17
ATOM     17  C   UNL     1      60.060  29.111  12.653  1.00  0.00     0.000 C 
BRANCH  17  18
ATOM     18  C   UNL     1      61.471  28.533  12.838  1.00  0.00     0.000 C 
BRANCH  18  19
ATOM     19  C   UNL     1      62.444  29.535  13.481  1.00  0.00     0.000 C 
BRANCH  19  20
ATOM     20  C   UNL     1      61.791  30.364  14.597  1.00  0.00     0.006 C 
BRANCH  20  21
ATOM     21  C   UNL     1      61.949  31.864  14.330  1.00  0.00     0.053 C 
BRANCH  21  22
ATOM     22  C   UNL     1      60.722  32.606  14.760  1.00  0.00     0.041 C 
ATOM     23  O   UNL     1      60.824  33.663  15.436  1.00  0.00    -0.550 OA
ATOM     24  O   UNL     1      59.462  32.103  14.454  1.00  0.00    -0.550 OA
ENDBRANCH  21  22
ENDBRANCH  20  21
ENDBRANCH  19  20
ENDBRANCH  18  19
ENDBRANCH  17  18
ENDBRANCH  16  17
ENDBRANCH  15  16
ENDBRANCH  14  15
ENDBRANCH  13  14
ENDBRANCH   1  13
TORSDOF 20
ENDMDL
MODEL 7
REMARK VINA RESULT:    -4.222     10.803     14.363
REMARK INTER + INTRA:         -12.465
REMARK INTER:                  -9.892
REMARK INTRA:                  -2.573
REMARK UNBOUND:                -3.308
REMARK SMILES CCCCCCCCCCCCCCCCCCCCCC(=O)[O-]
REMARK SMILES IDX 12 1 11 2 10 3 9 4 8 5 7 6 6 7 5 8 4 9 3 10 2 11 1 12 13 13
REMARK SMILES IDX 14 14 15 15 16 16 17 17 18 18 19 19 20 20 21 21 22 22 23 23
REMARK SMILES IDX 24 24
REMARK H PARENT
REMARK Flexibility Score: inf
ROOT
ATOM      1  C   UNL     1      63.411  30.461  27.821  1.00  0.00     0.000 C 
ENDROOT
BRANCH   1   2
ATOM      2  C   UNL     1      62.486  30.111  28.998  1.00  0.00     0.000 C 
BRANCH   2   3
ATOM      3  C   UNL     1      61.368  29.127  28.608  1.00  0.00     0.000 C 
BRANCH   3   4
ATOM      4  C   UNL     1      61.773  27.638  28.591  1.00  0.00    -0.000 C 
BRANCH   4   5
ATOM      5  C   UNL     1      61.906  27.006  27.193  1.00  0.00    -0.000 C 
BRANCH   5   6
ATOM      6  C   UNL     1      60.727  27.352  26.268  1.00  0.00    -0.000 C 
BRANCH   6   7
ATOM      7  C   UNL     1      61.171  28.020  24.954  1.00  0.00    -0.000 C 
BRANCH   7   8
ATOM      8  C   UNL     1      62.658  28.423  24.892  1.00  0.00    -0.000 C 
BRANCH   8   9
ATOM      9  C   UNL     1      63.561  27.480  24.073  1.00  0.00    -0.000 C 
BRANCH   9  10
ATOM     10  C   UNL     1      64.408  26.507  24.911  1.00  0.00    -0.000 C 
BRANCH  10  11
ATOM     11  C   UNL     1      65.577  25.902  24.119  1.00  0.00    -0.003 C 
ATOM     12  C   UNL     1      65.486  26.267  22.641  1.00  0.00     0.004 C 
ENDBRANCH  10  11
ENDBRANCH   9  10
ENDBRANCH   8   9
ENDBRANCH   7   8
ENDBRANCH   6   7
ENDBRANCH   5   6
ENDBRANCH   4   5
ENDBRANCH   3   4
ENDBRANCH   2   3
ENDBRANCH   1   2
BRANCH   1  13
ATOM     13  C   UNL     1      64.729  31.123  28.267  1.00  0.00     0.000 C 
BRANCH  13  14
ATOM     14  C   UNL     1      66.014  30.435  27.770  1.00  0.00     0.000 C 
BRANCH  14  15
ATOM     15  C   UNL     1      65.823  29.702  26.430  1.00  0.00     0.000 C 
BRANCH  15  16
ATOM     16  C   UNL     1      67.030  29.866  25.492  1.00  0.00     0.000 C 
BRANCH  16  17
ATOM     17  C   UNL     1      66.687  29.571  24.024  1.00  0.00     0.000 C 
BRANCH  17  18
ATOM     18  C   UNL     1      65.669  30.587  23.486  1.00  0.00     0.000 C 
BRANCH  18  19
ATOM     19  C   UNL     1      66.326  31.711  22.668  1.00  0.00     0.000 C 
BRANCH  19  20
ATOM     20  C   UNL     1      65.354  32.857  22.346  1.00  0.00     0.006 C 
BRANCH  20  21
ATOM     21  C   UNL     1      65.915  33.758  21.242  1.00  0.00     0.053 C 
BRANCH  21  22
ATOM     22  C   UNL     1      64.806  34.481  20.543  1.00  0.00     0.041 C 
ATOM     23  O   UNL     1      63.649  34.498  21.038  1.00  0.00    -0.550 OA
ATOM     24  O   UNL     1      65.042  35.098  19.319  1.00  0.00    -0.550 OA
ENDBRANCH  21  22
ENDBRANCH  20  21
ENDBRANCH  19  20
ENDBRANCH  18  19
ENDBRANCH  17  18
ENDBRANCH  16  17
ENDBRANCH  15  16
ENDBRANCH  14  15
ENDBRANCH  13  14
ENDBRANCH   1  13
TORSDOF 20
ENDMDL
MODEL 8
REMARK VINA RESULT:    -4.061      1.973      4.288
REMARK INTER + INTRA:         -12.116
REMARK INTER:                  -9.117
REMARK INTRA:                  -2.999
REMARK UNBOUND:                -3.308
REMARK SMILES CCCCCCCCCCCCCCCCCCCCCC(=O)[O-]
REMARK SMILES IDX 12 1 11 2 10 3 9 4 8 5 7 6 6 7 5 8 4 9 3 10 2 11 1 12 13 13
REMARK SMILES IDX 14 14 15 15 16 16 17 17 18 18 19 19 20 20 21 21 22 22 23 23
REMARK SMILES IDX 24 24
REMARK H PARENT
REMARK Flexibility Score: inf
ROOT
ATOM      1  C   UNL     1      60.081  29.470  12.741  1.00  0.00     0.000 C 
ENDROOT
BRANCH   1   2
ATOM      2  C   UNL     1      60.300  30.989  12.833  1.00  0.00     0.000 C 
BRANCH   2   3
ATOM      3  C   UNL     1      60.724  31.448  14.241  1.00  0.00     0.000 C 
BRANCH   3   4
ATOM      4  C   UNL     1      60.326  32.891  14.614  1.00  0.00    -0.000 C 
BRANCH   4   5
ATOM      5  C   UNL     1      61.458  33.758  15.195  1.00  0.00    -0.000 C 
BRANCH   5   6
ATOM      6  C   UNL     1      62.843  33.378  14.643  1.00  0.00    -0.000 C 
BRANCH   6   7
ATOM      7  C   UNL     1      63.980  34.229  15.237  1.00  0.00    -0.000 C 
BRANCH   7   8
ATOM      8  C   UNL     1      65.317  34.165  14.474  1.00  0.00    -0.000 C 
BRANCH   8   9
ATOM      9  C   UNL     1      65.947  35.529  14.134  1.00  0.00    -0.000 C 
BRANCH   9  10
ATOM     10  C   UNL     1      66.428  35.677  12.680  1.00  0.00    -0.000 C 
BRANCH  10  11
ATOM     11  C   UNL     1      65.908  34.559  11.765  1.00  0.00    -0.003 C 
ATOM     12  C   UNL     1      67.058  33.848  11.058  1.00  0.00     0.004 C 
ENDBRANCH  10  11
ENDBRANCH   9  10
ENDBRANCH   8   9
ENDBRANCH   7   8
ENDBRANCH   6   7
ENDBRANCH   5   6
ENDBRANCH   4   5
ENDBRANCH   3   4
ENDBRANCH   2   3
ENDBRANCH   1   2
BRANCH   1  13
ATOM     13  C   UNL     1      59.851  28.981  11.298  1.00  0.00     0.000 C 
BRANCH  13  14
ATOM     14  C   UNL     1      60.208  29.994  10.194  1.00  0.00     0.000 C 
BRANCH  14  15
ATOM     15  C   UNL     1      61.145  29.409   9.122  1.00  0.00     0.000 C 
BRANCH  15  16
ATOM     16  C   UNL     1      62.277  28.564   9.728  1.00  0.00     0.000 C 
BRANCH  16  17
ATOM     17  C   UNL     1      63.671  29.027   9.277  1.00  0.00     0.000 C 
BRANCH  17  18
ATOM     18  C   UNL     1      63.700  30.548   9.065  1.00  0.00     0.000 C 
BRANCH  18  19
ATOM     19  C   UNL     1      64.475  31.287  10.168  1.00  0.00     0.000 C 
BRANCH  19  20
ATOM     20  C   UNL     1      63.694  31.370  11.488  1.00  0.00     0.006 C 
BRANCH  20  21
ATOM     21  C   UNL     1      64.612  31.109  12.686  1.00  0.00     0.053 C 
BRANCH  21  22
ATOM     22  C   UNL     1      64.077  29.990  13.523  1.00  0.00     0.041 C 
ATOM     23  O   UNL     1      64.324  29.947  14.757  1.00  0.00    -0.550 OA
ATOM     24  O   UNL     1      63.342  28.968  12.931  1.00  0.00    -0.550 OA
ENDBRANCH  21  22
ENDBRANCH  20  21
ENDBRANCH  19  20
ENDBRANCH  18  19
ENDBRANCH  17  18
ENDBRANCH  16  17
ENDBRANCH  15  16
ENDBRANCH  14  15
ENDBRANCH  13  14
ENDBRANCH   1  13
TORSDOF 20
ENDMDL
MODEL 9
REMARK VINA RESULT:    -4.052      2.177      5.613
REMARK INTER + INTRA:         -12.097
REMARK INTER:                  -9.020
REMARK INTRA:                  -3.077
REMARK UNBOUND:                -3.308
REMARK SMILES CCCCCCCCCCCCCCCCCCCCCC(=O)[O-]
REMARK SMILES IDX 12 1 11 2 10 3 9 4 8 5 7 6 6 7 5 8 4 9 3 10 2 11 1 12 13 13
REMARK SMILES IDX 14 14 15 15 16 16 17 17 18 18 19 19 20 20 21 21 22 22 23 23
REMARK SMILES IDX 24 24
REMARK H PARENT
REMARK Flexibility Score: inf
ROOT
ATOM      1  C   UNL     1      63.368  29.504  12.584  1.00  0.00     0.000 C 
ENDROOT
BRANCH   1   2
ATOM      2  C   UNL     1      63.761  30.002  11.183  1.00  0.00     0.000 C 
BRANCH   2   3
ATOM      3  C   UNL     1      63.351  29.027  10.065  1.00  0.00     0.000 C 
BRANCH   3   4
ATOM      4  C   UNL     1      62.041  29.376   9.328  1.00  0.00    -0.000 C 
BRANCH   4   5
ATOM      5  C   UNL     1      60.792  28.613   9.805  1.00  0.00    -0.000 C 
BRANCH   5   6
ATOM      6  C   UNL     1      59.784  29.516  10.535  1.00  0.00    -0.000 C 
BRANCH   6   7
ATOM      7  C   UNL     1      59.678  29.203  12.039  1.00  0.00    -0.000 C 
BRANCH   7   8
ATOM      8  C   UNL     1      59.988  30.384  12.980  1.00  0.00    -0.000 C 
BRANCH   8   9
ATOM      9  C   UNL     1      60.477  31.668  12.283  1.00  0.00    -0.000 C 
BRANCH   9  10
ATOM     10  C   UNL     1      60.454  32.931  13.163  1.00  0.00    -0.000 C 
BRANCH  10  11
ATOM     11  C   UNL     1      60.225  32.618  14.648  1.00  0.00    -0.003 C 
ATOM     12  C   UNL     1      60.689  33.772  15.531  1.00  0.00     0.004 C 
ENDBRANCH  10  11
ENDBRANCH   9  10
ENDBRANCH   8   9
ENDBRANCH   7   8
ENDBRANCH   6   7
ENDBRANCH   5   6
ENDBRANCH   4   5
ENDBRANCH   3   4
ENDBRANCH   2   3
ENDBRANCH   1   2
BRANCH   1  13
ATOM     13  C   UNL     1      64.557  29.457  13.562  1.00  0.00     0.000 C 
BRANCH  13  14
ATOM     14  C   UNL     1      64.971  30.813  14.163  1.00  0.00     0.000 C 
BRANCH  14  15
ATOM     15  C   UNL     1      63.770  31.718  14.488  1.00  0.00     0.000 C 
BRANCH  15  16
ATOM     16  C   UNL     1      63.896  33.114  13.858  1.00  0.00     0.000 C 
BRANCH  16  17
ATOM     17  C   UNL     1      65.117  33.241  12.934  1.00  0.00     0.000 C 
BRANCH  17  18
ATOM     18  C   UNL     1      66.074  34.331  13.439  1.00  0.00     0.000 C 
BRANCH  18  19
ATOM     19  C   UNL     1      66.814  33.925  14.724  1.00  0.00     0.000 C 
BRANCH  19  20
ATOM     20  C   UNL     1      66.830  35.043  15.778  1.00  0.00     0.006 C 
BRANCH  20  21
ATOM     21  C   UNL     1      65.437  35.657  15.947  1.00  0.00     0.053 C 
BRANCH  21  22
ATOM     22  C   UNL     1      64.871  35.310  17.288  1.00  0.00     0.041 C 
ATOM     23  O   UNL     1      63.658  35.533  17.541  1.00  0.00    -0.550 OA
ATOM     24  O   UNL     1      65.695  34.782  18.276  1.00  0.00    -0.550 OA
ENDBRANCH  21  22
ENDBRANCH  20  21
ENDBRANCH  19  20
ENDBRANCH  18  19
ENDBRANCH  17  18
ENDBRANCH  16  17
ENDBRANCH  15  16
ENDBRANCH  14  15
ENDBRANCH  13  14
ENDBRANCH   1  13
TORSDOF 20
ENDMDL
