MODEL 1
REMARK VINA RESULT:    -5.180      0.000      0.000
REMARK INTER + INTRA:         -12.953
REMARK INTER:                  -9.722
REMARK INTRA:                  -3.231
REMARK UNBOUND:                -3.231
REMARK SMILES CCCCCCCCC=CCCCCCCCC(=O)[O-]
REMARK SMILES IDX 10 1 9 2 11 3 12 4 13 5 14 6 15 7 16 8 17 9 18 10 19 11
REMARK SMILES IDX 20 12 8 13 7 14 6 15 5 16 4 17 3 18 2 19 1 20
REMARK H PARENT
REMARK Flexibility Score: inf
ROOT
ATOM      1  C   UNL     1      36.863  -0.818   4.827  1.00  0.00    -0.031 C 
ATOM      2  C   UNL     1      36.009  -0.779   3.786  1.00  0.00    -0.031 C 
ENDROOT
BRANCH   1   3
ATOM      3  C   UNL     1      36.539  -0.380   6.232  1.00  0.00     0.027 C 
BRANCH   3   4
ATOM      4  C   UNL     1      37.724   0.348   6.879  1.00  0.00     0.004 C 
BRANCH   4   5
ATOM      5  C   UNL     1      37.525   1.871   6.947  1.00  0.00     0.000 C 
BRANCH   5   6
ATOM      6  C   UNL     1      38.353   2.647   5.900  1.00  0.00     0.000 C 
BRANCH   6   7
ATOM      7  C   UNL     1      37.473   3.533   5.001  1.00  0.00     0.000 C 
BRANCH   7   8
ATOM      8  C   UNL     1      37.621   3.201   3.506  1.00  0.00     0.006 C 
BRANCH   8   9
ATOM      9  C   UNL     1      38.554   2.015   3.206  1.00  0.00     0.053 C 
BRANCH   9  10
ATOM     10  C   UNL     1      39.681   2.393   2.295  1.00  0.00     0.041 C 
ATOM     11  O   UNL     1      40.589   3.166   2.698  1.00  0.00    -0.550 OA
ATOM     12  O   UNL     1      39.723   1.904   0.995  1.00  0.00    -0.550 OA
ENDBRANCH   9  10
ENDBRANCH   8   9
ENDBRANCH   7   8
ENDBRANCH   6   7
ENDBRANCH   5   6
ENDBRANCH   4   5
ENDBRANCH   3   4
ENDBRANCH   1   3
BRANCH   2  13
ATOM     13  C   UNL     1      34.586  -0.271   3.837  1.00  0.00     0.027 C 
BRANCH  13  14
ATOM     14  C   UNL     1      34.437   1.103   3.159  1.00  0.00     0.004 C 
BRANCH  14  15
ATOM     15  C   UNL     1      34.172   2.273   4.125  1.00  0.00     0.000 C 
BRANCH  15  16
ATOM     16  C   UNL     1      33.863   1.807   5.558  1.00  0.00     0.000 C 
BRANCH  16  17
ATOM     17  C   UNL     1      34.003   2.937   6.591  1.00  0.00    -0.000 C 
BRANCH  17  18
ATOM     18  C   UNL     1      33.897   4.332   5.958  1.00  0.00    -0.000 C 
BRANCH  18  19
ATOM     19  C   UNL     1      34.726   5.354   6.746  1.00  0.00    -0.003 C 
ATOM     20  C   UNL     1      35.259   4.753   8.042  1.00  0.00     0.004 C 
ENDBRANCH  18  19
ENDBRANCH  17  18
ENDBRANCH  16  17
ENDBRANCH  15  16
ENDBRANCH  14  15
ENDBRANCH  13  14
ENDBRANCH   2  13
TORSDOF 15
ENDMDL
MODEL 2
REMARK VINA RESULT:    -5.155     15.113     18.516
REMARK INTER + INTRA:         -12.906
REMARK INTER:                  -9.630
REMARK INTRA:                  -3.276
REMARK UNBOUND:                -3.231
REMARK SMILES CCCCCCCCC=CCCCCCCCC(=O)[O-]
REMARK SMILES IDX 10 1 9 2 11 3 12 4 13 5 14 6 15 7 16 8 17 9 18 10 19 11
REMARK SMILES IDX 20 12 8 13 7 14 6 15 5 16 4 17 3 18 2 19 1 20
REMARK H PARENT
REMARK Flexibility Score: inf
ROOT
ATOM      1  C   UNL     1      49.765  11.162  -4.844  1.00  0.00    -0.031 C 
ATOM      2  C   UNL     1      48.497  11.377  -4.441  1.00  0.00    -0.031 C 
ENDROOT
BRANCH   1   3
ATOM      3  C   UNL     1      50.400  11.766  -6.069  1.00  0.00     0.027 C 
BRANCH   3   4
ATOM      4  C   UNL     1      50.360  10.796  -7.257  1.00  0.00     0.004 C 
BRANCH   4   5
ATOM      5  C   UNL     1      49.201  11.086  -8.225  1.00  0.00     0.000 C 
BRANCH   5   6
ATOM      6  C   UNL     1      48.207   9.913  -8.363  1.00  0.00     0.000 C 
BRANCH   6   7
ATOM      7  C   UNL     1      48.669   8.664  -7.594  1.00  0.00     0.000 C 
BRANCH   7   8
ATOM      8  C   UNL     1      47.736   8.303  -6.423  1.00  0.00     0.006 C 
BRANCH   8   9
ATOM      9  C   UNL     1      46.265   8.100  -6.823  1.00  0.00     0.053 C 
BRANCH   9  10
ATOM     10  C   UNL     1      45.416   7.660  -5.669  1.00  0.00     0.041 C 
ATOM     11  O   UNL     1      45.694   6.602  -5.046  1.00  0.00    -0.550 OA
ATOM     12  O   UNL     1      44.309   8.409  -5.290  1.00  0.00    -0.550 OA
ENDBRANCH   9  10
ENDBRANCH   8   9
ENDBRANCH   7   8
ENDBRANCH   6   7
ENDBRANCH   5   6
ENDBRANCH   4   5
ENDBRANCH   3   4
ENDBRANCH   1   3
BRANCH   2  13
ATOM     13  C   UNL     1      47.485  12.243  -5.156  1.00  0.00     0.027 C 
BRANCH  13  14
ATOM     14  C   UNL     1      46.117  11.550  -5.281  1.00  0.00     0.004 C 
BRANCH  14  15
ATOM     15  C   UNL     1      45.431  11.720  -6.650  1.00  0.00     0.000 C 
BRANCH  15  16
ATOM     16  C   UNL     1      45.982  12.912  -7.452  1.00  0.00     0.000 C 
BRANCH  16  17
ATOM     17  C   UNL     1      45.927  12.680  -8.970  1.00  0.00    -0.000 C 
BRANCH  17  18
ATOM     18  C   UNL     1      44.788  11.736  -9.383  1.00  0.00    -0.000 C 
BRANCH  18  19
ATOM     19  C   UNL     1      45.259  10.747 -10.455  1.00  0.00    -0.003 C 
ATOM     20  C   UNL     1      44.944   9.309 -10.059  1.00  0.00     0.004 C 
ENDBRANCH  18  19
ENDBRANCH  17  18
ENDBRANCH  16  17
ENDBRANCH  15  16
ENDBRANCH  14  15
ENDBRANCH  13  14
ENDBRANCH   2  13
TORSDOF 15
ENDMDL
MODEL 3
REMARK VINA RESULT:    -5.146     15.566     18.775
REMARK INTER + INTRA:         -12.890
REMARK INTER:                 -10.034
REMARK INTRA:                  -2.856
REMARK UNBOUND:                -3.231
REMARK SMILES CCCCCCCCC=CCCCCCCCC(=O)[O-]
REMARK SMILES IDX 10 1 9 2 11 3 12 4 13 5 14 6 15 7 16 8 17 9 18 10 19 11
REMARK SMILES IDX 20 12 8 13 7 14 6 15 5 16 4 17 3 18 2 19 1 20
REMARK H PARENT
REMARK Flexibility Score: inf
ROOT
ATOM      1  C   UNL     1      49.684  10.200  -5.000  1.00  0.00    -0.031 C 
ATOM      2  C   UNL     1      48.779  10.936  -4.327  1.00  0.00    -0.031 C 
ENDROOT
BRANCH   1   3
ATOM      3  C   UNL     1      50.402  10.638  -6.250  1.00  0.00     0.027 C 
BRANCH   3   4
ATOM      4  C   UNL     1      49.881   9.894  -7.486  1.00  0.00     0.004 C 
BRANCH   4   5
ATOM      5  C   UNL     1      49.229   8.545  -7.139  1.00  0.00     0.000 C 
BRANCH   5   6
ATOM      6  C   UNL     1      47.951   8.252  -7.955  1.00  0.00     0.000 C 
BRANCH   6   7
ATOM      7  C   UNL     1      46.818   7.687  -7.081  1.00  0.00     0.000 C 
BRANCH   7   8
ATOM      8  C   UNL     1      45.996   8.786  -6.385  1.00  0.00     0.006 C 
BRANCH   8   9
ATOM      9  C   UNL     1      44.786   9.285  -7.193  1.00  0.00     0.053 C 
BRANCH   9  10
ATOM     10  C   UNL     1      43.665   9.750  -6.315  1.00  0.00     0.041 C 
ATOM     11  O   UNL     1      42.567   9.134  -6.311  1.00  0.00    -0.550 OA
ATOM     12  O   UNL     1      43.826  10.873  -5.512  1.00  0.00    -0.550 OA
ENDBRANCH   9  10
ENDBRANCH   8   9
ENDBRANCH   7   8
ENDBRANCH   6   7
ENDBRANCH   5   6
ENDBRANCH   4   5
ENDBRANCH   3   4
ENDBRANCH   1   3
BRANCH   2  13
ATOM     13  C   UNL     1      48.310  12.320  -4.715  1.00  0.00     0.027 C 
BRANCH  13  14
ATOM     14  C   UNL     1      46.978  12.285  -5.485  1.00  0.00     0.004 C 
BRANCH  14  15
ATOM     15  C   UNL     1      47.121  12.173  -7.015  1.00  0.00     0.000 C 
BRANCH  15  16
ATOM     16  C   UNL     1      46.013  12.920  -7.776  1.00  0.00     0.000 C 
BRANCH  16  17
ATOM     17  C   UNL     1      45.977  12.565  -9.270  1.00  0.00    -0.000 C 
BRANCH  17  18
ATOM     18  C   UNL     1      46.682  11.235  -9.578  1.00  0.00    -0.000 C 
BRANCH  18  19
ATOM     19  C   UNL     1      47.765  11.425 -10.647  1.00  0.00    -0.003 C 
ATOM     20  C   UNL     1      48.960  12.194 -10.094  1.00  0.00     0.004 C 
ENDBRANCH  18  19
ENDBRANCH  17  18
ENDBRANCH  16  17
ENDBRANCH  15  16
ENDBRANCH  14  15
ENDBRANCH  13  14
ENDBRANCH   2  13
TORSDOF 15
ENDMDL
MODEL 4
REMARK VINA RESULT:    -5.141     14.610     18.172
REMARK INTER + INTRA:         -12.881
REMARK INTER:                  -9.927
REMARK INTRA:                  -2.954
REMARK UNBOUND:                -3.231
REMARK SMILES CCCCCCCCC=CCCCCCCCC(=O)[O-]
REMARK SMILES IDX 10 1 9 2 11 3 12 4 13 5 14 6 15 7 16 8 17 9 18 10 19 11
REMARK SMILES IDX 20 12 8 13 7 14 6 15 5 16 4 17 3 18 2 19 1 20
REMARK H PARENT
REMARK Flexibility Score: inf
ROOT
ATOM      1  C   UNL     1      44.516  11.981  -9.039  1.00  0.00    -0.031 C 
ATOM      2  C   UNL     1      44.306  10.814  -9.679  1.00  0.00    -0.031 C 
ENDROOT
BRANCH   1   3
ATOM      3  C   UNL     1      45.856  12.649  -8.868  1.00  0.00     0.027 C 
BRANCH   3   4
ATOM      4  C   UNL     1      45.989  13.291  -7.481  1.00  0.00     0.004 C 
BRANCH   4   5
ATOM      5  C   UNL     1      46.714  12.385  -6.472  1.00  0.00     0.000 C 
BRANCH   5   6
ATOM      6  C   UNL     1      45.789  11.833  -5.366  1.00  0.00     0.000 C 
BRANCH   6   7
ATOM      7  C   UNL     1      45.800  10.295  -5.312  1.00  0.00     0.000 C 
BRANCH   7   8
ATOM      8  C   UNL     1      46.794   9.740  -4.276  1.00  0.00     0.006 C 
BRANCH   8   9
ATOM      9  C   UNL     1      47.281   8.310  -4.565  1.00  0.00     0.053 C 
BRANCH   9  10
ATOM     10  C   UNL     1      46.190   7.294  -4.413  1.00  0.00     0.041 C 
ATOM     11  O   UNL     1      45.702   7.056  -3.277  1.00  0.00    -0.550 OA
ATOM     12  O   UNL     1      45.723   6.599  -5.522  1.00  0.00    -0.550 OA
ENDBRANCH   9  10
ENDBRANCH   8   9
ENDBRANCH   7   8
ENDBRANCH   6   7
ENDBRANCH   5   6
ENDBRANCH   4   5
ENDBRANCH   3   4
ENDBRANCH   1   3
BRANCH   2  13
ATOM     13  C   UNL     1      45.378   9.962 -10.322  1.00  0.00     0.027 C 
BRANCH  13  14
ATOM     14  C   UNL     1      45.547   8.610  -9.606  1.00  0.00     0.004 C 
BRANCH  14  15
ATOM     15  C   UNL     1      46.516   8.631  -8.409  1.00  0.00     0.000 C 
BRANCH  15  16
ATOM     16  C   UNL     1      47.750   9.517  -8.653  1.00  0.00     0.000 C 
BRANCH  16  17
ATOM     17  C   UNL     1      48.962   9.088  -7.812  1.00  0.00    -0.000 C 
BRANCH  17  18
ATOM     18  C   UNL     1      49.820  10.279  -7.361  1.00  0.00    -0.000 C 
BRANCH  18  19
ATOM     19  C   UNL     1      50.245  10.123  -5.896  1.00  0.00    -0.003 C 
ATOM     20  C   UNL     1      50.039  11.419  -5.118  1.00  0.00     0.004 C 
ENDBRANCH  18  19
ENDBRANCH  17  18
ENDBRANCH  16  17
ENDBRANCH  15  16
ENDBRANCH  14  15
ENDBRANCH  13  14
ENDBRANCH   2  13
TORSDOF 15
ENDMDL
MODEL 5
REMARK VINA RESULT:    -5.132      1.699      2.006
REMARK INTER + INTRA:         -12.864
REMARK INTER:                  -9.792
REMARK INTRA:                  -3.072
REMARK UNBOUND:                -3.231
REMARK SMILES CCCCCCCCC=CCCCCCCCC(=O)[O-]
REMARK SMILES IDX 10 1 9 2 11 3 12 4 13 5 14 6 15 7 16 8 17 9 18 10 19 11
REMARK SMILES IDX 20 12 8 13 7 14 6 15 5 16 4 17 3 18 2 19 1 20
REMARK H PARENT
REMARK Flexibility Score: inf
ROOT
ATOM      1  C   UNL     1      37.003  -0.533   5.103  1.00  0.00    -0.031 C 
ATOM      2  C   UNL     1      36.282  -0.654   3.971  1.00  0.00    -0.031 C 
ENDROOT
BRANCH   1   3
ATOM      3  C   UNL     1      36.425  -0.380   6.486  1.00  0.00     0.027 C 
BRANCH   3   4
ATOM      4  C   UNL     1      36.531   1.069   6.981  1.00  0.00     0.004 C 
BRANCH   4   5
ATOM      5  C   UNL     1      37.954   1.638   6.859  1.00  0.00     0.000 C 
BRANCH   5   6
ATOM      6  C   UNL     1      37.992   3.101   6.367  1.00  0.00     0.000 C 
BRANCH   6   7
ATOM      7  C   UNL     1      37.281   3.278   5.014  1.00  0.00     0.000 C 
BRANCH   7   8
ATOM      8  C   UNL     1      37.239   4.745   4.549  1.00  0.00     0.006 C 
BRANCH   8   9
ATOM      9  C   UNL     1      36.183   5.040   3.470  1.00  0.00     0.053 C 
BRANCH   9  10
ATOM     10  C   UNL     1      36.791   5.242   2.116  1.00  0.00     0.041 C 
ATOM     11  O   UNL     1      36.877   6.399   1.627  1.00  0.00    -0.550 OA
ATOM     12  O   UNL     1      37.249   4.152   1.385  1.00  0.00    -0.550 OA
ENDBRANCH   9  10
ENDBRANCH   8   9
ENDBRANCH   7   8
ENDBRANCH   6   7
ENDBRANCH   5   6
ENDBRANCH   4   5
ENDBRANCH   3   4
ENDBRANCH   1   3
BRANCH   2  13
ATOM     13  C   UNL     1      34.772  -0.639   3.886  1.00  0.00     0.027 C 
BRANCH  13  14
ATOM     14  C   UNL     1      34.259   0.440   2.916  1.00  0.00     0.004 C 
BRANCH  14  15
ATOM     15  C   UNL     1      34.266   1.872   3.483  1.00  0.00     0.000 C 
BRANCH  15  16
ATOM     16  C   UNL     1      33.802   1.938   4.949  1.00  0.00     0.000 C 
BRANCH  16  17
ATOM     17  C   UNL     1      33.543   3.376   5.424  1.00  0.00    -0.000 C 
BRANCH  17  18
ATOM     18  C   UNL     1      33.840   3.567   6.918  1.00  0.00    -0.000 C 
BRANCH  18  19
ATOM     19  C   UNL     1      34.577   4.889   7.165  1.00  0.00    -0.003 C 
ATOM     20  C   UNL     1      35.400   4.834   8.448  1.00  0.00     0.004 C 
ENDBRANCH  18  19
ENDBRANCH  17  18
ENDBRANCH  16  17
ENDBRANCH  15  16
ENDBRANCH  14  15
ENDBRANCH  13  14
ENDBRANCH   2  13
TORSDOF 15
ENDMDL
MODEL 6
REMARK VINA RESULT:    -5.121      1.960      4.453
REMARK INTER + INTRA:         -12.844
REMARK INTER:                  -9.732
REMARK INTRA:                  -3.112
REMARK UNBOUND:                -3.231
REMARK SMILES CCCCCCCCC=CCCCCCCCC(=O)[O-]
REMARK SMILES IDX 10 1 9 2 11 3 12 4 13 5 14 6 15 7 16 8 17 9 18 10 19 11
REMARK SMILES IDX 20 12 8 13 7 14 6 15 5 16 4 17 3 18 2 19 1 20
REMARK H PARENT
REMARK Flexibility Score: inf
ROOT
ATOM      1  C   UNL     1      35.309   5.626   7.310  1.00  0.00    -0.031 C 
ATOM      2  C   UNL     1      34.284   5.304   6.496  1.00  0.00    -0.031 C 
ENDROOT
BRANCH   1   3
ATOM      3  C   UNL     1      35.874   4.737   8.387  1.00  0.00     0.027 C 
BRANCH   3   4
ATOM      4  C   UNL     1      37.250   4.185   7.993  1.00  0.00     0.004 C 
BRANCH   4   5
ATOM      5  C   UNL     1      37.161   2.868   7.203  1.00  0.00     0.000 C 
BRANCH   5   6
ATOM      6  C   UNL     1      38.014   2.863   5.917  1.00  0.00     0.000 C 
BRANCH   6   7
ATOM      7  C   UNL     1      37.188   3.216   4.668  1.00  0.00     0.000 C 
BRANCH   7   8
ATOM      8  C   UNL     1      37.276   4.707   4.294  1.00  0.00     0.006 C 
BRANCH   8   9
ATOM      9  C   UNL     1      36.164   5.192   3.349  1.00  0.00     0.053 C 
BRANCH   9  10
ATOM     10  C   UNL     1      36.659   5.418   1.953  1.00  0.00     0.041 C 
ATOM     11  O   UNL     1      37.889   5.572   1.735  1.00  0.00    -0.550 OA
ATOM     12  O   UNL     1      35.762   5.473   0.893  1.00  0.00    -0.550 OA
ENDBRANCH   9  10
ENDBRANCH   8   9
ENDBRANCH   7   8
ENDBRANCH   6   7
ENDBRANCH   5   6
ENDBRANCH   4   5
ENDBRANCH   3   4
ENDBRANCH   1   3
BRANCH   2  13
ATOM     13  C   UNL     1      33.511   4.005   6.533  1.00  0.00     0.027 C 
BRANCH  13  14
ATOM     14  C   UNL     1      33.408   3.354   5.142  1.00  0.00     0.004 C 
BRANCH  14  15
ATOM     15  C   UNL     1      33.935   1.909   5.065  1.00  0.00     0.000 C 
BRANCH  15  16
ATOM     16  C   UNL     1      33.931   1.198   6.429  1.00  0.00     0.000 C 
BRANCH  16  17
ATOM     17  C   UNL     1      34.637  -0.167   6.387  1.00  0.00    -0.000 C 
BRANCH  17  18
ATOM     18  C   UNL     1      35.181  -0.508   4.991  1.00  0.00    -0.000 C 
BRANCH  18  19
ATOM     19  C   UNL     1      36.610  -1.056   5.081  1.00  0.00    -0.003 C 
ATOM     20  C   UNL     1      37.516  -0.414   4.035  1.00  0.00     0.004 C 
ENDBRANCH  18  19
ENDBRANCH  17  18
ENDBRANCH  16  17
ENDBRANCH  15  16
ENDBRANCH  14  15
ENDBRANCH  13  14
ENDBRANCH   2  13
TORSDOF 15
ENDMDL
MODEL 7
REMARK VINA RESULT:    -5.091      1.377      2.744
REMARK INTER + INTRA:         -12.787
REMARK INTER:                 -10.016
REMARK INTRA:                  -2.771
REMARK UNBOUND:                -3.231
REMARK SMILES CCCCCCCCC=CCCCCCCCC(=O)[O-]
REMARK SMILES IDX 10 1 9 2 11 3 12 4 13 5 14 6 15 7 16 8 17 9 18 10 19 11
REMARK SMILES IDX 20 12 8 13 7 14 6 15 5 16 4 17 3 18 2 19 1 20
REMARK H PARENT
REMARK Flexibility Score: inf
ROOT
ATOM      1  C   UNL     1      35.309  -0.184   3.273  1.00  0.00    -0.031 C 
ATOM      2  C   UNL     1      34.777   1.051   3.204  1.00  0.00    -0.031 C 
ENDROOT
BRANCH   1   3
ATOM      3  C   UNL     1      35.443  -1.003   4.530  1.00  0.00     0.027 C 
BRANCH   3   4
ATOM      4  C   UNL     1      36.797  -0.767   5.212  1.00  0.00     0.004 C 
BRANCH   4   5
ATOM      5  C   UNL     1      36.691   0.135   6.452  1.00  0.00     0.000 C 
BRANCH   5   6
ATOM      6  C   UNL     1      38.050   0.409   7.132  1.00  0.00     0.000 C 
BRANCH   6   7
ATOM      7  C   UNL     1      38.582   1.820   6.824  1.00  0.00     0.000 C 
BRANCH   7   8
ATOM      8  C   UNL     1      37.575   2.680   6.039  1.00  0.00     0.006 C 
BRANCH   8   9
ATOM      9  C   UNL     1      38.176   3.422   4.833  1.00  0.00     0.053 C 
BRANCH   9  10
ATOM     10  C   UNL     1      38.990   2.519   3.957  1.00  0.00     0.041 C 
ATOM     11  O   UNL     1      38.430   1.606   3.296  1.00  0.00    -0.550 OA
ATOM     12  O   UNL     1      40.369   2.676   3.880  1.00  0.00    -0.550 OA
ENDBRANCH   9  10
ENDBRANCH   8   9
ENDBRANCH   7   8
ENDBRANCH   6   7
ENDBRANCH   5   6
ENDBRANCH   4   5
ENDBRANCH   3   4
ENDBRANCH   1   3
BRANCH   2  13
ATOM     13  C   UNL     1      34.239   1.841   4.377  1.00  0.00     0.027 C 
BRANCH  13  14
ATOM     14  C   UNL     1      34.466   3.353   4.208  1.00  0.00     0.004 C 
BRANCH  14  15
ATOM     15  C   UNL     1      34.006   4.211   5.402  1.00  0.00     0.000 C 
BRANCH  15  16
ATOM     16  C   UNL     1      33.538   3.367   6.600  1.00  0.00     0.000 C 
BRANCH  16  17
ATOM     17  C   UNL     1      34.525   3.411   7.778  1.00  0.00    -0.000 C 
BRANCH  17  18
ATOM     18  C   UNL     1      34.516   2.118   8.605  1.00  0.00    -0.000 C 
BRANCH  18  19
ATOM     19  C   UNL     1      33.227   1.323   8.362  1.00  0.00    -0.003 C 
ATOM     20  C   UNL     1      33.517  -0.002   7.664  1.00  0.00     0.004 C 
ENDBRANCH  18  19
ENDBRANCH  17  18
ENDBRANCH  16  17
ENDBRANCH  15  16
ENDBRANCH  14  15
ENDBRANCH  13  14
ENDBRANCH   2  13
TORSDOF 15
ENDMDL
MODEL 8
REMARK VINA RESULT:    -5.082      1.373      3.685
REMARK INTER + INTRA:         -12.770
REMARK INTER:                  -9.649
REMARK INTRA:                  -3.120
REMARK UNBOUND:                -3.231
REMARK SMILES CCCCCCCCC=CCCCCCCCC(=O)[O-]
REMARK SMILES IDX 10 1 9 2 11 3 12 4 13 5 14 6 15 7 16 8 17 9 18 10 19 11
REMARK SMILES IDX 20 12 8 13 7 14 6 15 5 16 4 17 3 18 2 19 1 20
REMARK H PARENT
REMARK Flexibility Score: inf
ROOT
ATOM      1  C   UNL     1      33.412   3.782   5.689  1.00  0.00    -0.031 C 
ATOM      2  C   UNL     1      33.470   2.893   4.678  1.00  0.00    -0.031 C 
ENDROOT
BRANCH   1   3
ATOM      3  C   UNL     1      34.595   4.509   6.274  1.00  0.00     0.027 C 
BRANCH   3   4
ATOM      4  C   UNL     1      34.849   4.089   7.727  1.00  0.00     0.004 C 
BRANCH   4   5
ATOM      5  C   UNL     1      36.122   3.242   7.889  1.00  0.00     0.000 C 
BRANCH   5   6
ATOM      6  C   UNL     1      37.188   3.520   6.807  1.00  0.00     0.000 C 
BRANCH   6   7
ATOM      7  C   UNL     1      37.998   2.262   6.450  1.00  0.00     0.000 C 
BRANCH   7   8
ATOM      8  C   UNL     1      38.285   2.144   4.942  1.00  0.00     0.006 C 
BRANCH   8   9
ATOM      9  C   UNL     1      38.370   3.490   4.203  1.00  0.00     0.053 C 
BRANCH   9  10
ATOM     10  C   UNL     1      39.761   3.799   3.739  1.00  0.00     0.041 C 
ATOM     11  O   UNL     1      40.000   4.874   3.129  1.00  0.00    -0.550 OA
ATOM     12  O   UNL     1      40.791   2.894   3.966  1.00  0.00    -0.550 OA
ENDBRANCH   9  10
ENDBRANCH   8   9
ENDBRANCH   7   8
ENDBRANCH   6   7
ENDBRANCH   5   6
ENDBRANCH   4   5
ENDBRANCH   3   4
ENDBRANCH   1   3
BRANCH   2  13
ATOM     13  C   UNL     1      34.730   2.456   3.965  1.00  0.00     0.027 C 
BRANCH  13  14
ATOM     14  C   UNL     1      34.494   1.219   3.080  1.00  0.00     0.004 C 
BRANCH  14  15
ATOM     15  C   UNL     1      35.629   0.178   3.113  1.00  0.00     0.000 C 
BRANCH  15  16
ATOM     16  C   UNL     1      35.295  -1.044   3.986  1.00  0.00     0.000 C 
BRANCH  16  17
ATOM     17  C   UNL     1      36.140  -1.103   5.268  1.00  0.00    -0.000 C 
BRANCH  17  18
ATOM     18  C   UNL     1      35.577  -0.215   6.388  1.00  0.00    -0.000 C 
BRANCH  18  19
ATOM     19  C   UNL     1      34.054  -0.362   6.489  1.00  0.00    -0.003 C 
ATOM     20  C   UNL     1      33.503   0.402   7.688  1.00  0.00     0.004 C 
ENDBRANCH  18  19
ENDBRANCH  17  18
ENDBRANCH  16  17
ENDBRANCH  15  16
ENDBRANCH  14  15
ENDBRANCH  13  14
ENDBRANCH   2  13
TORSDOF 15
ENDMDL
MODEL 9
REMARK VINA RESULT:    -5.065     14.555     18.293
REMARK INTER + INTRA:         -12.738
REMARK INTER:                  -9.760
REMARK INTRA:                  -2.977
REMARK UNBOUND:                -3.231
REMARK SMILES CCCCCCCCC=CCCCCCCCC(=O)[O-]
REMARK SMILES IDX 10 1 9 2 11 3 12 4 13 5 14 6 15 7 16 8 17 9 18 10 19 11
REMARK SMILES IDX 20 12 8 13 7 14 6 15 5 16 4 17 3 18 2 19 1 20
REMARK H PARENT
REMARK Flexibility Score: inf
ROOT
ATOM      1  C   UNL     1      45.372  12.270  -9.111  1.00  0.00    -0.031 C 
ATOM      2  C   UNL     1      45.796  12.820  -7.957  1.00  0.00    -0.031 C 
ENDROOT
BRANCH   1   3
ATOM      3  C   UNL     1      46.147  11.271  -9.932  1.00  0.00     0.027 C 
BRANCH   3   4
ATOM      4  C   UNL     1      45.349   9.978 -10.140  1.00  0.00     0.004 C 
BRANCH   4   5
ATOM      5  C   UNL     1      45.775   8.854  -9.180  1.00  0.00     0.000 C 
BRANCH   5   6
ATOM      6  C   UNL     1      47.050   9.182  -8.375  1.00  0.00     0.000 C 
BRANCH   6   7
ATOM      7  C   UNL     1      47.966   7.957  -8.209  1.00  0.00     0.000 C 
BRANCH   7   8
ATOM      8  C   UNL     1      49.344   8.315  -7.623  1.00  0.00     0.006 C 
BRANCH   8   9
ATOM      9  C   UNL     1      49.623   9.825  -7.532  1.00  0.00     0.053 C 
BRANCH   9  10
ATOM     10  C   UNL     1      50.200  10.220  -6.207  1.00  0.00     0.041 C 
ATOM     11  O   UNL     1      50.441   9.344  -5.335  1.00  0.00    -0.550 OA
ATOM     12  O   UNL     1      50.459  11.556  -5.927  1.00  0.00    -0.550 OA
ENDBRANCH   9  10
ENDBRANCH   8   9
ENDBRANCH   7   8
ENDBRANCH   6   7
ENDBRANCH   5   6
ENDBRANCH   4   5
ENDBRANCH   3   4
ENDBRANCH   1   3
BRANCH   2  13
ATOM     13  C   UNL     1      47.127  12.548  -7.292  1.00  0.00     0.027 C 
BRANCH  13  14
ATOM     14  C   UNL     1      46.968  12.203  -5.800  1.00  0.00     0.004 C 
BRANCH  14  15
ATOM     15  C   UNL     1      45.570  11.693  -5.402  1.00  0.00     0.000 C 
BRANCH  15  16
ATOM     16  C   UNL     1      45.561  10.202  -5.023  1.00  0.00     0.000 C 
BRANCH  16  17
ATOM     17  C   UNL     1      46.902   9.733  -4.436  1.00  0.00    -0.000 C 
BRANCH  17  18
ATOM     18  C   UNL     1      47.137   8.228  -4.629  1.00  0.00    -0.000 C 
BRANCH  18  19
ATOM     19  C   UNL     1      45.897   7.553  -5.228  1.00  0.00    -0.003 C 
ATOM     20  C   UNL     1      45.693   6.157  -4.649  1.00  0.00     0.004 C 
ENDBRANCH  18  19
ENDBRANCH  17  18
ENDBRANCH  16  17
ENDBRANCH  15  16
ENDBRANCH  14  15
ENDBRANCH  13  14
ENDBRANCH   2  13
TORSDOF 15
ENDMDL
