MODEL 1
REMARK VINA RESULT:    -3.799      0.000      0.000
REMARK INTER + INTRA:          -5.556
REMARK INTER:                  -5.354
REMARK INTRA:                  -0.202
REMARK UNBOUND:                -0.202
REMARK SMILES CCCCCCCCC(=O)[O-]
REMARK SMILES IDX 6 1 7 2 8 3 9 4 10 5 11 6 5 7 4 8 3 9 2 10 1 11
REMARK H PARENT
REMARK Flexibility Score: inf
ROOT
ATOM      1  C   UNL     1      32.139  17.880  24.938  1.00  0.00     0.000 C 
ENDROOT
BRANCH   1   2
ATOM      2  C   UNL     1      32.884  17.952  23.594  1.00  0.00     0.006 C 
BRANCH   2   3
ATOM      3  C   UNL     1      33.544  19.320  23.370  1.00  0.00     0.053 C 
BRANCH   3   4
ATOM      4  C   UNL     1      32.898  20.074  22.247  1.00  0.00     0.041 C 
ATOM      5  O   UNL     1      31.948  19.557  21.601  1.00  0.00    -0.550 OA
ATOM      6  O   UNL     1      33.324  21.358  21.934  1.00  0.00    -0.550 OA
ENDBRANCH   3   4
ENDBRANCH   2   3
ENDBRANCH   1   2
BRANCH   1   7
ATOM      7  C   UNL     1      31.350  19.162  25.247  1.00  0.00     0.000 C 
BRANCH   7   8
ATOM      8  C   UNL     1      30.298  18.955  26.350  1.00  0.00    -0.000 C 
BRANCH   8   9
ATOM      9  C   UNL     1      30.923  18.611  27.716  1.00  0.00    -0.000 C 
BRANCH   9  10
ATOM     10  C   UNL     1      30.959  17.110  28.053  1.00  0.00    -0.003 C 
ATOM     11  C   UNL     1      32.378  16.572  28.240  1.00  0.00     0.004 C 
ENDBRANCH   9  10
ENDBRANCH   8   9
ENDBRANCH   7   8
ENDBRANCH   1   7
TORSDOF 7
ENDMDL
MODEL 2
REMARK VINA RESULT:    -3.785      9.993     11.314
REMARK INTER + INTRA:          -5.535
REMARK INTER:                  -5.170
REMARK INTRA:                  -0.365
REMARK UNBOUND:                -0.202
REMARK SMILES CCCCCCCCC(=O)[O-]
REMARK SMILES IDX 6 1 7 2 8 3 9 4 10 5 11 6 5 7 4 8 3 9 2 10 1 11
REMARK H PARENT
REMARK Flexibility Score: inf
ROOT
ATOM      1  C   UNL     1      27.501  10.309  21.506  1.00  0.00     0.000 C 
ENDROOT
BRANCH   1   2
ATOM      2  C   UNL     1      26.520  10.800  22.585  1.00  0.00     0.006 C 
BRANCH   2   3
ATOM      3  C   UNL     1      25.785  12.079  22.162  1.00  0.00     0.053 C 
BRANCH   3   4
ATOM      4  C   UNL     1      24.999  11.879  20.902  1.00  0.00     0.041 C 
ATOM      5  O   UNL     1      25.283  12.539  19.867  1.00  0.00    -0.550 OA
ATOM      6  O   UNL     1      23.973  10.944  20.861  1.00  0.00    -0.550 OA
ENDBRANCH   3   4
ENDBRANCH   2   3
ENDBRANCH   1   2
BRANCH   1   7
ATOM      7  C   UNL     1      28.889   9.976  22.075  1.00  0.00     0.000 C 
BRANCH   7   8
ATOM      8  C   UNL     1      29.738   9.135  21.105  1.00  0.00    -0.000 C 
BRANCH   8   9
ATOM      9  C   UNL     1      29.030   8.876  19.762  1.00  0.00    -0.000 C 
BRANCH   9  10
ATOM     10  C   UNL     1      29.946   8.924  18.526  1.00  0.00    -0.003 C 
ATOM     11  C   UNL     1      31.358   9.415  18.845  1.00  0.00     0.004 C 
ENDBRANCH   9  10
ENDBRANCH   8   9
ENDBRANCH   7   8
ENDBRANCH   1   7
TORSDOF 7
ENDMDL
MODEL 3
REMARK VINA RESULT:    -3.766      9.902     11.480
REMARK INTER + INTRA:          -5.508
REMARK INTER:                  -5.172
REMARK INTRA:                  -0.336
REMARK UNBOUND:                -0.202
REMARK SMILES CCCCCCCCC(=O)[O-]
REMARK SMILES IDX 6 1 7 2 8 3 9 4 10 5 11 6 5 7 4 8 3 9 2 10 1 11
REMARK H PARENT
REMARK Flexibility Score: inf
ROOT
ATOM      1  C   UNL     1      27.743  10.622  22.307  1.00  0.00     0.000 C 
ENDROOT
BRANCH   1   2
ATOM      2  C   UNL     1      27.185  10.542  23.738  1.00  0.00     0.006 C 
BRANCH   2   3
ATOM      3  C   UNL     1      27.667   9.287  24.479  1.00  0.00     0.053 C 
BRANCH   3   4
ATOM      4  C   UNL     1      28.470   9.632  25.696  1.00  0.00     0.041 C 
ATOM      5  O   UNL     1      27.892   9.884  26.786  1.00  0.00    -0.550 OA
ATOM      6  O   UNL     1      29.858   9.646  25.633  1.00  0.00    -0.550 OA
ENDBRANCH   3   4
ENDBRANCH   2   3
ENDBRANCH   1   2
BRANCH   1   7
ATOM      7  C   UNL     1      29.065   9.856  22.144  1.00  0.00     0.000 C 
BRANCH   7   8
ATOM      8  C   UNL     1      29.064   8.932  20.914  1.00  0.00    -0.000 C 
BRANCH   8   9
ATOM      9  C   UNL     1      30.208   9.244  19.930  1.00  0.00    -0.000 C 
BRANCH   9  10
ATOM     10  C   UNL     1      29.846   9.088  18.443  1.00  0.00    -0.003 C 
ATOM     11  C   UNL     1      28.439   9.586  18.112  1.00  0.00     0.004 C 
ENDBRANCH   9  10
ENDBRANCH   8   9
ENDBRANCH   7   8
ENDBRANCH   1   7
TORSDOF 7
ENDMDL
MODEL 4
REMARK VINA RESULT:    -3.744     10.353     11.560
REMARK INTER + INTRA:          -5.478
REMARK INTER:                  -5.145
REMARK INTRA:                  -0.333
REMARK UNBOUND:                -0.202
REMARK SMILES CCCCCCCCC(=O)[O-]
REMARK SMILES IDX 6 1 7 2 8 3 9 4 10 5 11 6 5 7 4 8 3 9 2 10 1 11
REMARK H PARENT
REMARK Flexibility Score: inf
ROOT
ATOM      1  C   UNL     1      27.380  10.662  22.821  1.00  0.00     0.000 C 
ENDROOT
BRANCH   1   2
ATOM      2  C   UNL     1      26.425  10.845  21.629  1.00  0.00     0.006 C 
BRANCH   2   3
ATOM      3  C   UNL     1      24.996  11.179  22.078  1.00  0.00     0.053 C 
BRANCH   3   4
ATOM      4  C   UNL     1      24.052  11.265  20.917  1.00  0.00     0.041 C 
ATOM      5  O   UNL     1      23.131  10.416  20.786  1.00  0.00    -0.550 OA
ATOM      6  O   UNL     1      24.172  12.298  19.997  1.00  0.00    -0.550 OA
ENDBRANCH   3   4
ENDBRANCH   2   3
ENDBRANCH   1   2
BRANCH   1   7
ATOM      7  C   UNL     1      28.118   9.314  22.786  1.00  0.00     0.000 C 
BRANCH   7   8
ATOM      8  C   UNL     1      28.554   8.917  21.365  1.00  0.00    -0.000 C 
BRANCH   8   9
ATOM      9  C   UNL     1      29.849   9.621  20.919  1.00  0.00    -0.000 C 
BRANCH   9  10
ATOM     10  C   UNL     1      30.333   9.255  19.504  1.00  0.00    -0.003 C 
ATOM     11  C   UNL     1      29.210   9.256  18.467  1.00  0.00     0.004 C 
ENDBRANCH   9  10
ENDBRANCH   8   9
ENDBRANCH   7   8
ENDBRANCH   1   7
TORSDOF 7
ENDMDL
MODEL 5
REMARK VINA RESULT:    -3.697     10.390     11.182
REMARK INTER + INTRA:          -5.412
REMARK INTER:                  -4.890
REMARK INTRA:                  -0.522
REMARK UNBOUND:                -0.202
REMARK SMILES CCCCCCCCC(=O)[O-]
REMARK SMILES IDX 6 1 7 2 8 3 9 4 10 5 11 6 5 7 4 8 3 9 2 10 1 11
REMARK H PARENT
REMARK Flexibility Score: inf
ROOT
ATOM      1  C   UNL     1      26.020  12.623  21.858  1.00  0.00     0.000 C 
ENDROOT
BRANCH   1   2
ATOM      2  C   UNL     1      26.920  11.741  22.741  1.00  0.00     0.006 C 
BRANCH   2   3
ATOM      3  C   UNL     1      27.184  10.367  22.109  1.00  0.00     0.053 C 
BRANCH   3   4
ATOM      4  C   UNL     1      28.593   9.911  22.334  1.00  0.00     0.041 C 
ATOM      5  O   UNL     1      29.015   9.711  23.504  1.00  0.00    -0.550 OA
ATOM      6  O   UNL     1      29.432   9.679  21.251  1.00  0.00    -0.550 OA
ENDBRANCH   3   4
ENDBRANCH   2   3
ENDBRANCH   1   2
BRANCH   1   7
ATOM      7  C   UNL     1      25.517  11.888  20.605  1.00  0.00     0.000 C 
BRANCH   7   8
ATOM      8  C   UNL     1      24.327  12.602  19.941  1.00  0.00    -0.000 C 
BRANCH   8   9
ATOM      9  C   UNL     1      22.980  11.910  20.225  1.00  0.00    -0.000 C 
BRANCH   9  10
ATOM     10  C   UNL     1      23.089  10.490  20.808  1.00  0.00    -0.003 C 
ATOM     11  C   UNL     1      22.480  10.367  22.204  1.00  0.00     0.004 C 
ENDBRANCH   9  10
ENDBRANCH   8   9
ENDBRANCH   7   8
ENDBRANCH   1   7
TORSDOF 7
ENDMDL
MODEL 6
REMARK VINA RESULT:    -3.564     10.007     11.266
REMARK INTER + INTRA:          -5.225
REMARK INTER:                  -4.748
REMARK INTRA:                  -0.477
REMARK UNBOUND:                -0.202
REMARK SMILES CCCCCCCCC(=O)[O-]
REMARK SMILES IDX 6 1 7 2 8 3 9 4 10 5 11 6 5 7 4 8 3 9 2 10 1 11
REMARK H PARENT
REMARK Flexibility Score: inf
ROOT
ATOM      1  C   UNL     1      25.558  25.663  23.683  1.00  0.00     0.000 C 
ENDROOT
BRANCH   1   2
ATOM      2  C   UNL     1      26.074  26.813  22.800  1.00  0.00     0.006 C 
BRANCH   2   3
ATOM      3  C   UNL     1      27.586  26.718  22.551  1.00  0.00     0.053 C 
BRANCH   3   4
ATOM      4  C   UNL     1      28.256  28.052  22.681  1.00  0.00     0.041 C 
ATOM      5  O   UNL     1      28.540  28.510  23.819  1.00  0.00    -0.550 OA
ATOM      6  O   UNL     1      28.595  28.775  21.544  1.00  0.00    -0.550 OA
ENDBRANCH   3   4
ENDBRANCH   2   3
ENDBRANCH   1   2
BRANCH   1   7
ATOM      7  C   UNL     1      25.063  26.147  25.055  1.00  0.00     0.000 C 
BRANCH   7   8
ATOM      8  C   UNL     1      23.532  26.285  25.114  1.00  0.00    -0.000 C 
BRANCH   8   9
ATOM      9  C   UNL     1      23.038  27.665  24.640  1.00  0.00    -0.000 C 
BRANCH   9  10
ATOM     10  C   UNL     1      21.948  27.627  23.554  1.00  0.00    -0.003 C 
ATOM     11  C   UNL     1      22.509  27.755  22.138  1.00  0.00     0.004 C 
ENDBRANCH   9  10
ENDBRANCH   8   9
ENDBRANCH   7   8
ENDBRANCH   1   7
TORSDOF 7
ENDMDL
MODEL 7
REMARK VINA RESULT:    -3.471     10.928     11.904
REMARK INTER + INTRA:          -5.093
REMARK INTER:                  -4.179
REMARK INTRA:                  -0.913
REMARK UNBOUND:                -0.202
REMARK SMILES CCCCCCCCC(=O)[O-]
REMARK SMILES IDX 6 1 7 2 8 3 9 4 10 5 11 6 5 7 4 8 3 9 2 10 1 11
REMARK H PARENT
REMARK Flexibility Score: inf
ROOT
ATOM      1  C   UNL     1      22.988  10.387  21.079  1.00  0.00     0.000 C 
ENDROOT
BRANCH   1   2
ATOM      2  C   UNL     1      22.212  10.474  22.405  1.00  0.00     0.006 C 
BRANCH   2   3
ATOM      3  C   UNL     1      23.147  10.595  23.617  1.00  0.00     0.053 C 
BRANCH   3   4
ATOM      4  C   UNL     1      23.302  12.017  24.062  1.00  0.00     0.041 C 
ATOM      5  O   UNL     1      22.521  12.905  23.629  1.00  0.00    -0.550 OA
ATOM      6  O   UNL     1      24.290  12.357  24.977  1.00  0.00    -0.550 OA
ENDBRANCH   3   4
ENDBRANCH   2   3
ENDBRANCH   1   2
BRANCH   1   7
ATOM      7  C   UNL     1      22.964  11.707  20.292  1.00  0.00     0.000 C 
BRANCH   7   8
ATOM      8  C   UNL     1      24.280  12.494  20.419  1.00  0.00    -0.000 C 
BRANCH   8   9
ATOM      9  C   UNL     1      25.504  11.581  20.623  1.00  0.00    -0.000 C 
BRANCH   9  10
ATOM     10  C   UNL     1      26.298  11.839  21.917  1.00  0.00    -0.003 C 
ATOM     11  C   UNL     1      26.821  10.558  22.565  1.00  0.00     0.004 C 
ENDBRANCH   9  10
ENDBRANCH   8   9
ENDBRANCH   7   8
ENDBRANCH   1   7
TORSDOF 7
ENDMDL
MODEL 8
REMARK VINA RESULT:    -3.411     10.427     11.301
REMARK INTER + INTRA:          -5.009
REMARK INTER:                  -4.265
REMARK INTRA:                  -0.743
REMARK UNBOUND:                -0.202
REMARK SMILES CCCCCCCCC(=O)[O-]
REMARK SMILES IDX 6 1 7 2 8 3 9 4 10 5 11 6 5 7 4 8 3 9 2 10 1 11
REMARK H PARENT
REMARK Flexibility Score: inf
ROOT
ATOM      1  C   UNL     1      25.415  12.430  23.331  1.00  0.00     0.000 C 
ENDROOT
BRANCH   1   2
ATOM      2  C   UNL     1      26.739  12.156  22.597  1.00  0.00     0.006 C 
BRANCH   2   3
ATOM      3  C   UNL     1      26.750  10.780  21.917  1.00  0.00     0.053 C 
BRANCH   3   4
ATOM      4  C   UNL     1      27.934   9.961  22.332  1.00  0.00     0.041 C 
ATOM      5  O   UNL     1      28.359  10.019  23.516  1.00  0.00    -0.550 OA
ATOM      6  O   UNL     1      28.549   9.113  21.421  1.00  0.00    -0.550 OA
ENDBRANCH   3   4
ENDBRANCH   2   3
ENDBRANCH   1   2
BRANCH   1   7
ATOM      7  C   UNL     1      24.558  11.166  23.498  1.00  0.00     0.000 C 
BRANCH   7   8
ATOM      8  C   UNL     1      23.110  11.367  23.016  1.00  0.00    -0.000 C 
BRANCH   8   9
ATOM      9  C   UNL     1      22.718  10.401  21.882  1.00  0.00    -0.000 C 
BRANCH   9  10
ATOM     10  C   UNL     1      23.273  10.770  20.494  1.00  0.00    -0.003 C 
ATOM     11  C   UNL     1      23.191  12.266  20.194  1.00  0.00     0.004 C 
ENDBRANCH   9  10
ENDBRANCH   8   9
ENDBRANCH   7   8
ENDBRANCH   1   7
TORSDOF 7
ENDMDL
