MODEL 1
REMARK VINA RESULT:    -5.602      0.000      0.000
REMARK INTER + INTRA:         -11.126
REMARK INTER:                 -10.186
REMARK INTRA:                  -0.940
REMARK UNBOUND:                -0.940
REMARK SMILES CCCCCCCCCCCCCC[C@H](C)C(=O)[O-]
REMARK SMILES IDX 9 1 10 2 11 3 12 4 13 5 14 6 15 7 16 8 17 9 18 10 19 11 8 12
REMARK SMILES IDX 7 13 6 14 5 15 4 16 3 17 2 18 1 19
REMARK H PARENT
REMARK Flexibility Score: inf
ROOT
ATOM      1  C   UNL     1      13.555   7.429 -20.463  1.00  0.00     0.000 C 
ENDROOT
BRANCH   1   2
ATOM      2  C   UNL     1      14.921   6.800 -20.770  1.00  0.00     0.000 C 
BRANCH   2   3
ATOM      3  C   UNL     1      15.640   7.564 -21.893  1.00  0.00     0.000 C 
BRANCH   3   4
ATOM      4  C   UNL     1      16.399   8.799 -21.366  1.00  0.00     0.000 C 
BRANCH   4   5
ATOM      5  C   UNL     1      16.929   8.629 -19.932  1.00  0.00     0.001 C 
BRANCH   5   6
ATOM      6  C   UNL     1      17.884   9.757 -19.507  1.00  0.00     0.009 C 
BRANCH   6   7
ATOM      7  C   UNL     1      18.138  10.765 -20.647  1.00  0.00     0.032 C 
ATOM      8  C   UNL     1      19.576  10.648 -21.162  1.00  0.00     0.014 C 
BRANCH   7   9
ATOM      9  C   UNL     1      17.865  12.178 -20.203  1.00  0.00     0.044 C 
ATOM     10  O   UNL     1      16.708  12.667 -20.296  1.00  0.00    -0.550 OA
ATOM     11  O   UNL     1      18.897  12.952 -19.687  1.00  0.00    -0.550 OA
ENDBRANCH   7   9
ENDBRANCH   6   7
ENDBRANCH   5   6
ENDBRANCH   4   5
ENDBRANCH   3   4
ENDBRANCH   2   3
ENDBRANCH   1   2
BRANCH   1  12
ATOM     12  C   UNL     1      13.125   7.127 -19.020  1.00  0.00     0.000 C 
BRANCH  12  13
ATOM     13  C   UNL     1      12.347   8.287 -18.379  1.00  0.00    -0.000 C 
BRANCH  13  14
ATOM     14  C   UNL     1      11.643   9.173 -19.421  1.00  0.00    -0.000 C 
BRANCH  14  15
ATOM     15  C   UNL     1      10.826  10.310 -18.784  1.00  0.00    -0.000 C 
BRANCH  15  16
ATOM     16  C   UNL     1      10.552  11.489 -19.741  1.00  0.00    -0.000 C 
BRANCH  16  17
ATOM     17  C   UNL     1      10.117  12.759 -18.987  1.00  0.00    -0.000 C 
BRANCH  17  18
ATOM     18  C   UNL     1       9.003  13.526 -19.714  1.00  0.00    -0.003 C 
ATOM     19  C   UNL     1       8.274  12.670 -20.750  1.00  0.00     0.004 C 
ENDBRANCH  17  18
ENDBRANCH  16  17
ENDBRANCH  15  16
ENDBRANCH  14  15
ENDBRANCH  13  14
ENDBRANCH  12  13
ENDBRANCH   1  12
TORSDOF 14
ENDMDL
MODEL 2
REMARK VINA RESULT:    -5.582      0.804      2.357
REMARK INTER + INTRA:         -11.090
REMARK INTER:                 -10.109
REMARK INTRA:                  -0.981
REMARK UNBOUND:                -0.940
REMARK SMILES CCCCCCCCCCCCCC[C@H](C)C(=O)[O-]
REMARK SMILES IDX 9 1 10 2 11 3 12 4 13 5 14 6 15 7 16 8 17 9 18 10 19 11 8 12
REMARK SMILES IDX 7 13 6 14 5 15 4 16 3 17 2 18 1 19
REMARK H PARENT
REMARK Flexibility Score: inf
ROOT
ATOM      1  C   UNL     1      15.610   7.388 -21.892  1.00  0.00     0.000 C 
ENDROOT
BRANCH   1   2
ATOM      2  C   UNL     1      16.341   8.582 -21.264  1.00  0.00     0.000 C 
BRANCH   2   3
ATOM      3  C   UNL     1      16.669   8.314 -19.787  1.00  0.00     0.000 C 
BRANCH   3   4
ATOM      4  C   UNL     1      17.893   9.121 -19.306  1.00  0.00     0.000 C 
BRANCH   4   5
ATOM      5  C   UNL     1      18.989   9.270 -20.374  1.00  0.00     0.001 C 
BRANCH   5   6
ATOM      6  C   UNL     1      19.425  10.730 -20.586  1.00  0.00     0.009 C 
BRANCH   6   7
ATOM      7  C   UNL     1      18.285  11.602 -21.148  1.00  0.00     0.032 C 
ATOM      8  C   UNL     1      18.612  12.068 -22.571  1.00  0.00     0.014 C 
BRANCH   7   9
ATOM      9  C   UNL     1      18.017  12.794 -20.267  1.00  0.00     0.044 C 
ATOM     10  O   UNL     1      18.970  13.436 -19.751  1.00  0.00    -0.550 OA
ATOM     11  O   UNL     1      16.709  13.191 -20.018  1.00  0.00    -0.550 OA
ENDBRANCH   7   9
ENDBRANCH   6   7
ENDBRANCH   5   6
ENDBRANCH   4   5
ENDBRANCH   3   4
ENDBRANCH   2   3
ENDBRANCH   1   2
BRANCH   1  12
ATOM     12  C   UNL     1      14.893   6.556 -20.819  1.00  0.00     0.000 C 
BRANCH  12  13
ATOM     13  C   UNL     1      13.544   7.162 -20.400  1.00  0.00    -0.000 C 
BRANCH  13  14
ATOM     14  C   UNL     1      13.389   7.259 -18.873  1.00  0.00    -0.000 C 
BRANCH  14  15
ATOM     15  C   UNL     1      12.186   8.118 -18.449  1.00  0.00    -0.000 C 
BRANCH  15  16
ATOM     16  C   UNL     1      11.786   9.182 -19.493  1.00  0.00    -0.000 C 
BRANCH  16  17
ATOM     17  C   UNL     1      10.742  10.171 -18.942  1.00  0.00    -0.000 C 
BRANCH  17  18
ATOM     18  C   UNL     1      10.683  11.478 -19.747  1.00  0.00    -0.003 C 
ATOM     19  C   UNL     1      10.047  12.627 -18.963  1.00  0.00     0.004 C 
ENDBRANCH  17  18
ENDBRANCH  16  17
ENDBRANCH  15  16
ENDBRANCH  14  15
ENDBRANCH  13  14
ENDBRANCH  12  13
ENDBRANCH   1  12
TORSDOF 14
ENDMDL
MODEL 3
REMARK VINA RESULT:    -5.550      1.153      1.982
REMARK INTER + INTRA:         -11.033
REMARK INTER:                 -10.124
REMARK INTRA:                  -0.909
REMARK UNBOUND:                -0.940
REMARK SMILES CCCCCCCCCCCCCC[C@H](C)C(=O)[O-]
REMARK SMILES IDX 9 1 10 2 11 3 12 4 13 5 14 6 15 7 16 8 17 9 18 10 19 11 8 12
REMARK SMILES IDX 7 13 6 14 5 15 4 16 3 17 2 18 1 19
REMARK H PARENT
REMARK Flexibility Score: inf
ROOT
ATOM      1  C   UNL     1      13.409   7.265 -18.955  1.00  0.00     0.000 C 
ENDROOT
BRANCH   1   2
ATOM      2  C   UNL     1      13.478   7.113 -20.480  1.00  0.00     0.000 C 
BRANCH   2   3
ATOM      3  C   UNL     1      14.790   6.437 -20.909  1.00  0.00     0.000 C 
BRANCH   3   4
ATOM      4  C   UNL     1      15.561   7.271 -21.954  1.00  0.00     0.000 C 
BRANCH   4   5
ATOM      5  C   UNL     1      16.083   8.610 -21.408  1.00  0.00     0.001 C 
BRANCH   5   6
ATOM      6  C   UNL     1      16.815   8.465 -20.063  1.00  0.00     0.009 C 
BRANCH   6   7
ATOM      7  C   UNL     1      18.255   9.014 -20.122  1.00  0.00     0.032 C 
ATOM      8  C   UNL     1      18.995   8.733 -18.810  1.00  0.00     0.014 C 
BRANCH   7   9
ATOM      9  C   UNL     1      18.270  10.492 -20.413  1.00  0.00     0.044 C 
ATOM     10  O   UNL     1      18.664  10.921 -21.530  1.00  0.00    -0.550 OA
ATOM     11  O   UNL     1      17.847  11.392 -19.443  1.00  0.00    -0.550 OA
ENDBRANCH   7   9
ENDBRANCH   6   7
ENDBRANCH   5   6
ENDBRANCH   4   5
ENDBRANCH   3   4
ENDBRANCH   2   3
ENDBRANCH   1   2
BRANCH   1  12
ATOM     12  C   UNL     1      12.175   8.080 -18.540  1.00  0.00     0.000 C 
BRANCH  12  13
ATOM     13  C   UNL     1      11.786   9.139 -19.583  1.00  0.00    -0.000 C 
BRANCH  13  14
ATOM     14  C   UNL     1      10.761  10.152 -19.042  1.00  0.00    -0.000 C 
BRANCH  14  15
ATOM     15  C   UNL     1      10.806  11.499 -19.782  1.00  0.00    -0.000 C 
BRANCH  15  16
ATOM     16  C   UNL     1       9.427  11.974 -20.289  1.00  0.00    -0.000 C 
BRANCH  16  17
ATOM     17  C   UNL     1       9.115  13.417 -19.851  1.00  0.00    -0.000 C 
BRANCH  17  18
ATOM     18  C   UNL     1       9.542  13.700 -18.403  1.00  0.00    -0.003 C 
ATOM     19  C   UNL     1       9.330  15.158 -17.998  1.00  0.00     0.004 C 
ENDBRANCH  17  18
ENDBRANCH  16  17
ENDBRANCH  15  16
ENDBRANCH  14  15
ENDBRANCH  13  14
ENDBRANCH  12  13
ENDBRANCH   1  12
TORSDOF 14
ENDMDL
MODEL 4
REMARK VINA RESULT:    -5.413      3.158      7.360
REMARK INTER + INTRA:         -10.782
REMARK INTER:                  -9.863
REMARK INTRA:                  -0.919
REMARK UNBOUND:                -0.940
REMARK SMILES CCCCCCCCCCCCCC[C@H](C)C(=O)[O-]
REMARK SMILES IDX 9 1 10 2 11 3 12 4 13 5 14 6 15 7 16 8 17 9 18 10 19 11 8 12
REMARK SMILES IDX 7 13 6 14 5 15 4 16 3 17 2 18 1 19
REMARK H PARENT
REMARK Flexibility Score: inf
ROOT
ATOM      1  C   UNL     1      13.543   7.186 -20.351  1.00  0.00     0.000 C 
ENDROOT
BRANCH   1   2
ATOM      2  C   UNL     1      13.420   7.140 -18.822  1.00  0.00     0.000 C 
BRANCH   2   3
ATOM      3  C   UNL     1      12.661   8.367 -18.292  1.00  0.00     0.000 C 
BRANCH   3   4
ATOM      4  C   UNL     1      11.635   8.903 -19.312  1.00  0.00     0.000 C 
BRANCH   4   5
ATOM      5  C   UNL     1      10.915  10.180 -18.847  1.00  0.00     0.001 C 
BRANCH   5   6
ATOM      6  C   UNL     1      10.537  11.113 -20.009  1.00  0.00     0.009 C 
BRANCH   6   7
ATOM      7  C   UNL     1      10.211  12.541 -19.526  1.00  0.00     0.032 C 
ATOM      8  C   UNL     1      10.070  12.577 -18.001  1.00  0.00     0.014 C 
BRANCH   7   9
ATOM      9  C   UNL     1       8.954  13.066 -20.170  1.00  0.00     0.044 C 
ATOM     10  O   UNL     1       8.233  12.312 -20.876  1.00  0.00    -0.550 OA
ATOM     11  O   UNL     1       8.586  14.394 -19.987  1.00  0.00    -0.550 OA
ENDBRANCH   7   9
ENDBRANCH   6   7
ENDBRANCH   5   6
ENDBRANCH   4   5
ENDBRANCH   3   4
ENDBRANCH   2   3
ENDBRANCH   1   2
BRANCH   1  12
ATOM     12  C   UNL     1      14.804   6.447 -20.822  1.00  0.00     0.000 C 
BRANCH  12  13
ATOM     13  C   UNL     1      15.640   7.273 -21.813  1.00  0.00    -0.000 C 
BRANCH  13  14
ATOM     14  C   UNL     1      15.954   8.684 -21.287  1.00  0.00    -0.000 C 
BRANCH  14  15
ATOM     15  C   UNL     1      17.172   8.713 -20.349  1.00  0.00    -0.000 C 
BRANCH  15  16
ATOM     16  C   UNL     1      18.058   9.965 -20.523  1.00  0.00    -0.000 C 
BRANCH  16  17
ATOM     17  C   UNL     1      17.564  10.869 -21.668  1.00  0.00    -0.000 C 
BRANCH  17  18
ATOM     18  C   UNL     1      18.679  11.755 -22.244  1.00  0.00    -0.003 C 
ATOM     19  C   UNL     1      18.710  11.747 -23.772  1.00  0.00     0.004 C 
ENDBRANCH  17  18
ENDBRANCH  16  17
ENDBRANCH  15  16
ENDBRANCH  14  15
ENDBRANCH  13  14
ENDBRANCH  12  13
ENDBRANCH   1  12
TORSDOF 14
ENDMDL
MODEL 5
REMARK VINA RESULT:    -5.289      1.995      3.124
REMARK INTER + INTRA:         -10.558
REMARK INTER:                  -9.968
REMARK INTRA:                  -0.590
REMARK UNBOUND:                -0.940
REMARK SMILES CCCCCCCCCCCCCC[C@H](C)C(=O)[O-]
REMARK SMILES IDX 9 1 10 2 11 3 12 4 13 5 14 6 15 7 16 8 17 9 18 10 19 11 8 12
REMARK SMILES IDX 7 13 6 14 5 15 4 16 3 17 2 18 1 19
REMARK H PARENT
REMARK Flexibility Score: inf
ROOT
ATOM      1  C   UNL     1      11.963   8.550 -19.020  1.00  0.00     0.000 C 
ENDROOT
BRANCH   1   2
ATOM      2  C   UNL     1      12.746   7.899 -20.169  1.00  0.00     0.000 C 
BRANCH   2   3
ATOM      3  C   UNL     1      13.957   7.117 -19.638  1.00  0.00     0.000 C 
BRANCH   3   4
ATOM      4  C   UNL     1      14.956   6.759 -20.759  1.00  0.00     0.000 C 
BRANCH   4   5
ATOM      5  C   UNL     1      15.901   7.913 -21.132  1.00  0.00     0.001 C 
BRANCH   5   6
ATOM      6  C   UNL     1      16.678   8.465 -19.925  1.00  0.00     0.009 C 
BRANCH   6   7
ATOM      7  C   UNL     1      18.052   9.038 -20.330  1.00  0.00     0.032 C 
ATOM      8  C   UNL     1      19.127   8.632 -19.315  1.00  0.00     0.014 C 
BRANCH   7   9
ATOM      9  C   UNL     1      18.008  10.538 -20.458  1.00  0.00     0.044 C 
ATOM     10  O   UNL     1      17.682  11.255 -19.475  1.00  0.00    -0.550 OA
ATOM     11  O   UNL     1      18.327  11.138 -21.670  1.00  0.00    -0.550 OA
ENDBRANCH   7   9
ENDBRANCH   6   7
ENDBRANCH   5   6
ENDBRANCH   4   5
ENDBRANCH   3   4
ENDBRANCH   2   3
ENDBRANCH   1   2
BRANCH   1  12
ATOM     12  C   UNL     1      11.128   9.735 -19.527  1.00  0.00     0.000 C 
BRANCH  12  13
ATOM     13  C   UNL     1      10.799  10.746 -18.417  1.00  0.00    -0.000 C 
BRANCH  13  14
ATOM     14  C   UNL     1      10.384  12.119 -18.974  1.00  0.00    -0.000 C 
BRANCH  14  15
ATOM     15  C   UNL     1      10.032  13.129 -17.869  1.00  0.00    -0.000 C 
BRANCH  15  16
ATOM     16  C   UNL     1       9.412  14.438 -18.401  1.00  0.00    -0.000 C 
BRANCH  16  17
ATOM     17  C   UNL     1       9.314  15.518 -17.308  1.00  0.00    -0.000 C 
BRANCH  17  18
ATOM     18  C   UNL     1       9.510  14.948 -15.895  1.00  0.00    -0.003 C 
ATOM     19  C   UNL     1       9.922  16.013 -14.879  1.00  0.00     0.004 C 
ENDBRANCH  17  18
ENDBRANCH  16  17
ENDBRANCH  15  16
ENDBRANCH  14  15
ENDBRANCH  13  14
ENDBRANCH  12  13
ENDBRANCH   1  12
TORSDOF 14
ENDMDL
MODEL 6
REMARK VINA RESULT:    -5.275      2.848      7.342
REMARK INTER + INTRA:         -10.531
REMARK INTER:                  -9.453
REMARK INTRA:                  -1.078
REMARK UNBOUND:                -0.940
REMARK SMILES CCCCCCCCCCCCCC[C@H](C)C(=O)[O-]
REMARK SMILES IDX 9 1 10 2 11 3 12 4 13 5 14 6 15 7 16 8 17 9 18 10 19 11 8 12
REMARK SMILES IDX 7 13 6 14 5 15 4 16 3 17 2 18 1 19
REMARK H PARENT
REMARK Flexibility Score: inf
ROOT
ATOM      1  C   UNL     1      13.425   7.355 -20.504  1.00  0.00     0.000 C 
ENDROOT
BRANCH   1   2
ATOM      2  C   UNL     1      13.311   7.600 -18.994  1.00  0.00     0.000 C 
BRANCH   2   3
ATOM      3  C   UNL     1      11.920   8.138 -18.625  1.00  0.00     0.000 C 
BRANCH   3   4
ATOM      4  C   UNL     1      11.477   9.291 -19.550  1.00  0.00     0.000 C 
BRANCH   4   5
ATOM      5  C   UNL     1      10.737  10.420 -18.813  1.00  0.00     0.001 C 
BRANCH   5   6
ATOM      6  C   UNL     1      10.695  11.732 -19.615  1.00  0.00     0.009 C 
BRANCH   6   7
ATOM      7  C   UNL     1       9.377  12.504 -19.398  1.00  0.00     0.032 C 
ATOM      8  C   UNL     1       8.810  12.990 -20.736  1.00  0.00     0.014 C 
BRANCH   7   9
ATOM      9  C   UNL     1       9.571  13.673 -18.468  1.00  0.00     0.044 C 
ATOM     10  O   UNL     1      10.115  13.513 -17.343  1.00  0.00    -0.550 OA
ATOM     11  O   UNL     1       9.144  14.939 -18.850  1.00  0.00    -0.550 OA
ENDBRANCH   7   9
ENDBRANCH   6   7
ENDBRANCH   5   6
ENDBRANCH   4   5
ENDBRANCH   3   4
ENDBRANCH   2   3
ENDBRANCH   1   2
BRANCH   1  12
ATOM     12  C   UNL     1      14.659   6.500 -20.830  1.00  0.00     0.000 C 
BRANCH  12  13
ATOM     13  C   UNL     1      15.731   7.279 -21.609  1.00  0.00    -0.000 C 
BRANCH  13  14
ATOM     14  C   UNL     1      15.211   8.625 -22.143  1.00  0.00    -0.000 C 
BRANCH  14  15
ATOM     15  C   UNL     1      16.253   9.751 -22.036  1.00  0.00    -0.000 C 
BRANCH  15  16
ATOM     16  C   UNL     1      17.526   9.346 -21.262  1.00  0.00    -0.000 C 
BRANCH  16  17
ATOM     17  C   UNL     1      17.675  10.127 -19.943  1.00  0.00    -0.000 C 
BRANCH  17  18
ATOM     18  C   UNL     1      17.548   9.225 -18.706  1.00  0.00    -0.003 C 
ATOM     19  C   UNL     1      18.803   8.391 -18.451  1.00  0.00     0.004 C 
ENDBRANCH  17  18
ENDBRANCH  16  17
ENDBRANCH  15  16
ENDBRANCH  14  15
ENDBRANCH  13  14
ENDBRANCH  12  13
ENDBRANCH   1  12
TORSDOF 14
ENDMDL
MODEL 7
REMARK VINA RESULT:    -5.230      3.081      5.087
REMARK INTER + INTRA:         -10.451
REMARK INTER:                  -8.836
REMARK INTRA:                  -1.616
REMARK UNBOUND:                -0.940
REMARK SMILES CCCCCCCCCCCCCC[C@H](C)C(=O)[O-]
REMARK SMILES IDX 9 1 10 2 11 3 12 4 13 5 14 6 15 7 16 8 17 9 18 10 19 11 8 12
REMARK SMILES IDX 7 13 6 14 5 15 4 16 3 17 2 18 1 19
REMARK H PARENT
REMARK Flexibility Score: inf
ROOT
ATOM      1  C   UNL     1      19.017   8.618 -18.992  1.00  0.00     0.000 C 
ENDROOT
BRANCH   1   2
ATOM      2  C   UNL     1      19.792   8.899 -20.286  1.00  0.00     0.000 C 
BRANCH   2   3
ATOM      3  C   UNL     1      19.985  10.408 -20.497  1.00  0.00     0.000 C 
BRANCH   3   4
ATOM      4  C   UNL     1      19.510  10.867 -21.892  1.00  0.00     0.000 C 
BRANCH   4   5
ATOM      5  C   UNL     1      19.059  12.337 -21.934  1.00  0.00     0.001 C 
BRANCH   5   6
ATOM      6  C   UNL     1      19.390  13.103 -20.642  1.00  0.00     0.009 C 
BRANCH   6   7
ATOM      7  C   UNL     1      18.126  13.436 -19.822  1.00  0.00     0.032 C 
ATOM      8  C   UNL     1      16.892  12.769 -20.438  1.00  0.00     0.014 C 
BRANCH   7   9
ATOM      9  C   UNL     1      17.910  14.923 -19.723  1.00  0.00     0.044 C 
ATOM     10  O   UNL     1      17.078  15.501 -20.472  1.00  0.00    -0.550 OA
ATOM     11  O   UNL     1      18.635  15.668 -18.800  1.00  0.00    -0.550 OA
ENDBRANCH   7   9
ENDBRANCH   6   7
ENDBRANCH   5   6
ENDBRANCH   4   5
ENDBRANCH   3   4
ENDBRANCH   2   3
ENDBRANCH   1   2
BRANCH   1  12
ATOM     12  C   UNL     1      17.662   9.342 -18.995  1.00  0.00     0.000 C 
BRANCH  12  13
ATOM     13  C   UNL     1      16.531   8.482 -19.578  1.00  0.00    -0.000 C 
BRANCH  13  14
ATOM     14  C   UNL     1      16.475   8.543 -21.115  1.00  0.00    -0.000 C 
BRANCH  14  15
ATOM     15  C   UNL     1      15.643   7.404 -21.727  1.00  0.00    -0.000 C 
BRANCH  15  16
ATOM     16  C   UNL     1      14.766   6.656 -20.700  1.00  0.00    -0.000 C 
BRANCH  16  17
ATOM     17  C   UNL     1      13.281   7.048 -20.814  1.00  0.00    -0.000 C 
BRANCH  17  18
ATOM     18  C   UNL     1      12.788   7.855 -19.604  1.00  0.00    -0.003 C 
ATOM     19  C   UNL     1      13.096   7.171 -18.272  1.00  0.00     0.004 C 
ENDBRANCH  17  18
ENDBRANCH  16  17
ENDBRANCH  15  16
ENDBRANCH  14  15
ENDBRANCH  13  14
ENDBRANCH  12  13
ENDBRANCH   1  12
TORSDOF 14
ENDMDL
MODEL 8
REMARK VINA RESULT:    -5.148      3.059      7.605
REMARK INTER + INTRA:         -10.302
REMARK INTER:                  -9.362
REMARK INTRA:                  -0.940
REMARK UNBOUND:                -0.940
REMARK SMILES CCCCCCCCCCCCCC[C@H](C)C(=O)[O-]
REMARK SMILES IDX 9 1 10 2 11 3 12 4 13 5 14 6 15 7 16 8 17 9 18 10 19 11 8 12
REMARK SMILES IDX 7 13 6 14 5 15 4 16 3 17 2 18 1 19
REMARK H PARENT
REMARK Flexibility Score: inf
ROOT
ATOM      1  C   UNL     1      12.198   8.307 -18.254  1.00  0.00     0.000 C 
ENDROOT
BRANCH   1   2
ATOM      2  C   UNL     1      11.633   9.236 -19.337  1.00  0.00     0.000 C 
BRANCH   2   3
ATOM      3  C   UNL     1      10.789  10.359 -18.715  1.00  0.00     0.000 C 
BRANCH   3   4
ATOM      4  C   UNL     1      10.383  11.426 -19.754  1.00  0.00     0.000 C 
BRANCH   4   5
ATOM      5  C   UNL     1      10.093  12.804 -19.137  1.00  0.00     0.001 C 
BRANCH   5   6
ATOM      6  C   UNL     1      10.079  12.782 -17.599  1.00  0.00     0.009 C 
BRANCH   6   7
ATOM      7  C   UNL     1       9.376  14.020 -17.005  1.00  0.00     0.032 C 
ATOM      8  C   UNL     1       9.378  15.176 -18.011  1.00  0.00     0.014 C 
BRANCH   7   9
ATOM      9  C   UNL     1      10.026  14.458 -15.719  1.00  0.00     0.044 C 
ATOM     10  O   UNL     1      10.613  13.623 -14.981  1.00  0.00    -0.550 OA
ATOM     11  O   UNL     1       9.977  15.794 -15.339  1.00  0.00    -0.550 OA
ENDBRANCH   7   9
ENDBRANCH   6   7
ENDBRANCH   5   6
ENDBRANCH   4   5
ENDBRANCH   3   4
ENDBRANCH   2   3
ENDBRANCH   1   2
BRANCH   1  12
ATOM     12  C   UNL     1      13.366   7.472 -18.801  1.00  0.00     0.000 C 
BRANCH  12  13
ATOM     13  C   UNL     1      13.354   7.370 -20.334  1.00  0.00    -0.000 C 
BRANCH  13  14
ATOM     14  C   UNL     1      14.426   6.405 -20.870  1.00  0.00    -0.000 C 
BRANCH  14  15
ATOM     15  C   UNL     1      15.569   7.129 -21.601  1.00  0.00    -0.000 C 
BRANCH  15  16
ATOM     16  C   UNL     1      15.197   8.548 -22.080  1.00  0.00    -0.000 C 
BRANCH  16  17
ATOM     17  C   UNL     1      16.349   9.549 -21.872  1.00  0.00    -0.000 C 
BRANCH  17  18
ATOM     18  C   UNL     1      17.287   9.141 -20.725  1.00  0.00    -0.003 C 
ATOM     19  C   UNL     1      18.287  10.238 -20.361  1.00  0.00     0.004 C 
ENDBRANCH  17  18
ENDBRANCH  16  17
ENDBRANCH  15  16
ENDBRANCH  14  15
ENDBRANCH  13  14
ENDBRANCH  12  13
ENDBRANCH   1  12
TORSDOF 14
ENDMDL
MODEL 9
REMARK VINA RESULT:    -5.134      1.745      3.997
REMARK INTER + INTRA:         -10.275
REMARK INTER:                  -9.177
REMARK INTRA:                  -1.098
REMARK UNBOUND:                -0.940
REMARK SMILES CCCCCCCCCCCCCC[C@H](C)C(=O)[O-]
REMARK SMILES IDX 9 1 10 2 11 3 12 4 13 5 14 6 15 7 16 8 17 9 18 10 19 11 8 12
REMARK SMILES IDX 7 13 6 14 5 15 4 16 3 17 2 18 1 19
REMARK H PARENT
REMARK Flexibility Score: inf
ROOT
ATOM      1  C   UNL     1      16.726   8.404 -19.736  1.00  0.00     0.000 C 
ENDROOT
BRANCH   1   2
ATOM      2  C   UNL     1      18.047   9.039 -19.280  1.00  0.00     0.000 C 
BRANCH   2   3
ATOM      3  C   UNL     1      19.072   9.064 -20.424  1.00  0.00     0.000 C 
BRANCH   3   4
ATOM      4  C   UNL     1      19.627  10.481 -20.679  1.00  0.00     0.000 C 
BRANCH   4   5
ATOM      5  C   UNL     1      18.600  11.440 -21.305  1.00  0.00     0.001 C 
BRANCH   5   6
ATOM      6  C   UNL     1      17.967  12.394 -20.278  1.00  0.00     0.009 C 
BRANCH   6   7
ATOM      7  C   UNL     1      18.532  13.825 -20.388  1.00  0.00     0.032 C 
ATOM      8  C   UNL     1      19.837  13.954 -19.596  1.00  0.00     0.014 C 
BRANCH   7   9
ATOM      9  C   UNL     1      17.536  14.848 -19.907  1.00  0.00     0.044 C 
ATOM     10  O   UNL     1      17.213  15.821 -20.639  1.00  0.00    -0.550 OA
ATOM     11  O   UNL     1      16.969  14.721 -18.645  1.00  0.00    -0.550 OA
ENDBRANCH   7   9
ENDBRANCH   6   7
ENDBRANCH   5   6
ENDBRANCH   4   5
ENDBRANCH   3   4
ENDBRANCH   2   3
ENDBRANCH   1   2
BRANCH   1  12
ATOM     12  C   UNL     1      16.526   8.580 -21.249  1.00  0.00     0.000 C 
BRANCH  12  13
ATOM     13  C   UNL     1      15.455   7.637 -21.818  1.00  0.00    -0.000 C 
BRANCH  13  14
ATOM     14  C   UNL     1      14.912   6.655 -20.765  1.00  0.00    -0.000 C 
BRANCH  14  15
ATOM     15  C   UNL     1      13.493   7.012 -20.292  1.00  0.00    -0.000 C 
BRANCH  15  16
ATOM     16  C   UNL     1      13.373   7.179 -18.763  1.00  0.00    -0.000 C 
BRANCH  16  17
ATOM     17  C   UNL     1      12.307   8.220 -18.376  1.00  0.00    -0.000 C 
BRANCH  17  18
ATOM     18  C   UNL     1      11.825   9.046 -19.578  1.00  0.00    -0.003 C 
ATOM     19  C   UNL     1      10.851  10.156 -19.180  1.00  0.00     0.004 C 
ENDBRANCH  17  18
ENDBRANCH  16  17
ENDBRANCH  15  16
ENDBRANCH  14  15
ENDBRANCH  13  14
ENDBRANCH  12  13
ENDBRANCH   1  12
TORSDOF 14
ENDMDL
