MODEL 1
REMARK VINA RESULT:    -5.440      0.000      0.000
REMARK INTER + INTRA:          -6.758
REMARK INTER:                  -6.553
REMARK INTRA:                  -0.205
REMARK UNBOUND:                -0.205
REMARK SMILES O=c1c(O)c(-c2ccc(O)c(O)c2)oc2cc(O)cc(O)c12
REMARK SMILES IDX 5 1 3 2 2 3 1 4 22 5 20 6 19 7 17 8 16 9 15 10 14 11 6 12
REMARK SMILES IDX 7 13 8 14 9 15 13 16 11 17 10 18 12 20 4 22 21 24 18 26
REMARK H PARENT 10 19 12 21 4 23 21 25 18 27
REMARK Flexibility Score: inf
ROOT
ATOM      1  C   UNL     1     -14.355 -23.156 175.173  1.00  0.00     0.180 A 
ATOM      2  C   UNL     1     -15.027 -24.378 174.975  1.00  0.00     0.208 A 
ATOM      3  C   UNL     1     -15.167 -25.259 176.059  1.00  0.00     0.238 A 
ATOM      4  O   UNL     1     -15.758 -26.360 175.891  1.00  0.00    -0.285 OA
ATOM      5  C   UNL     1     -14.654 -24.898 177.321  1.00  0.00     0.111 A 
ATOM      6  C   UNL     1     -14.757 -25.725 178.465  1.00  0.00     0.134 A 
ATOM      7  C   UNL     1     -14.228 -25.290 179.690  1.00  0.00     0.093 A 
ATOM      8  C   UNL     1     -13.601 -24.046 179.792  1.00  0.00     0.123 A 
ATOM      9  C   UNL     1     -13.495 -23.224 178.666  1.00  0.00     0.094 A 
ATOM     10  C   UNL     1     -14.014 -23.640 177.437  1.00  0.00     0.146 A 
ATOM     11  O   UNL     1     -13.897 -22.843 176.382  1.00  0.00    -0.452 OA
ENDROOT
BRANCH   1  12
ATOM     12  C   UNL     1     -14.150 -22.184 174.075  1.00  0.00     0.025 A 
ATOM     13  C   UNL     1     -13.290 -22.511 173.016  1.00  0.00     0.016 A 
ATOM     14  C   UNL     1     -13.099 -21.617 171.959  1.00  0.00     0.051 A 
ATOM     15  C   UNL     1     -13.776 -20.391 171.938  1.00  0.00     0.157 A 
ATOM     16  C   UNL     1     -14.845 -20.962 174.041  1.00  0.00     0.062 A 
ATOM     17  C   UNL     1     -14.657 -20.065 172.982  1.00  0.00     0.158 A 
BRANCH  15  18
ATOM     18  O   UNL     1     -13.582 -19.501 170.882  1.00  0.00    -0.504 OA
ATOM     19  H   UNL     1     -14.187 -18.698 170.749  1.00  0.00     0.293 HD
ENDBRANCH  15  18
BRANCH  17  20
ATOM     20  O   UNL     1     -15.357 -18.859 172.984  1.00  0.00    -0.504 OA
ATOM     21  H   UNL     1     -15.878 -18.539 172.176  1.00  0.00     0.293 HD
ENDBRANCH  17  20
ENDBRANCH   1  12
BRANCH   2  22
ATOM     22  O   UNL     1     -15.570 -24.691 173.726  1.00  0.00    -0.502 OA
ATOM     23  H   UNL     1     -15.326 -24.181 172.886  1.00  0.00     0.293 HD
ENDBRANCH   2  22
BRANCH   6  24
ATOM     24  O   UNL     1     -15.379 -26.973 178.395  1.00  0.00    -0.507 OA
ATOM     25  H   UNL     1     -16.082 -27.179 177.693  1.00  0.00     0.293 HD
ENDBRANCH   6  24
BRANCH   8  26
ATOM     26  O   UNL     1     -13.085 -23.637 181.021  1.00  0.00    -0.508 OA
ATOM     27  H   UNL     1     -12.229 -24.030 181.393  1.00  0.00     0.293 HD
ENDBRANCH   8  26
TORSDOF 6
ENDMDL
MODEL 2
REMARK VINA RESULT:    -5.137      3.252      7.199
REMARK INTER + INTRA:          -6.393
REMARK INTER:                  -6.102
REMARK INTRA:                  -0.291
REMARK UNBOUND:                -0.205
REMARK SMILES O=c1c(O)c(-c2ccc(O)c(O)c2)oc2cc(O)cc(O)c12
REMARK SMILES IDX 5 1 3 2 2 3 1 4 22 5 20 6 19 7 17 8 16 9 15 10 14 11 6 12
REMARK SMILES IDX 7 13 8 14 9 15 13 16 11 17 10 18 12 20 4 22 21 24 18 26
REMARK H PARENT 10 19 12 21 4 23 21 25 18 27
REMARK Flexibility Score: inf
ROOT
ATOM      1  C   UNL     1     -12.992 -22.056 177.781  1.00  0.00     0.180 A 
ATOM      2  C   UNL     1     -11.587 -21.978 177.856  1.00  0.00     0.208 A 
ATOM      3  C   UNL     1     -10.953 -20.786 177.474  1.00  0.00     0.238 A 
ATOM      4  O   UNL     1      -9.697 -20.708 177.525  1.00  0.00    -0.285 OA
ATOM      5  C   UNL     1     -11.730 -19.690 177.045  1.00  0.00     0.111 A 
ATOM      6  C   UNL     1     -11.170 -18.452 176.648  1.00  0.00     0.134 A 
ATOM      7  C   UNL     1     -12.011 -17.405 176.243  1.00  0.00     0.093 A 
ATOM      8  C   UNL     1     -13.398 -17.571 176.229  1.00  0.00     0.123 A 
ATOM      9  C   UNL     1     -13.958 -18.791 176.619  1.00  0.00     0.094 A 
ATOM     10  C   UNL     1     -13.136 -19.847 177.025  1.00  0.00     0.146 A 
ATOM     11  O   UNL     1     -13.692 -20.997 177.387  1.00  0.00    -0.452 OA
ENDROOT
BRANCH   1  12
ATOM     12  C   UNL     1     -13.732 -23.286 178.148  1.00  0.00     0.025 A 
ATOM     13  C   UNL     1     -13.982 -23.562 179.501  1.00  0.00     0.016 A 
ATOM     14  C   UNL     1     -14.696 -24.705 179.869  1.00  0.00     0.051 A 
ATOM     15  C   UNL     1     -15.185 -25.579 178.891  1.00  0.00     0.157 A 
ATOM     16  C   UNL     1     -14.242 -24.154 177.167  1.00  0.00     0.062 A 
ATOM     17  C   UNL     1     -14.960 -25.299 177.532  1.00  0.00     0.158 A 
BRANCH  15  18
ATOM     18  O   UNL     1     -15.896 -26.720 179.261  1.00  0.00    -0.504 OA
ATOM     19  H   UNL     1     -15.509 -27.649 179.138  1.00  0.00     0.293 HD
ENDBRANCH  15  18
BRANCH  17  20
ATOM     20  O   UNL     1     -15.446 -26.141 176.532  1.00  0.00    -0.504 OA
ATOM     21  H   UNL     1     -14.831 -26.607 175.877  1.00  0.00     0.293 HD
ENDBRANCH  17  20
ENDBRANCH   1  12
BRANCH   2  22
ATOM     22  O   UNL     1     -10.844 -23.062 178.330  1.00  0.00    -0.502 OA
ATOM     23  H   UNL     1     -11.217 -24.003 178.362  1.00  0.00     0.293 HD
ENDBRANCH   2  22
BRANCH   6  24
ATOM     24  O   UNL     1      -9.788 -18.255 176.652  1.00  0.00    -0.507 OA
ATOM     25  H   UNL     1      -9.144 -19.001 176.890  1.00  0.00     0.293 HD
ENDBRANCH   6  24
BRANCH   8  26
ATOM     26  O   UNL     1     -14.212 -16.514 175.823  1.00  0.00    -0.508 OA
ATOM     27  H   UNL     1     -14.078 -16.056 174.930  1.00  0.00     0.293 HD
ENDBRANCH   8  26
TORSDOF 6
ENDMDL
MODEL 3
REMARK VINA RESULT:    -5.131      2.387      7.095
REMARK INTER + INTRA:          -6.385
REMARK INTER:                  -6.100
REMARK INTRA:                  -0.285
REMARK UNBOUND:                -0.205
REMARK SMILES O=c1c(O)c(-c2ccc(O)c(O)c2)oc2cc(O)cc(O)c12
REMARK SMILES IDX 5 1 3 2 2 3 1 4 22 5 20 6 19 7 17 8 16 9 15 10 14 11 6 12
REMARK SMILES IDX 7 13 8 14 9 15 13 16 11 17 10 18 12 20 4 22 21 24 18 26
REMARK H PARENT 10 19 12 21 4 23 21 25 18 27
REMARK Flexibility Score: inf
ROOT
ATOM      1  C   UNL     1     -13.287 -23.181 177.530  1.00  0.00     0.180 A 
ATOM      2  C   UNL     1     -12.282 -22.533 178.276  1.00  0.00     0.208 A 
ATOM      3  C   UNL     1     -11.910 -21.227 177.921  1.00  0.00     0.238 A 
ATOM      4  O   UNL     1     -11.005 -20.642 178.574  1.00  0.00    -0.285 OA
ATOM      5  C   UNL     1     -12.558 -20.585 176.846  1.00  0.00     0.111 A 
ATOM      6  C   UNL     1     -12.246 -19.270 176.428  1.00  0.00     0.134 A 
ATOM      7  C   UNL     1     -12.944 -18.696 175.354  1.00  0.00     0.093 A 
ATOM      8  C   UNL     1     -13.945 -19.411 174.693  1.00  0.00     0.123 A 
ATOM      9  C   UNL     1     -14.258 -20.712 175.101  1.00  0.00     0.094 A 
ATOM     10  C   UNL     1     -13.573 -21.301 176.167  1.00  0.00     0.146 A 
ATOM     11  O   UNL     1     -13.886 -22.538 176.532  1.00  0.00    -0.452 OA
ENDROOT
BRANCH   1  12
ATOM     12  C   UNL     1     -13.721 -24.565 177.830  1.00  0.00     0.025 A 
ATOM     13  C   UNL     1     -12.919 -25.642 177.423  1.00  0.00     0.016 A 
ATOM     14  C   UNL     1     -13.299 -26.955 177.714  1.00  0.00     0.051 A 
ATOM     15  C   UNL     1     -14.475 -27.209 178.430  1.00  0.00     0.157 A 
ATOM     16  C   UNL     1     -14.890 -24.822 178.567  1.00  0.00     0.062 A 
ATOM     17  C   UNL     1     -15.272 -26.136 178.863  1.00  0.00     0.158 A 
BRANCH  15  18
ATOM     18  O   UNL     1     -14.852 -28.521 178.718  1.00  0.00    -0.504 OA
ATOM     19  H   UNL     1     -15.670 -28.725 179.281  1.00  0.00     0.293 HD
ENDBRANCH  15  18
BRANCH  17  20
ATOM     20  O   UNL     1     -16.442 -26.354 179.590  1.00  0.00    -0.504 OA
ATOM     21  H   UNL     1     -17.308 -25.877 179.370  1.00  0.00     0.293 HD
ENDBRANCH  17  20
ENDBRANCH   1  12
BRANCH   2  22
ATOM     22  O   UNL     1     -11.690 -23.174 179.367  1.00  0.00    -0.502 OA
ATOM     23  H   UNL     1     -11.829 -24.158 179.560  1.00  0.00     0.293 HD
ENDBRANCH   2  22
BRANCH   6  24
ATOM     24  O   UNL     1     -11.252 -18.529 177.069  1.00  0.00    -0.507 OA
ATOM     25  H   UNL     1     -11.458 -17.943 177.870  1.00  0.00     0.293 HD
ENDBRANCH   6  24
BRANCH   8  26
ATOM     26  O   UNL     1     -14.624 -18.818 173.630  1.00  0.00    -0.508 OA
ATOM     27  H   UNL     1     -14.306 -18.925 172.674  1.00  0.00     0.293 HD
ENDBRANCH   8  26
TORSDOF 6
ENDMDL
MODEL 4
REMARK VINA RESULT:    -5.124      1.261      2.991
REMARK INTER + INTRA:          -6.378
REMARK INTER:                  -6.079
REMARK INTRA:                  -0.299
REMARK UNBOUND:                -0.205
REMARK SMILES O=c1c(O)c(-c2ccc(O)c(O)c2)oc2cc(O)cc(O)c12
REMARK SMILES IDX 5 1 3 2 2 3 1 4 22 5 20 6 19 7 17 8 16 9 15 10 14 11 6 12
REMARK SMILES IDX 7 13 8 14 9 15 13 16 11 17 10 18 12 20 4 22 21 24 18 26
REMARK H PARENT 10 19 12 21 4 23 21 25 18 27
REMARK Flexibility Score: inf
ROOT
ATOM      1  C   UNL     1     -13.584 -22.262 176.076  1.00  0.00     0.180 A 
ATOM      2  C   UNL     1     -12.847 -21.692 177.133  1.00  0.00     0.208 A 
ATOM      3  C   UNL     1     -12.852 -22.330 178.383  1.00  0.00     0.238 A 
ATOM      4  O   UNL     1     -12.205 -21.824 179.339  1.00  0.00    -0.285 OA
ATOM      5  C   UNL     1     -13.572 -23.530 178.551  1.00  0.00     0.111 A 
ATOM      6  C   UNL     1     -13.625 -24.237 179.776  1.00  0.00     0.134 A 
ATOM      7  C   UNL     1     -14.357 -25.431 179.861  1.00  0.00     0.093 A 
ATOM      8  C   UNL     1     -15.035 -25.930 178.746  1.00  0.00     0.123 A 
ATOM      9  C   UNL     1     -14.988 -25.236 177.533  1.00  0.00     0.094 A 
ATOM     10  C   UNL     1     -14.265 -24.044 177.429  1.00  0.00     0.146 A 
ATOM     11  O   UNL     1     -14.240 -23.402 176.268  1.00  0.00    -0.452 OA
ENDROOT
BRANCH   1  12
ATOM     12  C   UNL     1     -13.644 -21.638 174.734  1.00  0.00     0.025 A 
ATOM     13  C   UNL     1     -12.903 -22.197 173.681  1.00  0.00     0.016 A 
ATOM     14  C   UNL     1     -12.960 -21.638 172.402  1.00  0.00     0.051 A 
ATOM     15  C   UNL     1     -13.772 -20.524 172.152  1.00  0.00     0.157 A 
ATOM     16  C   UNL     1     -14.474 -20.533 174.476  1.00  0.00     0.062 A 
ATOM     17  C   UNL     1     -14.536 -19.972 173.194  1.00  0.00     0.158 A 
BRANCH  15  18
ATOM     18  O   UNL     1     -13.827 -19.967 170.875  1.00  0.00    -0.504 OA
ATOM     19  H   UNL     1     -14.194 -20.487 170.086  1.00  0.00     0.293 HD
ENDBRANCH  15  18
BRANCH  17  20
ATOM     20  O   UNL     1     -15.365 -18.872 172.976  1.00  0.00    -0.504 OA
ATOM     21  H   UNL     1     -16.035 -18.846 172.216  1.00  0.00     0.293 HD
ENDBRANCH  17  20
ENDBRANCH   1  12
BRANCH   2  22
ATOM     22  O   UNL     1     -12.102 -20.529 176.927  1.00  0.00    -0.502 OA
ATOM     23  H   UNL     1     -11.308 -20.284 177.506  1.00  0.00     0.293 HD
ENDBRANCH   2  22
BRANCH   6  24
ATOM     24  O   UNL     1     -12.957 -23.764 180.907  1.00  0.00    -0.507 OA
ATOM     25  H   UNL     1     -11.945 -23.730 180.952  1.00  0.00     0.293 HD
ENDBRANCH   6  24
BRANCH   8  26
ATOM     26  O   UNL     1     -15.755 -27.119 178.856  1.00  0.00    -0.508 OA
ATOM     27  H   UNL     1     -16.294 -27.336 179.685  1.00  0.00     0.293 HD
ENDBRANCH   8  26
TORSDOF 6
ENDMDL
MODEL 5
REMARK VINA RESULT:    -5.066      2.418      3.832
REMARK INTER + INTRA:          -6.308
REMARK INTER:                  -5.981
REMARK INTRA:                  -0.327
REMARK UNBOUND:                -0.205
REMARK SMILES O=c1c(O)c(-c2ccc(O)c(O)c2)oc2cc(O)cc(O)c12
REMARK SMILES IDX 5 1 3 2 2 3 1 4 22 5 20 6 19 7 17 8 16 9 15 10 14 11 6 12
REMARK SMILES IDX 7 13 8 14 9 15 13 16 11 17 10 18 12 20 4 22 21 24 18 26
REMARK H PARENT 10 19 12 21 4 23 21 25 18 27
REMARK Flexibility Score: inf
ROOT
ATOM      1  C   UNL     1     -13.479 -21.931 176.930  1.00  0.00     0.180 A 
ATOM      2  C   UNL     1     -13.325 -22.165 178.310  1.00  0.00     0.208 A 
ATOM      3  C   UNL     1     -13.690 -23.416 178.832  1.00  0.00     0.238 A 
ATOM      4  O   UNL     1     -13.567 -23.633 180.067  1.00  0.00    -0.285 OA
ATOM      5  C   UNL     1     -14.181 -24.415 177.966  1.00  0.00     0.111 A 
ATOM      6  C   UNL     1     -14.566 -25.703 178.410  1.00  0.00     0.134 A 
ATOM      7  C   UNL     1     -15.037 -26.646 177.485  1.00  0.00     0.093 A 
ATOM      8  C   UNL     1     -15.129 -26.328 176.128  1.00  0.00     0.123 A 
ATOM      9  C   UNL     1     -14.750 -25.057 175.682  1.00  0.00     0.094 A 
ATOM     10  C   UNL     1     -14.280 -24.103 176.589  1.00  0.00     0.146 A 
ATOM     11  O   UNL     1     -13.932 -22.903 176.142  1.00  0.00    -0.452 OA
ENDROOT
BRANCH   1  12
ATOM     12  C   UNL     1     -13.134 -20.632 176.308  1.00  0.00     0.025 A 
ATOM     13  C   UNL     1     -11.899 -20.484 175.659  1.00  0.00     0.016 A 
ATOM     14  C   UNL     1     -11.562 -19.274 175.048  1.00  0.00     0.051 A 
ATOM     15  C   UNL     1     -12.460 -18.200 175.063  1.00  0.00     0.157 A 
ATOM     16  C   UNL     1     -14.043 -19.559 176.303  1.00  0.00     0.062 A 
ATOM     17  C   UNL     1     -13.709 -18.345 175.690  1.00  0.00     0.158 A 
BRANCH  15  18
ATOM     18  O   UNL     1     -12.121 -16.992 174.453  1.00  0.00    -0.504 OA
ATOM     19  H   UNL     1     -12.829 -16.323 174.173  1.00  0.00     0.293 HD
ENDBRANCH  15  18
BRANCH  17  20
ATOM     20  O   UNL     1     -14.632 -17.301 175.709  1.00  0.00    -0.504 OA
ATOM     21  H   UNL     1     -14.999 -16.924 176.575  1.00  0.00     0.293 HD
ENDBRANCH  17  20
ENDBRANCH   1  12
BRANCH   2  22
ATOM     22  O   UNL     1     -12.790 -21.175 179.138  1.00  0.00    -0.502 OA
ATOM     23  H   UNL     1     -13.371 -20.509 179.632  1.00  0.00     0.293 HD
ENDBRANCH   2  22
BRANCH   6  24
ATOM     24  O   UNL     1     -14.485 -26.051 179.759  1.00  0.00    -0.507 OA
ATOM     25  H   UNL     1     -15.052 -25.591 180.463  1.00  0.00     0.293 HD
ENDBRANCH   6  24
BRANCH   8  26
ATOM     26  O   UNL     1     -15.599 -27.284 175.229  1.00  0.00    -0.508 OA
ATOM     27  H   UNL     1     -15.195 -28.211 175.183  1.00  0.00     0.293 HD
ENDBRANCH   8  26
TORSDOF 6
ENDMDL
MODEL 6
REMARK VINA RESULT:    -5.043      2.373      4.007
REMARK INTER + INTRA:          -6.280
REMARK INTER:                  -6.058
REMARK INTRA:                  -0.222
REMARK UNBOUND:                -0.205
REMARK SMILES O=c1c(O)c(-c2ccc(O)c(O)c2)oc2cc(O)cc(O)c12
REMARK SMILES IDX 5 1 3 2 2 3 1 4 22 5 20 6 19 7 17 8 16 9 15 10 14 11 6 12
REMARK SMILES IDX 7 13 8 14 9 15 13 16 11 17 10 18 12 20 4 22 21 24 18 26
REMARK H PARENT 10 19 12 21 4 23 21 25 18 27
REMARK Flexibility Score: inf
ROOT
ATOM      1  C   UNL     1     -13.077 -21.791 177.709  1.00  0.00     0.180 A 
ATOM      2  C   UNL     1     -11.908 -21.552 178.459  1.00  0.00     0.208 A 
ATOM      3  C   UNL     1     -11.600 -22.411 179.526  1.00  0.00     0.238 A 
ATOM      4  O   UNL     1     -10.563 -22.201 180.211  1.00  0.00    -0.285 OA
ATOM      5  C   UNL     1     -12.448 -23.500 179.812  1.00  0.00     0.111 A 
ATOM      6  C   UNL     1     -12.207 -24.413 180.866  1.00  0.00     0.134 A 
ATOM      7  C   UNL     1     -13.095 -25.479 181.081  1.00  0.00     0.093 A 
ATOM      8  C   UNL     1     -14.215 -25.647 180.264  1.00  0.00     0.123 A 
ATOM      9  C   UNL     1     -14.460 -24.748 179.221  1.00  0.00     0.094 A 
ATOM     10  C   UNL     1     -13.588 -23.680 178.992  1.00  0.00     0.146 A 
ATOM     11  O   UNL     1     -13.845 -22.837 177.999  1.00  0.00    -0.452 OA
ENDROOT
BRANCH   1  12
ATOM     12  C   UNL     1     -13.479 -20.920 176.581  1.00  0.00     0.025 A 
ATOM     13  C   UNL     1     -13.508 -21.445 175.280  1.00  0.00     0.016 A 
ATOM     14  C   UNL     1     -13.905 -20.647 174.204  1.00  0.00     0.051 A 
ATOM     15  C   UNL     1     -14.294 -19.318 174.415  1.00  0.00     0.157 A 
ATOM     16  C   UNL     1     -13.890 -19.592 176.793  1.00  0.00     0.062 A 
ATOM     17  C   UNL     1     -14.291 -18.790 175.717  1.00  0.00     0.158 A 
BRANCH  15  18
ATOM     18  O   UNL     1     -14.688 -18.523 173.339  1.00  0.00    -0.504 OA
ATOM     19  H   UNL     1     -15.219 -17.670 173.477  1.00  0.00     0.293 HD
ENDBRANCH  15  18
BRANCH  17  20
ATOM     20  O   UNL     1     -14.686 -17.476 175.963  1.00  0.00    -0.504 OA
ATOM     21  H   UNL     1     -15.381 -17.008 175.393  1.00  0.00     0.293 HD
ENDBRANCH  17  20
ENDBRANCH   1  12
BRANCH   2  22
ATOM     22  O   UNL     1     -11.058 -20.495 178.124  1.00  0.00    -0.502 OA
ATOM     23  H   UNL     1     -10.368 -20.129 178.768  1.00  0.00     0.293 HD
ENDBRANCH   2  22
BRANCH   6  24
ATOM     24  O   UNL     1     -11.096 -24.272 181.698  1.00  0.00    -0.507 OA
ATOM     25  H   UNL     1     -10.445 -23.502 181.591  1.00  0.00     0.293 HD
ENDBRANCH   6  24
BRANCH   8  26
ATOM     26  O   UNL     1     -15.081 -26.715 180.498  1.00  0.00    -0.508 OA
ATOM     27  H   UNL     1     -15.925 -26.601 181.046  1.00  0.00     0.293 HD
ENDBRANCH   8  26
TORSDOF 6
ENDMDL
MODEL 7
REMARK VINA RESULT:    -5.013      2.044      6.461
REMARK INTER + INTRA:          -6.243
REMARK INTER:                  -5.911
REMARK INTRA:                  -0.332
REMARK UNBOUND:                -0.205
REMARK SMILES O=c1c(O)c(-c2ccc(O)c(O)c2)oc2cc(O)cc(O)c12
REMARK SMILES IDX 5 1 3 2 2 3 1 4 22 5 20 6 19 7 17 8 16 9 15 10 14 11 6 12
REMARK SMILES IDX 7 13 8 14 9 15 13 16 11 17 10 18 12 20 4 22 21 24 18 26
REMARK H PARENT 10 19 12 21 4 23 21 25 18 27
REMARK Flexibility Score: inf
ROOT
ATOM      1  C   UNL     1     -14.326 -23.726 176.133  1.00  0.00     0.180 A 
ATOM      2  C   UNL     1     -15.030 -23.557 174.925  1.00  0.00     0.208 A 
ATOM      3  C   UNL     1     -14.934 -22.330 174.251  1.00  0.00     0.238 A 
ATOM      4  O   UNL     1     -15.568 -22.162 173.175  1.00  0.00    -0.285 OA
ATOM      5  C   UNL     1     -14.124 -21.305 174.781  1.00  0.00     0.111 A 
ATOM      6  C   UNL     1     -13.969 -20.041 174.161  1.00  0.00     0.134 A 
ATOM      7  C   UNL     1     -13.137 -19.075 174.747  1.00  0.00     0.093 A 
ATOM      8  C   UNL     1     -12.457 -19.349 175.936  1.00  0.00     0.123 A 
ATOM      9  C   UNL     1     -12.605 -20.595 176.554  1.00  0.00     0.094 A 
ATOM     10  C   UNL     1     -13.432 -21.569 175.987  1.00  0.00     0.146 A 
ATOM     11  O   UNL     1     -13.560 -22.742 176.595  1.00  0.00    -0.452 OA
ENDROOT
BRANCH   1  12
ATOM     12  C   UNL     1     -14.392 -24.984 176.913  1.00  0.00     0.025 A 
ATOM     13  C   UNL     1     -13.425 -25.979 176.700  1.00  0.00     0.016 A 
ATOM     14  C   UNL     1     -13.456 -27.164 177.439  1.00  0.00     0.051 A 
ATOM     15  C   UNL     1     -14.443 -27.366 178.411  1.00  0.00     0.157 A 
ATOM     16  C   UNL     1     -15.369 -25.180 177.904  1.00  0.00     0.062 A 
ATOM     17  C   UNL     1     -15.401 -26.366 178.648  1.00  0.00     0.158 A 
BRANCH  15  18
ATOM     18  O   UNL     1     -14.472 -28.551 179.146  1.00  0.00    -0.504 OA
ATOM     19  H   UNL     1     -13.983 -29.381 178.832  1.00  0.00     0.293 HD
ENDBRANCH  15  18
BRANCH  17  20
ATOM     20  O   UNL     1     -16.389 -26.530 179.619  1.00  0.00    -0.504 OA
ATOM     21  H   UNL     1     -16.750 -25.749 180.154  1.00  0.00     0.293 HD
ENDBRANCH  17  20
ENDBRANCH   1  12
BRANCH   2  22
ATOM     22  O   UNL     1     -15.787 -24.605 174.396  1.00  0.00    -0.502 OA
ATOM     23  H   UNL     1     -15.556 -25.050 173.516  1.00  0.00     0.293 HD
ENDBRANCH   2  22
BRANCH   6  24
ATOM     24  O   UNL     1     -14.634 -19.739 172.972  1.00  0.00    -0.507 OA
ATOM     25  H   UNL     1     -15.467 -20.240 172.685  1.00  0.00     0.293 HD
ENDBRANCH   6  24
BRANCH   8  26
ATOM     26  O   UNL     1     -11.635 -18.373 176.497  1.00  0.00    -0.508 OA
ATOM     27  H   UNL     1     -10.784 -18.070 176.038  1.00  0.00     0.293 HD
ENDBRANCH   8  26
TORSDOF 6
ENDMDL
MODEL 8
REMARK VINA RESULT:    -5.002      2.271      6.865
REMARK INTER + INTRA:          -6.230
REMARK INTER:                  -5.901
REMARK INTRA:                  -0.329
REMARK UNBOUND:                -0.205
REMARK SMILES O=c1c(O)c(-c2ccc(O)c(O)c2)oc2cc(O)cc(O)c12
REMARK SMILES IDX 5 1 3 2 2 3 1 4 22 5 20 6 19 7 17 8 16 9 15 10 14 11 6 12
REMARK SMILES IDX 7 13 8 14 9 15 13 16 11 17 10 18 12 20 4 22 21 24 18 26
REMARK H PARENT 10 19 12 21 4 23 21 25 18 27
REMARK Flexibility Score: inf
ROOT
ATOM      1  C   UNL     1     -13.460 -23.273 177.196  1.00  0.00     0.180 A 
ATOM      2  C   UNL     1     -12.969 -23.629 175.924  1.00  0.00     0.208 A 
ATOM      3  C   UNL     1     -12.766 -22.620 174.970  1.00  0.00     0.238 A 
ATOM      4  O   UNL     1     -12.339 -22.928 173.825  1.00  0.00    -0.285 OA
ATOM      5  C   UNL     1     -13.035 -21.278 175.306  1.00  0.00     0.111 A 
ATOM      6  C   UNL     1     -12.853 -20.202 174.404  1.00  0.00     0.134 A 
ATOM      7  C   UNL     1     -13.134 -18.891 174.817  1.00  0.00     0.093 A 
ATOM      8  C   UNL     1     -13.592 -18.636 176.112  1.00  0.00     0.123 A 
ATOM      9  C   UNL     1     -13.775 -19.694 177.008  1.00  0.00     0.094 A 
ATOM     10  C   UNL     1     -13.502 -21.007 176.615  1.00  0.00     0.146 A 
ATOM     11  O   UNL     1     -13.688 -21.995 177.482  1.00  0.00    -0.452 OA
ENDROOT
BRANCH   1  12
ATOM     12  C   UNL     1     -13.718 -24.281 178.250  1.00  0.00     0.025 A 
ATOM     13  C   UNL     1     -12.695 -24.614 179.151  1.00  0.00     0.016 A 
ATOM     14  C   UNL     1     -12.923 -25.547 180.166  1.00  0.00     0.051 A 
ATOM     15  C   UNL     1     -14.180 -26.148 180.305  1.00  0.00     0.157 A 
ATOM     16  C   UNL     1     -14.985 -24.870 178.405  1.00  0.00     0.062 A 
ATOM     17  C   UNL     1     -15.218 -25.804 179.422  1.00  0.00     0.158 A 
BRANCH  15  18
ATOM     18  O   UNL     1     -14.405 -27.080 181.318  1.00  0.00    -0.504 OA
ATOM     19  H   UNL     1     -13.922 -27.971 181.334  1.00  0.00     0.293 HD
ENDBRANCH  15  18
BRANCH  17  20
ATOM     20  O   UNL     1     -16.485 -26.373 179.542  1.00  0.00    -0.504 OA
ATOM     21  H   UNL     1     -17.332 -25.827 179.431  1.00  0.00     0.293 HD
ENDBRANCH  17  20
ENDBRANCH   1  12
BRANCH   2  22
ATOM     22  O   UNL     1     -12.665 -24.961 175.633  1.00  0.00    -0.502 OA
ATOM     23  H   UNL     1     -12.761 -25.347 174.702  1.00  0.00     0.293 HD
ENDBRANCH   2  22
BRANCH   6  24
ATOM     24  O   UNL     1     -12.395 -20.425 173.104  1.00  0.00    -0.507 OA
ATOM     25  H   UNL     1     -12.042 -21.329 172.811  1.00  0.00     0.293 HD
ENDBRANCH   6  24
BRANCH   8  26
ATOM     26  O   UNL     1     -13.862 -17.324 176.499  1.00  0.00    -0.508 OA
ATOM     27  H   UNL     1     -13.214 -16.571 176.304  1.00  0.00     0.293 HD
ENDBRANCH   8  26
TORSDOF 6
ENDMDL
MODEL 9
REMARK VINA RESULT:    -4.920      1.771      3.453
REMARK INTER + INTRA:          -6.131
REMARK INTER:                  -5.934
REMARK INTRA:                  -0.198
REMARK UNBOUND:                -0.205
REMARK SMILES O=c1c(O)c(-c2ccc(O)c(O)c2)oc2cc(O)cc(O)c12
REMARK SMILES IDX 5 1 3 2 2 3 1 4 22 5 20 6 19 7 17 8 16 9 15 10 14 11 6 12
REMARK SMILES IDX 7 13 8 14 9 15 13 16 11 17 10 18 12 20 4 22 21 24 18 26
REMARK H PARENT 10 19 12 21 4 23 21 25 18 27
REMARK Flexibility Score: inf
ROOT
ATOM      1  C   UNL     1     -13.637 -21.453 174.828  1.00  0.00     0.180 A 
ATOM      2  C   UNL     1     -13.279 -21.284 176.180  1.00  0.00     0.208 A 
ATOM      3  C   UNL     1     -13.525 -22.331 177.082  1.00  0.00     0.238 A 
ATOM      4  O   UNL     1     -13.220 -22.188 178.296  1.00  0.00    -0.285 OA
ATOM      5  C   UNL     1     -14.103 -23.530 176.617  1.00  0.00     0.111 A 
ATOM      6  C   UNL     1     -14.379 -24.634 177.459  1.00  0.00     0.134 A 
ATOM      7  C   UNL     1     -14.947 -25.798 176.919  1.00  0.00     0.093 A 
ATOM      8  C   UNL     1     -15.242 -25.879 175.556  1.00  0.00     0.123 A 
ATOM      9  C   UNL     1     -14.973 -24.792 174.718  1.00  0.00     0.094 A 
ATOM     10  C   UNL     1     -14.408 -23.623 175.238  1.00  0.00     0.146 A 
ATOM     11  O   UNL     1     -14.166 -22.604 174.424  1.00  0.00    -0.452 OA
ENDROOT
BRANCH   1  12
ATOM     12  C   UNL     1     -13.427 -20.388 173.820  1.00  0.00     0.025 A 
ATOM     13  C   UNL     1     -12.121 -20.063 173.422  1.00  0.00     0.016 A 
ATOM     14  C   UNL     1     -11.901 -19.077 172.458  1.00  0.00     0.051 A 
ATOM     15  C   UNL     1     -12.982 -18.412 171.866  1.00  0.00     0.157 A 
ATOM     16  C   UNL     1     -14.512 -19.735 173.208  1.00  0.00     0.062 A 
ATOM     17  C   UNL     1     -14.295 -18.747 172.240  1.00  0.00     0.158 A 
BRANCH  15  18
ATOM     18  O   UNL     1     -12.760 -17.427 170.904  1.00  0.00    -0.504 OA
ATOM     19  H   UNL     1     -12.020 -17.516 170.216  1.00  0.00     0.293 HD
ENDBRANCH  15  18
BRANCH  17  20
ATOM     20  O   UNL     1     -15.394 -18.116 171.659  1.00  0.00    -0.504 OA
ATOM     21  H   UNL     1     -15.586 -18.177 170.666  1.00  0.00     0.293 HD
ENDBRANCH  17  20
ENDBRANCH   1  12
BRANCH   2  22
ATOM     22  O   UNL     1     -12.664 -20.105 176.605  1.00  0.00    -0.502 OA
ATOM     23  H   UNL     1     -12.183 -19.483 175.967  1.00  0.00     0.293 HD
ENDBRANCH   2  22
BRANCH   6  24
ATOM     24  O   UNL     1     -14.094 -24.584 178.825  1.00  0.00    -0.507 OA
ATOM     25  H   UNL     1     -14.192 -23.728 179.358  1.00  0.00     0.293 HD
ENDBRANCH   6  24
BRANCH   8  26
ATOM     26  O   UNL     1     -15.805 -27.047 175.044  1.00  0.00    -0.508 OA
ATOM     27  H   UNL     1     -15.273 -27.906 174.979  1.00  0.00     0.293 HD
ENDBRANCH   8  26
TORSDOF 6
ENDMDL
