MODEL 1
REMARK VINA RESULT:    -4.207      0.000      0.000
REMARK INTER + INTRA:          -6.472
REMARK INTER:                  -6.421
REMARK INTRA:                  -0.052
REMARK UNBOUND:                -0.052
REMARK SMILES CC1=CCC[C@@H](C)C(=O)C[C@@H](C(C)C)C(=O)C1
REMARK SMILES IDX 8 1 9 2 6 3 7 4 5 5 4 6 3 7 2 8 1 9 10 11 11 12 15 13 16 14
REMARK SMILES IDX 17 15 12 17 13 18 14 19
REMARK H PARENT
REMARK Flexibility Score: 70.00
ROOT
ATOM      1  C   UNL     1      10.608 -18.246 -21.128  1.00  0.00     0.136 C 
ATOM      2  O   UNL     1      10.407 -18.435 -19.936  1.00  0.00    -0.299 OA
ENDROOT
BRANCH   1   3
ATOM      3  C   UNL     1       9.478 -17.749 -22.019  1.00  0.00     0.053 C 
ATOM      4  C   UNL     1       8.204 -18.595 -21.862  1.00  0.00     0.016 C 
BRANCH   3   5
ATOM      5  C   UNL     1       9.905 -17.656 -23.502  1.00  0.00     0.015 C 
BRANCH   5   6
ATOM      6  C   UNL     1      10.217 -16.219 -23.988  1.00  0.00     0.028 C 
BRANCH   6   7
ATOM      7  C   UNL     1      11.289 -16.234 -25.055  1.00  0.00    -0.028 C 
ATOM      8  C   UNL     1      12.600 -15.948 -24.859  1.00  0.00    -0.070 CG0
ATOM      9  C   UNL     1      13.495 -15.875 -26.070  1.00  0.00     0.039 C 
ATOM     10  G   UNL     1      13.208 -15.702 -23.486  1.00  0.00     0.000 G0
ENDBRANCH   6   7
ENDBRANCH   5   6
ENDBRANCH   3   5
ENDBRANCH   1   3
BRANCH   1  11
ATOM     11  C   UNL     1      11.979 -18.550 -21.689  1.00  0.00     0.087 C 
BRANCH  11  12
ATOM     12  C   UNL     1      12.998 -17.409 -21.427  1.00  0.00     0.066 C 
BRANCH  12  13
ATOM     13  C   UNL     1      13.648 -16.923 -22.720  1.00  0.00     0.140 C 
ATOM     14  O   UNL     1      14.574 -17.567 -23.189  1.00  0.00    -0.299 OA
BRANCH  13  15
ATOM     15  C   UNL     1      13.196 -15.694 -23.487  1.00  0.00     0.106 CG0
ATOM     16  G   UNL     1      12.592 -15.953 -24.858  1.00  0.00     0.000 G0
ENDBRANCH  13  15
ENDBRANCH  12  13
BRANCH  12  17
ATOM     17  C   UNL     1      14.076 -17.756 -20.351  1.00  0.00    -0.006 C 
ATOM     18  C   UNL     1      14.575 -19.212 -20.394  1.00  0.00     0.008 C 
ATOM     19  C   UNL     1      13.590 -17.416 -18.933  1.00  0.00     0.008 C 
ENDBRANCH  12  17
ENDBRANCH  11  12
ENDBRANCH   1  11
TORSDOF 1
ENDMDL
MODEL 2
REMARK VINA RESULT:    -4.175      1.202      1.571
REMARK INTER + INTRA:          -6.424
REMARK INTER:                  -6.061
REMARK INTRA:                  -0.362
REMARK UNBOUND:                -0.052
REMARK SMILES CC1=CCC[C@@H](C)C(=O)C[C@@H](C(C)C)C(=O)C1
REMARK SMILES IDX 8 1 9 2 6 3 7 4 5 5 4 6 3 7 2 8 1 9 10 11 11 12 15 13 16 14
REMARK SMILES IDX 17 15 12 17 13 18 14 19
REMARK H PARENT
REMARK Flexibility Score: 70.00
ROOT
ATOM      1  C   UNL     1      11.009 -17.945 -22.239  1.00  0.00     0.136 C 
ATOM      2  O   UNL     1      10.528 -18.017 -21.115  1.00  0.00    -0.299 OA
ENDROOT
BRANCH   1   3
ATOM      3  C   UNL     1      10.156 -17.454 -23.400  1.00  0.00     0.053 C 
ATOM      4  C   UNL     1      10.240 -18.391 -24.616  1.00  0.00     0.016 C 
BRANCH   3   5
ATOM      5  C   UNL     1      10.493 -15.998 -23.795  1.00  0.00     0.015 C 
BRANCH   5   6
ATOM      6  C   UNL     1      11.276 -15.862 -25.125  1.00  0.00     0.028 C 
BRANCH   6   7
ATOM      7  C   UNL     1      12.417 -14.881 -24.978  1.00  0.00    -0.028 C 
ATOM      8  C   UNL     1      13.656 -15.177 -24.513  1.00  0.00    -0.070 CG0
ATOM      9  C   UNL     1      14.621 -14.038 -24.302  1.00  0.00     0.039 C 
ATOM     10  G   UNL     1      14.117 -16.592 -24.200  1.00  0.00     0.000 G0
ENDBRANCH   6   7
ENDBRANCH   5   6
ENDBRANCH   3   5
ENDBRANCH   1   3
BRANCH   1  11
ATOM     11  C   UNL     1      12.441 -18.387 -22.444  1.00  0.00     0.087 C 
BRANCH  11  12
ATOM     12  C   UNL     1      13.461 -17.449 -21.746  1.00  0.00     0.066 C 
BRANCH  12  13
ATOM     13  C   UNL     1      14.458 -16.859 -22.739  1.00  0.00     0.140 C 
ATOM     14  O   UNL     1      15.590 -16.607 -22.354  1.00  0.00    -0.299 OA
BRANCH  13  15
ATOM     15  C   UNL     1      14.143 -16.586 -24.198  1.00  0.00     0.106 CG0
ATOM     16  G   UNL     1      13.650 -15.184 -24.519  1.00  0.00     0.000 G0
ENDBRANCH  13  15
ENDBRANCH  12  13
BRANCH  12  17
ATOM     17  C   UNL     1      14.196 -18.102 -20.532  1.00  0.00    -0.006 C 
ATOM     18  C   UNL     1      14.228 -19.641 -20.558  1.00  0.00     0.008 C 
ATOM     19  C   UNL     1      13.616 -17.618 -19.193  1.00  0.00     0.008 C 
ENDBRANCH  12  17
ENDBRANCH  11  12
ENDBRANCH   1  11
TORSDOF 1
ENDMDL
MODEL 3
REMARK VINA RESULT:    -4.138      2.247      4.358
REMARK INTER + INTRA:          -6.367
REMARK INTER:                  -6.082
REMARK INTRA:                  -0.284
REMARK UNBOUND:                -0.052
REMARK SMILES CC1=CCC[C@@H](C)C(=O)C[C@@H](C(C)C)C(=O)C1
REMARK SMILES IDX 8 1 9 2 6 3 7 4 5 5 4 6 3 7 2 8 1 9 10 11 11 12 15 13 16 14
REMARK SMILES IDX 17 15 12 17 13 18 14 19
REMARK H PARENT
REMARK Flexibility Score: 70.00
ROOT
ATOM      1  C   UNL     1      15.977 -19.682 -21.771  1.00  0.00     0.136 C 
ATOM      2  O   UNL     1      17.090 -19.917 -22.224  1.00  0.00    -0.299 OA
ENDROOT
BRANCH   1   3
ATOM      3  C   UNL     1      14.861 -20.705 -21.929  1.00  0.00     0.053 C 
ATOM      4  C   UNL     1      15.328 -22.129 -21.587  1.00  0.00     0.016 C 
BRANCH   3   5
ATOM      5  C   UNL     1      14.218 -20.653 -23.334  1.00  0.00     0.015 C 
BRANCH   5   6
ATOM      6  C   UNL     1      14.023 -19.222 -23.896  1.00  0.00     0.028 C 
BRANCH   6   7
ATOM      7  C   UNL     1      12.600 -18.754 -23.689  1.00  0.00    -0.028 C 
ATOM      8  C   UNL     1      12.185 -17.899 -22.722  1.00  0.00    -0.070 CG0
ATOM      9  C   UNL     1      10.703 -17.659 -22.582  1.00  0.00     0.039 C 
ATOM     10  G   UNL     1      13.133 -17.173 -21.781  1.00  0.00     0.000 G0
ENDBRANCH   6   7
ENDBRANCH   5   6
ENDBRANCH   3   5
ENDBRANCH   1   3
BRANCH   1  11
ATOM     11  C   UNL     1      15.737 -18.351 -21.094  1.00  0.00     0.087 C 
BRANCH  11  12
ATOM     12  C   UNL     1      14.657 -18.433 -19.982  1.00  0.00     0.066 C 
BRANCH  12  13
ATOM     13  C   UNL     1      13.360 -17.746 -20.401  1.00  0.00     0.140 C 
ATOM     14  O   UNL     1      12.455 -17.656 -19.586  1.00  0.00    -0.299 OA
BRANCH  13  15
ATOM     15  C   UNL     1      13.128 -17.133 -21.770  1.00  0.00     0.106 CG0
ATOM     16  G   UNL     1      12.181 -17.894 -22.685  1.00  0.00     0.000 G0
ENDBRANCH  13  15
ENDBRANCH  12  13
BRANCH  12  17
ATOM     17  C   UNL     1      15.141 -17.920 -18.588  1.00  0.00    -0.006 C 
ATOM     18  C   UNL     1      16.624 -17.510 -18.539  1.00  0.00     0.008 C 
ATOM     19  C   UNL     1      14.849 -18.941 -17.477  1.00  0.00     0.008 C 
ENDBRANCH  12  17
ENDBRANCH  11  12
ENDBRANCH   1  11
TORSDOF 1
ENDMDL
MODEL 4
REMARK VINA RESULT:    -3.968      2.468      4.293
REMARK INTER + INTRA:          -6.107
REMARK INTER:                  -5.539
REMARK INTRA:                  -0.569
REMARK UNBOUND:                -0.052
REMARK SMILES CC1=CCC[C@@H](C)C(=O)C[C@@H](C(C)C)C(=O)C1
REMARK SMILES IDX 8 1 9 2 6 3 7 4 5 5 4 6 3 7 2 8 1 9 10 11 11 12 15 13 16 14
REMARK SMILES IDX 17 15 12 17 13 18 14 19
REMARK H PARENT
REMARK Flexibility Score: 70.00
ROOT
ATOM      1  C   UNL     1      14.790 -19.704 -19.631  1.00  0.00     0.136 C 
ATOM      2  O   UNL     1      14.617 -20.474 -18.695  1.00  0.00    -0.299 OA
ENDROOT
BRANCH   1   3
ATOM      3  C   UNL     1      14.528 -18.216 -19.449  1.00  0.00     0.053 C 
ATOM      4  C   UNL     1      15.329 -17.626 -18.277  1.00  0.00     0.016 C 
BRANCH   3   5
ATOM      5  C   UNL     1      13.021 -17.903 -19.306  1.00  0.00     0.015 C 
BRANCH   5   6
ATOM      6  C   UNL     1      12.122 -18.589 -20.365  1.00  0.00     0.028 C 
BRANCH   6   7
ATOM      7  C   UNL     1      11.970 -17.712 -21.588  1.00  0.00    -0.028 C 
ATOM      8  C   UNL     1      12.532 -17.945 -22.799  1.00  0.00    -0.070 CG0
ATOM      9  C   UNL     1      12.385 -16.884 -23.860  1.00  0.00     0.039 C 
ATOM     10  G   UNL     1      13.296 -19.216 -23.138  1.00  0.00     0.000 G0
ENDBRANCH   6   7
ENDBRANCH   5   6
ENDBRANCH   3   5
ENDBRANCH   1   3
BRANCH   1  11
ATOM     11  C   UNL     1      15.229 -20.270 -20.963  1.00  0.00     0.087 C 
BRANCH  11  12
ATOM     12  C   UNL     1      15.687 -19.169 -21.958  1.00  0.00     0.066 C 
BRANCH  12  13
ATOM     13  C   UNL     1      14.794 -19.118 -23.195  1.00  0.00     0.140 C 
ATOM     14  O   UNL     1      15.319 -18.999 -24.292  1.00  0.00    -0.299 OA
BRANCH  13  15
ATOM     15  C   UNL     1      13.282 -19.237 -23.156  1.00  0.00     0.106 CG0
ATOM     16  G   UNL     1      12.527 -17.968 -22.792  1.00  0.00     0.000 G0
ENDBRANCH  13  15
ENDBRANCH  12  13
BRANCH  12  17
ATOM     17  C   UNL     1      17.195 -19.261 -22.355  1.00  0.00    -0.006 C 
ATOM     18  C   UNL     1      17.730 -20.696 -22.502  1.00  0.00     0.008 C 
ATOM     19  C   UNL     1      18.085 -18.472 -21.381  1.00  0.00     0.008 C 
ENDBRANCH  12  17
ENDBRANCH  11  12
ENDBRANCH   1  11
TORSDOF 1
ENDMDL
MODEL 5
REMARK VINA RESULT:    -3.891      3.519      5.595
REMARK INTER + INTRA:          -5.989
REMARK INTER:                  -5.425
REMARK INTRA:                  -0.565
REMARK UNBOUND:                -0.052
REMARK SMILES CC1=CCC[C@@H](C)C(=O)C[C@@H](C(C)C)C(=O)C1
REMARK SMILES IDX 8 1 9 2 6 3 7 4 5 5 4 6 3 7 2 8 1 9 10 11 11 12 15 13 16 14
REMARK SMILES IDX 17 15 12 17 13 18 14 19
REMARK H PARENT
REMARK Flexibility Score: 70.00
ROOT
ATOM      1  C   UNL     1      16.186 -18.128 -20.412  1.00  0.00     0.136 C 
ATOM      2  O   UNL     1      17.173 -18.232 -19.696  1.00  0.00    -0.299 OA
ENDROOT
BRANCH   1   3
ATOM      3  C   UNL     1      14.814 -18.514 -19.876  1.00  0.00     0.053 C 
ATOM      4  C   UNL     1      14.405 -17.659 -18.666  1.00  0.00     0.016 C 
BRANCH   3   5
ATOM      5  C   UNL     1      14.720 -20.022 -19.550  1.00  0.00     0.015 C 
BRANCH   5   6
ATOM      6  C   UNL     1      14.097 -20.882 -20.678  1.00  0.00     0.028 C 
BRANCH   6   7
ATOM      7  C   UNL     1      15.172 -21.602 -21.459  1.00  0.00    -0.028 C 
ATOM      8  C   UNL     1      15.423 -21.446 -22.783  1.00  0.00    -0.070 CG0
ATOM      9  C   UNL     1      16.442 -22.356 -23.420  1.00  0.00     0.039 C 
ATOM     10  G   UNL     1      14.733 -20.403 -23.649  1.00  0.00     0.000 G0
ENDBRANCH   6   7
ENDBRANCH   5   6
ENDBRANCH   3   5
ENDBRANCH   1   3
BRANCH   1  11
ATOM     11  C   UNL     1      16.369 -17.649 -21.835  1.00  0.00     0.087 C 
BRANCH  11  12
ATOM     12  C   UNL     1      15.127 -17.927 -22.724  1.00  0.00     0.066 C 
BRANCH  12  13
ATOM     13  C   UNL     1      15.391 -19.042 -23.732  1.00  0.00     0.140 C 
ATOM     14  O   UNL     1      16.196 -18.843 -24.629  1.00  0.00    -0.299 OA
BRANCH  13  15
ATOM     15  C   UNL     1      14.734 -20.409 -23.676  1.00  0.00     0.106 CG0
ATOM     16  G   UNL     1      15.409 -21.432 -22.776  1.00  0.00     0.000 G0
ENDBRANCH  13  15
ENDBRANCH  12  13
BRANCH  12  17
ATOM     17  C   UNL     1      14.554 -16.655 -23.428  1.00  0.00    -0.006 C 
ATOM     18  C   UNL     1      15.583 -15.534 -23.657  1.00  0.00     0.008 C 
ATOM     19  C   UNL     1      13.334 -16.096 -22.679  1.00  0.00     0.008 C 
ENDBRANCH  12  17
ENDBRANCH  11  12
ENDBRANCH   1  11
TORSDOF 1
ENDMDL
MODEL 6
REMARK VINA RESULT:    -3.880      2.344      4.794
REMARK INTER + INTRA:          -5.973
REMARK INTER:                  -5.834
REMARK INTRA:                  -0.139
REMARK UNBOUND:                -0.052
REMARK SMILES CC1=CCC[C@@H](C)C(=O)C[C@@H](C(C)C)C(=O)C1
REMARK SMILES IDX 8 1 9 2 6 3 7 4 5 5 4 6 3 7 2 8 1 9 10 11 11 12 15 13 16 14
REMARK SMILES IDX 17 15 12 17 13 18 14 19
REMARK H PARENT
REMARK Flexibility Score: 70.00
ROOT
ATOM      1  C   UNL     1      12.318 -18.172 -20.283  1.00  0.00     0.136 C 
ATOM      2  O   UNL     1      11.146 -18.260 -19.943  1.00  0.00    -0.299 OA
ENDROOT
BRANCH   1   3
ATOM      3  C   UNL     1      13.416 -18.704 -19.373  1.00  0.00     0.053 C 
ATOM      4  C   UNL     1      14.544 -17.679 -19.168  1.00  0.00     0.016 C 
BRANCH   3   5
ATOM      5  C   UNL     1      13.976 -20.057 -19.866  1.00  0.00     0.015 C 
BRANCH   5   6
ATOM      6  C   UNL     1      15.362 -19.965 -20.551  1.00  0.00     0.028 C 
BRANCH   6   7
ATOM      7  C   UNL     1      15.397 -20.809 -21.806  1.00  0.00    -0.028 C 
ATOM      8  C   UNL     1      14.953 -20.424 -23.027  1.00  0.00    -0.070 CG0
ATOM      9  C   UNL     1      14.938 -21.454 -24.129  1.00  0.00     0.039 C 
ATOM     10  G   UNL     1      14.474 -19.015 -23.339  1.00  0.00     0.000 G0
ENDBRANCH   6   7
ENDBRANCH   5   6
ENDBRANCH   3   5
ENDBRANCH   1   3
BRANCH   1  11
ATOM     11  C   UNL     1      12.642 -17.495 -21.597  1.00  0.00     0.087 C 
BRANCH  11  12
ATOM     12  C   UNL     1      11.974 -18.195 -22.810  1.00  0.00     0.066 C 
BRANCH  12  13
ATOM     13  C   UNL     1      13.004 -18.875 -23.708  1.00  0.00     0.140 C 
ATOM     14  O   UNL     1      12.640 -19.313 -24.789  1.00  0.00    -0.299 OA
BRANCH  13  15
ATOM     15  C   UNL     1      14.474 -19.018 -23.358  1.00  0.00     0.106 CG0
ATOM     16  G   UNL     1      14.942 -20.427 -23.029  1.00  0.00     0.000 G0
ENDBRANCH  13  15
ENDBRANCH  12  13
BRANCH  12  17
ATOM     17  C   UNL     1      11.030 -17.266 -23.638  1.00  0.00    -0.006 C 
ATOM     18  C   UNL     1      11.617 -15.878 -23.953  1.00  0.00     0.008 C 
ATOM     19  C   UNL     1       9.658 -17.108 -22.964  1.00  0.00     0.008 C 
ENDBRANCH  12  17
ENDBRANCH  11  12
ENDBRANCH   1  11
TORSDOF 1
ENDMDL
MODEL 7
REMARK VINA RESULT:    -3.875      3.130      5.156
REMARK INTER + INTRA:          -5.965
REMARK INTER:                  -5.771
REMARK INTRA:                  -0.194
REMARK UNBOUND:                -0.052
REMARK SMILES CC1=CCC[C@@H](C)C(=O)C[C@@H](C(C)C)C(=O)C1
REMARK SMILES IDX 8 1 9 2 6 3 7 4 5 5 4 6 3 7 2 8 1 9 10 11 11 12 15 13 16 14
REMARK SMILES IDX 17 15 12 17 13 18 14 19
REMARK H PARENT
REMARK Flexibility Score: 70.00
ROOT
ATOM      1  C   UNL     1      16.006 -20.006 -20.949  1.00  0.00     0.136 C 
ATOM      2  O   UNL     1      17.118 -19.758 -21.395  1.00  0.00    -0.299 OA
ENDROOT
BRANCH   1   3
ATOM      3  C   UNL     1      15.487 -19.249 -19.735  1.00  0.00     0.053 C 
ATOM      4  C   UNL     1      14.426 -20.050 -18.964  1.00  0.00     0.016 C 
BRANCH   3   5
ATOM      5  C   UNL     1      14.962 -17.843 -20.106  1.00  0.00     0.015 C 
BRANCH   5   6
ATOM      6  C   UNL     1      13.552 -17.836 -20.748  1.00  0.00     0.028 C 
BRANCH   6   7
ATOM      7  C   UNL     1      13.616 -17.353 -22.179  1.00  0.00    -0.028 C 
ATOM      8  C   UNL     1      13.503 -18.136 -23.280  1.00  0.00    -0.070 CG0
ATOM      9  C   UNL     1      13.736 -17.498 -24.626  1.00  0.00     0.039 C 
ATOM     10  G   UNL     1      13.154 -19.615 -23.225  1.00  0.00     0.000 G0
ENDBRANCH   6   7
ENDBRANCH   5   6
ENDBRANCH   3   5
ENDBRANCH   1   3
BRANCH   1  11
ATOM     11  C   UNL     1      15.189 -21.097 -21.606  1.00  0.00     0.087 C 
BRANCH  11  12
ATOM     12  C   UNL     1      15.362 -21.126 -23.148  1.00  0.00     0.066 C 
BRANCH  12  13
ATOM     13  C   UNL     1      14.132 -20.577 -23.866  1.00  0.00     0.140 C 
ATOM     14  O   UNL     1      13.910 -20.940 -25.011  1.00  0.00    -0.299 OA
BRANCH  13  15
ATOM     15  C   UNL     1      13.137 -19.620 -23.235  1.00  0.00     0.106 CG0
ATOM     16  G   UNL     1      13.507 -18.146 -23.293  1.00  0.00     0.000 G0
ENDBRANCH  13  15
ENDBRANCH  12  13
BRANCH  12  17
ATOM     17  C   UNL     1      15.767 -22.524 -23.715  1.00  0.00    -0.006 C 
ATOM     18  C   UNL     1      16.322 -23.502 -22.664  1.00  0.00     0.008 C 
ATOM     19  C   UNL     1      16.760 -22.396 -24.881  1.00  0.00     0.008 C 
ENDBRANCH  12  17
ENDBRANCH  11  12
ENDBRANCH   1  11
TORSDOF 1
ENDMDL
MODEL 8
REMARK VINA RESULT:    -3.676      3.273      4.958
REMARK INTER + INTRA:          -5.662
REMARK INTER:                  -5.059
REMARK INTRA:                  -0.603
REMARK UNBOUND:                -0.052
REMARK SMILES CC1=CCC[C@@H](C)C(=O)C[C@@H](C(C)C)C(=O)C1
REMARK SMILES IDX 8 1 9 2 6 3 7 4 5 5 4 6 3 7 2 8 1 9 10 11 11 12 15 13 16 14
REMARK SMILES IDX 17 15 12 17 13 18 14 19
REMARK H PARENT
REMARK Flexibility Score: 70.00
ROOT
ATOM      1  C   UNL     1      16.452 -20.556 -22.752  1.00  0.00     0.136 C 
ATOM      2  O   UNL     1      17.675 -20.586 -22.782  1.00  0.00    -0.299 OA
ENDROOT
BRANCH   1   3
ATOM      3  C   UNL     1      15.651 -21.794 -23.133  1.00  0.00     0.053 C 
ATOM      4  C   UNL     1      16.117 -23.042 -22.365  1.00  0.00     0.016 C 
BRANCH   3   5
ATOM      5  C   UNL     1      15.658 -22.044 -24.658  1.00  0.00     0.015 C 
BRANCH   5   6
ATOM      6  C   UNL     1      14.393 -21.535 -25.395  1.00  0.00     0.028 C 
BRANCH   6   7
ATOM      7  C   UNL     1      14.615 -20.144 -25.943  1.00  0.00    -0.028 C 
ATOM      8  C   UNL     1      13.928 -19.034 -25.577  1.00  0.00    -0.070 CG0
ATOM      9  C   UNL     1      14.191 -17.759 -26.337  1.00  0.00     0.039 C 
ATOM     10  G   UNL     1      12.913 -19.012 -24.444  1.00  0.00     0.000 G0
ENDBRANCH   6   7
ENDBRANCH   5   6
ENDBRANCH   3   5
ENDBRANCH   1   3
BRANCH   1  11
ATOM     11  C   UNL     1      15.768 -19.262 -22.368  1.00  0.00     0.087 C 
BRANCH  11  12
ATOM     12  C   UNL     1      14.241 -19.437 -22.148  1.00  0.00     0.066 C 
BRANCH  12  13
ATOM     13  C   UNL     1      13.429 -18.548 -23.085  1.00  0.00     0.140 C 
ATOM     14  O   UNL     1      13.200 -17.396 -22.749  1.00  0.00    -0.299 OA
BRANCH  13  15
ATOM     15  C   UNL     1      12.906 -18.995 -24.438  1.00  0.00     0.106 CG0
ATOM     16  G   UNL     1      13.925 -19.024 -25.567  1.00  0.00     0.000 G0
ENDBRANCH  13  15
ENDBRANCH  12  13
BRANCH  12  17
ATOM     17  C   UNL     1      13.789 -19.251 -20.664  1.00  0.00    -0.006 C 
ATOM     18  C   UNL     1      14.827 -18.559 -19.763  1.00  0.00     0.008 C 
ATOM     19  C   UNL     1      13.361 -20.586 -20.032  1.00  0.00     0.008 C 
ENDBRANCH  12  17
ENDBRANCH  11  12
ENDBRANCH   1  11
TORSDOF 1
ENDMDL
MODEL 9
REMARK VINA RESULT:    -3.602      2.299      4.279
REMARK INTER + INTRA:          -5.549
REMARK INTER:                  -5.189
REMARK INTRA:                  -0.361
REMARK UNBOUND:                -0.052
REMARK SMILES CC1=CCC[C@@H](C)C(=O)C[C@@H](C(C)C)C(=O)C1
REMARK SMILES IDX 8 1 9 2 6 3 7 4 5 5 4 6 3 7 2 8 1 9 10 11 11 12 15 13 16 14
REMARK SMILES IDX 17 15 12 17 13 18 14 19
REMARK H PARENT
REMARK Flexibility Score: 70.00
ROOT
ATOM      1  C   UNL     1      11.548 -17.064 -23.517  1.00  0.00     0.136 C 
ATOM      2  O   UNL     1      10.555 -16.367 -23.354  1.00  0.00    -0.299 OA
ENDROOT
BRANCH   1   3
ATOM      3  C   UNL     1      12.684 -16.574 -24.404  1.00  0.00     0.053 C 
ATOM      4  C   UNL     1      13.189 -17.671 -25.356  1.00  0.00     0.016 C 
BRANCH   3   5
ATOM      5  C   UNL     1      13.847 -15.973 -23.582  1.00  0.00     0.015 C 
BRANCH   5   6
ATOM      6  C   UNL     1      15.183 -16.746 -23.704  1.00  0.00     0.028 C 
BRANCH   6   7
ATOM      7  C   UNL     1      15.800 -16.971 -22.341  1.00  0.00    -0.028 C 
ATOM      8  C   UNL     1      15.529 -18.012 -21.516  1.00  0.00    -0.070 CG0
ATOM      9  C   UNL     1      16.133 -17.993 -20.135  1.00  0.00     0.039 C 
ATOM     10  G   UNL     1      14.654 -19.191 -21.914  1.00  0.00     0.000 G0
ENDBRANCH   6   7
ENDBRANCH   5   6
ENDBRANCH   3   5
ENDBRANCH   1   3
BRANCH   1  11
ATOM     11  C   UNL     1      11.597 -18.422 -22.852  1.00  0.00     0.087 C 
BRANCH  11  12
ATOM     12  C   UNL     1      12.151 -18.358 -21.403  1.00  0.00     0.066 C 
BRANCH  12  13
ATOM     13  C   UNL     1      13.320 -19.319 -21.202  1.00  0.00     0.140 C 
ATOM     14  O   UNL     1      13.178 -20.262 -20.438  1.00  0.00    -0.299 OA
BRANCH  13  15
ATOM     15  C   UNL     1      14.652 -19.198 -21.918  1.00  0.00     0.106 CG0
ATOM     16  G   UNL     1      15.520 -18.017 -21.509  1.00  0.00     0.000 G0
ENDBRANCH  13  15
ENDBRANCH  12  13
BRANCH  12  17
ATOM     17  C   UNL     1      11.064 -18.554 -20.299  1.00  0.00    -0.006 C 
ATOM     18  C   UNL     1       9.616 -18.556 -20.822  1.00  0.00     0.008 C 
ATOM     19  C   UNL     1      11.208 -17.517 -19.173  1.00  0.00     0.008 C 
ENDBRANCH  12  17
ENDBRANCH  11  12
ENDBRANCH   1  11
TORSDOF 1
ENDMDL
