MODEL 1
REMARK VINA RESULT:    10.126      0.000      0.000
REMARK INTER + INTRA:          15.672
REMARK INTER:                  16.046
REMARK INTRA:                  -0.374
REMARK UNBOUND:                -0.374
REMARK SMILES CCCCCCCCCCCC(=O)[O-]
REMARK SMILES IDX 7 1 8 2 9 3 10 4 11 5 12 6 13 7 14 8 6 9 5 10 4 11 3 12 2 13
REMARK SMILES IDX 1 14
REMARK H PARENT
REMARK Flexibility Score: inf
ROOT
ATOM      1  C   UNL     1      -7.005 -17.136  27.179  1.00  0.00     0.000 C 
ENDROOT
BRANCH   1   2
ATOM      2  C   UNL     1      -5.967 -18.142  26.658  1.00  0.00     0.000 C 
BRANCH   2   3
ATOM      3  C   UNL     1      -5.984 -18.268  25.124  1.00  0.00     0.000 C 
BRANCH   3   4
ATOM      4  C   UNL     1      -4.801 -19.091  24.582  1.00  0.00     0.006 C 
BRANCH   4   5
ATOM      5  C   UNL     1      -4.932 -19.486  23.102  1.00  0.00     0.053 C 
BRANCH   5   6
ATOM      6  C   UNL     1      -3.897 -20.489  22.696  1.00  0.00     0.041 C 
ATOM      7  O   UNL     1      -4.155 -21.721  22.747  1.00  0.00    -0.550 OA
ATOM      8  O   UNL     1      -2.636 -20.067  22.294  1.00  0.00    -0.550 OA
ENDBRANCH   5   6
ENDBRANCH   4   5
ENDBRANCH   3   4
ENDBRANCH   2   3
ENDBRANCH   1   2
BRANCH   1   9
ATOM      9  C   UNL     1      -8.446 -17.643  27.025  1.00  0.00     0.000 C 
BRANCH   9  10
ATOM     10  C   UNL     1      -9.270 -17.348  28.285  1.00  0.00    -0.000 C 
BRANCH  10  11
ATOM     11  C   UNL     1      -8.411 -17.482  29.548  1.00  0.00    -0.000 C 
BRANCH  11  12
ATOM     12  C   UNL     1      -9.271 -17.883  30.757  1.00  0.00    -0.000 C 
BRANCH  12  13
ATOM     13  C   UNL     1      -8.488 -17.842  32.078  1.00  0.00    -0.003 C 
ATOM     14  C   UNL     1      -7.466 -16.707  32.125  1.00  0.00     0.004 C 
ENDBRANCH  12  13
ENDBRANCH  11  12
ENDBRANCH  10  11
ENDBRANCH   9  10
ENDBRANCH   1   9
TORSDOF 10
ENDMDL
MODEL 2
REMARK VINA RESULT:    10.636      2.093      3.031
REMARK INTER + INTRA:          16.479
REMARK INTER:                  16.961
REMARK INTRA:                  -0.482
REMARK UNBOUND:                -0.374
REMARK SMILES CCCCCCCCCCCC(=O)[O-]
REMARK SMILES IDX 7 1 8 2 9 3 10 4 11 5 12 6 13 7 14 8 6 9 5 10 4 11 3 12 2 13
REMARK SMILES IDX 1 14
REMARK H PARENT
REMARK Flexibility Score: inf
ROOT
ATOM      1  C   UNL     1      -5.504 -18.297  26.120  1.00  0.00     0.000 C 
ENDROOT
BRANCH   1   2
ATOM      2  C   UNL     1      -6.315 -18.274  24.816  1.00  0.00     0.000 C 
BRANCH   2   3
ATOM      3  C   UNL     1      -5.446 -18.546  23.574  1.00  0.00     0.000 C 
BRANCH   3   4
ATOM      4  C   UNL     1      -4.471 -19.720  23.777  1.00  0.00     0.006 C 
BRANCH   4   5
ATOM      5  C   UNL     1      -4.146 -20.500  22.493  1.00  0.00     0.053 C 
BRANCH   5   6
ATOM      6  C   UNL     1      -2.677 -20.754  22.347  1.00  0.00     0.041 C 
ATOM      7  O   UNL     1      -2.109 -21.616  23.068  1.00  0.00    -0.550 OA
ATOM      8  O   UNL     1      -1.929 -20.014  21.440  1.00  0.00    -0.550 OA
ENDBRANCH   5   6
ENDBRANCH   4   5
ENDBRANCH   3   4
ENDBRANCH   2   3
ENDBRANCH   1   2
BRANCH   1   9
ATOM      9  C   UNL     1      -6.294 -17.747  27.317  1.00  0.00     0.000 C 
BRANCH   9  10
ATOM     10  C   UNL     1      -7.603 -17.094  26.857  1.00  0.00    -0.000 C 
BRANCH  10  11
ATOM     11  C   UNL     1      -8.752 -17.427  27.817  1.00  0.00    -0.000 C 
BRANCH  11  12
ATOM     12  C   UNL     1      -9.931 -16.463  27.618  1.00  0.00    -0.000 C 
BRANCH  12  13
ATOM     13  C   UNL     1      -9.557 -15.239  26.769  1.00  0.00    -0.003 C 
ATOM     14  C   UNL     1     -10.678 -14.203  26.698  1.00  0.00     0.004 C 
ENDBRANCH  12  13
ENDBRANCH  11  12
ENDBRANCH  10  11
ENDBRANCH   9  10
ENDBRANCH   1   9
TORSDOF 10
ENDMDL
MODEL 3
REMARK VINA RESULT:    11.081      3.941      7.994
REMARK INTER + INTRA:          17.184
REMARK INTER:                  17.459
REMARK INTRA:                  -0.275
REMARK UNBOUND:                -0.374
REMARK SMILES CCCCCCCCCCCC(=O)[O-]
REMARK SMILES IDX 7 1 8 2 9 3 10 4 11 5 12 6 13 7 14 8 6 9 5 10 4 11 3 12 2 13
REMARK SMILES IDX 1 14
REMARK H PARENT
REMARK Flexibility Score: inf
ROOT
ATOM      1  C   UNL     1      -4.164 -19.231  23.568  1.00  0.00     0.000 C 
ENDROOT
BRANCH   1   2
ATOM      2  C   UNL     1      -5.570 -18.714  23.910  1.00  0.00     0.000 C 
BRANCH   2   3
ATOM      3  C   UNL     1      -5.808 -18.612  25.428  1.00  0.00     0.000 C 
BRANCH   3   4
ATOM      4  C   UNL     1      -7.115 -17.877  25.776  1.00  0.00     0.006 C 
BRANCH   4   5
ATOM      5  C   UNL     1      -7.188 -17.371  27.226  1.00  0.00     0.053 C 
BRANCH   5   6
ATOM      6  C   UNL     1      -8.602 -17.174  27.681  1.00  0.00     0.041 C 
ATOM      7  O   UNL     1      -9.276 -16.201  27.249  1.00  0.00    -0.550 OA
ATOM      8  O   UNL     1      -9.163 -18.042  28.609  1.00  0.00    -0.550 OA
ENDBRANCH   5   6
ENDBRANCH   4   5
ENDBRANCH   3   4
ENDBRANCH   2   3
ENDBRANCH   1   2
BRANCH   1   9
ATOM      9  C   UNL     1      -4.195 -20.546  22.777  1.00  0.00     0.000 C 
BRANCH   9  10
ATOM     10  C   UNL     1      -2.777 -21.000  22.409  1.00  0.00    -0.000 C 
BRANCH  10  11
ATOM     11  C   UNL     1      -1.775 -19.848  22.554  1.00  0.00    -0.000 C 
BRANCH  11  12
ATOM     12  C   UNL     1      -0.961 -19.986  23.850  1.00  0.00    -0.000 C 
BRANCH  12  13
ATOM     13  C   UNL     1      -0.627 -18.628  24.485  1.00  0.00    -0.003 C 
ATOM     14  C   UNL     1      -0.089 -17.618  23.472  1.00  0.00     0.004 C 
ENDBRANCH  12  13
ENDBRANCH  11  12
ENDBRANCH  10  11
ENDBRANCH   9  10
ENDBRANCH   1   9
TORSDOF 10
ENDMDL
MODEL 4
REMARK VINA RESULT:    11.502      2.412      2.958
REMARK INTER + INTRA:          17.852
REMARK INTER:                  18.354
REMARK INTRA:                  -0.501
REMARK UNBOUND:                -0.374
REMARK SMILES CCCCCCCCCCCC(=O)[O-]
REMARK SMILES IDX 7 1 8 2 9 3 10 4 11 5 12 6 13 7 14 8 6 9 5 10 4 11 3 12 2 13
REMARK SMILES IDX 1 14
REMARK H PARENT
REMARK Flexibility Score: inf
ROOT
ATOM      1  C   UNL     1      -5.900 -18.341  26.377  1.00  0.00     0.000 C 
ENDROOT
BRANCH   1   2
ATOM      2  C   UNL     1      -5.013 -17.533  27.336  1.00  0.00     0.000 C 
BRANCH   2   3
ATOM      3  C   UNL     1      -3.543 -17.990  27.309  1.00  0.00     0.000 C 
BRANCH   3   4
ATOM      4  C   UNL     1      -2.837 -17.643  25.986  1.00  0.00     0.006 C 
BRANCH   4   5
ATOM      5  C   UNL     1      -1.302 -17.656  26.068  1.00  0.00     0.053 C 
BRANCH   5   6
ATOM      6  C   UNL     1      -0.677 -18.150  24.799  1.00  0.00     0.041 C 
ATOM      7  O   UNL     1      -0.509 -19.384  24.614  1.00  0.00    -0.550 OA
ATOM      8  O   UNL     1      -0.246 -17.245  23.836  1.00  0.00    -0.550 OA
ENDBRANCH   5   6
ENDBRANCH   4   5
ENDBRANCH   3   4
ENDBRANCH   2   3
ENDBRANCH   1   2
BRANCH   1   9
ATOM      9  C   UNL     1      -7.290 -17.716  26.191  1.00  0.00     0.000 C 
BRANCH   9  10
ATOM     10  C   UNL     1      -7.813 -17.137  27.510  1.00  0.00    -0.000 C 
BRANCH  10  11
ATOM     11  C   UNL     1      -9.103 -17.841  27.948  1.00  0.00    -0.000 C 
BRANCH  11  12
ATOM     12  C   UNL     1      -9.398 -17.575  29.432  1.00  0.00    -0.000 C 
BRANCH  12  13
ATOM     13  C   UNL     1      -8.120 -17.430  30.272  1.00  0.00    -0.003 C 
ATOM     14  C   UNL     1      -8.400 -17.383  31.773  1.00  0.00     0.004 C 
ENDBRANCH  12  13
ENDBRANCH  11  12
ENDBRANCH  10  11
ENDBRANCH   9  10
ENDBRANCH   1   9
TORSDOF 10
ENDMDL
