MODEL 1
REMARK VINA RESULT:    -3.494      0.000      0.000
REMARK INTER + INTRA:          -4.593
REMARK INTER:                  -4.516
REMARK INTRA:                  -0.077
REMARK UNBOUND:                -0.077
REMARK SMILES CCCCCCC(=O)[O-]
REMARK SMILES IDX 5 1 6 2 7 3 8 4 9 5 4 6 3 7 2 8 1 9
REMARK H PARENT
REMARK Flexibility Score: inf
ROOT
ATOM      1  C   UNL     1       6.749  20.728  55.279  1.00  0.00     0.006 C 
ENDROOT
BRANCH   1   2
ATOM      2  C   UNL     1       5.509  21.621  55.412  1.00  0.00     0.053 C 
BRANCH   2   3
ATOM      3  C   UNL     1       4.411  21.189  54.488  1.00  0.00     0.041 C 
ATOM      4  O   UNL     1       4.098  19.972  54.403  1.00  0.00    -0.550 OA
ATOM      5  O   UNL     1       3.756  22.124  53.698  1.00  0.00    -0.550 OA
ENDBRANCH   2   3
ENDBRANCH   1   2
BRANCH   1   6
ATOM      6  C   UNL     1       7.967  21.309  56.013  1.00  0.00     0.000 C 
BRANCH   6   7
ATOM      7  C   UNL     1       9.089  20.270  56.123  1.00  0.00    -0.000 C 
BRANCH   7   8
ATOM      8  C   UNL     1      10.467  20.939  56.043  1.00  0.00    -0.003 C 
ATOM      9  C   UNL     1      11.499  20.000  55.427  1.00  0.00     0.004 C 
ENDBRANCH   7   8
ENDBRANCH   6   7
ENDBRANCH   1   6
TORSDOF 5
ENDMDL
MODEL 2
REMARK VINA RESULT:    -1.692     12.635     13.540
REMARK INTER + INTRA:          -2.264
REMARK INTER:                  -2.621
REMARK INTRA:                   0.357
REMARK UNBOUND:                -0.077
REMARK SMILES CCCCCCC(=O)[O-]
REMARK SMILES IDX 5 1 6 2 7 3 8 4 9 5 4 6 3 7 2 8 1 9
REMARK H PARENT
REMARK Flexibility Score: inf
ROOT
ATOM      1  C   UNL     1       3.880   7.981  52.925  1.00  0.00     0.006 C 
ENDROOT
BRANCH   1   2
ATOM      2  C   UNL     1       2.978   7.228  53.911  1.00  0.00     0.053 C 
BRANCH   2   3
ATOM      3  C   UNL     1       3.738   6.768  55.118  1.00  0.00     0.041 C 
ATOM      4  O   UNL     1       3.838   5.538  55.373  1.00  0.00    -0.550 OA
ATOM      5  O   UNL     1       4.309   7.697  55.978  1.00  0.00    -0.550 OA
ENDBRANCH   2   3
ENDBRANCH   1   2
BRANCH   1   6
ATOM      6  C   UNL     1       3.302   9.350  52.535  1.00  0.00     0.000 C 
BRANCH   6   7
ATOM      7  C   UNL     1       2.886  10.145  53.778  1.00  0.00    -0.000 C 
BRANCH   7   8
ATOM      8  C   UNL     1       4.104  10.493  54.641  1.00  0.00    -0.003 C 
ATOM      9  C   UNL     1       3.747  10.488  56.125  1.00  0.00     0.004 C 
ENDBRANCH   7   8
ENDBRANCH   6   7
ENDBRANCH   1   6
TORSDOF 5
ENDMDL
MODEL 3
REMARK VINA RESULT:    -1.052     12.661     13.620
REMARK INTER + INTRA:          -1.437
REMARK INTER:                  -1.571
REMARK INTRA:                   0.134
REMARK UNBOUND:                -0.077
REMARK SMILES CCCCCCC(=O)[O-]
REMARK SMILES IDX 5 1 6 2 7 3 8 4 9 5 4 6 3 7 2 8 1 9
REMARK H PARENT
REMARK Flexibility Score: inf
ROOT
ATOM      1  C   UNL     1       4.114   8.981  55.801  1.00  0.00     0.006 C 
ENDROOT
BRANCH   1   2
ATOM      2  C   UNL     1       3.058   7.897  55.544  1.00  0.00     0.053 C 
BRANCH   2   3
ATOM      3  C   UNL     1       3.647   6.698  54.865  1.00  0.00     0.041 C 
ATOM      4  O   UNL     1       3.741   6.664  53.610  1.00  0.00    -0.550 OA
ATOM      5  O   UNL     1       4.062   5.606  55.616  1.00  0.00    -0.550 OA
ENDBRANCH   2   3
ENDBRANCH   1   2
BRANCH   1   6
ATOM      6  C   UNL     1       4.031  10.128  54.783  1.00  0.00     0.000 C 
BRANCH   6   7
ATOM      7  C   UNL     1       2.641  10.195  54.141  1.00  0.00    -0.000 C 
BRANCH   7   8
ATOM      8  C   UNL     1       2.695   9.783  52.666  1.00  0.00    -0.003 C 
ATOM      9  C   UNL     1       4.088   9.294  52.282  1.00  0.00     0.004 C 
ENDBRANCH   7   8
ENDBRANCH   6   7
ENDBRANCH   1   6
TORSDOF 5
ENDMDL
MODEL 4
REMARK VINA RESULT:    -0.762     12.259     13.147
REMARK INTER + INTRA:          -1.062
REMARK INTER:                  -1.628
REMARK INTRA:                   0.566
REMARK UNBOUND:                -0.077
REMARK SMILES CCCCCCC(=O)[O-]
REMARK SMILES IDX 5 1 6 2 7 3 8 4 9 5 4 6 3 7 2 8 1 9
REMARK H PARENT
REMARK Flexibility Score: inf
ROOT
ATOM      1  C   UNL     1       3.097  10.254  53.199  1.00  0.00     0.006 C 
ENDROOT
BRANCH   1   2
ATOM      2  C   UNL     1       2.638  10.143  54.659  1.00  0.00     0.053 C 
BRANCH   2   3
ATOM      3  C   UNL     1       3.799  10.034  55.599  1.00  0.00     0.041 C 
ATOM      4  O   UNL     1       4.464  11.058  55.907  1.00  0.00    -0.550 OA
ATOM      5  O   UNL     1       4.168   8.796  56.111  1.00  0.00    -0.550 OA
ENDBRANCH   2   3
ENDBRANCH   1   2
BRANCH   1   6
ATOM      6  C   UNL     1       3.437   8.886  52.589  1.00  0.00     0.000 C 
BRANCH   6   7
ATOM      7  C   UNL     1       2.841   7.747  53.426  1.00  0.00    -0.000 C 
BRANCH   7   8
ATOM      8  C   UNL     1       3.904   6.693  53.755  1.00  0.00    -0.003 C 
ATOM      9  C   UNL     1       3.667   6.083  55.133  1.00  0.00     0.004 C 
ENDBRANCH   7   8
ENDBRANCH   6   7
ENDBRANCH   1   6
TORSDOF 5
ENDMDL
MODEL 5
REMARK VINA RESULT:    -0.698     12.197     12.952
REMARK INTER + INTRA:          -0.980
REMARK INTER:                  -1.071
REMARK INTRA:                   0.091
REMARK UNBOUND:                -0.077
REMARK SMILES CCCCCCC(=O)[O-]
REMARK SMILES IDX 5 1 6 2 7 3 8 4 9 5 4 6 3 7 2 8 1 9
REMARK H PARENT
REMARK Flexibility Score: inf
ROOT
ATOM      1  C   UNL     1       3.704   7.330  53.711  1.00  0.00     0.006 C 
ENDROOT
BRANCH   1   2
ATOM      2  C   UNL     1       2.557   8.260  53.295  1.00  0.00     0.053 C 
BRANCH   2   3
ATOM      3  C   UNL     1       3.058   9.465  52.559  1.00  0.00     0.041 C 
ATOM      4  O   UNL     1       2.675  10.617  52.894  1.00  0.00    -0.550 OA
ATOM      5  O   UNL     1       3.922   9.314  51.482  1.00  0.00    -0.550 OA
ENDBRANCH   2   3
ENDBRANCH   1   2
BRANCH   1   6
ATOM      6  C   UNL     1       3.638   6.955  55.200  1.00  0.00     0.000 C 
BRANCH   6   7
ATOM      7  C   UNL     1       4.308   8.026  56.067  1.00  0.00    -0.000 C 
BRANCH   7   8
ATOM      8  C   UNL     1       3.475   9.313  56.093  1.00  0.00    -0.003 C 
ATOM      9  C   UNL     1       4.358  10.544  55.908  1.00  0.00     0.004 C 
ENDBRANCH   7   8
ENDBRANCH   6   7
ENDBRANCH   1   6
TORSDOF 5
ENDMDL
