MODEL 1
REMARK VINA RESULT:    -5.872      0.000      0.000
REMARK INTER + INTRA:         -10.802
REMARK INTER:                  -8.962
REMARK INTRA:                  -1.841
REMARK UNBOUND:                -1.841
REMARK SMILES CC(=O)CCC=C(C)CCC=C(C)CCC=C(C)C
REMARK SMILES IDX 10 1 11 2 12 3 13 4 14 5 15 6 16 7 18 8 17 9 19 10 9 11 7 12
REMARK SMILES IDX 6 13 8 14 5 15 4 16 2 17 3 18 1 19
REMARK H PARENT
REMARK Flexibility Score: inf
ROOT
ATOM      1  C   UNL     1       3.477  17.715  -5.775  1.00  0.00     0.032 C 
ENDROOT
BRANCH   1   2
ATOM      2  C   UNL     1       2.160  17.775  -6.512  1.00  0.00    -0.028 C 
ATOM      3  C   UNL     1       1.991  18.275  -7.758  1.00  0.00    -0.077 C 
ATOM      4  C   UNL     1       0.592  18.330  -8.317  1.00  0.00     0.039 C 
BRANCH   3   5
ATOM      5  C   UNL     1       3.144  18.747  -8.624  1.00  0.00     0.034 C 
BRANCH   5   6
ATOM      6  C   UNL     1       3.611  20.158  -8.240  1.00  0.00     0.032 C 
BRANCH   6   7
ATOM      7  C   UNL     1       2.779  21.217  -8.925  1.00  0.00    -0.028 C 
ATOM      8  C   UNL     1       1.149  23.044  -9.123  1.00  0.00     0.039 C 
ATOM      9  C   UNL     1       1.850  21.984  -8.313  1.00  0.00    -0.080 C 
ATOM     10  C   UNL     1       1.500  21.811  -6.854  1.00  0.00     0.039 C 
ENDBRANCH   6   7
ENDBRANCH   5   6
ENDBRANCH   3   5
ENDBRANCH   1   2
BRANCH   1  11
ATOM     11  C   UNL     1       3.877  16.267  -5.451  1.00  0.00     0.034 C 
BRANCH  11  12
ATOM     12  C   UNL     1       3.832  15.381  -6.679  1.00  0.00    -0.077 C 
ATOM     13  C   UNL     1       4.704  15.605  -7.686  1.00  0.00    -0.028 C 
ATOM     14  C   UNL     1       2.813  14.269  -6.753  1.00  0.00     0.039 C 
BRANCH  13  15
ATOM     15  C   UNL     1       4.728  14.786  -8.957  1.00  0.00     0.035 C 
BRANCH  15  16
ATOM     16  C   UNL     1       5.910  13.809  -8.989  1.00  0.00     0.079 C 
BRANCH  16  17
ATOM     17  C   UNL     1       5.551  12.483  -8.368  1.00  0.00     0.130 C 
ATOM     18  O   UNL     1       4.932  11.659  -9.024  1.00  0.00    -0.300 OA
ATOM     19  C   UNL     1       5.933  12.152  -6.955  1.00  0.00     0.087 C 
ENDBRANCH  16  17
ENDBRANCH  15  16
ENDBRANCH  13  15
ENDBRANCH  11  12
ENDBRANCH   1  11
TORSDOF 9
ENDMDL
MODEL 2
REMARK VINA RESULT:    -5.306      2.706      6.971
REMARK INTER + INTRA:          -9.938
REMARK INTER:                  -7.750
REMARK INTRA:                  -2.188
REMARK UNBOUND:                -1.841
REMARK SMILES CC(=O)CCC=C(C)CCC=C(C)CCC=C(C)C
REMARK SMILES IDX 10 1 11 2 12 3 13 4 14 5 15 6 16 7 18 8 17 9 19 10 9 11 7 12
REMARK SMILES IDX 6 13 8 14 5 15 4 16 2 17 3 18 1 19
REMARK H PARENT
REMARK Flexibility Score: inf
ROOT
ATOM      1  C   UNL     1       3.402  15.031  -9.125  1.00  0.00     0.032 C 
ENDROOT
BRANCH   1   2
ATOM      2  C   UNL     1       3.186  13.536  -9.099  1.00  0.00    -0.028 C 
ATOM      3  C   UNL     1       4.131  12.620  -8.788  1.00  0.00    -0.077 C 
ATOM      4  C   UNL     1       3.768  11.161  -8.886  1.00  0.00     0.039 C 
BRANCH   3   5
ATOM      5  C   UNL     1       5.523  12.998  -8.313  1.00  0.00     0.034 C 
BRANCH   5   6
ATOM      6  C   UNL     1       5.600  13.098  -6.783  1.00  0.00     0.032 C 
BRANCH   6   7
ATOM      7  C   UNL     1       5.440  14.528  -6.318  1.00  0.00    -0.028 C 
ATOM      8  C   UNL     1       4.354  16.461  -5.260  1.00  0.00     0.039 C 
ATOM      9  C   UNL     1       4.333  15.028  -5.725  1.00  0.00    -0.080 C 
ATOM     10  C   UNL     1       3.089  14.198  -5.518  1.00  0.00     0.039 C 
ENDBRANCH   6   7
ENDBRANCH   5   6
ENDBRANCH   3   5
ENDBRANCH   1   2
BRANCH   1  11
ATOM     11  C   UNL     1       2.075  15.795  -8.998  1.00  0.00     0.034 C 
BRANCH  11  12
ATOM     12  C   UNL     1       2.234  17.073  -8.199  1.00  0.00    -0.077 C 
ATOM     13  C   UNL     1       3.296  17.873  -8.438  1.00  0.00    -0.028 C 
ATOM     14  C   UNL     1       1.205  17.423  -7.151  1.00  0.00     0.039 C 
BRANCH  13  15
ATOM     15  C   UNL     1       3.549  19.158  -7.683  1.00  0.00     0.035 C 
BRANCH  15  16
ATOM     16  C   UNL     1       3.245  20.395  -8.536  1.00  0.00     0.079 C 
BRANCH  16  17
ATOM     17  C   UNL     1       2.149  21.234  -7.928  1.00  0.00     0.130 C 
ATOM     18  O   UNL     1       1.863  21.088  -6.749  1.00  0.00    -0.300 OA
ATOM     19  C   UNL     1       1.394  22.244  -8.742  1.00  0.00     0.087 C 
ENDBRANCH  16  17
ENDBRANCH  15  16
ENDBRANCH  13  15
ENDBRANCH  11  12
ENDBRANCH   1  11
TORSDOF 9
ENDMDL
MODEL 3
REMARK VINA RESULT:    -5.165      2.854      7.543
REMARK INTER + INTRA:          -9.723
REMARK INTER:                  -8.406
REMARK INTRA:                  -1.317
REMARK UNBOUND:                -1.841
REMARK SMILES CC(=O)CCC=C(C)CCC=C(C)CCC=C(C)C
REMARK SMILES IDX 10 1 11 2 12 3 13 4 14 5 15 6 16 7 18 8 17 9 19 10 9 11 7 12
REMARK SMILES IDX 6 13 8 14 5 15 4 16 2 17 3 18 1 19
REMARK H PARENT
REMARK Flexibility Score: inf
ROOT
ATOM      1  C   UNL     1       2.504  16.491  -5.697  1.00  0.00     0.032 C 
ENDROOT
BRANCH   1   2
ATOM      2  C   UNL     1       3.762  15.658  -5.636  1.00  0.00    -0.028 C 
ATOM      3  C   UNL     1       4.512  15.307  -6.706  1.00  0.00    -0.077 C 
ATOM      4  C   UNL     1       5.697  14.404  -6.478  1.00  0.00     0.039 C 
BRANCH   3   5
ATOM      5  C   UNL     1       4.234  15.808  -8.111  1.00  0.00     0.034 C 
BRANCH   5   6
ATOM      6  C   UNL     1       4.143  14.658  -9.124  1.00  0.00     0.032 C 
BRANCH   6   7
ATOM      7  C   UNL     1       3.116  13.634  -8.702  1.00  0.00    -0.028 C 
ATOM      8  C   UNL     1       2.245  11.435  -8.033  1.00  0.00     0.039 C 
ATOM      9  C   UNL     1       3.366  12.318  -8.521  1.00  0.00    -0.080 C 
ATOM     10  C   UNL     1       4.723  11.714  -8.791  1.00  0.00     0.039 C 
ENDBRANCH   6   7
ENDBRANCH   5   6
ENDBRANCH   3   5
ENDBRANCH   1   2
BRANCH   1  11
ATOM     11  C   UNL     1       2.825  17.990  -5.800  1.00  0.00     0.034 C 
BRANCH  11  12
ATOM     12  C   UNL     1       2.361  18.576  -7.119  1.00  0.00    -0.077 C 
ATOM     13  C   UNL     1       3.047  19.606  -7.661  1.00  0.00    -0.028 C 
ATOM     14  C   UNL     1       1.142  18.000  -7.797  1.00  0.00     0.039 C 
BRANCH  13  15
ATOM     15  C   UNL     1       2.655  20.267  -8.962  1.00  0.00     0.035 C 
BRANCH  15  16
ATOM     16  C   UNL     1       2.681  21.797  -8.861  1.00  0.00     0.079 C 
BRANCH  16  17
ATOM     17  C   UNL     1       1.331  22.352  -8.481  1.00  0.00     0.130 C 
ATOM     18  O   UNL     1       0.633  21.745  -7.684  1.00  0.00    -0.300 OA
ATOM     19  C   UNL     1       0.820  23.635  -9.068  1.00  0.00     0.087 C 
ENDBRANCH  16  17
ENDBRANCH  15  16
ENDBRANCH  13  15
ENDBRANCH  11  12
ENDBRANCH   1  11
TORSDOF 9
ENDMDL
MODEL 4
REMARK VINA RESULT:    -5.159      2.776      7.370
REMARK INTER + INTRA:          -9.714
REMARK INTER:                  -7.940
REMARK INTRA:                  -1.774
REMARK UNBOUND:                -1.841
REMARK SMILES CC(=O)CCC=C(C)CCC=C(C)CCC=C(C)C
REMARK SMILES IDX 10 1 11 2 12 3 13 4 14 5 15 6 16 7 18 8 17 9 19 10 9 11 7 12
REMARK SMILES IDX 6 13 8 14 5 15 4 16 2 17 3 18 1 19
REMARK H PARENT
REMARK Flexibility Score: inf
ROOT
ATOM      1  C   UNL     1       3.191  16.005  -5.933  1.00  0.00     0.032 C 
ENDROOT
BRANCH   1   2
ATOM      2  C   UNL     1       2.629  14.973  -6.882  1.00  0.00    -0.028 C 
ATOM      3  C   UNL     1       3.035  14.789  -8.159  1.00  0.00    -0.077 C 
ATOM      4  C   UNL     1       2.312  13.765  -8.995  1.00  0.00     0.039 C 
BRANCH   3   5
ATOM      5  C   UNL     1       4.202  15.542  -8.771  1.00  0.00     0.034 C 
BRANCH   5   6
ATOM      6  C   UNL     1       5.466  14.675  -8.853  1.00  0.00     0.032 C 
BRANCH   6   7
ATOM      7  C   UNL     1       5.868  14.161  -7.490  1.00  0.00    -0.028 C 
ATOM      8  C   UNL     1       6.375  12.503  -5.749  1.00  0.00     0.039 C 
ATOM      9  C   UNL     1       5.885  12.859  -7.130  1.00  0.00    -0.080 C 
ATOM     10  C   UNL     1       5.432  11.761  -8.063  1.00  0.00     0.039 C 
ENDBRANCH   6   7
ENDBRANCH   5   6
ENDBRANCH   3   5
ENDBRANCH   1   2
BRANCH   1  11
ATOM     11  C   UNL     1       2.256  17.216  -5.798  1.00  0.00     0.034 C 
BRANCH  11  12
ATOM     12  C   UNL     1       2.637  18.331  -6.752  1.00  0.00    -0.077 C 
ATOM     13  C   UNL     1       2.030  18.405  -7.956  1.00  0.00    -0.028 C 
ATOM     14  C   UNL     1       3.687  19.334  -6.337  1.00  0.00     0.039 C 
BRANCH  13  15
ATOM     15  C   UNL     1       2.352  19.470  -8.980  1.00  0.00     0.035 C 
BRANCH  15  16
ATOM     16  C   UNL     1       1.216  20.490  -9.125  1.00  0.00     0.079 C 
BRANCH  16  17
ATOM     17  C   UNL     1       1.604  21.836  -8.566  1.00  0.00     0.130 C 
ATOM     18  O   UNL     1       2.634  22.372  -8.946  1.00  0.00    -0.300 OA
ATOM     19  C   UNL     1       0.754  22.533  -7.545  1.00  0.00     0.087 C 
ENDBRANCH  16  17
ENDBRANCH  15  16
ENDBRANCH  13  15
ENDBRANCH  11  12
ENDBRANCH   1  11
TORSDOF 9
ENDMDL
MODEL 5
REMARK VINA RESULT:    -5.148      2.789      7.693
REMARK INTER + INTRA:          -9.697
REMARK INTER:                  -8.468
REMARK INTRA:                  -1.229
REMARK UNBOUND:                -1.841
REMARK SMILES CC(=O)CCC=C(C)CCC=C(C)CCC=C(C)C
REMARK SMILES IDX 10 1 11 2 12 3 13 4 14 5 15 6 16 7 18 8 17 9 19 10 9 11 7 12
REMARK SMILES IDX 6 13 8 14 5 15 4 16 2 17 3 18 1 19
REMARK H PARENT
REMARK Flexibility Score: inf
ROOT
ATOM      1  C   UNL     1       3.743  17.466  -5.935  1.00  0.00     0.032 C 
ENDROOT
BRANCH   1   2
ATOM      2  C   UNL     1       3.213  16.057  -5.821  1.00  0.00    -0.028 C 
ATOM      3  C   UNL     1       3.154  15.165  -6.838  1.00  0.00    -0.077 C 
ATOM      4  C   UNL     1       2.523  13.823  -6.571  1.00  0.00     0.039 C 
BRANCH   3   5
ATOM      5  C   UNL     1       3.725  15.445  -8.216  1.00  0.00     0.034 C 
BRANCH   5   6
ATOM      6  C   UNL     1       5.230  15.151  -8.286  1.00  0.00     0.032 C 
BRANCH   6   7
ATOM      7  C   UNL     1       5.491  13.686  -8.549  1.00  0.00    -0.028 C 
ATOM      8  C   UNL     1       5.987  11.339  -8.017  1.00  0.00     0.039 C 
ATOM      9  C   UNL     1       5.822  12.779  -7.604  1.00  0.00    -0.080 C 
ATOM     10  C   UNL     1       6.029  13.164  -6.158  1.00  0.00     0.039 C 
ENDBRANCH   6   7
ENDBRANCH   5   6
ENDBRANCH   3   5
ENDBRANCH   1   2
BRANCH   1  11
ATOM     11  C   UNL     1       2.610  18.502  -5.876  1.00  0.00     0.034 C 
BRANCH  11  12
ATOM     12  C   UNL     1       2.239  19.012  -7.254  1.00  0.00    -0.077 C 
ATOM     13  C   UNL     1       2.860  20.108  -7.741  1.00  0.00    -0.028 C 
ATOM     14  C   UNL     1       1.183  18.286  -8.052  1.00  0.00     0.039 C 
BRANCH  13  15
ATOM     15  C   UNL     1       2.549  20.701  -9.096  1.00  0.00     0.035 C 
BRANCH  15  16
ATOM     16  C   UNL     1       2.554  22.234  -9.068  1.00  0.00     0.079 C 
BRANCH  16  17
ATOM     17  C   UNL     1       1.237  22.786  -8.583  1.00  0.00     0.130 C 
ATOM     18  O   UNL     1       0.598  22.170  -7.744  1.00  0.00    -0.300 OA
ATOM     19  C   UNL     1       0.686  24.076  -9.116  1.00  0.00     0.087 C 
ENDBRANCH  16  17
ENDBRANCH  15  16
ENDBRANCH  13  15
ENDBRANCH  11  12
ENDBRANCH   1  11
TORSDOF 9
ENDMDL
MODEL 6
REMARK VINA RESULT:    -5.057      3.058      8.014
REMARK INTER + INTRA:          -9.558
REMARK INTER:                  -8.656
REMARK INTRA:                  -0.901
REMARK UNBOUND:                -1.841
REMARK SMILES CC(=O)CCC=C(C)CCC=C(C)CCC=C(C)C
REMARK SMILES IDX 10 1 11 2 12 3 13 4 14 5 15 6 16 7 18 8 17 9 19 10 9 11 7 12
REMARK SMILES IDX 6 13 8 14 5 15 4 16 2 17 3 18 1 19
REMARK H PARENT
REMARK Flexibility Score: inf
ROOT
ATOM      1  C   UNL     1       3.914  15.995  -7.530  1.00  0.00     0.032 C 
ENDROOT
BRANCH   1   2
ATOM      2  C   UNL     1       4.759  15.084  -6.672  1.00  0.00    -0.028 C 
ATOM      3  C   UNL     1       5.294  13.910  -7.080  1.00  0.00    -0.077 C 
ATOM      4  C   UNL     1       6.049  13.084  -6.071  1.00  0.00     0.039 C 
BRANCH   3   5
ATOM      5  C   UNL     1       5.196  13.409  -8.509  1.00  0.00     0.034 C 
BRANCH   5   6
ATOM      6  C   UNL     1       5.171  11.876  -8.580  1.00  0.00     0.032 C 
BRANCH   6   7
ATOM      7  C   UNL     1       3.851  11.372  -9.117  1.00  0.00    -0.028 C 
ATOM      8  C   UNL     1       1.442  10.887  -9.125  1.00  0.00     0.039 C 
ATOM      9  C   UNL     1       2.690  11.361  -8.425  1.00  0.00    -0.080 C 
ATOM     10  C   UNL     1       2.609  11.807  -6.984  1.00  0.00     0.039 C 
ENDBRANCH   6   7
ENDBRANCH   5   6
ENDBRANCH   3   5
ENDBRANCH   1   2
BRANCH   1  11
ATOM     11  C   UNL     1       3.002  16.889  -6.676  1.00  0.00     0.034 C 
BRANCH  11  12
ATOM     12  C   UNL     1       3.291  18.361  -6.892  1.00  0.00    -0.077 C 
ATOM     13  C   UNL     1       2.939  18.938  -8.061  1.00  0.00    -0.028 C 
ATOM     14  C   UNL     1       3.968  19.150  -5.797  1.00  0.00     0.039 C 
BRANCH  13  15
ATOM     15  C   UNL     1       3.199  20.393  -8.376  1.00  0.00     0.035 C 
BRANCH  15  16
ATOM     16  C   UNL     1       1.985  21.066  -9.029  1.00  0.00     0.079 C 
BRANCH  16  17
ATOM     17  C   UNL     1       1.380  22.115  -8.131  1.00  0.00     0.130 C 
ATOM     18  O   UNL     1       1.272  21.893  -6.935  1.00  0.00    -0.300 OA
ATOM     19  C   UNL     1       0.900  23.428  -8.676  1.00  0.00     0.087 C 
ENDBRANCH  16  17
ENDBRANCH  15  16
ENDBRANCH  13  15
ENDBRANCH  11  12
ENDBRANCH   1  11
TORSDOF 9
ENDMDL
MODEL 7
REMARK VINA RESULT:    -5.029      3.320      7.392
REMARK INTER + INTRA:          -9.516
REMARK INTER:                  -7.942
REMARK INTRA:                  -1.574
REMARK UNBOUND:                -1.841
REMARK SMILES CC(=O)CCC=C(C)CCC=C(C)CCC=C(C)C
REMARK SMILES IDX 10 1 11 2 12 3 13 4 14 5 15 6 16 7 18 8 17 9 19 10 9 11 7 12
REMARK SMILES IDX 6 13 8 14 5 15 4 16 2 17 3 18 1 19
REMARK H PARENT
REMARK Flexibility Score: inf
ROOT
ATOM      1  C   UNL     1       2.743  15.987  -9.125  1.00  0.00     0.032 C 
ENDROOT
BRANCH   1   2
ATOM      2  C   UNL     1       2.328  14.542  -8.978  1.00  0.00    -0.028 C 
ATOM      3  C   UNL     1       3.085  13.570  -8.418  1.00  0.00    -0.077 C 
ATOM      4  C   UNL     1       2.550  12.161  -8.422  1.00  0.00     0.039 C 
BRANCH   3   5
ATOM      5  C   UNL     1       4.426  13.842  -7.761  1.00  0.00     0.034 C 
BRANCH   5   6
ATOM      6  C   UNL     1       4.320  13.873  -6.230  1.00  0.00     0.032 C 
BRANCH   6   7
ATOM      7  C   UNL     1       3.024  14.509  -5.782  1.00  0.00    -0.028 C 
ATOM      8  C   UNL     1       1.503  16.306  -5.080  1.00  0.00     0.039 C 
ATOM      9  C   UNL     1       2.878  15.809  -5.443  1.00  0.00    -0.080 C 
ATOM     10  C   UNL     1       4.045  16.768  -5.419  1.00  0.00     0.039 C 
ENDBRANCH   6   7
ENDBRANCH   5   6
ENDBRANCH   3   5
ENDBRANCH   1   2
BRANCH   1  11
ATOM     11  C   UNL     1       1.633  16.942  -8.660  1.00  0.00     0.034 C 
BRANCH  11  12
ATOM     12  C   UNL     1       2.080  18.389  -8.702  1.00  0.00    -0.077 C 
ATOM     13  C   UNL     1       1.174  19.353  -8.978  1.00  0.00    -0.028 C 
ATOM     14  C   UNL     1       3.529  18.724  -8.439  1.00  0.00     0.039 C 
BRANCH  13  15
ATOM     15  C   UNL     1       1.526  20.821  -9.057  1.00  0.00     0.035 C 
BRANCH  15  16
ATOM     16  C   UNL     1       1.329  21.533  -7.713  1.00  0.00     0.079 C 
BRANCH  16  17
ATOM     17  C   UNL     1       0.749  22.913  -7.895  1.00  0.00     0.130 C 
ATOM     18  O   UNL     1       0.028  23.381  -7.026  1.00  0.00    -0.300 OA
ATOM     19  C   UNL     1       1.030  23.724  -9.125  1.00  0.00     0.087 C 
ENDBRANCH  16  17
ENDBRANCH  15  16
ENDBRANCH  13  15
ENDBRANCH  11  12
ENDBRANCH   1  11
TORSDOF 9
ENDMDL
MODEL 8
REMARK VINA RESULT:    -4.859      3.104      7.136
REMARK INTER + INTRA:          -9.256
REMARK INTER:                  -8.087
REMARK INTRA:                  -1.170
REMARK UNBOUND:                -1.841
REMARK SMILES CC(=O)CCC=C(C)CCC=C(C)CCC=C(C)C
REMARK SMILES IDX 10 1 11 2 12 3 13 4 14 5 15 6 16 7 18 8 17 9 19 10 9 11 7 12
REMARK SMILES IDX 6 13 8 14 5 15 4 16 2 17 3 18 1 19
REMARK H PARENT
REMARK Flexibility Score: inf
ROOT
ATOM      1  C   UNL     1       2.687  16.863  -5.907  1.00  0.00     0.032 C 
ENDROOT
BRANCH   1   2
ATOM      2  C   UNL     1       1.489  17.063  -6.805  1.00  0.00    -0.028 C 
ATOM      3  C   UNL     1       1.429  16.710  -8.109  1.00  0.00    -0.077 C 
ATOM      4  C   UNL     1       0.182  17.053  -8.882  1.00  0.00     0.039 C 
BRANCH   3   5
ATOM      5  C   UNL     1       2.544  15.958  -8.814  1.00  0.00     0.034 C 
BRANCH   5   6
ATOM      6  C   UNL     1       2.469  14.446  -8.557  1.00  0.00     0.032 C 
BRANCH   6   7
ATOM      7  C   UNL     1       3.781  13.770  -8.878  1.00  0.00    -0.028 C 
ATOM      8  C   UNL     1       5.958  12.717  -8.440  1.00  0.00     0.039 C 
ATOM      9  C   UNL     1       4.728  13.450  -7.968  1.00  0.00    -0.080 C 
ATOM     10  C   UNL     1       4.590  13.803  -6.506  1.00  0.00     0.039 C 
ENDBRANCH   6   7
ENDBRANCH   5   6
ENDBRANCH   3   5
ENDBRANCH   1   2
BRANCH   1  11
ATOM     11  C   UNL     1       3.927  17.591  -6.449  1.00  0.00     0.034 C 
BRANCH  11  12
ATOM     12  C   UNL     1       3.616  19.023  -6.835  1.00  0.00    -0.077 C 
ATOM     13  C   UNL     1       3.675  19.384  -8.136  1.00  0.00    -0.028 C 
ATOM     14  C   UNL     1       3.249  20.017  -5.759  1.00  0.00     0.039 C 
BRANCH  13  15
ATOM     15  C   UNL     1       3.398  20.791  -8.617  1.00  0.00     0.035 C 
BRANCH  15  16
ATOM     16  C   UNL     1       1.902  21.031  -8.857  1.00  0.00     0.079 C 
BRANCH  16  17
ATOM     17  C   UNL     1       1.510  22.453  -8.541  1.00  0.00     0.130 C 
ATOM     18  O   UNL     1       2.061  23.373  -9.124  1.00  0.00    -0.300 OA
ATOM     19  C   UNL     1       0.459  22.764  -7.517  1.00  0.00     0.087 C 
ENDBRANCH  16  17
ENDBRANCH  15  16
ENDBRANCH  13  15
ENDBRANCH  11  12
ENDBRANCH   1  11
TORSDOF 9
ENDMDL
MODEL 9
REMARK VINA RESULT:    -4.811      2.733      6.724
REMARK INTER + INTRA:          -9.183
REMARK INTER:                  -7.349
REMARK INTRA:                  -1.834
REMARK UNBOUND:                -1.841
REMARK SMILES CC(=O)CCC=C(C)CCC=C(C)CCC=C(C)C
REMARK SMILES IDX 10 1 11 2 12 3 13 4 14 5 15 6 16 7 18 8 17 9 19 10 9 11 7 12
REMARK SMILES IDX 6 13 8 14 5 15 4 16 2 17 3 18 1 19
REMARK H PARENT
REMARK Flexibility Score: inf
ROOT
ATOM      1  C   UNL     1       5.387  15.274  -7.860  1.00  0.00     0.032 C 
ENDROOT
BRANCH   1   2
ATOM      2  C   UNL     1       5.690  13.817  -8.117  1.00  0.00    -0.028 C 
ATOM      3  C   UNL     1       4.911  12.782  -7.729  1.00  0.00    -0.077 C 
ATOM      4  C   UNL     1       5.401  11.382  -7.999  1.00  0.00     0.039 C 
BRANCH   3   5
ATOM      5  C   UNL     1       3.557  12.968  -7.069  1.00  0.00     0.034 C 
BRANCH   5   6
ATOM      6  C   UNL     1       3.658  13.783  -5.772  1.00  0.00     0.032 C 
BRANCH   6   7
ATOM      7  C   UNL     1       2.547  14.804  -5.677  1.00  0.00    -0.028 C 
ATOM      8  C   UNL     1       1.517  17.015  -5.387  1.00  0.00     0.039 C 
ATOM      9  C   UNL     1       2.722  16.110  -5.379  1.00  0.00    -0.080 C 
ATOM     10  C   UNL     1       4.079  16.682  -5.041  1.00  0.00     0.039 C 
ENDBRANCH   6   7
ENDBRANCH   5   6
ENDBRANCH   3   5
ENDBRANCH   1   2
BRANCH   1  11
ATOM     11  C   UNL     1       4.867  15.974  -9.125  1.00  0.00     0.034 C 
BRANCH  11  12
ATOM     12  C   UNL     1       3.616  16.783  -8.848  1.00  0.00    -0.077 C 
ATOM     13  C   UNL     1       3.733  18.087  -8.517  1.00  0.00    -0.028 C 
ATOM     14  C   UNL     1       2.266  16.114  -8.945  1.00  0.00     0.039 C 
BRANCH  13  15
ATOM     15  C   UNL     1       2.546  18.971  -8.209  1.00  0.00     0.035 C 
BRANCH  15  16
ATOM     16  C   UNL     1       2.968  20.289  -7.548  1.00  0.00     0.079 C 
BRANCH  16  17
ATOM     17  C   UNL     1       2.250  21.470  -8.153  1.00  0.00     0.130 C 
ATOM     18  O   UNL     1       2.765  22.075  -9.082  1.00  0.00    -0.300 OA
ATOM     19  C   UNL     1       0.918  21.925  -7.636  1.00  0.00     0.087 C 
ENDBRANCH  16  17
ENDBRANCH  15  16
ENDBRANCH  13  15
ENDBRANCH  11  12
ENDBRANCH   1  11
TORSDOF 9
ENDMDL
