MODEL 1
REMARK VINA RESULT:    -4.093      0.000      0.000
REMARK INTER + INTRA:          -6.013
REMARK INTER:                  -5.528
REMARK INTRA:                  -0.485
REMARK UNBOUND:                -0.485
REMARK SMILES O=c1c(-c2ccc(O)cc2)coc2c([C@@H]3O[C@@H](CO)[C@@H](O)[C@@H](O)[C@@H]3O)c(O)ccc12
REMARK SMILES IDX 3 1 11 2 12 3 13 4 30 5 2 6 1 7 29 8 28 9 26 10 14 11 4 12
REMARK SMILES IDX 5 13 6 14 7 15 10 16 9 17 8 18 15 20 24 21 16 22 22 23 17 24
REMARK SMILES IDX 20 25 25 26 23 28 18 30 19 31 21 33 27 35
REMARK H PARENT 8 19 25 27 23 29 19 32 21 34 27 36
REMARK Flexibility Score: inf
ROOT
ATOM      1  C   UNL     1      51.534 -30.399  24.284  1.00  0.00     0.065 A 
ATOM      2  C   UNL     1      52.079 -29.504  23.354  1.00  0.00     0.208 A 
ATOM      3  O   UNL     1      51.931 -28.193  23.503  1.00  0.00    -0.463 OA
ATOM      4  C   UNL     1      51.272 -27.641  24.522  1.00  0.00     0.147 A 
ATOM      5  C   UNL     1      50.694 -28.475  25.507  1.00  0.00     0.066 A 
ATOM      6  C   UNL     1      50.836 -29.869  25.383  1.00  0.00     0.200 A 
ATOM      7  O   UNL     1      50.359 -30.639  26.262  1.00  0.00    -0.288 OA
ATOM      8  C   UNL     1      50.006 -27.899  26.581  1.00  0.00     0.020 A 
ATOM      9  C   UNL     1      49.891 -26.519  26.676  1.00  0.00     0.047 A 
ATOM     10  C   UNL     1      50.458 -25.676  25.710  1.00  0.00     0.125 A 
ATOM     11  C   UNL     1      51.166 -26.227  24.606  1.00  0.00     0.069 A 
ENDROOT
BRANCH   1  12
ATOM     12  C   UNL     1      51.708 -31.861  24.093  1.00  0.00    -0.011 A 
ATOM     13  C   UNL     1      52.859 -32.507  24.576  1.00  0.00     0.013 A 
ATOM     14  C   UNL     1      53.031 -33.883  24.391  1.00  0.00     0.047 A 
ATOM     15  C   UNL     1      52.059 -34.627  23.716  1.00  0.00     0.115 A 
ATOM     16  C   UNL     1      50.739 -32.616  23.409  1.00  0.00     0.013 A 
ATOM     17  C   UNL     1      50.912 -33.991  23.224  1.00  0.00     0.047 A 
BRANCH  15  18
ATOM     18  O   UNL     1      52.243 -35.997  23.538  1.00  0.00    -0.508 OA
ATOM     19  H   UNL     1      51.608 -36.547  22.970  1.00  0.00     0.293 HD
ENDBRANCH  15  18
ENDBRANCH   1  12
BRANCH  11  20
ATOM     20  C   UNL     1      51.867 -25.421  23.491  1.00  0.00     0.188 C 
ATOM     21  C   UNL     1      51.256 -24.114  22.894  1.00  0.00     0.179 C 
ATOM     22  O   UNL     1      53.241 -25.241  23.801  1.00  0.00    -0.362 OA
ATOM     23  C   UNL     1      51.580 -22.858  23.734  1.00  0.00     0.177 C 
ATOM     24  C   UNL     1      53.424 -24.208  24.754  1.00  0.00     0.176 C 
ATOM     25  C   UNL     1      53.069 -22.847  24.126  1.00  0.00     0.177 C 
BRANCH  21  26
ATOM     26  O   UNL     1      49.875 -24.228  22.666  1.00  0.00    -0.387 OA
ATOM     27  H   UNL     1      49.746 -24.216  21.682  1.00  0.00     0.211 HD
ENDBRANCH  21  26
BRANCH  23  28
ATOM     28  O   UNL     1      51.257 -21.708  22.993  1.00  0.00    -0.387 OA
ATOM     29  H   UNL     1      51.620 -21.844  22.079  1.00  0.00     0.211 HD
ENDBRANCH  23  28
BRANCH  24  30
ATOM     30  C   UNL     1      54.880 -24.231  25.239  1.00  0.00     0.191 C 
BRANCH  30  31
ATOM     31  O   UNL     1      55.721 -24.728  24.234  1.00  0.00    -0.394 OA
ATOM     32  H   UNL     1      55.148 -25.256  23.618  1.00  0.00     0.210 HD
ENDBRANCH  30  31
ENDBRANCH  24  30
BRANCH  25  33
ATOM     33  O   UNL     1      53.873 -22.619  22.994  1.00  0.00    -0.388 OA
ATOM     34  H   UNL     1      54.799 -22.880  23.240  1.00  0.00     0.211 HD
ENDBRANCH  25  33
ENDBRANCH  11  20
BRANCH  10  35
ATOM     35  O   UNL     1      50.298 -24.306  25.873  1.00  0.00    -0.507 OA
ATOM     36  H   UNL     1      50.078 -23.891  26.772  1.00  0.00     0.293 HD
ENDBRANCH  10  35
TORSDOF 9
ENDMDL
MODEL 2
REMARK VINA RESULT:    -4.039      2.103      8.823
REMARK INTER + INTRA:          -5.941
REMARK INTER:                  -5.822
REMARK INTRA:                  -0.119
REMARK UNBOUND:                -0.485
REMARK SMILES O=c1c(-c2ccc(O)cc2)coc2c([C@@H]3O[C@@H](CO)[C@@H](O)[C@@H](O)[C@@H]3O)c(O)ccc12
REMARK SMILES IDX 3 1 11 2 12 3 13 4 30 5 2 6 1 7 29 8 28 9 26 10 14 11 4 12
REMARK SMILES IDX 5 13 6 14 7 15 10 16 9 17 8 18 15 20 24 21 16 22 22 23 17 24
REMARK SMILES IDX 20 25 25 26 23 28 18 30 19 31 21 33 27 35
REMARK H PARENT 8 19 25 27 23 29 19 32 21 34 27 36
REMARK Flexibility Score: inf
ROOT
ATOM      1  C   UNL     1      51.348 -28.668  23.957  1.00  0.00     0.065 A 
ATOM      2  C   UNL     1      52.146 -29.312  24.913  1.00  0.00     0.208 A 
ATOM      3  O   UNL     1      52.166 -30.637  25.002  1.00  0.00    -0.463 OA
ATOM      4  C   UNL     1      51.452 -31.436  24.210  1.00  0.00     0.147 A 
ATOM      5  C   UNL     1      50.623 -30.866  23.216  1.00  0.00     0.066 A 
ATOM      6  C   UNL     1      50.581 -29.465  23.091  1.00  0.00     0.200 A 
ATOM      7  O   UNL     1      49.875 -28.927  22.193  1.00  0.00    -0.288 OA
ATOM      8  C   UNL     1      49.875 -31.701  22.379  1.00  0.00     0.020 A 
ATOM      9  C   UNL     1      49.946 -33.081  22.527  1.00  0.00     0.047 A 
ATOM     10  C   UNL     1      50.763 -33.664  23.505  1.00  0.00     0.125 A 
ATOM     11  C   UNL     1      51.538 -32.844  24.372  1.00  0.00     0.069 A 
ENDROOT
BRANCH   1  12
ATOM     12  C   UNL     1      51.338 -27.186  23.881  1.00  0.00    -0.011 A 
ATOM     13  C   UNL     1      52.511 -26.484  23.555  1.00  0.00     0.013 A 
ATOM     14  C   UNL     1      52.507 -25.087  23.490  1.00  0.00     0.047 A 
ATOM     15  C   UNL     1      51.334 -24.375  23.755  1.00  0.00     0.115 A 
ATOM     16  C   UNL     1      50.163 -26.462  24.152  1.00  0.00     0.013 A 
ATOM     17  C   UNL     1      50.161 -25.065  24.087  1.00  0.00     0.047 A 
BRANCH  15  18
ATOM     18  O   UNL     1      51.344 -22.983  23.686  1.00  0.00    -0.508 OA
ATOM     19  H   UNL     1      51.355 -22.411  24.523  1.00  0.00     0.293 HD
ENDBRANCH  15  18
ENDBRANCH   1  12
BRANCH  11  20
ATOM     20  C   UNL     1      52.502 -33.349  25.467  1.00  0.00     0.188 C 
ATOM     21  C   UNL     1      52.309 -34.724  26.182  1.00  0.00     0.179 C 
ATOM     22  O   UNL     1      53.850 -33.179  25.055  1.00  0.00    -0.362 OA
ATOM     23  C   UNL     1      52.906 -35.907  25.387  1.00  0.00     0.177 C 
ATOM     24  C   UNL     1      54.245 -34.194  24.147  1.00  0.00     0.176 C 
ATOM     25  C   UNL     1      54.314 -35.549  24.874  1.00  0.00     0.177 C 
BRANCH  21  26
ATOM     26  O   UNL     1      50.967 -34.966  26.517  1.00  0.00    -0.387 OA
ATOM     27  H   UNL     1      50.973 -35.552  27.318  1.00  0.00     0.211 HD
ENDBRANCH  21  26
BRANCH  23  28
ATOM     28  O   UNL     1      52.956 -37.043  26.213  1.00  0.00    -0.387 OA
ATOM     29  H   UNL     1      52.536 -37.786  25.706  1.00  0.00     0.211 HD
ENDBRANCH  23  28
BRANCH  24  30
ATOM     30  C   UNL     1      55.605 -33.820  23.543  1.00  0.00     0.191 C 
BRANCH  30  31
ATOM     31  O   UNL     1      55.490 -32.660  22.764  1.00  0.00    -0.394 OA
ATOM     32  H   UNL     1      54.674 -32.187  23.076  1.00  0.00     0.210 HD
ENDBRANCH  30  31
ENDBRANCH  24  30
BRANCH  25  33
ATOM     33  O   UNL     1      55.221 -35.470  25.947  1.00  0.00    -0.388 OA
ATOM     34  H   UNL     1      54.701 -35.630  26.778  1.00  0.00     0.211 HD
ENDBRANCH  25  33
ENDBRANCH  11  20
BRANCH  10  35
ATOM     35  O   UNL     1      50.778 -35.050  23.592  1.00  0.00    -0.507 OA
ATOM     36  H   UNL     1      50.011 -35.574  23.999  1.00  0.00     0.293 HD
ENDBRANCH  10  35
TORSDOF 9
ENDMDL
MODEL 3
REMARK VINA RESULT:    -3.877      2.131      3.660
REMARK INTER + INTRA:          -5.722
REMARK INTER:                  -5.709
REMARK INTRA:                  -0.013
REMARK UNBOUND:                -0.485
REMARK SMILES O=c1c(-c2ccc(O)cc2)coc2c([C@@H]3O[C@@H](CO)[C@@H](O)[C@@H](O)[C@@H]3O)c(O)ccc12
REMARK SMILES IDX 3 1 11 2 12 3 13 4 30 5 2 6 1 7 29 8 28 9 26 10 14 11 4 12
REMARK SMILES IDX 5 13 6 14 7 15 10 16 9 17 8 18 15 20 24 21 16 22 22 23 17 24
REMARK SMILES IDX 20 25 25 26 23 28 18 30 19 31 21 33 27 35
REMARK H PARENT 8 19 25 27 23 29 19 32 21 34 27 36
REMARK Flexibility Score: inf
ROOT
ATOM      1  C   UNL     1      53.749 -32.142  24.186  1.00  0.00     0.065 A 
ATOM      2  C   UNL     1      54.320 -30.960  24.677  1.00  0.00     0.208 A 
ATOM      3  O   UNL     1      53.675 -29.802  24.586  1.00  0.00    -0.463 OA
ATOM      4  C   UNL     1      52.467 -29.678  24.038  1.00  0.00     0.147 A 
ATOM      5  C   UNL     1      51.819 -30.824  23.521  1.00  0.00     0.066 A 
ATOM      6  C   UNL     1      52.471 -32.067  23.605  1.00  0.00     0.200 A 
ATOM      7  O   UNL     1      51.905 -33.113  23.181  1.00  0.00    -0.288 OA
ATOM      8  C   UNL     1      50.547 -30.698  22.949  1.00  0.00     0.020 A 
ATOM      9  C   UNL     1      49.930 -29.456  22.888  1.00  0.00     0.047 A 
ATOM     10  C   UNL     1      50.556 -28.309  23.396  1.00  0.00     0.125 A 
ATOM     11  C   UNL     1      51.847 -28.401  23.985  1.00  0.00     0.069 A 
ENDROOT
BRANCH   1  12
ATOM     12  C   UNL     1      54.491 -33.422  24.294  1.00  0.00    -0.011 A 
ATOM     13  C   UNL     1      54.501 -34.136  25.505  1.00  0.00     0.013 A 
ATOM     14  C   UNL     1      55.206 -35.339  25.613  1.00  0.00     0.047 A 
ATOM     15  C   UNL     1      55.914 -35.840  24.517  1.00  0.00     0.115 A 
ATOM     16  C   UNL     1      55.211 -33.929  23.198  1.00  0.00     0.013 A 
ATOM     17  C   UNL     1      55.917 -35.132  23.308  1.00  0.00     0.047 A 
BRANCH  15  18
ATOM     18  O   UNL     1      56.612 -37.039  24.639  1.00  0.00    -0.508 OA
ATOM     19  H   UNL     1      56.242 -37.816  25.175  1.00  0.00     0.293 HD
ENDBRANCH  15  18
ENDBRANCH   1  12
BRANCH  11  20
ATOM     20  C   UNL     1      52.637 -27.232  24.613  1.00  0.00     0.188 C 
ATOM     21  C   UNL     1      53.122 -26.006  23.775  1.00  0.00     0.179 C 
ATOM     22  O   UNL     1      52.019 -26.808  25.818  1.00  0.00    -0.362 OA
ATOM     23  C   UNL     1      52.034 -24.922  23.608  1.00  0.00     0.177 C 
ATOM     24  C   UNL     1      50.889 -25.991  25.559  1.00  0.00     0.176 C 
ATOM     25  C   UNL     1      51.340 -24.649  24.955  1.00  0.00     0.177 C 
BRANCH  21  26
ATOM     26  O   UNL     1      53.653 -26.387  22.533  1.00  0.00    -0.387 OA
ATOM     27  H   UNL     1      53.021 -26.061  21.839  1.00  0.00     0.211 HD
ENDBRANCH  21  26
BRANCH  23  28
ATOM     28  O   UNL     1      52.622 -23.747  23.110  1.00  0.00    -0.387 OA
ATOM     29  H   UNL     1      53.320 -24.027  22.461  1.00  0.00     0.211 HD
ENDBRANCH  23  28
BRANCH  24  30
ATOM     30  C   UNL     1      50.118 -25.779  26.869  1.00  0.00     0.191 C 
BRANCH  30  31
ATOM     31  O   UNL     1      51.008 -25.678  27.948  1.00  0.00    -0.394 OA
ATOM     32  H   UNL     1      51.845 -25.282  27.591  1.00  0.00     0.210 HD
ENDBRANCH  30  31
ENDBRANCH  24  30
BRANCH  25  33
ATOM     33  O   UNL     1      52.222 -24.000  25.839  1.00  0.00    -0.388 OA
ATOM     34  H   UNL     1      52.570 -23.200  25.365  1.00  0.00     0.211 HD
ENDBRANCH  25  33
ENDBRANCH  11  20
BRANCH  10  35
ATOM     35  O   UNL     1      49.875 -27.102  23.296  1.00  0.00    -0.507 OA
ATOM     36  H   UNL     1      49.436 -26.662  24.097  1.00  0.00     0.293 HD
ENDBRANCH  10  35
TORSDOF 9
ENDMDL
MODEL 4
REMARK VINA RESULT:    -3.777      6.026     10.254
REMARK INTER + INTRA:          -5.587
REMARK INTER:                  -5.453
REMARK INTRA:                  -0.134
REMARK UNBOUND:                -0.485
REMARK SMILES O=c1c(-c2ccc(O)cc2)coc2c([C@@H]3O[C@@H](CO)[C@@H](O)[C@@H](O)[C@@H]3O)c(O)ccc12
REMARK SMILES IDX 3 1 11 2 12 3 13 4 30 5 2 6 1 7 29 8 28 9 26 10 14 11 4 12
REMARK SMILES IDX 5 13 6 14 7 15 10 16 9 17 8 18 15 20 24 21 16 22 22 23 17 24
REMARK SMILES IDX 20 25 25 26 23 28 18 30 19 31 21 33 27 35
REMARK H PARENT 8 19 25 27 23 29 19 32 21 34 27 36
REMARK Flexibility Score: inf
ROOT
ATOM      1  C   UNL     1      59.322 -35.836  24.012  1.00  0.00     0.065 A 
ATOM      2  C   UNL     1      58.477 -35.146  23.132  1.00  0.00     0.208 A 
ATOM      3  O   UNL     1      57.175 -35.049  23.373  1.00  0.00    -0.463 OA
ATOM      4  C   UNL     1      56.586 -35.583  24.442  1.00  0.00     0.147 A 
ATOM      5  C   UNL     1      57.367 -36.294  25.382  1.00  0.00     0.066 A 
ATOM      6  C   UNL     1      58.752 -36.412  25.160  1.00  0.00     0.200 A 
ATOM      7  O   UNL     1      59.481 -37.013  25.997  1.00  0.00    -0.288 OA
ATOM      8  C   UNL     1      56.753 -36.852  26.509  1.00  0.00     0.020 A 
ATOM      9  C   UNL     1      55.385 -36.709  26.700  1.00  0.00     0.047 A 
ATOM     10  C   UNL     1      54.594 -36.008  25.779  1.00  0.00     0.125 A 
ATOM     11  C   UNL     1      55.186 -35.427  24.624  1.00  0.00     0.069 A 
ENDROOT
BRANCH   1  12
ATOM     12  C   UNL     1      60.773 -35.936  23.718  1.00  0.00    -0.011 A 
ATOM     13  C   UNL     1      61.650 -34.915  24.121  1.00  0.00     0.013 A 
ATOM     14  C   UNL     1      63.017 -35.002  23.840  1.00  0.00     0.047 A 
ATOM     15  C   UNL     1      63.523 -36.105  23.147  1.00  0.00     0.115 A 
ATOM     16  C   UNL     1      61.288 -37.040  23.016  1.00  0.00     0.013 A 
ATOM     17  C   UNL     1      62.656 -37.125  22.734  1.00  0.00     0.047 A 
BRANCH  15  18
ATOM     18  O   UNL     1      64.887 -36.179  22.872  1.00  0.00    -0.508 OA
ATOM     19  H   UNL     1      65.407 -37.040  23.000  1.00  0.00     0.293 HD
ENDBRANCH  15  18
ENDBRANCH   1  12
BRANCH  11  20
ATOM     20  C   UNL     1      54.445 -34.601  23.550  1.00  0.00     0.188 C 
ATOM     21  C   UNL     1      52.892 -34.641  23.389  1.00  0.00     0.179 C 
ATOM     22  O   UNL     1      54.919 -33.263  23.539  1.00  0.00    -0.362 OA
ATOM     23  C   UNL     1      52.161 -33.679  24.351  1.00  0.00     0.177 C 
ATOM     24  C   UNL     1      54.358 -32.508  24.600  1.00  0.00     0.176 C 
ATOM     25  C   UNL     1      52.852 -32.302  24.357  1.00  0.00     0.177 C 
BRANCH  21  26
ATOM     26  O   UNL     1      52.380 -35.944  23.491  1.00  0.00    -0.387 OA
ATOM     27  H   UNL     1      51.612 -35.902  24.118  1.00  0.00     0.211 HD
ENDBRANCH  21  26
BRANCH  23  28
ATOM     28  O   UNL     1      50.819 -33.554  23.951  1.00  0.00    -0.387 OA
ATOM     29  H   UNL     1      50.759 -32.732  23.397  1.00  0.00     0.211 HD
ENDBRANCH  23  28
BRANCH  24  30
ATOM     30  C   UNL     1      55.093 -31.164  24.697  1.00  0.00     0.191 C 
BRANCH  30  31
ATOM     31  O   UNL     1      55.995 -31.023  23.632  1.00  0.00    -0.394 OA
ATOM     32  H   UNL     1      55.587 -31.480  22.851  1.00  0.00     0.210 HD
ENDBRANCH  30  31
ENDBRANCH  24  30
BRANCH  25  33
ATOM     33  O   UNL     1      52.652 -31.647  23.129  1.00  0.00    -0.388 OA
ATOM     34  H   UNL     1      53.248 -32.085  22.466  1.00  0.00     0.211 HD
ENDBRANCH  25  33
ENDBRANCH  11  20
BRANCH  10  35
ATOM     35  O   UNL     1      53.233 -35.911  26.039  1.00  0.00    -0.507 OA
ATOM     36  H   UNL     1      52.871 -35.741  26.970  1.00  0.00     0.293 HD
ENDBRANCH  10  35
TORSDOF 9
ENDMDL
MODEL 5
REMARK VINA RESULT:    -3.757      2.414      8.825
REMARK INTER + INTRA:          -5.560
REMARK INTER:                  -5.628
REMARK INTRA:                   0.068
REMARK UNBOUND:                -0.485
REMARK SMILES O=c1c(-c2ccc(O)cc2)coc2c([C@@H]3O[C@@H](CO)[C@@H](O)[C@@H](O)[C@@H]3O)c(O)ccc12
REMARK SMILES IDX 3 1 11 2 12 3 13 4 30 5 2 6 1 7 29 8 28 9 26 10 14 11 4 12
REMARK SMILES IDX 5 13 6 14 7 15 10 16 9 17 8 18 15 20 24 21 16 22 22 23 17 24
REMARK SMILES IDX 20 25 25 26 23 28 18 30 19 31 21 33 27 35
REMARK H PARENT 8 19 25 27 23 29 19 32 21 34 27 36
REMARK Flexibility Score: inf
ROOT
ATOM      1  C   UNL     1      52.358 -27.876  24.910  1.00  0.00     0.065 A 
ATOM      2  C   UNL     1      52.452 -28.715  23.791  1.00  0.00     0.208 A 
ATOM      3  O   UNL     1      52.869 -29.970  23.914  1.00  0.00    -0.463 OA
ATOM      4  C   UNL     1      53.219 -30.515  25.078  1.00  0.00     0.147 A 
ATOM      5  C   UNL     1      53.150 -29.737  26.257  1.00  0.00     0.066 A 
ATOM      6  C   UNL     1      52.708 -28.405  26.164  1.00  0.00     0.200 A 
ATOM      7  O   UNL     1      52.606 -27.694  27.202  1.00  0.00    -0.288 OA
ATOM      8  C   UNL     1      53.512 -30.308  27.482  1.00  0.00     0.020 A 
ATOM      9  C   UNL     1      53.938 -31.629  27.538  1.00  0.00     0.047 A 
ATOM     10  C   UNL     1      54.011 -32.416  26.380  1.00  0.00     0.125 A 
ATOM     11  C   UNL     1      53.649 -31.868  25.119  1.00  0.00     0.069 A 
ENDROOT
BRANCH   1  12
ATOM     12  C   UNL     1      51.895 -26.476  24.747  1.00  0.00    -0.011 A 
ATOM     13  C   UNL     1      52.826 -25.434  24.591  1.00  0.00     0.013 A 
ATOM     14  C   UNL     1      52.393 -24.112  24.445  1.00  0.00     0.047 A 
ATOM     15  C   UNL     1      51.028 -23.814  24.460  1.00  0.00     0.115 A 
ATOM     16  C   UNL     1      50.523 -26.167  24.766  1.00  0.00     0.013 A 
ATOM     17  C   UNL     1      50.092 -24.844  24.621  1.00  0.00     0.047 A 
BRANCH  15  18
ATOM     18  O   UNL     1      50.610 -22.493  24.314  1.00  0.00    -0.508 OA
ATOM     19  H   UNL     1      49.649 -22.263  24.088  1.00  0.00     0.293 HD
ENDBRANCH  15  18
ENDBRANCH   1  12
BRANCH  11  20
ATOM     20  C   UNL     1      53.649 -32.626  23.774  1.00  0.00     0.188 C 
ATOM     21  C   UNL     1      54.967 -33.087  23.074  1.00  0.00     0.179 C 
ATOM     22  O   UNL     1      52.696 -33.679  23.799  1.00  0.00    -0.362 OA
ATOM     23  C   UNL     1      55.495 -34.437  23.609  1.00  0.00     0.177 C 
ATOM     24  C   UNL     1      53.188 -34.803  24.508  1.00  0.00     0.176 C 
ATOM     25  C   UNL     1      54.343 -35.453  23.724  1.00  0.00     0.177 C 
BRANCH  21  26
ATOM     26  O   UNL     1      55.965 -32.101  23.116  1.00  0.00    -0.387 OA
ATOM     27  H   UNL     1      56.818 -32.565  23.322  1.00  0.00     0.211 HD
ENDBRANCH  21  26
BRANCH  23  28
ATOM     28  O   UNL     1      56.494 -34.920  22.746  1.00  0.00    -0.387 OA
ATOM     29  H   UNL     1      56.328 -34.512  21.857  1.00  0.00     0.211 HD
ENDBRANCH  23  28
BRANCH  24  30
ATOM     30  C   UNL     1      52.038 -35.796  24.725  1.00  0.00     0.191 C 
BRANCH  30  31
ATOM     31  O   UNL     1      51.288 -35.939  23.549  1.00  0.00    -0.394 OA
ATOM     32  H   UNL     1      50.366 -36.179  23.827  1.00  0.00     0.210 HD
ENDBRANCH  30  31
ENDBRANCH  24  30
BRANCH  25  33
ATOM     33  O   UNL     1      53.897 -35.835  22.445  1.00  0.00    -0.388 OA
ATOM     34  H   UNL     1      54.613 -36.393  22.044  1.00  0.00     0.211 HD
ENDBRANCH  25  33
ENDBRANCH  11  20
BRANCH  10  35
ATOM     35  O   UNL     1      54.449 -33.727  26.517  1.00  0.00    -0.507 OA
ATOM     36  H   UNL     1      54.069 -34.484  25.960  1.00  0.00     0.293 HD
ENDBRANCH  10  35
TORSDOF 9
ENDMDL
MODEL 6
REMARK VINA RESULT:    -3.682      2.265      8.724
REMARK INTER + INTRA:          -5.458
REMARK INTER:                  -4.971
REMARK INTRA:                  -0.487
REMARK UNBOUND:                -0.485
REMARK SMILES O=c1c(-c2ccc(O)cc2)coc2c([C@@H]3O[C@@H](CO)[C@@H](O)[C@@H](O)[C@@H]3O)c(O)ccc12
REMARK SMILES IDX 3 1 11 2 12 3 13 4 30 5 2 6 1 7 29 8 28 9 26 10 14 11 4 12
REMARK SMILES IDX 5 13 6 14 7 15 10 16 9 17 8 18 15 20 24 21 16 22 22 23 17 24
REMARK SMILES IDX 20 25 25 26 23 28 18 30 19 31 21 33 27 35
REMARK H PARENT 8 19 25 27 23 29 19 32 21 34 27 36
REMARK Flexibility Score: inf
ROOT
ATOM      1  C   UNL     1      51.999 -27.953  25.184  1.00  0.00     0.065 A 
ATOM      2  C   UNL     1      52.584 -29.018  25.881  1.00  0.00     0.208 A 
ATOM      3  O   UNL     1      52.341 -30.276  25.533  1.00  0.00    -0.463 OA
ATOM      4  C   UNL     1      51.545 -30.615  24.519  1.00  0.00     0.147 A 
ATOM      5  C   UNL     1      50.917 -29.599  23.761  1.00  0.00     0.066 A 
ATOM      6  C   UNL     1      51.156 -28.255  24.100  1.00  0.00     0.200 A 
ATOM      7  O   UNL     1      50.636 -27.326  23.423  1.00  0.00    -0.288 OA
ATOM      8  C   UNL     1      50.084 -29.951  22.693  1.00  0.00     0.020 A 
ATOM      9  C   UNL     1      49.875 -31.288  22.382  1.00  0.00     0.047 A 
ATOM     10  C   UNL     1      50.490 -32.309  23.122  1.00  0.00     0.125 A 
ATOM     11  C   UNL     1      51.343 -31.987  24.213  1.00  0.00     0.069 A 
ENDROOT
BRANCH   1  12
ATOM     12  C   UNL     1      52.282 -26.555  25.595  1.00  0.00    -0.011 A 
ATOM     13  C   UNL     1      53.405 -25.879  25.087  1.00  0.00     0.013 A 
ATOM     14  C   UNL     1      53.679 -24.565  25.478  1.00  0.00     0.047 A 
ATOM     15  C   UNL     1      52.839 -23.913  26.386  1.00  0.00     0.115 A 
ATOM     16  C   UNL     1      51.445 -25.894  26.513  1.00  0.00     0.013 A 
ATOM     17  C   UNL     1      51.722 -24.580  26.904  1.00  0.00     0.047 A 
BRANCH  15  18
ATOM     18  O   UNL     1      53.124 -22.603  26.768  1.00  0.00    -0.508 OA
ATOM     19  H   UNL     1      52.659 -21.813  26.336  1.00  0.00     0.293 HD
ENDBRANCH  15  18
ENDBRANCH   1  12
BRANCH  11  20
ATOM     20  C   UNL     1      52.109 -33.002  25.088  1.00  0.00     0.188 C 
ATOM     21  C   UNL     1      51.595 -34.458  25.324  1.00  0.00     0.179 C 
ATOM     22  O   UNL     1      53.489 -33.002  24.754  1.00  0.00    -0.362 OA
ATOM     23  C   UNL     1      51.996 -35.430  24.192  1.00  0.00     0.177 C 
ATOM     24  C   UNL     1      53.733 -33.740  23.569  1.00  0.00     0.176 C 
ATOM     25  C   UNL     1      53.478 -35.237  23.822  1.00  0.00     0.177 C 
BRANCH  21  26
ATOM     26  O   UNL     1      50.212 -34.502  25.562  1.00  0.00    -0.387 OA
ATOM     27  H   UNL     1      49.829 -33.667  25.188  1.00  0.00     0.211 HD
ENDBRANCH  21  26
BRANCH  23  28
ATOM     28  O   UNL     1      51.760 -36.751  24.609  1.00  0.00    -0.387 OA
ATOM     29  H   UNL     1      50.837 -36.777  24.974  1.00  0.00     0.211 HD
ENDBRANCH  23  28
BRANCH  24  30
ATOM     30  C   UNL     1      55.179 -33.493  23.118  1.00  0.00     0.191 C 
BRANCH  30  31
ATOM     31  O   UNL     1      55.686 -34.624  22.462  1.00  0.00    -0.394 OA
ATOM     32  H   UNL     1      56.675 -34.530  22.457  1.00  0.00     0.210 HD
ENDBRANCH  30  31
ENDBRANCH  24  30
BRANCH  25  33
ATOM     33  O   UNL     1      54.307 -35.693  24.864  1.00  0.00    -0.388 OA
ATOM     34  H   UNL     1      54.362 -36.681  24.779  1.00  0.00     0.211 HD
ENDBRANCH  25  33
ENDBRANCH  11  20
BRANCH  10  35
ATOM     35  O   UNL     1      50.229 -33.622  22.751  1.00  0.00    -0.507 OA
ATOM     36  H   UNL     1      49.985 -34.336  23.429  1.00  0.00     0.293 HD
ENDBRANCH  10  35
TORSDOF 9
ENDMDL
MODEL 7
REMARK VINA RESULT:    -3.627      2.993      8.847
REMARK INTER + INTRA:          -5.384
REMARK INTER:                  -4.891
REMARK INTRA:                  -0.493
REMARK UNBOUND:                -0.485
REMARK SMILES O=c1c(-c2ccc(O)cc2)coc2c([C@@H]3O[C@@H](CO)[C@@H](O)[C@@H](O)[C@@H]3O)c(O)ccc12
REMARK SMILES IDX 3 1 11 2 12 3 13 4 30 5 2 6 1 7 29 8 28 9 26 10 14 11 4 12
REMARK SMILES IDX 5 13 6 14 7 15 10 16 9 17 8 18 15 20 24 21 16 22 22 23 17 24
REMARK SMILES IDX 20 25 25 26 23 28 18 30 19 31 21 33 27 35
REMARK H PARENT 8 19 25 27 23 29 19 32 21 34 27 36
REMARK Flexibility Score: inf
ROOT
ATOM      1  C   UNL     1      53.584 -26.411  24.245  1.00  0.00     0.065 A 
ATOM      2  C   UNL     1      52.849 -27.592  24.074  1.00  0.00     0.208 A 
ATOM      3  O   UNL     1      53.414 -28.779  24.255  1.00  0.00    -0.463 OA
ATOM      4  C   UNL     1      54.690 -28.937  24.606  1.00  0.00     0.147 A 
ATOM      5  C   UNL     1      55.502 -27.796  24.801  1.00  0.00     0.066 A 
ATOM      6  C   UNL     1      54.934 -26.522  24.623  1.00  0.00     0.200 A 
ATOM      7  O   UNL     1      55.623 -25.483  24.821  1.00  0.00    -0.288 OA
ATOM      8  C   UNL     1      56.841 -27.958  25.175  1.00  0.00     0.020 A 
ATOM      9  C   UNL     1      57.367 -29.231  25.349  1.00  0.00     0.047 A 
ATOM     10  C   UNL     1      56.578 -30.374  25.160  1.00  0.00     0.125 A 
ATOM     11  C   UNL     1      55.213 -30.246  24.782  1.00  0.00     0.069 A 
ENDROOT
BRANCH   1  12
ATOM     12  C   UNL     1      52.932 -25.096  24.032  1.00  0.00    -0.011 A 
ATOM     13  C   UNL     1      52.299 -24.436  25.100  1.00  0.00     0.013 A 
ATOM     14  C   UNL     1      51.676 -23.200  24.901  1.00  0.00     0.047 A 
ATOM     15  C   UNL     1      51.671 -22.611  23.634  1.00  0.00     0.115 A 
ATOM     16  C   UNL     1      52.917 -24.500  22.758  1.00  0.00     0.013 A 
ATOM     17  C   UNL     1      52.293 -23.264  22.561  1.00  0.00     0.047 A 
BRANCH  15  18
ATOM     18  O   UNL     1      51.047 -21.379  23.449  1.00  0.00    -0.508 OA
ATOM     19  H   UNL     1      51.517 -20.509  23.671  1.00  0.00     0.293 HD
ENDBRANCH  15  18
ENDBRANCH   1  12
BRANCH  11  20
ATOM     20  C   UNL     1      54.222 -31.412  24.574  1.00  0.00     0.188 C 
ATOM     21  C   UNL     1      54.645 -32.760  23.909  1.00  0.00     0.179 C 
ATOM     22  O   UNL     1      53.477 -31.646  25.760  1.00  0.00    -0.362 OA
ATOM     23  C   UNL     1      55.292 -33.748  24.905  1.00  0.00     0.177 C 
ATOM     24  C   UNL     1      54.236 -32.374  26.711  1.00  0.00     0.176 C 
ATOM     25  C   UNL     1      54.470 -33.810  26.206  1.00  0.00     0.177 C 
BRANCH  21  26
ATOM     26  O   UNL     1      55.464 -32.565  22.785  1.00  0.00    -0.387 OA
ATOM     27  H   UNL     1      56.336 -32.995  22.988  1.00  0.00     0.211 HD
ENDBRANCH  21  26
BRANCH  23  28
ATOM     28  O   UNL     1      55.372 -35.019  24.312  1.00  0.00    -0.387 OA
ATOM     29  H   UNL     1      56.323 -35.300  24.361  1.00  0.00     0.211 HD
ENDBRANCH  23  28
BRANCH  24  30
ATOM     30  C   UNL     1      53.488 -32.373  28.051  1.00  0.00     0.191 C 
BRANCH  30  31
ATOM     31  O   UNL     1      52.104 -32.434  27.837  1.00  0.00    -0.394 OA
ATOM     32  H   UNL     1      51.723 -32.960  28.588  1.00  0.00     0.210 HD
ENDBRANCH  30  31
ENDBRANCH  24  30
BRANCH  25  33
ATOM     33  O   UNL     1      53.235 -34.442  25.976  1.00  0.00    -0.388 OA
ATOM     34  H   UNL     1      52.939 -34.824  26.843  1.00  0.00     0.211 HD
ENDBRANCH  25  33
ENDBRANCH  11  20
BRANCH  10  35
ATOM     35  O   UNL     1      57.178 -31.613  25.351  1.00  0.00    -0.507 OA
ATOM     36  H   UNL     1      56.690 -32.482  25.167  1.00  0.00     0.293 HD
ENDBRANCH  10  35
TORSDOF 9
ENDMDL
MODEL 8
REMARK VINA RESULT:    -3.590      1.623      2.387
REMARK INTER + INTRA:          -5.334
REMARK INTER:                  -4.821
REMARK INTRA:                  -0.514
REMARK UNBOUND:                -0.485
REMARK SMILES O=c1c(-c2ccc(O)cc2)coc2c([C@@H]3O[C@@H](CO)[C@@H](O)[C@@H](O)[C@@H]3O)c(O)ccc12
REMARK SMILES IDX 3 1 11 2 12 3 13 4 30 5 2 6 1 7 29 8 28 9 26 10 14 11 4 12
REMARK SMILES IDX 5 13 6 14 7 15 10 16 9 17 8 18 15 20 24 21 16 22 22 23 17 24
REMARK SMILES IDX 20 25 25 26 23 28 18 30 19 31 21 33 27 35
REMARK H PARENT 8 19 25 27 23 29 19 32 21 34 27 36
REMARK Flexibility Score: inf
ROOT
ATOM      1  C   UNL     1      51.876 -28.408  24.168  1.00  0.00     0.065 A 
ATOM      2  C   UNL     1      52.916 -27.750  23.496  1.00  0.00     0.208 A 
ATOM      3  O   UNL     1      52.920 -26.427  23.377  1.00  0.00    -0.463 OA
ATOM      4  C   UNL     1      51.964 -25.643  23.874  1.00  0.00     0.147 A 
ATOM      5  C   UNL     1      50.879 -26.228  24.569  1.00  0.00     0.066 A 
ATOM      6  C   UNL     1      50.846 -27.626  24.719  1.00  0.00     0.200 A 
ATOM      7  O   UNL     1      49.908 -28.176  25.361  1.00  0.00    -0.288 OA
ATOM      8  C   UNL     1      49.876 -25.408  25.097  1.00  0.00     0.020 A 
ATOM      9  C   UNL     1      49.944 -24.030  24.936  1.00  0.00     0.047 A 
ATOM     10  C   UNL     1      51.012 -23.433  24.251  1.00  0.00     0.125 A 
ATOM     11  C   UNL     1      52.049 -24.236  23.704  1.00  0.00     0.069 A 
ENDROOT
BRANCH   1  12
ATOM     12  C   UNL     1      51.891 -29.887  24.284  1.00  0.00    -0.011 A 
ATOM     13  C   UNL     1      52.422 -30.504  25.430  1.00  0.00     0.013 A 
ATOM     14  C   UNL     1      52.444 -31.898  25.540  1.00  0.00     0.047 A 
ATOM     15  C   UNL     1      51.944 -32.692  24.504  1.00  0.00     0.115 A 
ATOM     16  C   UNL     1      51.395 -30.693  23.244  1.00  0.00     0.013 A 
ATOM     17  C   UNL     1      51.419 -32.087  23.355  1.00  0.00     0.047 A 
BRANCH  15  18
ATOM     18  O   UNL     1      51.972 -34.080  24.626  1.00  0.00    -0.508 OA
ATOM     19  H   UNL     1      52.847 -34.588  24.685  1.00  0.00     0.293 HD
ENDBRANCH  15  18
ENDBRANCH   1  12
BRANCH  11  20
ATOM     20  C   UNL     1      53.296 -23.713  22.958  1.00  0.00     0.188 C 
ATOM     21  C   UNL     1      53.257 -22.439  22.056  1.00  0.00     0.179 C 
ATOM     22  O   UNL     1      54.417 -23.680  23.830  1.00  0.00    -0.362 OA
ATOM     23  C   UNL     1      53.428 -21.128  22.855  1.00  0.00     0.177 C 
ATOM     24  C   UNL     1      54.372 -22.550  24.685  1.00  0.00     0.176 C 
ATOM     25  C   UNL     1      54.583 -21.264  23.865  1.00  0.00     0.177 C 
BRANCH  21  26
ATOM     26  O   UNL     1      52.110 -22.393  21.248  1.00  0.00    -0.387 OA
ATOM     27  H   UNL     1      51.471 -23.056  21.620  1.00  0.00     0.211 HD
ENDBRANCH  21  26
BRANCH  23  28
ATOM     28  O   UNL     1      53.676 -20.070  21.964  1.00  0.00    -0.387 OA
ATOM     29  H   UNL     1      52.909 -20.038  21.334  1.00  0.00     0.211 HD
ENDBRANCH  23  28
BRANCH  24  30
ATOM     30  C   UNL     1      55.451 -22.701  25.766  1.00  0.00     0.191 C 
BRANCH  30  31
ATOM     31  O   UNL     1      56.571 -23.368  25.247  1.00  0.00    -0.394 OA
ATOM     32  H   UNL     1      57.367 -22.979  25.696  1.00  0.00     0.210 HD
ENDBRANCH  30  31
ENDBRANCH  24  30
BRANCH  25  33
ATOM     33  O   UNL     1      55.818 -21.324  23.193  1.00  0.00    -0.388 OA
ATOM     34  H   UNL     1      55.625 -21.223  22.224  1.00  0.00     0.211 HD
ENDBRANCH  25  33
ENDBRANCH  11  20
BRANCH  10  35
ATOM     35  O   UNL     1      51.008 -22.049  24.130  1.00  0.00    -0.507 OA
ATOM     36  H   UNL     1      50.350 -21.561  23.533  1.00  0.00     0.293 HD
ENDBRANCH  10  35
TORSDOF 9
ENDMDL
